REMARK SMILES N#C/C(=C\c1ccc(Oc2ccccc2)cc1Cl)C(=O)NCCCNC(=O)c1ccc(-c2c3nc(c(-c4c(F)cccc4F)c4ccc([nH]4)c(-c4c(F)cccc4F)c4nc(c(-c5c(F)cccc5F)c5ccc2[nH]5)C=C4)C=C3)cc1
REMARK SMILES IDX 22 1 21 2 19 3 20 4 3 6 4 7 2 8 1 9 5 10 6 11 17 12 7 13
REMARK SMILES IDX 16 14 18 15 8 16 9 17 10 18 11 19 15 20 12 21 14 22 13 23
REMARK SMILES IDX 23 24 24 25 25 26 26 27 27 29 28 30 29 31 81 32 30 33 80 34
REMARK SMILES IDX 31 35 32 36 33 37 74 38 34 39 79 40 73 41 75 42 35 43 78 44
REMARK SMILES IDX 72 45 71 46 36 48 62 49 45 50 61 51 46 52 49 53 60 54 76 55
REMARK SMILES IDX 47 56 48 57 59 59 77 60 50 61 37 62 38 63 43 64 39 65 40 66
REMARK SMILES IDX 42 67 44 68 41 69 63 70 64 71 69 72 65 73 66 74 68 75 70 76
REMARK SMILES IDX 67 77 51 78 52 79 57 80 53 81 54 82 56 83 58 84 55 85
REMARK H PARENT 21 5 25 28 75 47 49 58
REMARK Flexibility Score: inf
ROOT
ATOM      1  C   UNL     1       6.810  -0.223  -0.720  1.00  0.00     0.118 C 
ENDROOT
BRANCH   1   2
ATOM      2  N   UNL     1       5.769  -1.234  -0.689  1.00  0.00    -0.351 N 
ATOM      3  C   UNL     1       4.442  -1.186  -0.383  1.00  0.00     0.261 C 
ATOM      4  O   UNL     1       3.797  -2.224  -0.529  1.00  0.00    -0.268 OA
ATOM      5  H   UNL     1       6.085  -2.134  -0.937  1.00  0.00     0.163 HD
BRANCH   3   6
ATOM      6  C   UNL     1       3.760   0.052   0.083  1.00  0.00     0.117 C 
ATOM      7  C   UNL     1       4.339   1.099   0.717  1.00  0.00     0.035 C 
BRANCH   6   8
ATOM      8  C   UNL     1       2.240   0.052   0.083  1.00  0.00     0.105 C 
ATOM      9  N   UNL     1       0.980   0.052   0.083  1.00  0.00    -0.192 NA
ENDBRANCH   6   8
BRANCH   7  10
ATOM     10  C   UNL     1       3.607   2.298   1.190  1.00  0.00    -0.005 A 
ATOM     11  C   UNL     1       3.810   3.494   0.489  1.00  0.00     0.013 A 
ATOM     12  C   UNL     1       2.692   2.293   2.257  1.00  0.00     0.052 A 
ATOM     13  C   UNL     1       3.085   4.644   0.822  1.00  0.00     0.048 A 
ATOM     14  C   UNL     1       1.923   3.427   2.544  1.00  0.00     0.068 A 
ATOM     15  Cl  UNL     1       2.491   0.912   3.283  1.00  0.00    -0.084 Cl
ATOM     16  C   UNL     1       2.123   4.612   1.835  1.00  0.00     0.128 A 
BRANCH  16  17
ATOM     17  O   UNL     1       1.461   5.806   2.044  1.00  0.00    -0.457 OA
BRANCH  17  18
ATOM     18  C   UNL     1       0.358   5.817   2.861  1.00  0.00     0.127 A 
ATOM     19  C   UNL     1      -0.889   6.048   2.280  1.00  0.00     0.047 A 
ATOM     20  C   UNL     1       0.478   5.685   4.246  1.00  0.00     0.047 A 
ATOM     21  C   UNL     1      -2.031   6.073   3.081  1.00  0.00     0.004 A 
ATOM     22  C   UNL     1      -0.668   5.683   5.041  1.00  0.00     0.004 A 
ATOM     23  C   UNL     1      -1.921   5.872   4.458  1.00  0.00     0.000 A 
ENDBRANCH  17  18
ENDBRANCH  16  17
ENDBRANCH   7  10
ENDBRANCH   3   6
ENDBRANCH   1   2
BRANCH   1  24
ATOM     24  C   UNL     1       7.628  -0.204   0.573  1.00  0.00     0.042 C 
BRANCH  24  25
ATOM     25  C   UNL     1       8.632  -1.348   0.684  1.00  0.00     0.118 C 
BRANCH  25  26
ATOM     26  N   UNL     1       9.696  -1.231  -0.300  1.00  0.00    -0.352 N 
ATOM     27  C   UNL     1      11.056  -1.179  -0.140  1.00  0.00     0.251 C 
ATOM     28  H   UNL     1       9.390  -1.180  -1.234  1.00  0.00     0.163 HD
ATOM     29  O   UNL     1      11.754  -0.848  -1.095  1.00  0.00    -0.269 OA
BRANCH  27  30
ATOM     30  C   UNL     1      11.696  -1.512   1.153  1.00  0.00     0.039 A 
ATOM     31  C   UNL     1      12.840  -0.798   1.528  1.00  0.00     0.014 A 
ATOM     32  C   UNL     1      11.242  -2.563   1.954  1.00  0.00     0.014 A 
ATOM     33  C   UNL     1      13.505  -1.115   2.715  1.00  0.00     0.010 A 
ATOM     34  C   UNL     1      11.867  -2.837   3.171  1.00  0.00     0.010 A 
ATOM     35  C   UNL     1      13.013  -2.126   3.555  1.00  0.00    -0.014 A 
BRANCH  35  36
ATOM     36  C   UNL     1      13.703  -2.458   4.827  1.00  0.00     0.031 A 
ATOM     37  C   UNL     1      14.371  -3.794   5.002  1.00  0.00     0.074 A 
ATOM     38  C   UNL     1      13.700  -1.566   5.836  1.00  0.00     0.049 A 
ATOM     39  N   UNL     1      14.988  -4.279   6.050  1.00  0.00    -0.248 NA
ATOM     40  C   UNL     1      14.324  -4.715   3.855  1.00  0.00     0.031 C 
ATOM     41  C   UNL     1      13.055  -0.253   5.803  1.00  0.00     0.029 A 
ATOM     42  N   UNL     1      14.256  -1.632   7.088  1.00  0.00    -0.354 N 
ATOM     43  C   UNL     1      15.397  -5.558   5.691  1.00  0.00     0.074 A 
ATOM     44  C   UNL     1      14.912  -5.795   4.348  1.00  0.00     0.031 C 
ATOM     45  C   UNL     1      13.269   0.372   6.972  1.00  0.00     0.029 A 
ATOM     46  C   UNL     1      14.039  -0.506   7.846  1.00  0.00     0.049 A 
ATOM     47  H   UNL     1      14.762  -2.411   7.413  1.00  0.00     0.167 HD
ATOM     48  C   UNL     1      16.131  -6.445   6.404  1.00  0.00     0.037 A 
ATOM     49  C   UNL     1      14.418  -0.218   9.105  1.00  0.00     0.037 A 
ATOM     50  C   UNL     1      16.628  -6.203   7.734  1.00  0.00     0.049 A 
ATOM     51  C   UNL     1      15.230  -1.221   9.876  1.00  0.00     0.074 A 
ATOM     52  C   UNL     1      17.399  -7.030   8.532  1.00  0.00     0.029 A 
ATOM     53  N   UNL     1      16.405  -5.042   8.458  1.00  0.00    -0.354 N 
ATOM     54  N   UNL     1      15.645  -2.408   9.506  1.00  0.00    -0.248 NA
ATOM     55  C   UNL     1      15.634  -0.840  11.236  1.00  0.00     0.031 C 
ATOM     56  C   UNL     1      17.622  -6.378   9.751  1.00  0.00     0.029 A 
ATOM     57  C   UNL     1      17.020  -5.132   9.696  1.00  0.00     0.049 A 
ATOM     58  H   UNL     1      15.887  -4.268   8.140  1.00  0.00     0.167 HD
ATOM     59  C   UNL     1      16.381  -2.903  10.574  1.00  0.00     0.074 A 
ATOM     60  C   UNL     1      16.369  -1.881  11.600  1.00  0.00     0.031 C 
ATOM     61  C   UNL     1      17.008  -4.098  10.698  1.00  0.00     0.037 A 
BRANCH  48  62
ATOM     62  C   UNL     1      16.455  -7.756   5.751  1.00  0.00     0.057 A 
ATOM     63  C   UNL     1      17.379  -7.843   4.701  1.00  0.00     0.134 A 
ATOM     64  C   UNL     1      15.869  -8.948   6.195  1.00  0.00     0.134 A 
ATOM     65  F   UNL     1      17.966  -6.736   4.221  1.00  0.00    -0.206 F 
ATOM     66  C   UNL     1      17.692  -9.064   4.102  1.00  0.00     0.040 A 
ATOM     67  C   UNL     1      16.192 -10.179   5.620  1.00  0.00     0.040 A 
ATOM     68  F   UNL     1      14.980  -8.938   7.200  1.00  0.00    -0.206 F 
ATOM     69  C   UNL     1      17.103 -10.238   4.566  1.00  0.00     0.006 A 
ENDBRANCH  48  62
BRANCH  49  70
ATOM     70  C   UNL     1      14.058   1.087   9.712  1.00  0.00     0.057 A 
ATOM     71  C   UNL     1      15.032   2.062   9.957  1.00  0.00     0.134 A 
ATOM     72  C   UNL     1      12.741   1.384  10.080  1.00  0.00     0.134 A 
ATOM     73  F   UNL     1      16.314   1.829   9.642  1.00  0.00    -0.206 F 
ATOM     74  C   UNL     1      14.714   3.275  10.570  1.00  0.00     0.040 A 
ATOM     75  C   UNL     1      12.404   2.602  10.671  1.00  0.00     0.040 A 
ATOM     76  F   UNL     1      11.760   0.494   9.863  1.00  0.00    -0.206 F 
ATOM     77  C   UNL     1      13.395   3.549  10.926  1.00  0.00     0.006 A 
ENDBRANCH  49  70
BRANCH  61  78
ATOM     78  C   UNL     1      17.761  -4.343  11.971  1.00  0.00     0.057 A 
ATOM     79  C   UNL     1      17.104  -4.603  13.179  1.00  0.00     0.134 A 
ATOM     80  C   UNL     1      19.162  -4.338  11.981  1.00  0.00     0.134 A 
ATOM     81  F   UNL     1      15.764  -4.606  13.237  1.00  0.00    -0.206 F 
ATOM     82  C   UNL     1      17.813  -4.825  14.360  1.00  0.00     0.040 A 
ATOM     83  C   UNL     1      19.882  -4.583  13.150  1.00  0.00     0.040 A 
ATOM     84  F   UNL     1      19.851  -4.102  10.854  1.00  0.00    -0.206 F 
ATOM     85  C   UNL     1      19.207  -4.820  14.346  1.00  0.00     0.006 A 
ENDBRANCH  61  78
ENDBRANCH  35  36
ENDBRANCH  27  30
ENDBRANCH  25  26
ENDBRANCH  24  25
ENDBRANCH   1  24
TORSDOF 14
