REMARK SMILES C/C=C/c1cncc(-c2ccc([C@@H](C)C(=O)NCCCNC(=O)c3ccc(-c4c5nc(c(-c6c(F)cccc6F)c6ccc([nH]6)c(-c6c(F)cccc6F)c6nc(c(-c7c(F)cccc7F)c7ccc4[nH]7)C=C6)C=C5)cc3)cc2)c1
REMARK SMILES IDX 18 1 17 2 15 3 16 4 13 6 14 7 12 8 9 9 10 10 79 11 11 12
REMARK SMILES IDX 78 13 8 14 4 15 5 16 80 17 6 18 7 19 3 20 1 21 2 22 19 23
REMARK SMILES IDX 20 24 21 25 22 26 23 28 24 29 25 30 77 31 26 32 76 33 27 34
REMARK SMILES IDX 28 35 29 36 70 37 30 38 75 39 69 40 71 41 31 42 74 43 68 44
REMARK SMILES IDX 67 45 32 47 58 48 41 49 57 50 42 51 45 52 56 53 72 54 43 55
REMARK SMILES IDX 44 56 55 58 73 59 46 60 33 61 34 62 39 63 35 64 36 65 38 66
REMARK SMILES IDX 40 67 37 68 59 69 60 70 65 71 61 72 62 73 64 74 66 75 63 76
REMARK SMILES IDX 47 77 48 78 53 79 49 80 50 81 52 82 54 83 51 84
REMARK H PARENT 17 5 21 27 71 46 45 57
REMARK Flexibility Score: inf
ROOT
ATOM      1  C   UNL     1       1.407   3.767 -10.473  1.00  0.00     0.117 C 
ENDROOT
BRANCH   1   2
ATOM      2  N   UNL     1       2.783   3.463 -10.134  1.00  0.00    -0.356 N 
ATOM      3  C   UNL     1       3.445   2.283  -9.992  1.00  0.00     0.227 C 
ATOM      4  O   UNL     1       4.622   2.361  -9.617  1.00  0.00    -0.274 OA
ATOM      5  H   UNL     1       3.342   4.258  -9.979  1.00  0.00     0.163 HD
BRANCH   3   6
ATOM      6  C   UNL     1       2.819   0.907 -10.263  1.00  0.00     0.105 C 
ATOM      7  C   UNL     1       2.283   0.720 -11.682  1.00  0.00     0.023 C 
BRANCH   6   8
ATOM      8  C   UNL     1       1.916   0.430  -9.136  1.00  0.00    -0.036 A 
ATOM      9  C   UNL     1       0.332  -0.337  -6.882  1.00  0.00    -0.017 A 
ATOM     10  C   UNL     1      -0.228   0.327  -7.986  1.00  0.00     0.009 A 
ATOM     11  C   UNL     1       1.698  -0.646  -6.954  1.00  0.00     0.009 A 
ATOM     12  C   UNL     1       0.542   0.679  -9.102  1.00  0.00     0.005 A 
ATOM     13  C   UNL     1       2.479  -0.256  -8.050  1.00  0.00     0.005 A 
BRANCH   9  14
ATOM     14  C   UNL     1      -0.483  -0.674  -5.695  1.00  0.00     0.001 A 
ATOM     15  C   UNL     1      -0.763  -0.926  -3.278  1.00  0.00    -0.007 A 
ATOM     16  C   UNL     1      -2.084  -1.284  -3.526  1.00  0.00     0.119 A 
ATOM     17  C   UNL     1       0.036  -0.624  -4.389  1.00  0.00     0.020 A 
ATOM     18  N   UNL     1      -2.638  -1.351  -4.756  1.00  0.00    -0.263 NA
ATOM     19  C   UNL     1      -1.825  -1.051  -5.798  1.00  0.00     0.119 A 
BRANCH  15  20
ATOM     20  C   UNL     1      -0.248  -0.940  -1.905  1.00  0.00     0.005 C 
ATOM     21  C   UNL     1       1.080  -0.031   0.007  1.00  0.00     0.035 C 
ATOM     22  C   UNL     1       0.575  -0.009  -1.400  1.00  0.00    -0.030 C 
ENDBRANCH  15  20
ENDBRANCH   9  14
ENDBRANCH   6   8
ENDBRANCH   3   6
ENDBRANCH   1   2
BRANCH   1  23
ATOM     23  C   UNL     1       0.554   4.059  -9.240  1.00  0.00     0.042 C 
BRANCH  23  24
ATOM     24  C   UNL     1       0.723   5.469  -8.686  1.00  0.00     0.118 C 
BRANCH  24  25
ATOM     25  N   UNL     1       0.139   6.479  -9.557  1.00  0.00    -0.352 N 
ATOM     26  C   UNL     1      -0.894   7.359  -9.349  1.00  0.00     0.251 C 
ATOM     27  H   UNL     1       0.556   6.542 -10.446  1.00  0.00     0.163 HD
ATOM     28  O   UNL     1      -1.345   7.981 -10.309  1.00  0.00    -0.269 OA
BRANCH  26  29
ATOM     29  C   UNL     1      -1.483   7.570  -8.005  1.00  0.00     0.039 A 
ATOM     30  C   UNL     1      -2.857   7.821  -7.910  1.00  0.00     0.014 A 
ATOM     31  C   UNL     1      -0.698   7.600  -6.849  1.00  0.00     0.014 A 
ATOM     32  C   UNL     1      -3.446   8.053  -6.664  1.00  0.00     0.010 A 
ATOM     33  C   UNL     1      -1.297   7.755  -5.599  1.00  0.00     0.010 A 
ATOM     34  C   UNL     1      -2.674   7.996  -5.493  1.00  0.00    -0.014 A 
BRANCH  34  35
ATOM     35  C   UNL     1      -3.287   8.210  -4.156  1.00  0.00     0.031 A 
ATOM     36  C   UNL     1      -2.887   9.394  -3.317  1.00  0.00     0.074 A 
ATOM     37  C   UNL     1      -4.165   7.311  -3.672  1.00  0.00     0.049 A 
ATOM     38  N   UNL     1      -3.259   9.713  -2.103  1.00  0.00    -0.248 NA
ATOM     39  C   UNL     1      -1.919  10.329  -3.912  1.00  0.00     0.031 C 
ATOM     40  C   UNL     1      -4.602   6.097  -4.363  1.00  0.00     0.029 A 
ATOM     41  N   UNL     1      -4.840   7.275  -2.477  1.00  0.00    -0.354 N 
ATOM     42  C   UNL     1      -2.557  10.868  -1.782  1.00  0.00     0.074 A 
ATOM     43  C   UNL     1      -1.703  11.170  -2.910  1.00  0.00     0.031 C 
ATOM     44  C   UNL     1      -5.488   5.447  -3.591  1.00  0.00     0.029 A 
ATOM     45  C   UNL     1      -5.657   6.179  -2.340  1.00  0.00     0.049 A 
ATOM     46  H   UNL     1      -4.748   7.969  -1.785  1.00  0.00     0.167 HD
ATOM     47  C   UNL     1      -2.631  11.621  -0.658  1.00  0.00     0.037 A 
ATOM     48  C   UNL     1      -6.450   5.804  -1.318  1.00  0.00     0.037 A 
ATOM     49  C   UNL     1      -3.507  11.342   0.449  1.00  0.00     0.049 A 
ATOM     50  C   UNL     1      -6.532   6.668  -0.092  1.00  0.00     0.074 A 
ATOM     51  C   UNL     1      -3.699  12.080   1.605  1.00  0.00     0.029 A 
ATOM     52  N   UNL     1      -4.341  10.239   0.537  1.00  0.00    -0.354 N 
ATOM     53  N   UNL     1      -5.904   7.788   0.173  1.00  0.00    -0.248 NA
ATOM     54  C   UNL     1      -7.438   6.219   0.975  1.00  0.00     0.031 C 
ATOM     55  C   UNL     1      -4.627  11.406   2.406  1.00  0.00     0.029 A 
ATOM     56  C   UNL     1      -5.041  10.268   1.732  1.00  0.00     0.049 A 
ATOM     57  H   UNL     1      -4.425   9.537  -0.149  1.00  0.00     0.167 HD
ATOM     58  C   UNL     1      -6.356   8.190   1.423  1.00  0.00     0.074 A 
ATOM     59  C   UNL     1      -7.321   7.201   1.858  1.00  0.00     0.031 C 
ATOM     60  C   UNL     1      -6.002   9.280   2.147  1.00  0.00     0.037 A 
BRANCH  47  61
ATOM     61  C   UNL     1      -1.742  12.827  -0.576  1.00  0.00     0.057 A 
ATOM     62  C   UNL     1      -1.977  13.971  -1.351  1.00  0.00     0.134 A 
ATOM     63  C   UNL     1      -0.657  12.858   0.308  1.00  0.00     0.134 A 
ATOM     64  F   UNL     1      -2.993  14.001  -2.227  1.00  0.00    -0.206 F 
ATOM     65  C   UNL     1      -1.149  15.091  -1.268  1.00  0.00     0.040 A 
ATOM     66  C   UNL     1       0.164  13.982   0.418  1.00  0.00     0.040 A 
ATOM     67  F   UNL     1      -0.379  11.799   1.084  1.00  0.00    -0.206 F 
ATOM     68  C   UNL     1      -0.078  15.101  -0.377  1.00  0.00     0.006 A 
ENDBRANCH  47  61
BRANCH  48  69
ATOM     69  C   UNL     1      -7.257   4.564  -1.426  1.00  0.00     0.057 A 
ATOM     70  C   UNL     1      -8.646   4.622  -1.592  1.00  0.00     0.134 A 
ATOM     71  C   UNL     1      -6.665   3.297  -1.365  1.00  0.00     0.134 A 
ATOM     72  F   UNL     1      -9.271   5.807  -1.637  1.00  0.00    -0.206 F 
ATOM     73  C   UNL     1      -9.420   3.464  -1.680  1.00  0.00     0.040 A 
ATOM     74  C   UNL     1      -7.424   2.131  -1.475  1.00  0.00     0.040 A 
ATOM     75  F   UNL     1      -5.338   3.177  -1.211  1.00  0.00    -0.206 F 
ATOM     76  C   UNL     1      -8.807   2.213  -1.627  1.00  0.00     0.006 A 
ENDBRANCH  48  69
BRANCH  60  77
ATOM     77  C   UNL     1      -6.685   9.474   3.467  1.00  0.00     0.057 A 
ATOM     78  C   UNL     1      -6.370   8.688   4.583  1.00  0.00     0.134 A 
ATOM     79  C   UNL     1      -7.647  10.479   3.631  1.00  0.00     0.134 A 
ATOM     80  F   UNL     1      -5.467   7.701   4.486  1.00  0.00    -0.206 F 
ATOM     81  C   UNL     1      -7.005   8.881   5.811  1.00  0.00     0.040 A 
ATOM     82  C   UNL     1      -8.271  10.696   4.860  1.00  0.00     0.040 A 
ATOM     83  F   UNL     1      -7.988  11.270   2.603  1.00  0.00    -0.206 F 
ATOM     84  C   UNL     1      -7.954   9.892   5.953  1.00  0.00     0.006 A 
ENDBRANCH  60  77
ENDBRANCH  34  35
ENDBRANCH  26  29
ENDBRANCH  24  25
ENDBRANCH  23  24
ENDBRANCH   1  23
TORSDOF 13
