REMARK SMILES O=C(NCCCNC(=O)c1cnc2c(ccn2C2CCCCC2)c1)c1ccc(-c2c3nc(c(-c4c(F)cccc4F)c4ccc([nH]4)c(-c4c(F)cccc4F)c4nc(c(-c5c(F)cccc5F)c5ccc2[nH]5)C=C4)C=C3)cc1
REMARK SMILES IDX 4 1 3 2 1 3 2 4 25 6 26 7 78 8 27 9 77 10 28 11 29 12 30 13
REMARK SMILES IDX 71 14 31 15 76 16 70 17 72 18 32 19 75 20 69 21 68 22 33 24
REMARK SMILES IDX 59 25 42 26 58 27 43 28 46 29 57 30 73 31 44 32 45 33 56 35
REMARK SMILES IDX 74 36 47 37 34 38 35 39 40 40 36 41 37 42 39 43 41 44 38 45
REMARK SMILES IDX 60 46 61 47 66 48 62 49 63 50 65 51 67 52 64 53 48 54 49 55
REMARK SMILES IDX 54 56 50 57 51 58 53 59 55 60 52 61 5 62 6 63 7 64 8 65 9 67
REMARK SMILES IDX 10 68 11 69 24 70 12 71 14 72 13 73 15 74 17 75 16 76 18 77
REMARK SMILES IDX 19 78 23 79 20 80 22 81 21 82
REMARK H PARENT 3 5 72 23 46 34 7 66
REMARK Flexibility Score: inf
ROOT
ATOM      1  C   UNL     1       4.711  -0.758  -1.002  1.00  0.00     0.118 C 
ENDROOT
BRANCH   1   2
ATOM      2  N   UNL     1       3.311  -0.375  -1.063  1.00  0.00    -0.352 N 
ATOM      3  O   UNL     1       1.311   0.455  -0.546  1.00  0.00    -0.269 OA
ATOM      4  C   UNL     1       2.407   0.070  -0.135  1.00  0.00     0.251 C 
ATOM      5  H   UNL     1       2.930  -0.452  -1.967  1.00  0.00     0.163 HD
BRANCH   4   6
ATOM      6  C   UNL     1       2.638   0.011   1.327  1.00  0.00     0.039 A 
ATOM      7  C   UNL     1       3.888   0.107   1.938  1.00  0.00     0.014 A 
ATOM      8  C   UNL     1       1.495  -0.167   2.127  1.00  0.00     0.014 A 
ATOM      9  C   UNL     1       4.010  -0.113   3.303  1.00  0.00     0.010 A 
ATOM     10  C   UNL     1       1.608  -0.355   3.498  1.00  0.00     0.010 A 
ATOM     11  C   UNL     1       2.873  -0.374   4.075  1.00  0.00    -0.014 A 
BRANCH  11  12
ATOM     12  C   UNL     1       3.050  -0.489   5.518  1.00  0.00     0.031 A 
ATOM     13  C   UNL     1       3.504   0.769   6.177  1.00  0.00     0.074 A 
ATOM     14  C   UNL     1       2.731  -1.585   6.232  1.00  0.00     0.049 A 
ATOM     15  N   UNL     1       4.617   0.990   6.798  1.00  0.00    -0.248 NA
ATOM     16  C   UNL     1       2.663   1.964   6.015  1.00  0.00     0.031 C 
ATOM     17  C   UNL     1       2.013  -2.781   5.787  1.00  0.00     0.029 A 
ATOM     18  N   UNL     1       2.923  -1.819   7.561  1.00  0.00    -0.354 N 
ATOM     19  C   UNL     1       4.544   2.303   7.265  1.00  0.00     0.074 A 
ATOM     20  C   UNL     1       3.397   2.892   6.629  1.00  0.00     0.031 C 
ATOM     21  C   UNL     1       1.648  -3.509   6.868  1.00  0.00     0.029 A 
ATOM     22  C   UNL     1       2.219  -2.905   8.061  1.00  0.00     0.049 A 
ATOM     23  H   UNL     1       3.513  -1.263   8.120  1.00  0.00     0.167 HD
ATOM     24  C   UNL     1       5.307   2.726   8.311  1.00  0.00     0.037 A 
ATOM     25  C   UNL     1       2.075  -3.247   9.367  1.00  0.00     0.037 A 
ATOM     26  C   UNL     1       6.440   1.857   8.509  1.00  0.00     0.049 A 
ATOM     27  C   UNL     1       3.148  -2.570  10.134  1.00  0.00     0.074 A 
ATOM     28  C   UNL     1       7.537   1.480   7.759  1.00  0.00     0.029 A 
ATOM     29  N   UNL     1       6.380   0.957   9.544  1.00  0.00    -0.354 N 
ATOM     30  N   UNL     1       4.410  -2.886  10.052  1.00  0.00    -0.248 NA
ATOM     31  C   UNL     1       2.869  -1.247  10.670  1.00  0.00     0.031 C 
ATOM     32  C   UNL     1       7.767   0.113   8.099  1.00  0.00     0.029 A 
ATOM     33  C   UNL     1       6.828  -0.243   9.067  1.00  0.00     0.049 A 
ATOM     34  H   UNL     1       6.072   1.142  10.461  1.00  0.00     0.167 HD
ATOM     35  C   UNL     1       5.079  -1.672  10.101  1.00  0.00     0.074 A 
ATOM     36  C   UNL     1       4.088  -0.710  10.579  1.00  0.00     0.031 C 
ATOM     37  C   UNL     1       6.286  -1.513   9.484  1.00  0.00     0.037 A 
BRANCH  24  38
ATOM     38  C   UNL     1       4.807   3.642   9.414  1.00  0.00     0.057 A 
ATOM     39  C   UNL     1       3.451   3.936   9.660  1.00  0.00     0.134 A 
ATOM     40  C   UNL     1       5.680   3.950  10.478  1.00  0.00     0.134 A 
ATOM     41  F   UNL     1       2.486   3.720   8.762  1.00  0.00    -0.206 F 
ATOM     42  C   UNL     1       2.988   4.391  10.899  1.00  0.00     0.040 A 
ATOM     43  C   UNL     1       5.220   4.361  11.735  1.00  0.00     0.040 A 
ATOM     44  F   UNL     1       7.003   3.759  10.364  1.00  0.00    -0.206 F 
ATOM     45  C   UNL     1       3.865   4.556  11.957  1.00  0.00     0.006 A 
ENDBRANCH  24  38
BRANCH  25  46
ATOM     46  C   UNL     1       0.921  -3.885  10.040  1.00  0.00     0.057 A 
ATOM     47  C   UNL     1      -0.392  -3.671   9.586  1.00  0.00     0.134 A 
ATOM     48  C   UNL     1       1.047  -4.486  11.300  1.00  0.00     0.134 A 
ATOM     49  F   UNL     1      -0.628  -3.030   8.432  1.00  0.00    -0.206 F 
ATOM     50  C   UNL     1      -1.513  -4.023  10.344  1.00  0.00     0.040 A 
ATOM     51  C   UNL     1      -0.069  -4.839  12.072  1.00  0.00     0.040 A 
ATOM     52  F   UNL     1       2.257  -4.689  11.841  1.00  0.00    -0.206 F 
ATOM     53  C   UNL     1      -1.355  -4.598  11.598  1.00  0.00     0.006 A 
ENDBRANCH  25  46
BRANCH  37  54
ATOM     54  C   UNL     1       6.979  -2.747   8.985  1.00  0.00     0.057 A 
ATOM     55  C   UNL     1       8.263  -3.036   9.456  1.00  0.00     0.134 A 
ATOM     56  C   UNL     1       6.470  -3.577   7.974  1.00  0.00     0.134 A 
ATOM     57  F   UNL     1       8.837  -2.250  10.380  1.00  0.00    -0.206 F 
ATOM     58  C   UNL     1       9.004  -4.112   8.961  1.00  0.00     0.040 A 
ATOM     59  C   UNL     1       7.187  -4.677   7.494  1.00  0.00     0.040 A 
ATOM     60  F   UNL     1       5.294  -3.317   7.389  1.00  0.00    -0.206 F 
ATOM     61  C   UNL     1       8.460  -4.944   7.986  1.00  0.00     0.006 A 
ENDBRANCH  37  54
ENDBRANCH  11  12
ENDBRANCH   4   6
ENDBRANCH   1   2
BRANCH   1  62
ATOM     62  C   UNL     1       4.995  -2.146  -0.429  1.00  0.00     0.042 C 
BRANCH  62  63
ATOM     63  C   UNL     1       4.442  -3.303  -1.261  1.00  0.00     0.118 C 
BRANCH  63  64
ATOM     64  N   UNL     1       4.921  -3.281  -2.638  1.00  0.00    -0.352 N 
ATOM     65  C   UNL     1       5.793  -4.090  -3.311  1.00  0.00     0.252 C 
ATOM     66  H   UNL     1       4.547  -2.551  -3.183  1.00  0.00     0.163 HD
ATOM     67  O   UNL     1       6.210  -3.725  -4.417  1.00  0.00    -0.269 OA
BRANCH  65  68
ATOM     68  C   UNL     1       6.250  -5.378  -2.769  1.00  0.00     0.058 A 
ATOM     69  C   UNL     1       5.365  -6.275  -2.187  1.00  0.00     0.127 A 
ATOM     70  C   UNL     1       7.581  -5.768  -2.952  1.00  0.00     0.027 A 
ATOM     71  N   UNL     1       5.687  -7.490  -1.685  1.00  0.00    -0.238 NA
ATOM     72  C   UNL     1       7.961  -7.035  -2.479  1.00  0.00     0.020 A 
ATOM     73  C   UNL     1       6.985  -7.814  -1.860  1.00  0.00     0.140 A 
ATOM     74  C   UNL     1       9.162  -7.792  -2.473  1.00  0.00     0.030 A 
ATOM     75  N   UNL     1       7.577  -8.991  -1.462  1.00  0.00    -0.329 N 
ATOM     76  C   UNL     1       8.899  -8.989  -1.841  1.00  0.00     0.088 A 
BRANCH  75  77
ATOM     77  C   UNL     1       6.923 -10.079  -0.736  1.00  0.00     0.088 C 
ATOM     78  C   UNL     1       6.494  -9.647   0.676  1.00  0.00     0.025 C 
ATOM     79  C   UNL     1       5.769 -10.708  -1.535  1.00  0.00     0.025 C 
ATOM     80  C   UNL     1       5.787 -10.774   1.426  1.00  0.00     0.002 C 
ATOM     81  C   UNL     1       5.074 -11.819  -0.751  1.00  0.00     0.002 C 
ATOM     82  C   UNL     1       4.619 -11.335   0.622  1.00  0.00     0.000 C 
ENDBRANCH  75  77
ENDBRANCH  65  68
ENDBRANCH  63  64
ENDBRANCH  62  63
ENDBRANCH   1  62
TORSDOF 11
