REMARK SMILES CC(C)c1ccc(NC(=O)C[C@H]2SC[C@@H](C(=O)NCCCNC(=O)c3ccc(-c4c5nc(c(-c6c(F)cccc6F)c6ccc([nH]6)c(-c6c(F)cccc6F)c6nc(c(-c7c(F)cccc7F)c7ccc4[nH]7)C=C6)C=C5)cc3)NC2=O)cc1
REMARK SMILES IDX 19 1 18 2 16 3 17 4 15 6 12 7 13 8 80 9 14 10 79 11 81 12
REMARK SMILES IDX 11 14 9 15 8 16 10 18 7 19 4 20 5 21 83 22 6 23 82 24 2 25
REMARK SMILES IDX 1 26 3 27 20 28 21 29 22 30 23 31 24 33 25 34 26 35 78 36
REMARK SMILES IDX 27 37 77 38 28 39 29 40 30 41 71 42 31 43 76 44 70 45 72 46
REMARK SMILES IDX 32 47 75 48 69 49 68 50 33 52 59 53 42 54 58 55 43 56 46 57
REMARK SMILES IDX 57 58 73 59 44 60 45 61 56 63 74 64 47 65 34 66 35 67 40 68
REMARK SMILES IDX 36 69 37 70 39 71 41 72 38 73 60 74 61 75 66 76 62 77 63 78
REMARK SMILES IDX 65 79 67 80 64 81 48 82 49 83 54 84 50 85 51 86 53 87 55 88
REMARK SMILES IDX 52 89
REMARK H PARENT 18 5 79 13 8 17 22 32 72 51 46 62
REMARK Flexibility Score: inf
ROOT
ATOM      1  C   UNL     1       1.046   2.070   0.905  1.00  0.00     0.117 C 
ENDROOT
BRANCH   1   2
ATOM      2  N   UNL     1       0.423   2.650   2.078  1.00  0.00    -0.354 N 
ATOM      3  C   UNL     1      -0.547   3.615   2.125  1.00  0.00     0.243 C 
ATOM      4  O   UNL     1      -0.591   4.322   3.129  1.00  0.00    -0.273 OA
ATOM      5  H   UNL     1       0.735   2.308   2.946  1.00  0.00     0.163 HD
BRANCH   3   6
ATOM      6  C   UNL     1      -1.655   3.583   1.052  1.00  0.00     0.181 C 
ATOM      7  C   UNL     1      -4.289   3.867   2.593  1.00  0.00     0.145 C 
ATOM      8  S   UNL     1      -3.445   5.457   2.186  1.00  0.00    -0.145 SA
ATOM      9  C   UNL     1      -3.334   2.666   2.594  1.00  0.00     0.234 C 
ATOM     10  C   UNL     1      -2.364   4.912   0.833  1.00  0.00     0.105 C 
ATOM     11  N   UNL     1      -2.521   2.500   1.498  1.00  0.00    -0.343 N 
ATOM     12  O   UNL     1      -3.317   1.761   3.423  1.00  0.00    -0.274 OA
ATOM     13  H   UNL     1      -2.523   1.644   1.012  1.00  0.00     0.164 HD
BRANCH   7  14
ATOM     14  C   UNL     1      -5.147   4.106   3.845  1.00  0.00     0.124 C 
BRANCH  14  15
ATOM     15  C   UNL     1      -5.367   2.984   4.839  1.00  0.00     0.226 C 
ATOM     16  N   UNL     1      -5.871   1.767   4.505  1.00  0.00    -0.326 N 
ATOM     17  H   UNL     1      -5.923   1.138   5.261  1.00  0.00     0.169 HD
ATOM     18  O   UNL     1      -5.088   3.168   6.031  1.00  0.00    -0.275 OA
BRANCH  16  19
ATOM     19  C   UNL     1      -6.329   1.234   3.296  1.00  0.00     0.041 A 
ATOM     20  C   UNL     1      -7.049   0.006   0.846  1.00  0.00    -0.045 A 
ATOM     21  C   UNL     1      -7.314   1.363   1.091  1.00  0.00     0.006 A 
ATOM     22  C   UNL     1      -6.431  -0.726   1.871  1.00  0.00     0.006 A 
ATOM     23  C   UNL     1      -6.966   1.969   2.306  1.00  0.00     0.026 A 
ATOM     24  C   UNL     1      -6.104  -0.127   3.090  1.00  0.00     0.026 A 
BRANCH  20  25
ATOM     25  C   UNL     1      -7.357  -0.668  -0.489  1.00  0.00     0.013 C 
ATOM     26  C   UNL     1      -8.021  -2.042  -0.310  1.00  0.00     0.012 C 
ATOM     27  C   UNL     1      -8.223   0.167  -1.443  1.00  0.00     0.012 C 
ENDBRANCH  20  25
ENDBRANCH  16  19
ENDBRANCH  14  15
ENDBRANCH   7  14
ENDBRANCH   3   6
ENDBRANCH   1   2
BRANCH   1  28
ATOM     28  C   UNL     1       2.174   2.976   0.416  1.00  0.00     0.042 C 
BRANCH  28  29
ATOM     29  C   UNL     1       3.244   3.237   1.476  1.00  0.00     0.118 C 
BRANCH  29  30
ATOM     30  N   UNL     1       3.942   2.020   1.871  1.00  0.00    -0.352 N 
ATOM     31  C   UNL     1       5.279   1.729   1.822  1.00  0.00     0.251 C 
ATOM     32  H   UNL     1       3.368   1.303   2.226  1.00  0.00     0.163 HD
ATOM     33  O   UNL     1       5.662   0.574   2.013  1.00  0.00    -0.269 OA
BRANCH  31  34
ATOM     34  C   UNL     1       6.259   2.789   1.518  1.00  0.00     0.039 A 
ATOM     35  C   UNL     1       7.280   2.520   0.602  1.00  0.00     0.014 A 
ATOM     36  C   UNL     1       6.181   4.039   2.139  1.00  0.00     0.014 A 
ATOM     37  C   UNL     1       8.185   3.526   0.261  1.00  0.00     0.010 A 
ATOM     38  C   UNL     1       7.042   5.061   1.748  1.00  0.00     0.010 A 
ATOM     39  C   UNL     1       8.052   4.814   0.805  1.00  0.00    -0.014 A 
BRANCH  39  40
ATOM     40  C   UNL     1       8.954   5.918   0.395  1.00  0.00     0.031 A 
ATOM     41  C   UNL     1       9.886   6.545   1.393  1.00  0.00     0.074 A 
ATOM     42  C   UNL     1       8.885   6.401  -0.861  1.00  0.00     0.049 A 
ATOM     43  N   UNL     1      10.683   7.572   1.248  1.00  0.00    -0.248 NA
ATOM     44  C   UNL     1       9.908   5.952   2.740  1.00  0.00     0.031 C 
ATOM     45  C   UNL     1       7.994   5.904  -1.913  1.00  0.00     0.029 A 
ATOM     46  N   UNL     1       9.570   7.426  -1.464  1.00  0.00    -0.354 N 
ATOM     47  C   UNL     1      11.289   7.758   2.484  1.00  0.00     0.074 A 
ATOM     48  C   UNL     1      10.734   6.766   3.381  1.00  0.00     0.031 C 
ATOM     49  C   UNL     1       8.200   6.614  -3.034  1.00  0.00     0.029 A 
ATOM     50  C   UNL     1       9.206   7.637  -2.772  1.00  0.00     0.049 A 
ATOM     51  H   UNL     1      10.256   7.960  -1.002  1.00  0.00     0.167 HD
ATOM     52  C   UNL     1      12.236   8.659   2.835  1.00  0.00     0.037 A 
ATOM     53  C   UNL     1       9.629   8.560  -3.656  1.00  0.00     0.037 A 
ATOM     54  C   UNL     1      12.805   9.629   1.937  1.00  0.00     0.049 A 
ATOM     55  C   UNL     1      10.674   9.556  -3.237  1.00  0.00     0.074 A 
ATOM     56  C   UNL     1      13.808  10.551   2.185  1.00  0.00     0.029 A 
ATOM     57  N   UNL     1      12.421   9.802   0.616  1.00  0.00    -0.354 N 
ATOM     58  N   UNL     1      11.277   9.684  -2.080  1.00  0.00    -0.248 NA
ATOM     59  C   UNL     1      11.099  10.534  -4.248  1.00  0.00     0.031 C 
ATOM     60  C   UNL     1      14.006  11.305   1.024  1.00  0.00     0.029 A 
ATOM     61  C   UNL     1      13.155  10.826   0.041  1.00  0.00     0.049 A 
ATOM     62  H   UNL     1      11.730   9.274   0.155  1.00  0.00     0.167 HD
ATOM     63  C   UNL     1      12.169  10.737  -2.232  1.00  0.00     0.074 A 
ATOM     64  C   UNL     1      12.038  11.204  -3.597  1.00  0.00     0.031 C 
ATOM     65  C   UNL     1      13.019  11.271  -1.322  1.00  0.00     0.037 A 
BRANCH  52  66
ATOM     66  C   UNL     1      12.725   8.633   4.253  1.00  0.00     0.057 A 
ATOM     67  C   UNL     1      13.543   7.601   4.730  1.00  0.00     0.134 A 
ATOM     68  C   UNL     1      12.408   9.669   5.140  1.00  0.00     0.134 A 
ATOM     69  F   UNL     1      13.873   6.572   3.934  1.00  0.00    -0.206 F 
ATOM     70  C   UNL     1      14.011   7.589   6.045  1.00  0.00     0.040 A 
ATOM     71  C   UNL     1      12.890   9.681   6.450  1.00  0.00     0.040 A 
ATOM     72  F   UNL     1      11.633  10.691   4.746  1.00  0.00    -0.206 F 
ATOM     73  C   UNL     1      13.690   8.636   6.907  1.00  0.00     0.006 A 
ENDBRANCH  52  66
BRANCH  53  74
ATOM     74  C   UNL     1       9.078   8.579  -5.034  1.00  0.00     0.057 A 
ATOM     75  C   UNL     1       9.865   8.203  -6.128  1.00  0.00     0.134 A 
ATOM     76  C   UNL     1       7.764   8.986  -5.292  1.00  0.00     0.134 A 
ATOM     77  F   UNL     1      11.137   7.821  -5.945  1.00  0.00    -0.206 F 
ATOM     78  C   UNL     1       9.373   8.251  -7.433  1.00  0.00     0.040 A 
ATOM     79  C   UNL     1       7.251   9.017  -6.590  1.00  0.00     0.040 A 
ATOM     80  F   UNL     1       6.957   9.351  -4.285  1.00  0.00    -0.206 F 
ATOM     81  C   UNL     1       8.060   8.656  -7.666  1.00  0.00     0.006 A 
ENDBRANCH  53  74
BRANCH  65  82
ATOM     82  C   UNL     1      13.897  12.396  -1.784  1.00  0.00     0.057 A 
ATOM     83  C   UNL     1      13.392  13.683  -2.006  1.00  0.00     0.134 A 
ATOM     84  C   UNL     1      15.270  12.195  -1.975  1.00  0.00     0.134 A 
ATOM     85  F   UNL     1      12.083  13.935  -1.855  1.00  0.00    -0.206 F 
ATOM     86  C   UNL     1      14.219  14.727  -2.424  1.00  0.00     0.040 A 
ATOM     87  C   UNL     1      16.110  13.237  -2.369  1.00  0.00     0.040 A 
ATOM     88  F   UNL     1      15.817  10.988  -1.772  1.00  0.00    -0.206 F 
ATOM     89  C   UNL     1      15.584  14.506  -2.600  1.00  0.00     0.006 A 
ENDBRANCH  65  82
ENDBRANCH  39  40
ENDBRANCH  31  34
ENDBRANCH  29  30
ENDBRANCH  28  29
ENDBRANCH   1  28
TORSDOF 14
