REMARK SMILES COc1cc(OC)c([C@H]2CC[NH2+][C@H]2C(=O)NCCCNC(=O)c2ccc(-c3c4nc(c(-c5c(F)cccc5F)c5ccc([nH]5)c(-c5c(F)cccc5F)c5nc(c(-c6c(F)cccc6F)c6ccc3[nH]6)C=C5)C=C4)cc2)cc1OC
REMARK SMILES IDX 18 1 17 2 16 3 14 4 15 5 13 7 9 8 10 9 11 10 12 11 8 14 3 15
REMARK SMILES IDX 4 16 78 17 5 18 77 19 2 20 1 21 79 22 80 23 6 24 7 25 19 26
REMARK SMILES IDX 20 27 21 28 22 30 23 31 24 32 76 33 25 34 75 35 26 36 27 37
REMARK SMILES IDX 28 38 69 39 29 40 74 41 68 42 70 43 30 44 73 45 67 46 66 47
REMARK SMILES IDX 31 49 57 50 40 51 56 52 41 53 44 54 55 55 71 56 42 57 43 58
REMARK SMILES IDX 54 60 72 61 45 62 32 63 33 64 38 65 34 66 35 67 37 68 39 69
REMARK SMILES IDX 36 70 58 71 59 72 64 73 60 74 61 75 63 76 65 77 62 78 46 79
REMARK SMILES IDX 47 80 52 81 48 82 49 83 51 84 53 85 50 86
REMARK H PARENT 16 6 12 12 12 13 20 29 70 48 44 59
REMARK Flexibility Score: inf
ROOT
ATOM      1  C   UNL     1       2.753  -1.660  10.176  1.00  0.00     0.042 C 
ENDROOT
BRANCH   1   2
ATOM      2  C   UNL     1       3.727  -2.611   9.486  1.00  0.00     0.118 C 
BRANCH   2   3
ATOM      3  N   UNL     1       3.078  -3.698   8.782  1.00  0.00    -0.351 N 
ATOM      4  C   UNL     1       2.762  -3.918   7.480  1.00  0.00     0.278 C 
ATOM      5  O   UNL     1       2.273  -5.029   7.234  1.00  0.00    -0.268 OA
ATOM      6  H   UNL     1       2.807  -4.436   9.375  1.00  0.00     0.163 HD
BRANCH   4   7
ATOM      7  C   UNL     1       2.984  -2.906   6.330  1.00  0.00     0.280 C 
ATOM      8  C   UNL     1       2.212  -1.562   6.285  1.00  0.00     0.097 C 
ATOM      9  C   UNL     1       3.312  -0.556   6.644  1.00  0.00     0.076 C 
ATOM     10  C   UNL     1       4.582  -1.166   6.085  1.00  0.00     0.262 C 
ATOM     11  N   UNL     1       4.436  -2.613   6.182  1.00  0.00    -0.335 N 
ATOM     12  H   UNL     1       4.946  -2.961   6.993  1.00  0.00     0.346 HD
ATOM     13  H   UNL     1       4.811  -3.068   5.350  1.00  0.00     0.346 HD
BRANCH   8  14
ATOM     14  C   UNL     1       0.877  -1.422   7.001  1.00  0.00     0.008 A 
ATOM     15  C   UNL     1      -1.514  -1.248   8.535  1.00  0.00     0.164 A 
ATOM     16  C   UNL     1      -0.819  -0.094   8.181  1.00  0.00     0.097 A 
ATOM     17  C   UNL     1      -1.089  -2.478   8.035  1.00  0.00     0.161 A 
ATOM     18  C   UNL     1       0.340  -0.184   7.395  1.00  0.00     0.126 A 
ATOM     19  C   UNL     1       0.068  -2.546   7.245  1.00  0.00     0.058 A 
BRANCH  15  20
ATOM     20  O   UNL     1      -2.671  -1.166   9.260  1.00  0.00    -0.493 OA
ATOM     21  C   UNL     1      -2.456  -0.632  10.566  1.00  0.00     0.278 C 
ENDBRANCH  15  20
BRANCH  17  22
ATOM     22  O   UNL     1      -1.730  -3.675   8.212  1.00  0.00    -0.493 OA
ATOM     23  C   UNL     1      -2.130  -3.942   9.552  1.00  0.00     0.278 C 
ENDBRANCH  17  22
BRANCH  18  24
ATOM     24  O   UNL     1       0.916   1.004   7.030  1.00  0.00    -0.496 OA
ATOM     25  C   UNL     1       0.515   1.366   5.702  1.00  0.00     0.278 C 
ENDBRANCH  18  24
ENDBRANCH   8  14
ENDBRANCH   4   7
ENDBRANCH   2   3
ENDBRANCH   1   2
BRANCH   1  26
ATOM     26  C   UNL     1       1.828  -2.312  11.197  1.00  0.00     0.118 C 
BRANCH  26  27
ATOM     27  N   UNL     1       2.551  -2.802  12.361  1.00  0.00    -0.352 N 
ATOM     28  C   UNL     1       2.549  -2.368  13.657  1.00  0.00     0.251 C 
ATOM     29  H   UNL     1       3.138  -3.573  12.186  1.00  0.00     0.163 HD
ATOM     30  O   UNL     1       3.426  -2.781  14.427  1.00  0.00    -0.269 OA
BRANCH  28  31
ATOM     31  C   UNL     1       1.533  -1.421  14.168  1.00  0.00     0.039 A 
ATOM     32  C   UNL     1       1.931  -0.451  15.095  1.00  0.00     0.014 A 
ATOM     33  C   UNL     1       0.182  -1.533  13.824  1.00  0.00     0.014 A 
ATOM     34  C   UNL     1       0.991   0.425  15.645  1.00  0.00     0.010 A 
ATOM     35  C   UNL     1      -0.748  -0.621  14.329  1.00  0.00     0.010 A 
ATOM     36  C   UNL     1      -0.355   0.359  15.253  1.00  0.00    -0.014 A 
BRANCH  36  37
ATOM     37  C   UNL     1      -1.356   1.303  15.812  1.00  0.00     0.031 A 
ATOM     38  C   UNL     1      -2.456   0.812  16.711  1.00  0.00     0.074 A 
ATOM     39  C   UNL     1      -1.307   2.604  15.466  1.00  0.00     0.049 A 
ATOM     40  N   UNL     1      -3.436   1.484  17.261  1.00  0.00    -0.248 NA
ATOM     41  C   UNL     1      -2.475  -0.628  17.009  1.00  0.00     0.031 C 
ATOM     42  C   UNL     1      -0.329   3.200  14.556  1.00  0.00     0.029 A 
ATOM     43  N   UNL     1      -2.110   3.656  15.831  1.00  0.00    -0.354 N 
ATOM     44  C   UNL     1      -4.199   0.550  17.949  1.00  0.00     0.074 A 
ATOM     45  C   UNL     1      -3.589  -0.743  17.718  1.00  0.00     0.031 C 
ATOM     46  C   UNL     1      -0.582   4.513  14.440  1.00  0.00     0.029 A 
ATOM     47  C   UNL     1      -1.750   4.847  15.251  1.00  0.00     0.049 A 
ATOM     48  H   UNL     1      -2.870   3.565  16.449  1.00  0.00     0.167 HD
ATOM     49  C   UNL     1      -5.298   0.750  18.716  1.00  0.00     0.037 A 
ATOM     50  C   UNL     1      -2.298   6.072  15.357  1.00  0.00     0.037 A 
ATOM     51  C   UNL     1      -5.882   2.038  18.984  1.00  0.00     0.049 A 
ATOM     52  C   UNL     1      -3.485   6.279  16.253  1.00  0.00     0.074 A 
ATOM     53  C   UNL     1      -6.933   2.351  19.829  1.00  0.00     0.029 A 
ATOM     54  N   UNL     1      -5.465   3.228  18.408  1.00  0.00    -0.354 N 
ATOM     55  N   UNL     1      -4.145   5.398  16.964  1.00  0.00    -0.248 NA
ATOM     56  C   UNL     1      -3.997   7.652  16.367  1.00  0.00     0.031 C 
ATOM     57  C   UNL     1      -7.175   3.727  19.738  1.00  0.00     0.029 A 
ATOM     58  C   UNL     1      -6.253   4.275  18.861  1.00  0.00     0.049 A 
ATOM     59  H   UNL     1      -4.720   3.317  17.771  1.00  0.00     0.167 HD
ATOM     60  C   UNL     1      -5.142   6.108  17.618  1.00  0.00     0.074 A 
ATOM     61  C   UNL     1      -4.989   7.497  17.233  1.00  0.00     0.031 C 
ATOM     62  C   UNL     1      -6.100   5.649  18.460  1.00  0.00     0.037 A 
BRANCH  49  63
ATOM     63  C   UNL     1      -5.944  -0.461  19.322  1.00  0.00     0.057 A 
ATOM     64  C   UNL     1      -5.359  -1.154  20.389  1.00  0.00     0.134 A 
ATOM     65  C   UNL     1      -7.177  -0.924  18.847  1.00  0.00     0.134 A 
ATOM     66  F   UNL     1      -4.173  -0.768  20.882  1.00  0.00    -0.206 F 
ATOM     67  C   UNL     1      -5.965  -2.283  20.945  1.00  0.00     0.040 A 
ATOM     68  C   UNL     1      -7.803  -2.038  19.409  1.00  0.00     0.040 A 
ATOM     69  F   UNL     1      -7.793  -0.301  17.831  1.00  0.00    -0.206 F 
ATOM     70  C   UNL     1      -7.193  -2.725  20.456  1.00  0.00     0.006 A 
ENDBRANCH  49  63
BRANCH  50  71
ATOM     71  C   UNL     1      -1.705   7.203  14.606  1.00  0.00     0.057 A 
ATOM     72  C   UNL     1      -0.933   8.173  15.254  1.00  0.00     0.134 A 
ATOM     73  C   UNL     1      -1.875   7.325  13.223  1.00  0.00     0.134 A 
ATOM     74  F   UNL     1      -0.750   8.114  16.581  1.00  0.00    -0.206 F 
ATOM     75  C   UNL     1      -0.353   9.230  14.552  1.00  0.00     0.040 A 
ATOM     76  C   UNL     1      -1.288   8.367  12.505  1.00  0.00     0.040 A 
ATOM     77  F   UNL     1      -2.600   6.420  12.547  1.00  0.00    -0.206 F 
ATOM     78  C   UNL     1      -0.526   9.326  13.172  1.00  0.00     0.006 A 
ENDBRANCH  50  71
BRANCH  62  79
ATOM     79  C   UNL     1      -7.055   6.660  19.019  1.00  0.00     0.057 A 
ATOM     80  C   UNL     1      -8.084   7.205  18.240  1.00  0.00     0.134 A 
ATOM     81  C   UNL     1      -6.963   7.073  20.354  1.00  0.00     0.134 A 
ATOM     82  F   UNL     1      -8.215   6.859  16.951  1.00  0.00    -0.206 F 
ATOM     83  C   UNL     1      -8.976   8.142  18.764  1.00  0.00     0.040 A 
ATOM     84  C   UNL     1      -7.861   7.994  20.894  1.00  0.00     0.040 A 
ATOM     85  F   UNL     1      -6.003   6.584  21.153  1.00  0.00    -0.206 F 
ATOM     86  C   UNL     1      -8.868   8.535  20.097  1.00  0.00     0.006 A 
ENDBRANCH  62  79
ENDBRANCH  36  37
ENDBRANCH  28  31
ENDBRANCH  26  27
ENDBRANCH   1  26
TORSDOF 14
