REMARK SMILES O=C(NCCCNC(=O)c1[nH]ncc1C[N@H+]1CCC[C@@H](C(=O)c2ccc(Oc3ccccc3)cc2)C1)c1ccc(-c2c3nc(c(-c4c(F)cccc4F)c4ccc([nH]4)c(-c4c(F)cccc4F)c4nc(c(-c5c(F)cccc5F)c5ccc2[nH]5)C=C4)C=C3)cc1
REMARK SMILES IDX 7 1 8 2 9 3 6 5 5 6 4 7 3 8 1 9 2 10 37 12 38 13 90 14 39 15
REMARK SMILES IDX 89 16 40 17 41 18 42 19 83 20 43 21 88 22 82 23 84 24 44 25
REMARK SMILES IDX 87 26 81 27 80 28 45 30 71 31 54 32 70 33 55 34 58 35 69 36
REMARK SMILES IDX 85 37 56 38 57 39 68 41 86 42 59 43 46 44 47 45 52 46 48 47
REMARK SMILES IDX 49 48 51 49 53 50 50 51 72 52 73 53 78 54 74 55 75 56 77 57
REMARK SMILES IDX 79 58 76 59 60 60 61 61 66 62 62 63 63 64 65 65 67 66 64 67
REMARK SMILES IDX 10 68 11 69 14 70 12 71 13 73 15 74 16 75 17 76 36 77 18 79
REMARK SMILES IDX 20 80 19 81 21 82 22 83 23 84 24 85 35 86 25 87 34 88 26 89
REMARK SMILES IDX 27 90 28 91 29 92 33 93 30 94 32 95 31 96
REMARK H PARENT 7 4 3 11 84 29 58 40 11 72 16 78
REMARK Flexibility Score: inf
ROOT
ATOM      1  N   UNL     1       4.913  -2.305   3.634  1.00  0.00    -0.351 N 
ATOM      2  C   UNL     1       5.808  -2.813   4.539  1.00  0.00     0.269 C 
ATOM      3  O   UNL     1       6.299  -3.922   4.333  1.00  0.00    -0.268 OA
ATOM      4  H   UNL     1       4.556  -2.951   2.983  1.00  0.00     0.163 HD
ENDROOT
BRANCH   1   5
ATOM      5  C   UNL     1       4.416  -0.941   3.500  1.00  0.00     0.118 C 
BRANCH   5   6
ATOM      6  C   UNL     1       4.941  -0.242   2.261  1.00  0.00     0.042 C 
BRANCH   6   7
ATOM      7  C   UNL     1       4.504  -0.909   0.972  1.00  0.00     0.118 C 
BRANCH   7   8
ATOM      8  N   UNL     1       3.057  -0.896   0.802  1.00  0.00    -0.352 N 
ATOM      9  O   UNL     1       1.055  -0.140   0.105  1.00  0.00    -0.269 OA
ATOM     10  C   UNL     1       2.272  -0.168  -0.055  1.00  0.00     0.251 C 
ATOM     11  H   UNL     1       2.564  -1.507   1.397  1.00  0.00     0.163 HD
BRANCH  10  12
ATOM     12  C   UNL     1       2.890   0.599  -1.156  1.00  0.00     0.039 A 
ATOM     13  C   UNL     1       3.942   0.059  -1.898  1.00  0.00     0.014 A 
ATOM     14  C   UNL     1       2.390   1.865  -1.466  1.00  0.00     0.014 A 
ATOM     15  C   UNL     1       4.602   0.842  -2.835  1.00  0.00     0.010 A 
ATOM     16  C   UNL     1       2.983   2.610  -2.486  1.00  0.00     0.010 A 
ATOM     17  C   UNL     1       4.112   2.114  -3.158  1.00  0.00    -0.014 A 
BRANCH  17  18
ATOM     18  C   UNL     1       4.739   2.886  -4.256  1.00  0.00     0.031 A 
ATOM     19  C   UNL     1       5.378   4.216  -3.993  1.00  0.00     0.074 A 
ATOM     20  C   UNL     1       4.693   2.386  -5.505  1.00  0.00     0.049 A 
ATOM     21  N   UNL     1       5.885   5.070  -4.845  1.00  0.00    -0.248 NA
ATOM     22  C   UNL     1       5.446   4.651  -2.590  1.00  0.00     0.031 C 
ATOM     23  C   UNL     1       4.093   1.102  -5.877  1.00  0.00     0.029 A 
ATOM     24  N   UNL     1       5.143   2.900  -6.693  1.00  0.00    -0.354 N 
ATOM     25  C   UNL     1       6.306   6.155  -4.089  1.00  0.00     0.074 A 
ATOM     26  C   UNL     1       5.973   5.862  -2.711  1.00  0.00     0.031 C 
ATOM     27  C   UNL     1       4.217   0.926  -7.199  1.00  0.00     0.029 A 
ATOM     28  C   UNL     1       4.836   2.113  -7.775  1.00  0.00     0.049 A 
ATOM     29  H   UNL     1       5.636   3.749  -6.763  1.00  0.00     0.167 HD
ATOM     30  C   UNL     1       6.915   7.289  -4.511  1.00  0.00     0.037 A 
ATOM     31  C   UNL     1       4.990   2.339  -9.092  1.00  0.00     0.037 A 
ATOM     32  C   UNL     1       7.238   7.564  -5.888  1.00  0.00     0.049 A 
ATOM     33  C   UNL     1       5.623   3.621  -9.542  1.00  0.00     0.074 A 
ATOM     34  C   UNL     1       7.896   8.661  -6.417  1.00  0.00     0.029 A 
ATOM     35  N   UNL     1       6.910   6.741  -6.957  1.00  0.00    -0.354 N 
ATOM     36  N   UNL     1       6.057   4.622  -8.816  1.00  0.00    -0.248 NA
ATOM     37  C   UNL     1       5.788   3.807 -10.989  1.00  0.00     0.031 C 
ATOM     38  C   UNL     1       7.906   8.534  -7.809  1.00  0.00     0.029 A 
ATOM     39  C   UNL     1       7.319   7.324  -8.146  1.00  0.00     0.049 A 
ATOM     40  H   UNL     1       6.454   5.872  -6.882  1.00  0.00     0.167 HD
ATOM     41  C   UNL     1       6.571   5.548  -9.713  1.00  0.00     0.074 A 
ATOM     42  C   UNL     1       6.396   4.986 -11.038  1.00  0.00     0.031 C 
ATOM     43  C   UNL     1       7.143   6.750  -9.458  1.00  0.00     0.037 A 
BRANCH  30  44
ATOM     44  C   UNL     1       7.228   8.333  -3.475  1.00  0.00     0.057 A 
ATOM     45  C   UNL     1       8.194   8.136  -2.480  1.00  0.00     0.134 A 
ATOM     46  C   UNL     1       6.552   9.561  -3.479  1.00  0.00     0.134 A 
ATOM     47  F   UNL     1       8.873   6.981  -2.410  1.00  0.00    -0.206 F 
ATOM     48  C   UNL     1       8.445   9.102  -1.502  1.00  0.00     0.040 A 
ATOM     49  C   UNL     1       6.817  10.547  -2.528  1.00  0.00     0.040 A 
ATOM     50  F   UNL     1       5.621   9.824  -4.410  1.00  0.00    -0.206 F 
ATOM     51  C   UNL     1       7.758  10.313  -1.528  1.00  0.00     0.006 A 
ENDBRANCH  30  44
BRANCH  31  52
ATOM     52  C   UNL     1       4.507   1.323 -10.058  1.00  0.00     0.057 A 
ATOM     53  C   UNL     1       5.399   0.530 -10.785  1.00  0.00     0.134 A 
ATOM     54  C   UNL     1       3.137   1.075 -10.223  1.00  0.00     0.134 A 
ATOM     55  F   UNL     1       6.721   0.727 -10.675  1.00  0.00    -0.206 F 
ATOM     56  C   UNL     1       4.948  -0.472 -11.646  1.00  0.00     0.040 A 
ATOM     57  C   UNL     1       2.673   0.060 -11.059  1.00  0.00     0.040 A 
ATOM     58  F   UNL     1       2.232   1.791  -9.539  1.00  0.00    -0.206 F 
ATOM     59  C   UNL     1       3.581  -0.716 -11.776  1.00  0.00     0.006 A 
ENDBRANCH  31  52
BRANCH  43  60
ATOM     60  C   UNL     1       7.666   7.529 -10.629  1.00  0.00     0.057 A 
ATOM     61  C   UNL     1       6.815   8.186 -11.525  1.00  0.00     0.134 A 
ATOM     62  C   UNL     1       9.047   7.689 -10.810  1.00  0.00     0.134 A 
ATOM     63  F   UNL     1       5.484   8.062 -11.416  1.00  0.00    -0.206 F 
ATOM     64  C   UNL     1       7.320   8.971 -12.564  1.00  0.00     0.040 A 
ATOM     65  C   UNL     1       9.562   8.491 -11.827  1.00  0.00     0.040 A 
ATOM     66  F   UNL     1       9.916   7.089  -9.981  1.00  0.00    -0.206 F 
ATOM     67  C   UNL     1       8.697   9.135 -12.709  1.00  0.00     0.006 A 
ENDBRANCH  43  60
ENDBRANCH  17  18
ENDBRANCH  10  12
ENDBRANCH   7   8
ENDBRANCH   6   7
ENDBRANCH   5   6
ENDBRANCH   1   5
BRANCH   2  68
ATOM     68  C   UNL     1       6.181  -1.996   5.651  1.00  0.00     0.131 A 
ATOM     69  N   UNL     1       7.483  -1.834   6.032  1.00  0.00    -0.272 N 
ATOM     70  C   UNL     1       5.427  -1.247   6.548  1.00  0.00     0.057 A 
ATOM     71  N   UNL     1       7.658  -0.840   6.915  1.00  0.00    -0.183 NA
ATOM     72  H   UNL     1       8.220  -2.392   5.692  1.00  0.00     0.190 HD
ATOM     73  C   UNL     1       6.411  -0.473   7.214  1.00  0.00     0.145 A 
BRANCH  70  74
ATOM     74  C   UNL     1       3.930  -1.178   6.642  1.00  0.00     0.303 C 
BRANCH  74  75
ATOM     75  N   UNL     1       3.362  -1.517   7.949  1.00  0.00    -0.330 N 
ATOM     76  C   UNL     1       3.567  -2.906   8.350  1.00  0.00     0.262 C 
ATOM     77  C   UNL     1       3.757  -0.576   8.986  1.00  0.00     0.274 C 
ATOM     78  H   UNL     1       2.354  -1.426   7.828  1.00  0.00     0.348 HD
ATOM     79  C   UNL     1       2.779  -3.191   9.630  1.00  0.00     0.062 C 
ATOM     80  C   UNL     1       3.003  -0.748  10.306  1.00  0.00     0.116 C 
ATOM     81  C   UNL     1       3.136  -2.215  10.755  1.00  0.00     0.023 C 
BRANCH  80  82
ATOM     82  C   UNL     1       3.567   0.192  11.387  1.00  0.00     0.171 C 
ATOM     83  O   UNL     1       3.547  -0.081  12.585  1.00  0.00    -0.294 OA
BRANCH  82  84
ATOM     84  C   UNL     1       4.186   1.484  10.977  1.00  0.00     0.018 A 
ATOM     85  C   UNL     1       5.486   1.765  11.403  1.00  0.00     0.015 A 
ATOM     86  C   UNL     1       3.536   2.353  10.096  1.00  0.00     0.015 A 
ATOM     87  C   UNL     1       6.147   2.893  10.910  1.00  0.00     0.048 A 
ATOM     88  C   UNL     1       4.219   3.456   9.573  1.00  0.00     0.048 A 
ATOM     89  C   UNL     1       5.524   3.741   9.986  1.00  0.00     0.127 A 
BRANCH  89  90
ATOM     90  O   UNL     1       6.308   4.785   9.540  1.00  0.00    -0.457 OA
BRANCH  90  91
ATOM     91  C   UNL     1       5.785   5.707   8.667  1.00  0.00     0.127 A 
ATOM     92  C   UNL     1       6.439   5.880   7.447  1.00  0.00     0.047 A 
ATOM     93  C   UNL     1       4.703   6.522   9.005  1.00  0.00     0.047 A 
ATOM     94  C   UNL     1       5.967   6.824   6.533  1.00  0.00     0.004 A 
ATOM     95  C   UNL     1       4.220   7.450   8.082  1.00  0.00     0.004 A 
ATOM     96  C   UNL     1       4.849   7.598   6.846  1.00  0.00     0.000 A 
ENDBRANCH  90  91
ENDBRANCH  89  90
ENDBRANCH  82  84
ENDBRANCH  80  82
ENDBRANCH  74  75
ENDBRANCH  70  74
ENDBRANCH   2  68
TORSDOF 16
