REMARK SMILES Nc1c(Cl)ccc2c1C=C(C(=O)NCCCNC(=O)c1ccc(-c3c4nc(c(-c5c(F)cccc5F)c5ccc([nH]5)c(-c5c(F)cccc5F)c5nc(c(-c6c(F)cccc6F)c6ccc3[nH]6)C=C5)C=C4)cc1)[C@@H](C(F)(F)F)O2
REMARK SMILES IDX 15 1 14 2 13 3 11 4 12 5 10 7 2 8 3 9 8 10 4 11 5 12 7 13
REMARK SMILES IDX 9 14 6 15 79 16 74 17 1 18 75 21 76 22 77 23 78 24 16 25
REMARK SMILES IDX 17 26 18 27 19 29 20 30 21 31 73 32 22 33 72 34 23 35 24 36
REMARK SMILES IDX 25 37 66 38 26 39 71 40 65 41 67 42 27 43 70 44 64 45 63 46
REMARK SMILES IDX 28 48 54 49 37 50 53 51 38 52 41 53 52 54 68 55 39 56 40 57
REMARK SMILES IDX 51 59 69 60 42 61 29 62 30 63 35 64 31 65 32 66 34 67 36 68
REMARK SMILES IDX 33 69 55 70 56 71 61 72 57 73 58 74 60 75 62 76 59 77 43 78
REMARK SMILES IDX 44 79 49 80 45 81 46 82 48 83 50 84 47 85
REMARK H PARENT 13 6 1 19 1 20 17 28 67 47 41 58
REMARK Flexibility Score: inf
ROOT
ATOM      1  C   UNL     1      -6.230  -3.766   1.706  1.00  0.00     0.042 C 
ENDROOT
BRANCH   1   2
ATOM      2  C   UNL     1      -4.828  -4.122   2.180  1.00  0.00     0.118 C 
BRANCH   2   3
ATOM      3  N   UNL     1      -3.863  -4.056   1.093  1.00  0.00    -0.352 N 
ATOM      4  C   UNL     1      -2.844  -3.253   0.713  1.00  0.00     0.251 C 
ATOM      5  O   UNL     1      -2.295  -3.576  -0.345  1.00  0.00    -0.270 OA
ATOM      6  H   UNL     1      -3.987  -4.800   0.460  1.00  0.00     0.163 HD
BRANCH   4   7
ATOM      7  C   UNL     1      -2.362  -2.057   1.464  1.00  0.00     0.067 C 
ATOM      8  C   UNL     1       0.363   0.469   1.108  1.00  0.00     0.061 A 
ATOM      9  C   UNL     1       0.828   1.576   1.857  1.00  0.00     0.064 A 
ATOM     10  C   UNL     1      -0.809  -0.186   1.549  1.00  0.00     0.042 A 
ATOM     11  Cl  UNL     1       2.284   2.400   1.403  1.00  0.00    -0.082 Cl
ATOM     12  C   UNL     1       0.129   2.057   2.966  1.00  0.00     0.026 A 
ATOM     13  C   UNL     1      -1.493   0.307   2.672  1.00  0.00     0.130 A 
ATOM     14  C   UNL     1      -1.380  -1.353   0.871  1.00  0.00     0.027 C 
ATOM     15  C   UNL     1      -1.041   1.426   3.366  1.00  0.00     0.049 A 
ATOM     16  O   UNL     1      -2.655  -0.244   3.136  1.00  0.00    -0.475 OA
ATOM     17  C   UNL     1      -2.878  -1.640   2.807  1.00  0.00     0.314 C 
BRANCH   8  18
ATOM     18  N   UNL     1       1.124  -0.014   0.039  1.00  0.00    -0.397 N 
ATOM     19  H   UNL     1       1.936   0.466  -0.244  1.00  0.00     0.156 HD
ATOM     20  H   UNL     1       0.849  -0.835  -0.431  1.00  0.00     0.156 HD
ENDBRANCH   8  18
BRANCH  17  21
ATOM     21  C   UNL     1      -2.359  -2.529   3.954  1.00  0.00     0.429 C 
ATOM     22  F   UNL     1      -3.141  -2.381   5.053  1.00  0.00    -0.167 F 
ATOM     23  F   UNL     1      -2.382  -3.847   3.644  1.00  0.00    -0.167 F 
ATOM     24  F   UNL     1      -1.091  -2.232   4.315  1.00  0.00    -0.167 F 
ENDBRANCH  17  21
ENDBRANCH   4   7
ENDBRANCH   2   3
ENDBRANCH   1   2
BRANCH   1  25
ATOM     25  C   UNL     1      -6.876  -4.907   0.929  1.00  0.00     0.118 C 
BRANCH  25  26
ATOM     26  N   UNL     1      -7.131  -6.061   1.787  1.00  0.00    -0.352 N 
ATOM     27  C   UNL     1      -8.306  -6.479   2.358  1.00  0.00     0.251 C 
ATOM     28  H   UNL     1      -6.346  -6.621   1.983  1.00  0.00     0.163 HD
ATOM     29  O   UNL     1      -8.295  -7.291   3.279  1.00  0.00    -0.269 OA
BRANCH  27  30
ATOM     30  C   UNL     1      -9.586  -5.947   1.857  1.00  0.00     0.039 A 
ATOM     31  C   UNL     1     -10.570  -5.545   2.763  1.00  0.00     0.014 A 
ATOM     32  C   UNL     1      -9.813  -5.870   0.480  1.00  0.00     0.014 A 
ATOM     33  C   UNL     1     -11.767  -5.011   2.284  1.00  0.00     0.010 A 
ATOM     34  C   UNL     1     -10.968  -5.267   0.006  1.00  0.00     0.010 A 
ATOM     35  C   UNL     1     -11.962  -4.850   0.903  1.00  0.00    -0.014 A 
BRANCH  35  36
ATOM     36  C   UNL     1     -13.227  -4.310   0.357  1.00  0.00     0.031 A 
ATOM     37  C   UNL     1     -14.124  -5.213  -0.443  1.00  0.00     0.074 A 
ATOM     38  C   UNL     1     -13.526  -3.008   0.516  1.00  0.00     0.049 A 
ATOM     39  N   UNL     1     -15.229  -4.929  -1.082  1.00  0.00    -0.248 NA
ATOM     40  C   UNL     1     -13.703  -6.620  -0.567  1.00  0.00     0.031 C 
ATOM     41  C   UNL     1     -12.711  -2.031   1.240  1.00  0.00     0.029 A 
ATOM     42  N   UNL     1     -14.594  -2.279   0.060  1.00  0.00    -0.354 N 
ATOM     43  C   UNL     1     -15.625  -6.113  -1.691  1.00  0.00     0.074 A 
ATOM     44  C   UNL     1     -14.614  -7.104  -1.396  1.00  0.00     0.031 C 
ATOM     45  C   UNL     1     -13.317  -0.832   1.191  1.00  0.00     0.029 A 
ATOM     46  C   UNL     1     -14.542  -0.951   0.406  1.00  0.00     0.049 A 
ATOM     47  H   UNL     1     -15.328  -2.670  -0.466  1.00  0.00     0.167 HD
ATOM     48  C   UNL     1     -16.744  -6.358  -2.411  1.00  0.00     0.037 A 
ATOM     49  C   UNL     1     -15.389   0.053   0.112  1.00  0.00     0.037 A 
ATOM     50  C   UNL     1     -17.757  -5.374  -2.679  1.00  0.00     0.049 A 
ATOM     51  C   UNL     1     -16.609  -0.243  -0.719  1.00  0.00     0.074 A 
ATOM     52  C   UNL     1     -18.964  -5.533  -3.335  1.00  0.00     0.029 A 
ATOM     53  N   UNL     1     -17.673  -4.040  -2.308  1.00  0.00    -0.354 N 
ATOM     54  N   UNL     1     -17.018  -1.386  -1.214  1.00  0.00    -0.248 NA
ATOM     55  C   UNL     1     -17.487   0.894  -1.028  1.00  0.00     0.031 C 
ATOM     56  C   UNL     1     -19.590  -4.284  -3.402  1.00  0.00     0.029 A 
ATOM     57  C   UNL     1     -18.794  -3.357  -2.748  1.00  0.00     0.049 A 
ATOM     58  H   UNL     1     -16.927  -3.639  -1.806  1.00  0.00     0.167 HD
ATOM     59  C   UNL     1     -18.216  -1.112  -1.862  1.00  0.00     0.074 A 
ATOM     60  C   UNL     1     -18.474   0.301  -1.683  1.00  0.00     0.031 C 
ATOM     61  C   UNL     1     -19.032  -1.952  -2.547  1.00  0.00     0.037 A 
BRANCH  48  62
ATOM     62  C   UNL     1     -16.925  -7.745  -2.954  1.00  0.00     0.057 A 
ATOM     63  C   UNL     1     -16.839  -7.989  -4.330  1.00  0.00     0.134 A 
ATOM     64  C   UNL     1     -17.200  -8.836  -2.120  1.00  0.00     0.134 A 
ATOM     65  F   UNL     1     -16.580  -6.989  -5.186  1.00  0.00    -0.206 F 
ATOM     66  C   UNL     1     -17.019  -9.270  -4.856  1.00  0.00     0.040 A 
ATOM     67  C   UNL     1     -17.355 -10.126  -2.631  1.00  0.00     0.040 A 
ATOM     68  F   UNL     1     -17.278  -8.673  -0.790  1.00  0.00    -0.206 F 
ATOM     69  C   UNL     1     -17.271 -10.344  -4.005  1.00  0.00     0.006 A 
ENDBRANCH  48  62
BRANCH  49  70
ATOM     70  C   UNL     1     -15.136   1.431   0.605  1.00  0.00     0.057 A 
ATOM     71  C   UNL     1     -14.091   2.213   0.100  1.00  0.00     0.134 A 
ATOM     72  C   UNL     1     -15.979   2.019   1.556  1.00  0.00     0.134 A 
ATOM     73  F   UNL     1     -13.243   1.707  -0.808  1.00  0.00    -0.206 F 
ATOM     74  C   UNL     1     -13.900   3.533   0.513  1.00  0.00     0.040 A 
ATOM     75  C   UNL     1     -15.817   3.345   1.959  1.00  0.00     0.040 A 
ATOM     76  F   UNL     1     -17.010   1.327   2.063  1.00  0.00    -0.206 F 
ATOM     77  C   UNL     1     -14.774   4.106   1.436  1.00  0.00     0.006 A 
ENDBRANCH  49  70
BRANCH  61  78
ATOM     78  C   UNL     1     -20.292  -1.365  -3.112  1.00  0.00     0.057 A 
ATOM     79  C   UNL     1     -21.538  -1.690  -2.561  1.00  0.00     0.134 A 
ATOM     80  C   UNL     1     -20.275  -0.499  -4.213  1.00  0.00     0.134 A 
ATOM     81  F   UNL     1     -21.623  -2.521  -1.511  1.00  0.00    -0.206 F 
ATOM     82  C   UNL     1     -22.723  -1.174  -3.084  1.00  0.00     0.040 A 
ATOM     83  C   UNL     1     -21.452   0.046  -4.727  1.00  0.00     0.040 A 
ATOM     84  F   UNL     1     -19.112  -0.137  -4.776  1.00  0.00    -0.206 F 
ATOM     85  C   UNL     1     -22.681  -0.296  -4.166  1.00  0.00     0.006 A 
ENDBRANCH  61  78
ENDBRANCH  35  36
ENDBRANCH  27  30
ENDBRANCH  25  26
ENDBRANCH   1  25
TORSDOF 12
