REMARK SMILES O=C(COc1ccc(/C=C2\SC(=O)N(Cc3cc4c(cc3Cl)OCO4)C2=O)cc1)NCCCNC(=O)c1ccc(-c2c3nc(c(-c4c(F)cccc4F)c4ccc([nH]4)c(-c4c(F)cccc4F)c4nc(c(-c5c(F)cccc5F)c5ccc2[nH]5)C=C4)C=C3)cc1
REMARK SMILES IDX 1 1 2 2 30 3 3 5 4 6 5 7 6 8 29 9 7 10 28 11 8 12 9 13 10 14
REMARK SMILES IDX 11 15 26 16 12 17 14 18 27 19 13 20 15 21 16 22 17 23 21 24
REMARK SMILES IDX 18 25 20 26 22 27 19 28 25 29 23 30 24 31 31 32 32 33 33 34
REMARK SMILES IDX 34 35 35 36 36 38 37 39 38 40 90 41 39 42 89 43 40 44 41 45
REMARK SMILES IDX 42 46 83 47 43 48 88 49 82 50 84 51 44 52 87 53 81 54 80 55
REMARK SMILES IDX 45 57 71 58 54 59 70 60 55 61 58 62 69 63 85 64 56 65 57 66
REMARK SMILES IDX 68 68 86 69 59 70 46 71 47 72 52 73 48 74 49 75 51 76 53 77
REMARK SMILES IDX 50 78 72 79 73 80 78 81 74 82 75 83 77 84 79 85 76 86 60 87
REMARK SMILES IDX 61 88 66 89 62 90 63 91 65 92 67 93 64 94
REMARK H PARENT 30 4 34 37 84 56 58 67
REMARK Flexibility Score: inf
ROOT
ATOM      1  O   UNL     1       1.416   1.018  -0.546  1.00  0.00    -0.271 OA
ATOM      2  C   UNL     1       2.407   0.408  -0.156  1.00  0.00     0.257 C 
ATOM      3  N   UNL     1       2.995  -0.617  -0.870  1.00  0.00    -0.353 N 
ATOM      4  H   UNL     1       3.920  -0.878  -0.659  1.00  0.00     0.163 HD
ENDROOT
BRANCH   2   5
ATOM      5  C   UNL     1       3.038   0.658   1.225  1.00  0.00     0.329 C 
BRANCH   5   6
ATOM      6  O   UNL     1       3.866  -0.364   1.778  1.00  0.00    -0.484 OA
BRANCH   6   7
ATOM      7  C   UNL     1       3.236  -1.486   2.249  1.00  0.00     0.120 A 
ATOM      8  C   UNL     1       3.881  -2.180   3.280  1.00  0.00     0.047 A 
ATOM      9  C   UNL     1       2.060  -2.009   1.718  1.00  0.00     0.047 A 
ATOM     10  C   UNL     1       3.351  -3.381   3.776  1.00  0.00     0.012 A 
ATOM     11  C   UNL     1       1.560  -3.219   2.169  1.00  0.00     0.012 A 
ATOM     12  C   UNL     1       2.192  -3.903   3.204  1.00  0.00    -0.024 A 
BRANCH  12  13
ATOM     13  C   UNL     1       1.485  -5.091   3.650  1.00  0.00     0.029 C 
ATOM     14  C   UNL     1       1.603  -6.310   3.121  1.00  0.00     0.083 C 
ATOM     15  S   UNL     1       2.807  -7.008   2.127  1.00  0.00    -0.022 SA
ATOM     16  C   UNL     1       0.552  -7.309   3.392  1.00  0.00     0.268 C 
ATOM     17  C   UNL     1       2.189  -8.639   2.442  1.00  0.00     0.293 C 
ATOM     18  N   UNL     1       1.070  -8.560   3.229  1.00  0.00    -0.264 N 
ATOM     19  O   UNL     1      -0.610  -7.022   3.642  1.00  0.00    -0.268 OA
ATOM     20  O   UNL     1       2.694  -9.640   1.975  1.00  0.00    -0.261 OA
BRANCH  18  21
ATOM     21  C   UNL     1       0.351  -9.716   3.710  1.00  0.00     0.167 C 
BRANCH  21  22
ATOM     22  C   UNL     1       0.854 -10.231   5.052  1.00  0.00    -0.005 A 
ATOM     23  C   UNL     1       1.224 -11.591   5.123  1.00  0.00     0.057 A 
ATOM     24  C   UNL     1       0.895  -9.465   6.253  1.00  0.00     0.050 A 
ATOM     25  C   UNL     1       1.585 -12.121   6.346  1.00  0.00     0.166 A 
ATOM     26  C   UNL     1       1.321 -10.021   7.464  1.00  0.00     0.071 A 
ATOM     27  Cl  UNL     1       0.375  -7.827   6.382  1.00  0.00    -0.084 Cl
ATOM     28  C   UNL     1       1.639 -11.354   7.481  1.00  0.00     0.167 A 
ATOM     29  O   UNL     1       1.887 -13.423   6.595  1.00  0.00    -0.454 OA
ATOM     30  O   UNL     1       1.990 -12.066   8.582  1.00  0.00    -0.454 OA
ATOM     31  C   UNL     1       1.998 -13.400   8.035  1.00  0.00     0.468 C 
ENDBRANCH  21  22
ENDBRANCH  18  21
ENDBRANCH  12  13
ENDBRANCH   6   7
ENDBRANCH   5   6
ENDBRANCH   2   5
BRANCH   3  32
ATOM     32  C   UNL     1       2.285  -1.317  -1.919  1.00  0.00     0.117 C 
BRANCH  32  33
ATOM     33  C   UNL     1       2.555  -0.767  -3.306  1.00  0.00     0.042 C 
BRANCH  33  34
ATOM     34  C   UNL     1       4.020  -0.839  -3.711  1.00  0.00     0.118 C 
BRANCH  34  35
ATOM     35  N   UNL     1       4.519  -2.203  -3.851  1.00  0.00    -0.352 N 
ATOM     36  C   UNL     1       5.190  -2.782  -4.902  1.00  0.00     0.251 C 
ATOM     37  H   UNL     1       4.350  -2.794  -3.082  1.00  0.00     0.163 HD
ATOM     38  O   UNL     1       5.441  -3.983  -4.891  1.00  0.00    -0.269 OA
BRANCH  36  39
ATOM     39  C   UNL     1       5.575  -1.958  -6.066  1.00  0.00     0.039 A 
ATOM     40  C   UNL     1       5.284  -2.425  -7.351  1.00  0.00     0.014 A 
ATOM     41  C   UNL     1       6.180  -0.712  -5.889  1.00  0.00     0.014 A 
ATOM     42  C   UNL     1       5.511  -1.598  -8.454  1.00  0.00     0.010 A 
ATOM     43  C   UNL     1       6.333   0.139  -6.978  1.00  0.00     0.010 A 
ATOM     44  C   UNL     1       5.988  -0.291  -8.269  1.00  0.00    -0.014 A 
BRANCH  44  45
ATOM     45  C   UNL     1       6.120   0.663  -9.398  1.00  0.00     0.031 A 
ATOM     46  C   UNL     1       7.471   1.213  -9.758  1.00  0.00     0.074 A 
ATOM     47  C   UNL     1       5.017   1.119 -10.022  1.00  0.00     0.049 A 
ATOM     48  N   UNL     1       7.778   2.178 -10.586  1.00  0.00    -0.248 NA
ATOM     49  C   UNL     1       8.628   0.616  -9.072  1.00  0.00     0.031 C 
ATOM     50  C   UNL     1       3.644   0.693  -9.740  1.00  0.00     0.029 A 
ATOM     51  N   UNL     1       4.875   2.064 -11.007  1.00  0.00    -0.354 N 
ATOM     52  C   UNL     1       9.156   2.325 -10.498  1.00  0.00     0.074 A 
ATOM     53  C   UNL     1       9.621   1.375  -9.510  1.00  0.00     0.031 C 
ATOM     54  C   UNL     1       2.802   1.368 -10.539  1.00  0.00     0.029 A 
ATOM     55  C   UNL     1       3.567   2.305 -11.355  1.00  0.00     0.049 A 
ATOM     56  H   UNL     1       5.637   2.526 -11.425  1.00  0.00     0.167 HD
ATOM     57  C   UNL     1       9.961   3.166 -11.188  1.00  0.00     0.037 A 
ATOM     58  C   UNL     1       3.043   3.195 -12.219  1.00  0.00     0.037 A 
ATOM     59  C   UNL     1       9.500   4.085 -12.194  1.00  0.00     0.049 A 
ATOM     60  C   UNL     1       3.958   4.117 -12.974  1.00  0.00     0.074 A 
ATOM     61  C   UNL     1      10.246   4.938 -12.989  1.00  0.00     0.029 A 
ATOM     62  N   UNL     1       8.172   4.268 -12.546  1.00  0.00    -0.354 N 
ATOM     63  N   UNL     1       5.264   4.215 -12.914  1.00  0.00    -0.248 NA
ATOM     64  C   UNL     1       3.328   5.053 -13.917  1.00  0.00     0.031 C 
ATOM     65  C   UNL     1       9.366   5.660 -13.801  1.00  0.00     0.029 A 
ATOM     66  C   UNL     1       8.075   5.229 -13.539  1.00  0.00     0.049 A 
ATOM     67  H   UNL     1       7.410   3.787 -12.149  1.00  0.00     0.167 HD
ATOM     68  C   UNL     1       5.614   5.196 -13.833  1.00  0.00     0.074 A 
ATOM     69  C   UNL     1       4.384   5.662 -14.438  1.00  0.00     0.031 C 
ATOM     70  C   UNL     1       6.845   5.665 -14.147  1.00  0.00     0.037 A 
BRANCH  57  71
ATOM     71  C   UNL     1      11.428   3.127 -10.878  1.00  0.00     0.057 A 
ATOM     72  C   UNL     1      12.235   2.050 -11.265  1.00  0.00     0.134 A 
ATOM     73  C   UNL     1      12.046   4.194 -10.215  1.00  0.00     0.134 A 
ATOM     74  F   UNL     1      11.701   0.991 -11.892  1.00  0.00    -0.206 F 
ATOM     75  C   UNL     1      13.602   2.024 -10.982  1.00  0.00     0.040 A 
ATOM     76  C   UNL     1      13.416   4.192  -9.948  1.00  0.00     0.040 A 
ATOM     77  F   UNL     1      11.332   5.260  -9.822  1.00  0.00    -0.206 F 
ATOM     78  C   UNL     1      14.197   3.101 -10.327  1.00  0.00     0.006 A 
ENDBRANCH  57  71
BRANCH  58  79
ATOM     79  C   UNL     1       1.575   3.249 -12.427  1.00  0.00     0.057 A 
ATOM     80  C   UNL     1       1.001   2.790 -13.619  1.00  0.00     0.134 A 
ATOM     81  C   UNL     1       0.713   3.759 -11.450  1.00  0.00     0.134 A 
ATOM     82  F   UNL     1       1.779   2.309 -14.600  1.00  0.00    -0.206 F 
ATOM     83  C   UNL     1      -0.375   2.851 -13.839  1.00  0.00     0.040 A 
ATOM     84  C   UNL     1      -0.669   3.805 -11.647  1.00  0.00     0.040 A 
ATOM     85  F   UNL     1       1.200   4.208 -10.284  1.00  0.00    -0.206 F 
ATOM     86  C   UNL     1      -1.215   3.356 -12.848  1.00  0.00     0.006 A 
ENDBRANCH  58  79
BRANCH  70  87
ATOM     87  C   UNL     1       6.935   6.697 -15.230  1.00  0.00     0.057 A 
ATOM     88  C   UNL     1       6.574   8.032 -15.011  1.00  0.00     0.134 A 
ATOM     89  C   UNL     1       7.447   6.360 -16.489  1.00  0.00     0.134 A 
ATOM     90  F   UNL     1       6.065   8.414 -13.830  1.00  0.00    -0.206 F 
ATOM     91  C   UNL     1       6.710   8.995 -16.012  1.00  0.00     0.040 A 
ATOM     92  C   UNL     1       7.609   7.318 -17.490  1.00  0.00     0.040 A 
ATOM     93  F   UNL     1       7.818   5.099 -16.758  1.00  0.00    -0.206 F 
ATOM     94  C   UNL     1       7.237   8.640 -17.253  1.00  0.00     0.006 A 
ENDBRANCH  70  87
ENDBRANCH  44  45
ENDBRANCH  36  39
ENDBRANCH  34  35
ENDBRANCH  33  34
ENDBRANCH  32  33
ENDBRANCH   3  32
TORSDOF 15
