REMARK SMILES CCCN(CC)S(=O)(=O)c1ccc(C(=O)NCCCNC(=O)c2ccc(-c3c4nc(c(-c5c(F)cccc5F)c5ccc([nH]5)c(-c5c(F)cccc5F)c5nc(c(-c6c(F)cccc6F)c6ccc3[nH]6)C=C5)C=C4)cc2)o1
REMARK SMILES IDX 17 1 16 2 14 3 15 4 13 6 10 7 11 8 77 9 12 10 7 11 8 12 9 13
REMARK SMILES IDX 4 14 3 15 2 16 1 17 5 18 6 19 18 20 19 21 20 22 21 23 22 25
REMARK SMILES IDX 23 26 24 27 76 28 25 29 75 30 26 31 27 32 28 33 69 34 29 35
REMARK SMILES IDX 74 36 68 37 70 38 30 39 73 40 67 41 66 42 31 44 57 45 40 46
REMARK SMILES IDX 56 47 41 48 44 49 55 50 71 51 42 52 43 53 54 55 72 56 45 57
REMARK SMILES IDX 32 58 33 59 38 60 34 61 35 62 37 63 39 64 36 65 58 66 59 67
REMARK SMILES IDX 64 68 60 69 61 70 63 71 65 72 62 73 46 74 47 75 52 76 48 77
REMARK SMILES IDX 49 78 51 79 53 80 50 81
REMARK H PARENT 16 5 20 24 70 43 44 54
REMARK Flexibility Score: inf
ROOT
ATOM      1  C   UNL     1      -1.281   5.966   6.503  1.00  0.00     0.118 C 
ENDROOT
BRANCH   1   2
ATOM      2  N   UNL     1      -0.075   6.220   5.744  1.00  0.00    -0.349 N 
ATOM      3  C   UNL     1       0.697   5.412   4.942  1.00  0.00     0.287 C 
ATOM      4  O   UNL     1       1.653   5.974   4.403  1.00  0.00    -0.266 OA
ATOM      5  H   UNL     1       0.255   7.144   5.815  1.00  0.00     0.163 HD
BRANCH   3   6
ATOM      6  C   UNL     1       0.392   4.005   4.735  1.00  0.00     0.193 A 
ATOM      7  C   UNL     1       0.642   2.087   3.585  1.00  0.00     0.234 A 
ATOM      8  C   UNL     1      -0.306   1.869   4.574  1.00  0.00     0.065 A 
ATOM      9  O   UNL     1       1.065   3.393   3.709  1.00  0.00    -0.438 OA
ATOM     10  C   UNL     1      -0.433   3.066   5.323  1.00  0.00     0.058 A 
BRANCH   7  11
ATOM     11  S   UNL     1       1.271   1.045   2.263  1.00  0.00     0.276 S 
ATOM     12  O   UNL     1       2.698   1.278   2.225  1.00  0.00    -0.204 OA
ATOM     13  O   UNL     1       0.420   1.381   1.143  1.00  0.00    -0.204 OA
BRANCH  11  14
ATOM     14  N   UNL     1       1.017  -0.610   2.648  1.00  0.00    -0.195 NA
BRANCH  14  15
ATOM     15  C   UNL     1       1.383  -1.566   1.549  1.00  0.00     0.102 C 
BRANCH  15  16
ATOM     16  C   UNL     1       0.382  -1.552   0.392  1.00  0.00     0.013 C 
ATOM     17  C   UNL     1       0.887  -0.802  -0.838  1.00  0.00     0.005 C 
ENDBRANCH  15  16
ENDBRANCH  14  15
BRANCH  14  18
ATOM     18  C   UNL     1       1.498  -1.087   3.979  1.00  0.00     0.099 C 
ATOM     19  C   UNL     1       3.006  -1.095   4.147  1.00  0.00     0.022 C 
ENDBRANCH  14  18
ENDBRANCH  11  14
ENDBRANCH   7  11
ENDBRANCH   3   6
ENDBRANCH   1   2
BRANCH   1  20
ATOM     20  C   UNL     1      -0.974   5.543   7.939  1.00  0.00     0.042 C 
BRANCH  20  21
ATOM     21  C   UNL     1      -0.423   6.676   8.808  1.00  0.00     0.118 C 
BRANCH  21  22
ATOM     22  N   UNL     1      -1.443   7.658   9.141  1.00  0.00    -0.352 N 
ATOM     23  C   UNL     1      -1.701   8.281  10.335  1.00  0.00     0.251 C 
ATOM     24  H   UNL     1      -2.037   7.913   8.398  1.00  0.00     0.163 HD
ATOM     25  O   UNL     1      -2.719   8.958  10.456  1.00  0.00    -0.269 OA
BRANCH  23  26
ATOM     26  C   UNL     1      -0.780   8.140  11.485  1.00  0.00     0.039 A 
ATOM     27  C   UNL     1      -1.331   7.935  12.756  1.00  0.00     0.014 A 
ATOM     28  C   UNL     1       0.603   8.294  11.340  1.00  0.00     0.014 A 
ATOM     29  C   UNL     1      -0.499   7.850  13.875  1.00  0.00     0.010 A 
ATOM     30  C   UNL     1       1.436   8.185  12.456  1.00  0.00     0.010 A 
ATOM     31  C   UNL     1       0.891   7.969  13.731  1.00  0.00    -0.014 A 
BRANCH  31  32
ATOM     32  C   UNL     1       1.782   7.899  14.913  1.00  0.00     0.031 A 
ATOM     33  C   UNL     1       2.400   9.149  15.468  1.00  0.00     0.074 A 
ATOM     34  C   UNL     1       2.063   6.707  15.469  1.00  0.00     0.049 A 
ATOM     35  N   UNL     1       3.268   9.280  16.438  1.00  0.00    -0.248 NA
ATOM     36  C   UNL     1       1.997  10.418  14.842  1.00  0.00     0.031 C 
ATOM     37  C   UNL     1       1.536   5.418  15.022  1.00  0.00     0.029 A 
ATOM     38  N   UNL     1       2.870   6.390  16.532  1.00  0.00    -0.354 N 
ATOM     39  C   UNL     1       3.538  10.639  16.522  1.00  0.00     0.074 A 
ATOM     40  C   UNL     1       2.740  11.293  15.505  1.00  0.00     0.031 C 
ATOM     41  C   UNL     1       2.030   4.448  15.810  1.00  0.00     0.029 A 
ATOM     42  C   UNL     1       2.919   5.046  16.802  1.00  0.00     0.049 A 
ATOM     43  H   UNL     1       3.368   7.063  17.051  1.00  0.00     0.167 HD
ATOM     44  C   UNL     1       4.375  11.284  17.369  1.00  0.00     0.037 A 
ATOM     45  C   UNL     1       3.608   4.372  17.741  1.00  0.00     0.037 A 
ATOM     46  C   UNL     1       5.149  10.650  18.401  1.00  0.00     0.049 A 
ATOM     47  C   UNL     1       4.495   5.115  18.695  1.00  0.00     0.074 A 
ATOM     48  C   UNL     1       6.017  11.230  19.311  1.00  0.00     0.029 A 
ATOM     49  N   UNL     1       5.138   9.291  18.667  1.00  0.00    -0.354 N 
ATOM     50  N   UNL     1       4.746   6.399  18.757  1.00  0.00    -0.248 NA
ATOM     51  C   UNL     1       5.196   4.313  19.710  1.00  0.00     0.031 C 
ATOM     52  C   UNL     1       6.535  10.217  20.128  1.00  0.00     0.029 A 
ATOM     53  C   UNL     1       5.979   9.012  19.731  1.00  0.00     0.049 A 
ATOM     54  H   UNL     1       4.610   8.622  18.174  1.00  0.00     0.167 HD
ATOM     55  C   UNL     1       5.627   6.561  19.817  1.00  0.00     0.074 A 
ATOM     56  C   UNL     1       5.861   5.246  20.377  1.00  0.00     0.031 C 
ATOM     57  C   UNL     1       6.194   7.700  20.280  1.00  0.00     0.037 A 
BRANCH  44  58
ATOM     58  C   UNL     1       4.502  12.764  17.198  1.00  0.00     0.057 A 
ATOM     59  C   UNL     1       3.562  13.647  17.740  1.00  0.00     0.134 A 
ATOM     60  C   UNL     1       5.585  13.311  16.499  1.00  0.00     0.134 A 
ATOM     61  F   UNL     1       2.496  13.178  18.406  1.00  0.00    -0.206 F 
ATOM     62  C   UNL     1       3.689  15.028  17.584  1.00  0.00     0.040 A 
ATOM     63  C   UNL     1       5.728  14.690  16.346  1.00  0.00     0.040 A 
ATOM     64  F   UNL     1       6.516  12.513  15.954  1.00  0.00    -0.206 F 
ATOM     65  C   UNL     1       4.777  15.553  16.888  1.00  0.00     0.006 A 
ENDBRANCH  44  58
BRANCH  45  66
ATOM     66  C   UNL     1       3.473   2.902  17.831  1.00  0.00     0.057 A 
ATOM     67  C   UNL     1       2.628   2.317  18.779  1.00  0.00     0.134 A 
ATOM     68  C   UNL     1       4.177   2.054  16.970  1.00  0.00     0.134 A 
ATOM     69  F   UNL     1       1.943   3.085  19.638  1.00  0.00    -0.206 F 
ATOM     70  C   UNL     1       2.490   0.932  18.873  1.00  0.00     0.040 A 
ATOM     71  C   UNL     1       4.042   0.668  17.047  1.00  0.00     0.040 A 
ATOM     72  F   UNL     1       5.001   2.564  16.043  1.00  0.00    -0.206 F 
ATOM     73  C   UNL     1       3.197   0.104  18.002  1.00  0.00     0.006 A 
ENDBRANCH  45  66
BRANCH  57  74
ATOM     74  C   UNL     1       7.108   7.572  21.456  1.00  0.00     0.057 A 
ATOM     75  C   UNL     1       8.452   7.218  21.297  1.00  0.00     0.134 A 
ATOM     76  C   UNL     1       6.648   7.832  22.752  1.00  0.00     0.134 A 
ATOM     77  F   UNL     1       8.944   6.947  20.078  1.00  0.00    -0.206 F 
ATOM     78  C   UNL     1       9.310   7.120  22.392  1.00  0.00     0.040 A 
ATOM     79  C   UNL     1       7.499   7.744  23.854  1.00  0.00     0.040 A 
ATOM     80  F   UNL     1       5.368   8.172  22.964  1.00  0.00    -0.206 F 
ATOM     81  C   UNL     1       8.834   7.386  23.675  1.00  0.00     0.006 A 
ENDBRANCH  57  74
ENDBRANCH  31  32
ENDBRANCH  23  26
ENDBRANCH  21  22
ENDBRANCH  20  21
ENDBRANCH   1  20
TORSDOF 15
