REMARK SMILES O=C(NCCCNC(=O)[C@H](Cc1ccc(O)cc1)NC(=O)c1ccc(Cl)s1)c1ccc(-c2c3nc(c(-c4c(F)cccc4F)c4ccc([nH]4)c(-c4c(F)cccc4F)c4nc(c(-c5c(F)cccc5F)c5ccc2[nH]5)C=C4)C=C3)cc1
REMARK SMILES IDX 5 1 4 2 3 3 1 4 2 5 28 7 29 8 81 9 30 10 80 11 31 12 32 13
REMARK SMILES IDX 33 14 74 15 34 16 79 17 73 18 75 19 35 20 78 21 72 22 71 23
REMARK SMILES IDX 36 25 62 26 45 27 61 28 46 29 49 30 60 31 76 32 47 33 48 34
REMARK SMILES IDX 59 36 77 37 50 38 37 39 38 40 43 41 39 42 40 43 42 44 44 45
REMARK SMILES IDX 41 46 63 47 64 48 69 49 65 50 66 51 68 52 70 53 67 54 51 55
REMARK SMILES IDX 52 56 57 57 53 58 54 59 56 60 58 61 55 62 6 63 7 64 8 65
REMARK SMILES IDX 9 67 10 68 19 69 20 70 21 72 22 73 23 74 27 75 24 76 25 77
REMARK SMILES IDX 26 78 11 79 12 80 13 81 18 82 14 83 17 84 15 85 16 86
REMARK H PARENT 3 6 75 24 49 35 7 66 19 71 16 87
REMARK Flexibility Score: inf
ROOT
ATOM      1  C   UNL     1       8.829  -3.000   2.856  1.00  0.00     0.042 C 
ENDROOT
BRANCH   1   2
ATOM      2  C   UNL     1       9.896  -1.900   1.991  1.00  0.00     0.118 C 
BRANCH   2   3
ATOM      3  N   UNL     1      11.333  -1.833   2.315  1.00  0.00    -0.352 N 
ATOM      4  O   UNL     1      13.425  -2.692   2.469  1.00  0.00    -0.269 OA
ATOM      5  C   UNL     1      12.393  -2.538   1.827  1.00  0.00     0.251 C 
ATOM      6  H   UNL     1      11.566  -1.166   3.001  1.00  0.00     0.163 HD
BRANCH   5   7
ATOM      7  C   UNL     1      12.318  -2.979   0.440  1.00  0.00     0.039 A 
ATOM      8  C   UNL     1      11.807  -2.064  -0.487  1.00  0.00     0.014 A 
ATOM      9  C   UNL     1      12.837  -4.213   0.052  1.00  0.00     0.014 A 
ATOM     10  C   UNL     1      11.714  -2.420  -1.808  1.00  0.00     0.010 A 
ATOM     11  C   UNL     1      12.826  -4.537  -1.297  1.00  0.00     0.010 A 
ATOM     12  C   UNL     1      12.268  -3.637  -2.218  1.00  0.00    -0.014 A 
BRANCH  12  13
ATOM     13  C   UNL     1      12.357  -3.881  -3.660  1.00  0.00     0.031 A 
ATOM     14  C   UNL     1      11.495  -4.915  -4.290  1.00  0.00     0.074 A 
ATOM     15  C   UNL     1      13.210  -3.111  -4.356  1.00  0.00     0.049 A 
ATOM     16  N   UNL     1      11.452  -5.289  -5.538  1.00  0.00    -0.248 NA
ATOM     17  C   UNL     1      10.566  -5.632  -3.404  1.00  0.00     0.031 C 
ATOM     18  C   UNL     1      14.065  -2.068  -3.774  1.00  0.00     0.029 A 
ATOM     19  N   UNL     1      13.494  -3.068  -5.689  1.00  0.00    -0.354 N 
ATOM     20  C   UNL     1      10.513  -6.307  -5.586  1.00  0.00     0.074 A 
ATOM     21  C   UNL     1      10.017  -6.500  -4.241  1.00  0.00     0.031 C 
ATOM     22  C   UNL     1      14.760  -1.474  -4.751  1.00  0.00     0.029 A 
ATOM     23  C   UNL     1      14.456  -2.143  -6.007  1.00  0.00     0.049 A 
ATOM     24  H   UNL     1      13.053  -3.643  -6.356  1.00  0.00     0.167 HD
ATOM     25  C   UNL     1      10.120  -7.011  -6.671  1.00  0.00     0.037 A 
ATOM     26  C   UNL     1      15.054  -1.897  -7.184  1.00  0.00     0.037 A 
ATOM     27  C   UNL     1      10.652  -6.779  -7.989  1.00  0.00     0.049 A 
ATOM     28  C   UNL     1      14.617  -2.705  -8.364  1.00  0.00     0.074 A 
ATOM     29  C   UNL     1      10.330  -7.407  -9.176  1.00  0.00     0.029 A 
ATOM     30  N   UNL     1      11.635  -5.838  -8.283  1.00  0.00    -0.354 N 
ATOM     31  N   UNL     1      13.715  -3.659  -8.414  1.00  0.00    -0.248 NA
ATOM     32  C   UNL     1      15.270  -2.419  -9.643  1.00  0.00     0.031 C 
ATOM     33  C   UNL     1      11.152  -6.881 -10.179  1.00  0.00     0.029 A 
ATOM     34  C   UNL     1      11.950  -5.887  -9.629  1.00  0.00     0.049 A 
ATOM     35  H   UNL     1      12.046  -5.228  -7.629  1.00  0.00     0.167 HD
ATOM     36  C   UNL     1      13.681  -4.084  -9.731  1.00  0.00     0.074 A 
ATOM     37  C   UNL     1      14.648  -3.271 -10.449  1.00  0.00     0.031 C 
ATOM     38  C   UNL     1      12.923  -5.054 -10.298  1.00  0.00     0.037 A 
BRANCH  25  39
ATOM     39  C   UNL     1       9.130  -8.116  -6.450  1.00  0.00     0.057 A 
ATOM     40  C   UNL     1       7.797  -7.867  -6.097  1.00  0.00     0.134 A 
ATOM     41  C   UNL     1       9.527  -9.454  -6.561  1.00  0.00     0.134 A 
ATOM     42  F   UNL     1       7.355  -6.609  -5.948  1.00  0.00    -0.206 F 
ATOM     43  C   UNL     1       6.904  -8.909  -5.830  1.00  0.00     0.040 A 
ATOM     44  C   UNL     1       8.638 -10.504  -6.323  1.00  0.00     0.040 A 
ATOM     45  F   UNL     1      10.790  -9.765  -6.891  1.00  0.00    -0.206 F 
ATOM     46  C   UNL     1       7.324 -10.232  -5.947  1.00  0.00     0.006 A 
ENDBRANCH  25  39
BRANCH  26  47
ATOM     47  C   UNL     1      16.121  -0.872  -7.250  1.00  0.00     0.057 A 
ATOM     48  C   UNL     1      15.908   0.364  -7.866  1.00  0.00     0.134 A 
ATOM     49  C   UNL     1      17.349  -1.067  -6.602  1.00  0.00     0.134 A 
ATOM     50  F   UNL     1      14.753   0.611  -8.502  1.00  0.00    -0.206 F 
ATOM     51  C   UNL     1      16.874   1.372  -7.832  1.00  0.00     0.040 A 
ATOM     52  C   UNL     1      18.313  -0.061  -6.538  1.00  0.00     0.040 A 
ATOM     53  F   UNL     1      17.606  -2.224  -5.973  1.00  0.00    -0.206 F 
ATOM     54  C   UNL     1      18.076   1.164  -7.156  1.00  0.00     0.006 A 
ENDBRANCH  26  47
BRANCH  38  55
ATOM     55  C   UNL     1      13.098  -5.264 -11.769  1.00  0.00     0.057 A 
ATOM     56  C   UNL     1      14.211  -5.934 -12.289  1.00  0.00     0.134 A 
ATOM     57  C   UNL     1      12.104  -4.850 -12.664  1.00  0.00     0.134 A 
ATOM     58  F   UNL     1      15.201  -6.339 -11.479  1.00  0.00    -0.206 F 
ATOM     59  C   UNL     1      14.334  -6.178 -13.655  1.00  0.00     0.040 A 
ATOM     60  C   UNL     1      12.204  -5.111 -14.029  1.00  0.00     0.040 A 
ATOM     61  F   UNL     1      11.012  -4.209 -12.220  1.00  0.00    -0.206 F 
ATOM     62  C   UNL     1      13.323  -5.776 -14.528  1.00  0.00     0.006 A 
ENDBRANCH  38  55
ENDBRANCH  12  13
ENDBRANCH   5   7
ENDBRANCH   2   3
ENDBRANCH   1   2
BRANCH   1  63
ATOM     63  C   UNL     1       8.327  -3.319   4.968  1.00  0.00     0.117 C 
BRANCH  63  64
ATOM     64  N   UNL     1       8.085  -2.267   6.148  1.00  0.00    -0.354 N 
ATOM     65  C   UNL     1       6.953  -1.518   6.336  1.00  0.00     0.242 C 
ATOM     66  H   UNL     1       8.815  -2.147   6.798  1.00  0.00     0.163 HD
ATOM     67  O   UNL     1       7.031  -0.393   6.828  1.00  0.00    -0.273 OA
BRANCH  65  68
ATOM     68  C   UNL     1       5.660  -2.142   5.812  1.00  0.00     0.176 C 
BRANCH  68  69
ATOM     69  N   UNL     1       4.563  -1.613   6.611  1.00  0.00    -0.339 N 
ATOM     70  C   UNL     1       4.362  -1.846   7.966  1.00  0.00     0.262 C 
ATOM     71  H   UNL     1       3.907  -1.040   6.151  1.00  0.00     0.164 HD
ATOM     72  O   UNL     1       3.332  -1.410   8.477  1.00  0.00    -0.268 OA
BRANCH  70  73
ATOM     73  C   UNL     1       5.368  -2.584   8.724  1.00  0.00     0.093 A 
ATOM     74  C   UNL     1       6.599  -2.161   9.206  1.00  0.00     0.027 A 
ATOM     75  S   UNL     1       5.050  -4.198   9.209  1.00  0.00    -0.118 S 
ATOM     76  C   UNL     1       7.339  -3.208   9.830  1.00  0.00     0.033 A 
ATOM     77  C   UNL     1       6.580  -4.343   9.923  1.00  0.00     0.094 A 
ATOM     78  Cl  UNL     1       7.043  -5.815  10.676  1.00  0.00    -0.072 Cl
ENDBRANCH  70  73
ENDBRANCH  68  69
BRANCH  68  79
ATOM     79  C   UNL     1       5.612  -1.901   4.278  1.00  0.00     0.070 C 
BRANCH  79  80
ATOM     80  C   UNL     1       6.943  -2.396   3.682  1.00  0.00    -0.045 A 
ATOM     81  C   UNL     1       7.119  -4.173   3.405  1.00  0.00     0.007 A 
ATOM     82  C   UNL     1       8.405  -1.401   4.074  1.00  0.00     0.007 A 
ATOM     83  C   UNL     1       8.701  -4.982   3.681  1.00  0.00     0.046 A 
ATOM     84  C   UNL     1       9.984  -2.238   4.415  1.00  0.00     0.046 A 
ATOM     85  C   UNL     1      10.144  -4.008   4.128  1.00  0.00     0.115 A 
BRANCH  85  86
ATOM     86  O   UNL     1      11.332  -4.609   4.380  1.00  0.00    -0.508 OA
ATOM     87  H   UNL     1      11.432  -5.530   4.236  1.00  0.00     0.293 HD
ENDBRANCH  85  86
ENDBRANCH  79  80
ENDBRANCH  68  79
ENDBRANCH  65  68
ENDBRANCH  63  64
ENDBRANCH   1  63
TORSDOF 15
