REMARK SMILES Cc1ccc(S(=O)(=O)Nc2ccc(C(=O)CCC(=O)NCCCNC(=O)c3ccc(-c4c5nc(c(-c6c(F)cccc6F)c6ccc([nH]6)c(-c6c(F)cccc6F)c6nc(c(-c7c(F)cccc7F)c7ccc4[nH]7)C=C6)C=C5)cc3)cc2)c(C)c1
REMARK SMILES IDX 18 1 19 2 20 3 17 5 16 6 14 7 15 8 13 9 10 10 11 11 82 12
REMARK SMILES IDX 12 13 81 14 9 15 6 17 7 18 8 19 5 20 1 21 2 22 3 23 85 24
REMARK SMILES IDX 4 25 83 26 84 27 21 28 22 29 23 30 24 31 25 32 26 34 27 35
REMARK SMILES IDX 28 36 80 37 29 38 79 39 30 40 31 41 32 42 73 43 33 44 78 45
REMARK SMILES IDX 72 46 74 47 34 48 77 49 71 50 70 51 35 53 61 54 44 55 60 56
REMARK SMILES IDX 45 57 48 58 59 59 75 60 46 61 47 62 58 64 76 65 49 66 36 67
REMARK SMILES IDX 37 68 42 69 38 70 39 71 41 72 43 73 40 74 62 75 63 76 68 77
REMARK SMILES IDX 64 78 65 79 67 80 69 81 66 82 50 83 51 84 56 85 52 86 53 87
REMARK SMILES IDX 55 88 57 89 54 90
REMARK H PARENT 20 4 9 16 24 33 74 52 48 63
REMARK Flexibility Score: inf
ROOT
ATOM      1  C   UNL     1       3.806  -3.119   1.152  1.00  0.00     0.220 C 
ATOM      2  O   UNL     1       4.059  -2.557   2.219  1.00  0.00    -0.275 OA
ATOM      3  N   UNL     1       3.028  -2.448   0.236  1.00  0.00    -0.356 N 
ATOM      4  H   UNL     1       2.996  -1.467   0.319  1.00  0.00     0.163 HD
ENDROOT
BRANCH   1   5
ATOM      5  C   UNL     1       4.319  -4.543   0.858  1.00  0.00     0.108 C 
BRANCH   5   6
ATOM      6  C   UNL     1       3.599  -5.701   1.615  1.00  0.00     0.091 C 
BRANCH   6   7
ATOM      7  C   UNL     1       2.783  -6.732   0.765  1.00  0.00     0.163 C 
ATOM      8  O   UNL     1       3.281  -7.759   0.317  1.00  0.00    -0.294 OA
BRANCH   7   9
ATOM      9  C   UNL     1       1.389  -6.353   0.285  1.00  0.00     0.018 A 
ATOM     10  C   UNL     1      -0.358  -3.385  -0.882  1.00  0.00     0.049 A 
ATOM     11  C   UNL     1       0.609  -4.428  -2.065  1.00  0.00     0.027 A 
ATOM     12  C   UNL     1      -0.426  -3.859   0.847  1.00  0.00     0.027 A 
ATOM     13  C   UNL     1       1.412  -5.942  -1.487  1.00  0.00     0.014 A 
ATOM     14  C   UNL     1       0.425  -5.356   1.414  1.00  0.00     0.014 A 
BRANCH  10  15
ATOM     15  N   UNL     1      -1.481  -2.671  -1.456  1.00  0.00    -0.280 N 
ATOM     16  H   UNL     1      -1.832  -2.975  -2.324  1.00  0.00     0.180 HD
BRANCH  15  17
ATOM     17  S   UNL     1      -2.221  -1.342  -0.712  1.00  0.00     0.262 S 
ATOM     18  O   UNL     1      -2.434  -1.674   0.680  1.00  0.00    -0.201 OA
ATOM     19  O   UNL     1      -3.329  -0.977  -1.567  1.00  0.00    -0.201 OA
BRANCH  17  20
ATOM     20  C   UNL     1      -1.022  -0.046  -0.807  1.00  0.00     0.090 A 
ATOM     21  C   UNL     1       2.529   2.119   0.134  1.00  0.00     0.044 C 
ATOM     22  C   UNL     1       1.254   1.448  -0.274  1.00  0.00    -0.051 A 
ATOM     23  C   UNL     1       1.291   0.451  -1.246  1.00  0.00     0.005 A 
ATOM     24  C   UNL     1       0.019   1.823   0.275  1.00  0.00     0.008 A 
ATOM     25  C   UNL     1       0.143  -0.272  -1.536  1.00  0.00     0.023 A 
ATOM     26  C   UNL     1      -1.142   1.082   0.012  1.00  0.00    -0.030 A 
ATOM     27  C   UNL     1      -2.477   1.596   0.475  1.00  0.00     0.046 C 
ENDBRANCH  17  20
ENDBRANCH  15  17
ENDBRANCH  10  15
ENDBRANCH   7   9
ENDBRANCH   6   7
ENDBRANCH   5   6
ENDBRANCH   1   5
BRANCH   3  28
ATOM     28  C   UNL     1       2.243  -3.042  -0.852  1.00  0.00     0.117 C 
BRANCH  28  29
ATOM     29  C   UNL     1       1.367  -4.275  -0.183  1.00  0.00     0.042 C 
BRANCH  29  30
ATOM     30  C   UNL     1      -0.423  -5.455  -0.584  1.00  0.00     0.118 C 
BRANCH  30  31
ATOM     31  N   UNL     1      -1.485  -5.307  -1.871  1.00  0.00    -0.352 N 
ATOM     32  C   UNL     1      -2.579  -5.876  -2.397  1.00  0.00     0.251 C 
ATOM     33  H   UNL     1      -1.214  -4.544  -2.430  1.00  0.00     0.163 HD
ATOM     34  O   UNL     1      -2.962  -5.466  -3.491  1.00  0.00    -0.269 OA
BRANCH  32  35
ATOM     35  C   UNL     1      -3.327  -6.886  -1.701  1.00  0.00     0.039 A 
ATOM     36  C   UNL     1      -3.942  -7.857  -2.494  1.00  0.00     0.014 A 
ATOM     37  C   UNL     1      -3.539  -6.776  -0.330  1.00  0.00     0.014 A 
ATOM     38  C   UNL     1      -4.788  -8.753  -1.891  1.00  0.00     0.010 A 
ATOM     39  C   UNL     1      -4.309  -7.725   0.288  1.00  0.00     0.010 A 
ATOM     40  C   UNL     1      -4.947  -8.687  -0.503  1.00  0.00    -0.014 A 
BRANCH  40  41
ATOM     41  C   UNL     1      -5.821  -9.636   0.163  1.00  0.00     0.031 A 
ATOM     42  C   UNL     1      -7.097  -9.133   0.739  1.00  0.00     0.074 A 
ATOM     43  C   UNL     1      -5.359 -10.889   0.266  1.00  0.00     0.049 A 
ATOM     44  N   UNL     1      -7.988  -9.780   1.431  1.00  0.00    -0.248 NA
ATOM     45  C   UNL     1      -7.391  -7.698   0.560  1.00  0.00     0.031 C 
ATOM     46  C   UNL     1      -4.065 -11.358  -0.251  1.00  0.00     0.029 A 
ATOM     47  N   UNL     1      -5.914 -11.992   0.831  1.00  0.00    -0.354 N 
ATOM     48  C   UNL     1      -8.936  -8.832   1.784  1.00  0.00     0.074 A 
ATOM     49  C   UNL     1      -8.479  -7.552   1.299  1.00  0.00     0.031 C 
ATOM     50  C   UNL     1      -3.948 -12.670  -0.011  1.00  0.00     0.029 A 
ATOM     51  C   UNL     1      -5.136 -13.112   0.703  1.00  0.00     0.049 A 
ATOM     52  H   UNL     1      -6.787 -11.986   1.287  1.00  0.00     0.167 HD
ATOM     53  C   UNL     1     -10.100  -9.048   2.433  1.00  0.00     0.037 A 
ATOM     54  C   UNL     1      -5.391 -14.359   1.123  1.00  0.00     0.037 A 
ATOM     55  C   UNL     1     -10.491 -10.364   2.864  1.00  0.00     0.049 A 
ATOM     56  C   UNL     1      -6.713 -14.577   1.797  1.00  0.00     0.074 A 
ATOM     57  C   UNL     1     -11.648 -10.765   3.498  1.00  0.00     0.029 A 
ATOM     58  N   UNL     1      -9.708 -11.502   2.685  1.00  0.00    -0.354 N 
ATOM     59  N   UNL     1      -7.644 -13.694   2.089  1.00  0.00    -0.248 NA
ATOM     60  C   UNL     1      -7.036 -15.950   2.179  1.00  0.00     0.031 C 
ATOM     61  C   UNL     1     -11.547 -12.141   3.735  1.00  0.00     0.029 A 
ATOM     62  C   UNL     1     -10.353 -12.609   3.200  1.00  0.00     0.049 A 
ATOM     63  H   UNL     1      -8.823 -11.516   2.254  1.00  0.00     0.167 HD
ATOM     64  C   UNL     1      -8.681 -14.407   2.665  1.00  0.00     0.074 A 
ATOM     65  C   UNL     1      -8.262 -15.800   2.661  1.00  0.00     0.031 C 
ATOM     66  C   UNL     1      -9.868 -13.969   3.155  1.00  0.00     0.037 A 
BRANCH  53  67
ATOM     67  C   UNL     1     -10.979  -7.861   2.695  1.00  0.00     0.057 A 
ATOM     68  C   UNL     1     -11.582  -7.136   1.655  1.00  0.00     0.134 A 
ATOM     69  C   UNL     1     -11.207  -7.411   4.001  1.00  0.00     0.134 A 
ATOM     70  F   UNL     1     -11.389  -7.493   0.376  1.00  0.00    -0.206 F 
ATOM     71  C   UNL     1     -12.345  -5.992   1.901  1.00  0.00     0.040 A 
ATOM     72  C   UNL     1     -11.995  -6.287   4.263  1.00  0.00     0.040 A 
ATOM     73  F   UNL     1     -10.657  -8.046   5.047  1.00  0.00    -0.206 F 
ATOM     74  C   UNL     1     -12.559  -5.568   3.211  1.00  0.00     0.006 A 
ENDBRANCH  53  67
BRANCH  54  75
ATOM     75  C   UNL     1      -4.428 -15.448   0.840  1.00  0.00     0.057 A 
ATOM     76  C   UNL     1      -4.725 -16.449  -0.090  1.00  0.00     0.134 A 
ATOM     77  C   UNL     1      -3.161 -15.480   1.437  1.00  0.00     0.134 A 
ATOM     78  F   UNL     1      -5.915 -16.464  -0.708  1.00  0.00    -0.206 F 
ATOM     79  C   UNL     1      -3.811 -17.459  -0.397  1.00  0.00     0.040 A 
ATOM     80  C   UNL     1      -2.227 -16.468   1.121  1.00  0.00     0.040 A 
ATOM     81  F   UNL     1      -2.798 -14.528   2.309  1.00  0.00    -0.206 F 
ATOM     82  C   UNL     1      -2.555 -17.468   0.207  1.00  0.00     0.006 A 
ENDBRANCH  54  75
BRANCH  66  83
ATOM     83  C   UNL     1     -10.786 -15.026   3.683  1.00  0.00     0.057 A 
ATOM     84  C   UNL     1     -10.527 -15.694   4.885  1.00  0.00     0.134 A 
ATOM     85  C   UNL     1     -11.958 -15.349   2.989  1.00  0.00     0.134 A 
ATOM     86  F   UNL     1      -9.411 -15.432   5.582  1.00  0.00    -0.206 F 
ATOM     87  C   UNL     1     -11.389 -16.677   5.363  1.00  0.00     0.040 A 
ATOM     88  C   UNL     1     -12.845 -16.305   3.476  1.00  0.00     0.040 A 
ATOM     89  F   UNL     1     -12.263 -14.731   1.838  1.00  0.00    -0.206 F 
ATOM     90  C   UNL     1     -12.556 -16.978   4.662  1.00  0.00     0.006 A 
ENDBRANCH  66  83
ENDBRANCH  40  41
ENDBRANCH  32  35
ENDBRANCH  30  31
ENDBRANCH  29  30
ENDBRANCH  28  29
ENDBRANCH   3  28
TORSDOF 16
