REMARK SMILES C[NH2+][C@]1(C(=O)NCCCNC(=O)c2ccc(-c3c4nc(c(-c5c(F)cccc5F)c5ccc([nH]5)c(-c5c(F)cccc5F)c5nc(c(-c6c(F)cccc6F)c6ccc3[nH]6)C=C5)C=C4)cc2)CCC[C@@H](Sc2nccs2)C1
REMARK SMILES IDX 8 1 7 2 6 3 4 4 5 5 3 7 67 8 77 9 68 10 70 11 69 12 2 13
REMARK SMILES IDX 1 14 71 17 72 18 73 19 76 20 74 21 75 22 9 23 10 24 11 25
REMARK SMILES IDX 12 27 13 28 14 29 66 30 15 31 65 32 16 33 17 34 18 35 59 36
REMARK SMILES IDX 19 37 64 38 58 39 60 40 20 41 63 42 57 43 56 44 21 46 47 47
REMARK SMILES IDX 30 48 46 49 31 50 34 51 45 52 61 53 32 54 33 55 44 57 62 58
REMARK SMILES IDX 35 59 22 60 23 61 28 62 24 63 25 64 27 65 29 66 26 67 48 68
REMARK SMILES IDX 49 69 54 70 50 71 51 72 53 73 55 74 52 75 36 76 37 77 42 78
REMARK SMILES IDX 38 79 39 80 41 81 43 82 40 83
REMARK H PARENT 6 6 2 15 2 16 10 26 60 45 34 56
REMARK Flexibility Score: inf
ROOT
ATOM      1  C   UNL     1       1.023  -0.078   2.154  1.00  0.00     0.042 C 
ENDROOT
BRANCH   1   2
ATOM      2  C   UNL     1       0.454   0.712   0.989  1.00  0.00     0.118 C 
BRANCH   2   3
ATOM      3  N   UNL     1       0.964   0.280  -0.298  1.00  0.00    -0.351 N 
ATOM      4  C   UNL     1       0.312  -0.030  -1.454  1.00  0.00     0.281 C 
ATOM      5  O   UNL     1       1.030  -0.382  -2.401  1.00  0.00    -0.268 OA
ATOM      6  H   UNL     1       1.943   0.195  -0.344  1.00  0.00     0.163 HD
BRANCH   4   7
ATOM      7  C   UNL     1      -1.266  -0.057  -1.575  1.00  0.00     0.176 C 
ATOM      8  C   UNL     1      -1.727  -1.287  -0.750  1.00  0.00     0.079 C 
ATOM      9  C   UNL     1      -1.875   1.307  -1.137  1.00  0.00     0.094 C 
ATOM     10  C   UNL     1      -3.179  -1.266  -0.292  1.00  0.00     0.008 C 
ATOM     11  C   UNL     1      -3.284   1.237  -0.532  1.00  0.00     0.061 C 
ATOM     12  C   UNL     1      -3.520   0.045   0.397  1.00  0.00     0.015 C 
BRANCH   7  13
ATOM     13  N   UNL     1      -1.531  -0.192  -3.039  1.00  0.00    -0.336 N 
ATOM     14  C   UNL     1      -2.782  -0.767  -3.481  1.00  0.00     0.331 C 
ATOM     15  H   UNL     1      -1.476   0.744  -3.440  1.00  0.00     0.346 HD
ATOM     16  H   UNL     1      -0.832  -0.867  -3.350  1.00  0.00     0.346 HD
ENDBRANCH   7  13
BRANCH  11  17
ATOM     17  S   UNL     1      -3.771   2.831   0.244  1.00  0.00    -0.092 SA
BRANCH  17  18
ATOM     18  C   UNL     1      -3.079   2.731   1.848  1.00  0.00     0.150 A 
ATOM     19  N   UNL     1      -1.781   2.658   2.049  1.00  0.00    -0.238 NA
ATOM     20  S   UNL     1      -4.051   2.731   3.264  1.00  0.00    -0.116 S 
ATOM     21  C   UNL     1      -1.525   2.628   3.408  1.00  0.00     0.124 A 
ATOM     22  C   UNL     1      -2.635   2.634   4.224  1.00  0.00     0.087 A 
ENDBRANCH  17  18
ENDBRANCH  11  17
ENDBRANCH   4   7
ENDBRANCH   2   3
ENDBRANCH   1   2
BRANCH   1  23
ATOM     23  C   UNL     1       2.523   0.072   2.334  1.00  0.00     0.118 C 
BRANCH  23  24
ATOM     24  N   UNL     1       2.926   1.426   2.690  1.00  0.00    -0.352 N 
ATOM     25  C   UNL     1       3.477   1.927   3.847  1.00  0.00     0.251 C 
ATOM     26  H   UNL     1       2.780   2.096   1.984  1.00  0.00     0.163 HD
ATOM     27  O   UNL     1       3.593   3.137   3.990  1.00  0.00    -0.269 OA
BRANCH  25  28
ATOM     28  C   UNL     1       3.886   1.016   4.941  1.00  0.00     0.039 A 
ATOM     29  C   UNL     1       3.625   1.393   6.262  1.00  0.00     0.014 A 
ATOM     30  C   UNL     1       4.518  -0.200   4.681  1.00  0.00     0.014 A 
ATOM     31  C   UNL     1       3.910   0.510   7.306  1.00  0.00     0.010 A 
ATOM     32  C   UNL     1       4.697  -1.122   5.706  1.00  0.00     0.010 A 
ATOM     33  C   UNL     1       4.398  -0.778   7.032  1.00  0.00    -0.014 A 
BRANCH  33  34
ATOM     34  C   UNL     1       4.603  -1.779   8.112  1.00  0.00     0.031 A 
ATOM     35  C   UNL     1       5.971  -2.355   8.360  1.00  0.00     0.074 A 
ATOM     36  C   UNL     1       3.545  -2.224   8.820  1.00  0.00     0.049 A 
ATOM     37  N   UNL     1       6.332  -3.300   9.191  1.00  0.00    -0.248 NA
ATOM     38  C   UNL     1       7.074  -1.823   7.543  1.00  0.00     0.031 C 
ATOM     39  C   UNL     1       2.159  -1.787   8.642  1.00  0.00     0.029 A 
ATOM     40  N   UNL     1       3.470  -3.155   9.826  1.00  0.00    -0.354 N 
ATOM     41  C   UNL     1       7.693  -3.487   8.982  1.00  0.00     0.074 A 
ATOM     42  C   UNL     1       8.082  -2.602   7.907  1.00  0.00     0.031 C 
ATOM     43  C   UNL     1       1.377  -2.426   9.527  1.00  0.00     0.029 A 
ATOM     44  C   UNL     1       2.196  -3.351  10.303  1.00  0.00     0.049 A 
ATOM     45  H   UNL     1       4.255  -3.638  10.173  1.00  0.00     0.167 HD
ATOM     46  C   UNL     1       8.548  -4.302   9.644  1.00  0.00     0.037 A 
ATOM     47  C   UNL     1       1.737  -4.188  11.253  1.00  0.00     0.037 A 
ATOM     48  C   UNL     1       8.166  -5.158  10.735  1.00  0.00     0.049 A 
ATOM     49  C   UNL     1       2.707  -5.085  11.971  1.00  0.00     0.074 A 
ATOM     50  C   UNL     1       8.970  -5.974  11.512  1.00  0.00     0.029 A 
ATOM     51  N   UNL     1       6.870  -5.309  11.204  1.00  0.00    -0.354 N 
ATOM     52  N   UNL     1       4.003  -5.199  11.810  1.00  0.00    -0.248 NA
ATOM     53  C   UNL     1       2.152  -5.967  13.008  1.00  0.00     0.031 C 
ATOM     54  C   UNL     1       8.153  -6.654  12.420  1.00  0.00     0.029 A 
ATOM     55  C   UNL     1       6.848  -6.222  12.246  1.00  0.00     0.049 A 
ATOM     56  H   UNL     1       6.082  -4.838  10.849  1.00  0.00     0.167 HD
ATOM     57  C   UNL     1       4.422  -6.138  12.744  1.00  0.00     0.074 A 
ATOM     58  C   UNL     1       3.244  -6.552  13.477  1.00  0.00     0.031 C 
ATOM     59  C   UNL     1       5.670  -6.614  12.975  1.00  0.00     0.037 A 
BRANCH  46  60
ATOM     60  C   UNL     1       9.986  -4.299   9.212  1.00  0.00     0.057 A 
ATOM     61  C   UNL     1      10.824  -3.199   9.436  1.00  0.00     0.134 A 
ATOM     62  C   UNL     1      10.552  -5.426   8.601  1.00  0.00     0.134 A 
ATOM     63  F   UNL     1      10.343  -2.083  10.005  1.00  0.00    -0.206 F 
ATOM     64  C   UNL     1      12.165  -3.209   9.047  1.00  0.00     0.040 A 
ATOM     65  C   UNL     1      11.898  -5.460   8.234  1.00  0.00     0.040 A 
ATOM     66  F   UNL     1       9.808  -6.517   8.362  1.00  0.00    -0.206 F 
ATOM     67  C   UNL     1      12.707  -4.346   8.451  1.00  0.00     0.006 A 
ENDBRANCH  46  60
BRANCH  47  68
ATOM     68  C   UNL     1       0.292  -4.208  11.598  1.00  0.00     0.057 A 
ATOM     69  C   UNL     1      -0.161  -3.743  12.839  1.00  0.00     0.134 A 
ATOM     70  C   UNL     1      -0.668  -4.709  10.710  1.00  0.00     0.134 A 
ATOM     71  F   UNL     1       0.712  -3.267  13.740  1.00  0.00    -0.206 F 
ATOM     72  C   UNL     1      -1.509  -3.799  13.195  1.00  0.00     0.040 A 
ATOM     73  C   UNL     1      -2.023  -4.745  11.042  1.00  0.00     0.040 A 
ATOM     74  F   UNL     1      -0.302  -5.161   9.502  1.00  0.00    -0.206 F 
ATOM     75  C   UNL     1      -2.446  -4.298  12.293  1.00  0.00     0.006 A 
ENDBRANCH  47  68
BRANCH  59  76
ATOM     76  C   UNL     1       5.835  -7.601  14.093  1.00  0.00     0.057 A 
ATOM     77  C   UNL     1       5.367  -8.917  13.997  1.00  0.00     0.134 A 
ATOM     78  C   UNL     1       6.510  -7.238  15.266  1.00  0.00     0.134 A 
ATOM     79  F   UNL     1       4.701  -9.324  12.905  1.00  0.00    -0.206 F 
ATOM     80  C   UNL     1       5.543  -9.831  15.037  1.00  0.00     0.040 A 
ATOM     81  C   UNL     1       6.718  -8.151  16.300  1.00  0.00     0.040 A 
ATOM     82  F   UNL     1       6.992  -5.996  15.419  1.00  0.00    -0.206 F 
ATOM     83  C   UNL     1       6.228  -9.450  16.190  1.00  0.00     0.006 A 
ENDBRANCH  59  76
ENDBRANCH  33  34
ENDBRANCH  25  28
ENDBRANCH  23  24
ENDBRANCH   1  23
TORSDOF 13
