REMARK SMILES C[C@H](C(=O)NCCCNC(=O)c1ccc(-c2c3nc(c(-c4c(F)cccc4F)c4ccc([nH]4)c(-c4c(F)cccc4F)c4nc(c(-c5c(F)cccc5F)c5ccc2[nH]5)C=C4)C=C3)cc1)[C@@H](C(=O)c1ccccc1)c1ccc(F)cc1
REMARK SMILES IDX 6 1 5 2 3 3 4 4 2 6 1 7 66 8 67 9 68 10 69 11 70 12 74 13
REMARK SMILES IDX 71 14 73 15 72 16 75 17 76 18 81 19 77 20 80 21 78 22 79 23
REMARK SMILES IDX 7 24 8 25 9 26 10 27 11 29 12 30 13 31 65 32 14 33 64 34
REMARK SMILES IDX 15 35 16 36 17 37 58 38 18 39 63 40 57 41 59 42 19 43 62 44
REMARK SMILES IDX 56 45 55 46 20 48 46 49 29 50 45 51 30 52 33 53 44 54 60 55
REMARK SMILES IDX 31 56 32 57 43 59 61 60 34 61 21 62 22 63 27 64 23 65 24 66
REMARK SMILES IDX 26 67 28 68 25 69 47 70 48 71 53 72 49 73 50 74 52 75 54 76
REMARK SMILES IDX 51 77 35 78 36 79 41 80 37 81 38 82 40 83 42 84 39 85
REMARK H PARENT 5 5 9 28 59 47 33 58
REMARK Flexibility Score: inf
ROOT
ATOM      1  C   UNL     1      -0.596  -1.256  -1.470  1.00  0.00     0.117 C 
ENDROOT
BRANCH   1   2
ATOM      2  N   UNL     1       0.738  -1.053  -0.947  1.00  0.00    -0.356 N 
ATOM      3  C   UNL     1       1.284  -0.080  -0.176  1.00  0.00     0.223 C 
ATOM      4  O   UNL     1       2.407  -0.326   0.282  1.00  0.00    -0.275 OA
ATOM      5  H   UNL     1       1.375  -1.760  -1.201  1.00  0.00     0.163 HD
BRANCH   3   6
ATOM      6  C   UNL     1       0.685   1.315   0.025  1.00  0.00     0.090 C 
ATOM      7  C   UNL     1       1.099   2.052  -1.253  1.00  0.00     0.019 C 
BRANCH   6   8
ATOM      8  C   UNL     1      -0.794   1.413   0.554  1.00  0.00     0.103 C 
BRANCH   8   9
ATOM      9  C   UNL     1      -0.796   0.741   1.970  1.00  0.00     0.171 C 
ATOM     10  O   UNL     1      -0.740   1.361   3.030  1.00  0.00    -0.293 OA
BRANCH   9  11
ATOM     11  C   UNL     1      -0.782  -0.737   2.077  1.00  0.00     0.018 A 
ATOM     12  C   UNL     1      -1.918  -1.512   1.836  1.00  0.00     0.012 A 
ATOM     13  C   UNL     1       0.420  -1.347   2.453  1.00  0.00     0.012 A 
ATOM     14  C   UNL     1      -1.819  -2.908   1.898  1.00  0.00     0.001 A 
ATOM     15  C   UNL     1       0.523  -2.736   2.476  1.00  0.00     0.001 A 
ATOM     16  C   UNL     1      -0.595  -3.517   2.192  1.00  0.00     0.000 A 
ENDBRANCH   9  11
ENDBRANCH   8   9
BRANCH   8  17
ATOM     17  C   UNL     1      -1.469   2.823   0.626  1.00  0.00    -0.036 A 
ATOM     18  C   UNL     1      -1.091   3.936  -0.145  1.00  0.00     0.007 A 
ATOM     19  C   UNL     1      -2.585   3.022   1.472  1.00  0.00     0.007 A 
ATOM     20  C   UNL     1      -1.690   5.195   0.003  1.00  0.00     0.039 A 
ATOM     21  C   UNL     1      -3.193   4.278   1.624  1.00  0.00     0.039 A 
ATOM     22  C   UNL     1      -2.724   5.360   0.902  1.00  0.00     0.123 A 
ATOM     23  F   UNL     1      -3.281   6.568   1.059  1.00  0.00    -0.207 F 
ENDBRANCH   8  17
ENDBRANCH   6   8
ENDBRANCH   3   6
ENDBRANCH   1   2
BRANCH   1  24
ATOM     24  C   UNL     1      -0.663  -2.048  -2.768  1.00  0.00     0.042 C 
BRANCH  24  25
ATOM     25  C   UNL     1       0.169  -3.322  -2.842  1.00  0.00     0.118 C 
BRANCH  25  26
ATOM     26  N   UNL     1      -0.217  -4.369  -1.906  1.00  0.00    -0.352 N 
ATOM     27  C   UNL     1      -0.574  -5.684  -2.144  1.00  0.00     0.251 C 
ATOM     28  H   UNL     1      -0.224  -4.099  -0.959  1.00  0.00     0.163 HD
ATOM     29  O   UNL     1      -0.902  -6.408  -1.218  1.00  0.00    -0.269 OA
BRANCH  27  30
ATOM     30  C   UNL     1      -0.632  -6.191  -3.538  1.00  0.00     0.039 A 
ATOM     31  C   UNL     1      -1.792  -6.846  -3.963  1.00  0.00     0.014 A 
ATOM     32  C   UNL     1       0.404  -5.954  -4.443  1.00  0.00     0.014 A 
ATOM     33  C   UNL     1      -1.974  -7.122  -5.322  1.00  0.00     0.010 A 
ATOM     34  C   UNL     1       0.185  -6.148  -5.806  1.00  0.00     0.010 A 
ATOM     35  C   UNL     1      -1.023  -6.696  -6.264  1.00  0.00    -0.014 A 
BRANCH  35  36
ATOM     36  C   UNL     1      -1.306  -6.725  -7.725  1.00  0.00     0.031 A 
ATOM     37  C   UNL     1      -0.429  -7.508  -8.662  1.00  0.00     0.074 A 
ATOM     38  C   UNL     1      -2.287  -5.942  -8.223  1.00  0.00     0.049 A 
ATOM     39  N   UNL     1      -0.441  -7.539  -9.970  1.00  0.00    -0.248 NA
ATOM     40  C   UNL     1       0.617  -8.343  -8.051  1.00  0.00     0.031 C 
ATOM     41  C   UNL     1      -3.170  -5.080  -7.434  1.00  0.00     0.029 A 
ATOM     42  N   UNL     1      -2.691  -5.724  -9.519  1.00  0.00    -0.354 N 
ATOM     43  C   UNL     1       0.607  -8.372 -10.340  1.00  0.00     0.074 A 
ATOM     44  C   UNL     1       1.256  -8.801  -9.120  1.00  0.00     0.031 C 
ATOM     45  C   UNL     1      -4.016  -4.439  -8.256  1.00  0.00     0.029 A 
ATOM     46  C   UNL     1      -3.710  -4.807  -9.634  1.00  0.00     0.049 A 
ATOM     47  H   UNL     1      -2.290  -6.182 -10.292  1.00  0.00     0.167 HD
ATOM     48  C   UNL     1       0.983  -8.757 -11.582  1.00  0.00     0.037 A 
ATOM     49  C   UNL     1      -4.316  -4.299 -10.724  1.00  0.00     0.037 A 
ATOM     50  C   UNL     1       0.308  -8.372 -12.794  1.00  0.00     0.049 A 
ATOM     51  C   UNL     1      -3.878  -4.750 -12.089  1.00  0.00     0.074 A 
ATOM     52  C   UNL     1       0.547  -8.808 -14.086  1.00  0.00     0.029 A 
ATOM     53  N   UNL     1      -0.732  -7.460 -12.864  1.00  0.00    -0.354 N 
ATOM     54  N   UNL     1      -2.946  -5.611 -12.414  1.00  0.00    -0.248 NA
ATOM     55  C   UNL     1      -4.573  -4.154 -13.240  1.00  0.00     0.031 C 
ATOM     56  C   UNL     1      -0.321  -8.127 -14.945  1.00  0.00     0.029 A 
ATOM     57  C   UNL     1      -1.123  -7.294 -14.183  1.00  0.00     0.049 A 
ATOM     58  H   UNL     1      -1.134  -7.000 -12.093  1.00  0.00     0.167 HD
ATOM     59  C   UNL     1      -2.952  -5.671 -13.801  1.00  0.00     0.074 A 
ATOM     60  C   UNL     1      -3.994  -4.776 -14.257  1.00  0.00     0.031 C 
ATOM     61  C   UNL     1      -2.160  -6.399 -14.623  1.00  0.00     0.037 A 
BRANCH  48  62
ATOM     62  C   UNL     1       2.174  -9.658 -11.706  1.00  0.00     0.057 A 
ATOM     63  C   UNL     1       2.109 -11.015 -11.369  1.00  0.00     0.134 A 
ATOM     64  C   UNL     1       3.376  -9.180 -12.245  1.00  0.00     0.134 A 
ATOM     65  F   UNL     1       0.988 -11.531 -10.842  1.00  0.00    -0.206 F 
ATOM     66  C   UNL     1       3.200 -11.864 -11.554  1.00  0.00     0.040 A 
ATOM     67  C   UNL     1       4.467 -10.024 -12.453  1.00  0.00     0.040 A 
ATOM     68  F   UNL     1       3.500  -7.890 -12.594  1.00  0.00    -0.206 F 
ATOM     69  C   UNL     1       4.381 -11.371 -12.107  1.00  0.00     0.006 A 
ENDBRANCH  48  62
BRANCH  49  70
ATOM     70  C   UNL     1      -5.399  -3.293 -10.581  1.00  0.00     0.057 A 
ATOM     71  C   UNL     1      -6.726  -3.612 -10.893  1.00  0.00     0.134 A 
ATOM     72  C   UNL     1      -5.130  -1.982 -10.168  1.00  0.00     0.134 A 
ATOM     73  F   UNL     1      -7.041  -4.845 -11.316  1.00  0.00    -0.206 F 
ATOM     74  C   UNL     1      -7.743  -2.659 -10.823  1.00  0.00     0.040 A 
ATOM     75  C   UNL     1      -6.142  -1.026 -10.071  1.00  0.00     0.040 A 
ATOM     76  F   UNL     1      -3.880  -1.615  -9.851  1.00  0.00    -0.206 F 
ATOM     77  C   UNL     1      -7.452  -1.361 -10.408  1.00  0.00     0.006 A 
ENDBRANCH  49  70
BRANCH  61  78
ATOM     78  C   UNL     1      -2.396  -6.267 -16.097  1.00  0.00     0.057 A 
ATOM     79  C   UNL     1      -1.990  -5.128 -16.803  1.00  0.00     0.134 A 
ATOM     80  C   UNL     1      -2.997  -7.302 -16.823  1.00  0.00     0.134 A 
ATOM     81  F   UNL     1      -1.423  -4.096 -16.160  1.00  0.00    -0.206 F 
ATOM     82  C   UNL     1      -2.187  -5.017 -18.180  1.00  0.00     0.040 A 
ATOM     83  C   UNL     1      -3.179  -7.212 -18.204  1.00  0.00     0.040 A 
ATOM     84  F   UNL     1      -3.403  -8.421 -16.206  1.00  0.00    -0.206 F 
ATOM     85  C   UNL     1      -2.776  -6.065 -18.885  1.00  0.00     0.006 A 
ENDBRANCH  61  78
ENDBRANCH  35  36
ENDBRANCH  27  30
ENDBRANCH  25  26
ENDBRANCH  24  25
ENDBRANCH   1  24
TORSDOF 14
