REMARK SMILES Cc1c(C(=O)NCCCNC(=O)c2ccc(-c3c4nc(c(-c5c(F)cccc5F)c5ccc([nH]5)c(-c5c(F)cccc5F)c5nc(c(-c6c(F)cccc6F)c6ccc3[nH]6)C=C5)C=C4)cc2)sc2ncnc(NCc3cn4c(n3)SCC4)c12
REMARK SMILES IDX 7 1 6 2 4 3 5 4 3 6 1 7 2 8 83 9 67 10 68 11 72 12 69 13
REMARK SMILES IDX 71 14 70 15 73 16 74 18 75 19 76 20 79 21 77 22 78 23 82 24
REMARK SMILES IDX 80 25 81 26 8 27 9 28 10 29 11 30 12 32 13 33 14 34 66 35
REMARK SMILES IDX 15 36 65 37 16 38 17 39 18 40 59 41 19 42 64 43 58 44 60 45
REMARK SMILES IDX 20 46 63 47 57 48 56 49 21 51 47 52 30 53 46 54 31 55 34 56
REMARK SMILES IDX 45 57 61 58 32 59 33 60 44 62 62 63 35 64 22 65 23 66 28 67
REMARK SMILES IDX 24 68 25 69 27 70 29 71 26 72 48 73 49 74 54 75 50 76 51 77
REMARK SMILES IDX 53 78 55 79 52 80 36 81 37 82 42 83 38 84 39 85 41 86 43 87
REMARK SMILES IDX 40 88
REMARK H PARENT 6 5 73 17 10 31 60 50 34 61
REMARK Flexibility Score: inf
ROOT
ATOM      1  C   UNL     1       1.981   5.399  -0.602  1.00  0.00     0.118 C 
ENDROOT
BRANCH   1   2
ATOM      2  N   UNL     1       2.060   4.357   0.405  1.00  0.00    -0.351 N 
ATOM      3  C   UNL     1       1.508   3.102   0.469  1.00  0.00     0.261 C 
ATOM      4  O   UNL     1       1.733   2.494   1.520  1.00  0.00    -0.268 OA
ATOM      5  H   UNL     1       2.611   4.595   1.186  1.00  0.00     0.163 HD
BRANCH   3   6
ATOM      6  C   UNL     1       0.782   2.503  -0.648  1.00  0.00     0.098 A 
ATOM      7  C   UNL     1       1.710   0.193  -0.316  1.00  0.00     0.047 C 
ATOM      8  C   UNL     1       0.794   1.151  -1.011  1.00  0.00    -0.014 A 
ATOM      9  C   UNL     1      -0.115   0.862  -2.130  1.00  0.00     0.057 A 
ATOM     10  S   UNL     1      -0.279   3.391  -1.628  1.00  0.00    -0.110 S 
ATOM     11  C   UNL     1      -0.575   2.074  -2.639  1.00  0.00     0.129 A 
ATOM     12  C   UNL     1      -0.600  -0.277  -2.833  1.00  0.00     0.138 A 
ATOM     13  N   UNL     1      -1.251   2.297  -3.775  1.00  0.00    -0.225 NA
ATOM     14  N   UNL     1      -1.279  -0.065  -3.997  1.00  0.00    -0.219 NA
ATOM     15  C   UNL     1      -1.525   1.176  -4.421  1.00  0.00     0.225 A 
BRANCH  12  16
ATOM     16  N   UNL     1      -0.525  -1.616  -2.570  1.00  0.00    -0.364 N 
ATOM     17  H   UNL     1      -0.873  -2.183  -3.296  1.00  0.00     0.162 HD
BRANCH  16  18
ATOM     18  C   UNL     1      -0.037  -2.360  -1.437  1.00  0.00     0.172 C 
BRANCH  18  19
ATOM     19  C   UNL     1      -0.954  -2.596  -0.282  1.00  0.00     0.079 A 
ATOM     20  C   UNL     1      -1.823  -3.664  -0.077  1.00  0.00     0.113 A 
ATOM     21  N   UNL     1      -1.030  -1.688   0.768  1.00  0.00    -0.226 NA
ATOM     22  N   UNL     1      -2.451  -3.353   1.078  1.00  0.00    -0.325 N 
ATOM     23  C   UNL     1      -1.948  -2.183   1.547  1.00  0.00     0.168 A 
ATOM     24  C   UNL     1      -3.659  -3.840   1.710  1.00  0.00     0.135 C 
ATOM     25  S   UNL     1      -2.898  -1.518   2.818  1.00  0.00    -0.086 SA
ATOM     26  C   UNL     1      -4.308  -2.594   2.319  1.00  0.00     0.100 C 
ENDBRANCH  18  19
ENDBRANCH  16  18
ENDBRANCH  12  16
ENDBRANCH   3   6
ENDBRANCH   1   2
BRANCH   1  27
ATOM     27  C   UNL     1       0.829   6.363  -0.300  1.00  0.00     0.042 C 
BRANCH  27  28
ATOM     28  C   UNL     1       1.204   7.338   0.800  1.00  0.00     0.118 C 
BRANCH  28  29
ATOM     29  N   UNL     1       2.237   8.280   0.362  1.00  0.00    -0.352 N 
ATOM     30  C   UNL     1       2.826   9.302   1.077  1.00  0.00     0.251 C 
ATOM     31  H   UNL     1       2.551   8.168  -0.564  1.00  0.00     0.163 HD
ATOM     32  O   UNL     1       3.433  10.199   0.519  1.00  0.00    -0.269 OA
BRANCH  30  33
ATOM     33  C   UNL     1       2.710   9.273   2.543  1.00  0.00     0.039 A 
ATOM     34  C   UNL     1       2.416  10.428   3.271  1.00  0.00     0.014 A 
ATOM     35  C   UNL     1       2.857   8.041   3.172  1.00  0.00     0.014 A 
ATOM     36  C   UNL     1       2.203  10.313   4.640  1.00  0.00     0.010 A 
ATOM     37  C   UNL     1       2.470   7.900   4.474  1.00  0.00     0.010 A 
ATOM     38  C   UNL     1       2.217   9.039   5.229  1.00  0.00    -0.014 A 
BRANCH  38  39
ATOM     39  C   UNL     1       1.849   8.844   6.623  1.00  0.00     0.031 A 
ATOM     40  C   UNL     1       0.492   9.350   6.961  1.00  0.00     0.074 A 
ATOM     41  C   UNL     1       2.581   8.062   7.449  1.00  0.00     0.049 A 
ATOM     42  N   UNL     1       0.189  10.331   7.745  1.00  0.00    -0.248 NA
ATOM     43  C   UNL     1      -0.661   8.812   6.214  1.00  0.00     0.031 C 
ATOM     44  C   UNL     1       3.774   7.263   7.130  1.00  0.00     0.029 A 
ATOM     45  N   UNL     1       2.351   7.730   8.747  1.00  0.00    -0.354 N 
ATOM     46  C   UNL     1      -1.202  10.386   7.766  1.00  0.00     0.074 A 
ATOM     47  C   UNL     1      -1.658   9.575   6.669  1.00  0.00     0.031 C 
ATOM     48  C   UNL     1       4.010   6.374   8.119  1.00  0.00     0.029 A 
ATOM     49  C   UNL     1       3.108   6.658   9.216  1.00  0.00     0.049 A 
ATOM     50  H   UNL     1       1.701   8.209   9.311  1.00  0.00     0.167 HD
ATOM     51  C   UNL     1      -1.865  10.883   8.846  1.00  0.00     0.037 A 
ATOM     52  C   UNL     1       2.977   6.046  10.420  1.00  0.00     0.037 A 
ATOM     53  C   UNL     1      -0.973  11.628   9.699  1.00  0.00     0.049 A 
ATOM     54  C   UNL     1       2.245   6.989  11.300  1.00  0.00     0.074 A 
ATOM     55  C   UNL     1      -0.215  12.773   9.557  1.00  0.00     0.029 A 
ATOM     56  N   UNL     1      -0.458  10.961  10.782  1.00  0.00    -0.354 N 
ATOM     57  N   UNL     1       2.731   8.129  11.703  1.00  0.00    -0.248 NA
ATOM     58  C   UNL     1       0.797   6.872  11.347  1.00  0.00     0.031 C 
ATOM     59  C   UNL     1       0.990  12.508  10.271  1.00  0.00     0.029 A 
ATOM     60  C   UNL     1       0.877  11.254  10.874  1.00  0.00     0.049 A 
ATOM     61  H   UNL     1      -0.962  10.372  11.389  1.00  0.00     0.167 HD
ATOM     62  C   UNL     1       1.663   9.010  11.635  1.00  0.00     0.074 A 
ATOM     63  C   UNL     1       0.480   8.160  11.497  1.00  0.00     0.031 C 
ATOM     64  C   UNL     1       1.868  10.340  11.399  1.00  0.00     0.037 A 
BRANCH  51  65
ATOM     65  C   UNL     1      -3.194  10.368   9.341  1.00  0.00     0.057 A 
ATOM     66  C   UNL     1      -3.860  11.059  10.369  1.00  0.00     0.134 A 
ATOM     67  C   UNL     1      -3.700   9.082   9.061  1.00  0.00     0.134 A 
ATOM     68  F   UNL     1      -3.457  12.281  10.752  1.00  0.00    -0.206 F 
ATOM     69  C   UNL     1      -4.912  10.490  11.099  1.00  0.00     0.040 A 
ATOM     70  C   UNL     1      -4.783   8.526   9.747  1.00  0.00     0.040 A 
ATOM     71  F   UNL     1      -3.115   8.255   8.188  1.00  0.00    -0.206 F 
ATOM     72  C   UNL     1      -5.375   9.217  10.790  1.00  0.00     0.006 A 
ENDBRANCH  51  65
BRANCH  52  73
ATOM     73  C   UNL     1       3.114   4.610  10.764  1.00  0.00     0.057 A 
ATOM     74  C   UNL     1       3.171   4.195  12.104  1.00  0.00     0.134 A 
ATOM     75  C   UNL     1       2.873   3.600   9.817  1.00  0.00     0.134 A 
ATOM     76  F   UNL     1       3.365   5.090  13.084  1.00  0.00    -0.206 F 
ATOM     77  C   UNL     1       2.954   2.864  12.485  1.00  0.00     0.040 A 
ATOM     78  C   UNL     1       2.657   2.266  10.184  1.00  0.00     0.040 A 
ATOM     79  F   UNL     1       2.741   3.889   8.515  1.00  0.00    -0.206 F 
ATOM     80  C   UNL     1       2.678   1.897  11.524  1.00  0.00     0.006 A 
ENDBRANCH  52  73
BRANCH  64  81
ATOM     81  C   UNL     1       3.281  10.858  11.482  1.00  0.00     0.057 A 
ATOM     82  C   UNL     1       4.313  10.504  10.598  1.00  0.00     0.134 A 
ATOM     83  C   UNL     1       3.560  11.884  12.391  1.00  0.00     0.134 A 
ATOM     84  F   UNL     1       4.122   9.593   9.637  1.00  0.00    -0.206 F 
ATOM     85  C   UNL     1       5.566  11.126  10.633  1.00  0.00     0.040 A 
ATOM     86  C   UNL     1       4.795  12.536  12.415  1.00  0.00     0.040 A 
ATOM     87  F   UNL     1       2.609  12.311  13.237  1.00  0.00    -0.206 F 
ATOM     88  C   UNL     1       5.806  12.154  11.538  1.00  0.00     0.006 A 
ENDBRANCH  64  81
ENDBRANCH  38  39
ENDBRANCH  30  33
ENDBRANCH  28  29
ENDBRANCH  27  28
ENDBRANCH   1  27
TORSDOF 13
