REMARK SMILES [NH3+]C[C@H]1CC[C@@H](C(=O)N[C@H](CC(=O)NCCCNC(=O)c2ccc(-c3c4nc(c(-c5c(F)cccc5F)c5ccc([nH]5)c(-c5c(F)cccc5F)c5nc(c(-c6c(F)cccc6F)c6ccc3[nH]6)C=C5)C=C4)cc2)c2cccs2)O1
REMARK SMILES IDX 12 1 13 2 14 3 11 5 10 6 9 7 7 8 8 9 6 11 3 12 4 13 80 14
REMARK SMILES IDX 5 15 2 16 1 17 75 21 76 22 79 23 77 24 78 25 15 26 16 27
REMARK SMILES IDX 17 28 18 29 19 30 20 32 21 33 22 34 74 35 23 36 73 37 24 38
REMARK SMILES IDX 25 39 26 40 67 41 27 42 72 43 66 44 68 45 28 46 71 47 65 48
REMARK SMILES IDX 64 49 29 51 55 52 38 53 54 54 39 55 42 56 53 57 69 58 40 59
REMARK SMILES IDX 41 60 52 62 70 63 43 64 30 65 31 66 36 67 32 68 33 69 35 70
REMARK SMILES IDX 37 71 34 72 56 73 57 74 62 75 58 76 59 77 61 78 63 79 60 80
REMARK SMILES IDX 44 81 45 82 50 83 46 84 47 85 49 86 51 87 48 88
REMARK H PARENT 14 4 9 10 1 18 1 19 1 20 18 31 68 50 42 61
REMARK Flexibility Score: inf
ROOT
ATOM      1  C   UNL     1      -3.610   4.463  -2.556  1.00  0.00     0.222 C 
ATOM      2  O   UNL     1      -2.660   4.569  -1.778  1.00  0.00    -0.275 OA
ATOM      3  N   UNL     1      -4.067   5.593  -3.144  1.00  0.00    -0.356 N 
ATOM      4  H   UNL     1      -3.503   6.388  -3.009  1.00  0.00     0.163 HD
ENDROOT
BRANCH   1   5
ATOM      5  C   UNL     1      -4.156   3.111  -2.938  1.00  0.00     0.130 C 
BRANCH   5   6
ATOM      6  C   UNL     1      -5.578   2.745  -2.521  1.00  0.00     0.132 C 
BRANCH   6   7
ATOM      7  N   UNL     1      -6.153   1.598  -3.250  1.00  0.00    -0.346 N 
ATOM      8  C   UNL     1      -5.646   0.406  -3.688  1.00  0.00     0.249 C 
ATOM      9  O   UNL     1      -6.413  -0.368  -4.265  1.00  0.00    -0.272 OA
ATOM     10  H   UNL     1      -7.106   1.716  -3.467  1.00  0.00     0.164 HD
BRANCH   8  11
ATOM     11  C   UNL     1      -4.164   0.091  -3.496  1.00  0.00     0.207 C 
ATOM     12  C   UNL     1      -3.038  -1.295  -1.988  1.00  0.00     0.174 C 
ATOM     13  C   UNL     1      -2.450  -1.490  -3.376  1.00  0.00     0.041 C 
ATOM     14  O   UNL     1      -3.887  -0.135  -2.104  1.00  0.00    -0.359 OA
ATOM     15  C   UNL     1      -3.612  -1.099  -4.262  1.00  0.00     0.045 C 
BRANCH  12  16
ATOM     16  C   UNL     1      -3.861  -2.521  -1.535  1.00  0.00     0.291 C 
BRANCH  16  17
ATOM     17  N   UNL     1      -4.575  -2.288  -0.277  1.00  0.00    -0.355 N 
ATOM     18  H   UNL     1      -5.100  -3.125  -0.024  1.00  0.00     0.344 HD
ATOM     19  H   UNL     1      -5.218  -1.505  -0.391  1.00  0.00     0.344 HD
ATOM     20  H   UNL     1      -3.903  -2.073   0.460  1.00  0.00     0.344 HD
ENDBRANCH  16  17
ENDBRANCH  12  16
ENDBRANCH   8  11
ENDBRANCH   6   7
BRANCH   6  21
ATOM     21  C   UNL     1      -5.816   2.606  -1.032  1.00  0.00     0.027 A 
ATOM     22  C   UNL     1      -4.968   2.869   0.032  1.00  0.00     0.017 A 
ATOM     23  S   UNL     1      -7.389   2.189  -0.452  1.00  0.00    -0.147 S 
ATOM     24  C   UNL     1      -5.606   2.742   1.300  1.00  0.00     0.012 A 
ATOM     25  C   UNL     1      -6.920   2.358   1.180  1.00  0.00     0.065 A 
ENDBRANCH   6  21
ENDBRANCH   5   6
ENDBRANCH   1   5
BRANCH   3  26
ATOM     26  C   UNL     1      -5.254   5.816  -3.941  1.00  0.00     0.117 C 
BRANCH  26  27
ATOM     27  C   UNL     1      -6.387   6.356  -3.074  1.00  0.00     0.042 C 
BRANCH  27  28
ATOM     28  C   UNL     1      -6.006   7.599  -2.276  1.00  0.00     0.118 C 
BRANCH  28  29
ATOM     29  N   UNL     1      -5.556   8.688  -3.128  1.00  0.00    -0.352 N 
ATOM     30  C   UNL     1      -6.058   9.957  -3.256  1.00  0.00     0.251 C 
ATOM     31  H   UNL     1      -4.778   8.484  -3.696  1.00  0.00     0.163 HD
ATOM     32  O   UNL     1      -5.692  10.671  -4.183  1.00  0.00    -0.269 OA
BRANCH  30  33
ATOM     33  C   UNL     1      -7.051  10.452  -2.283  1.00  0.00     0.039 A 
ATOM     34  C   UNL     1      -8.156  11.165  -2.750  1.00  0.00     0.014 A 
ATOM     35  C   UNL     1      -6.886  10.219  -0.914  1.00  0.00     0.014 A 
ATOM     36  C   UNL     1      -9.125  11.600  -1.847  1.00  0.00     0.010 A 
ATOM     37  C   UNL     1      -7.894  10.575  -0.027  1.00  0.00     0.010 A 
ATOM     38  C   UNL     1      -9.017  11.281  -0.483  1.00  0.00    -0.014 A 
BRANCH  38  39
ATOM     39  C   UNL     1     -10.063  11.693   0.485  1.00  0.00     0.031 A 
ATOM     40  C   UNL     1      -9.725  12.642   1.601  1.00  0.00     0.074 A 
ATOM     41  C   UNL     1     -11.300  11.168   0.390  1.00  0.00     0.049 A 
ATOM     42  N   UNL     1     -10.485  13.079   2.573  1.00  0.00    -0.248 NA
ATOM     43  C   UNL     1      -8.343  13.147   1.647  1.00  0.00     0.031 C 
ATOM     44  C   UNL     1     -11.733  10.199  -0.619  1.00  0.00     0.029 A 
ATOM     45  N   UNL     1     -12.418  11.370   1.158  1.00  0.00    -0.354 N 
ATOM     46  C   UNL     1      -9.672  13.894   3.349  1.00  0.00     0.074 A 
ATOM     47  C   UNL     1      -8.347  13.845   2.773  1.00  0.00     0.031 C 
ATOM     48  C   UNL     1     -13.030   9.913  -0.425  1.00  0.00     0.029 A 
ATOM     49  C   UNL     1     -13.508  10.644   0.743  1.00  0.00     0.049 A 
ATOM     50  H   UNL     1     -12.437  11.977   1.932  1.00  0.00     0.167 HD
ATOM     51  C   UNL     1     -10.006  14.639   4.430  1.00  0.00     0.037 A 
ATOM     52  C   UNL     1     -14.752  10.573   1.254  1.00  0.00     0.037 A 
ATOM     53  C   UNL     1     -11.332  14.700   4.987  1.00  0.00     0.049 A 
ATOM     54  C   UNL     1     -15.095  11.400   2.462  1.00  0.00     0.074 A 
ATOM     55  C   UNL     1     -11.788  15.466   6.044  1.00  0.00     0.029 A 
ATOM     56  N   UNL     1     -12.413  13.960   4.531  1.00  0.00    -0.354 N 
ATOM     57  N   UNL     1     -14.335  12.224   3.143  1.00  0.00    -0.248 NA
ATOM     58  C   UNL     1     -16.470  11.294   2.967  1.00  0.00     0.031 C 
ATOM     59  C   UNL     1     -13.133  15.151   6.262  1.00  0.00     0.029 A 
ATOM     60  C   UNL     1     -13.530  14.233   5.303  1.00  0.00     0.049 A 
ATOM     61  H   UNL     1     -12.390  13.333   3.772  1.00  0.00     0.167 HD
ATOM     62  C   UNL     1     -15.147  12.757   4.136  1.00  0.00     0.074 A 
ATOM     63  C   UNL     1     -16.460  12.174   3.959  1.00  0.00     0.031 C 
ATOM     64  C   UNL     1     -14.833  13.650   5.107  1.00  0.00     0.037 A 
BRANCH  51  65
ATOM     65  C   UNL     1      -8.919  15.448   5.078  1.00  0.00     0.057 A 
ATOM     66  C   UNL     1      -8.343  16.558   4.444  1.00  0.00     0.134 A 
ATOM     67  C   UNL     1      -8.462  15.133   6.364  1.00  0.00     0.134 A 
ATOM     68  F   UNL     1      -8.724  16.907   3.207  1.00  0.00    -0.206 F 
ATOM     69  C   UNL     1      -7.334  17.306   5.053  1.00  0.00     0.040 A 
ATOM     70  C   UNL     1      -7.476  15.892   6.996  1.00  0.00     0.040 A 
ATOM     71  F   UNL     1      -8.973  14.087   7.032  1.00  0.00    -0.206 F 
ATOM     72  C   UNL     1      -6.903  16.978   6.337  1.00  0.00     0.006 A 
ENDBRANCH  51  65
BRANCH  52  73
ATOM     73  C   UNL     1     -15.771   9.704   0.612  1.00  0.00     0.057 A 
ATOM     74  C   UNL     1     -16.872  10.254  -0.055  1.00  0.00     0.134 A 
ATOM     75  C   UNL     1     -15.676   8.308   0.655  1.00  0.00     0.134 A 
ATOM     76  F   UNL     1     -17.028  11.584  -0.118  1.00  0.00    -0.206 F 
ATOM     77  C   UNL     1     -17.854   9.448  -0.635  1.00  0.00     0.040 A 
ATOM     78  C   UNL     1     -16.635   7.490   0.056  1.00  0.00     0.040 A 
ATOM     79  F   UNL     1     -14.640   7.718   1.270  1.00  0.00    -0.206 F 
ATOM     80  C   UNL     1     -17.734   8.061  -0.584  1.00  0.00     0.006 A 
ENDBRANCH  52  73
BRANCH  64  81
ATOM     81  C   UNL     1     -15.939  14.083   6.026  1.00  0.00     0.057 A 
ATOM     82  C   UNL     1     -16.478  13.227   6.995  1.00  0.00     0.134 A 
ATOM     83  C   UNL     1     -16.441  15.389   5.965  1.00  0.00     0.134 A 
ATOM     84  F   UNL     1     -16.049  11.960   7.097  1.00  0.00    -0.206 F 
ATOM     85  C   UNL     1     -17.494  13.648   7.854  1.00  0.00     0.040 A 
ATOM     86  C   UNL     1     -17.436  15.830   6.838  1.00  0.00     0.040 A 
ATOM     87  F   UNL     1     -15.962  16.263   5.067  1.00  0.00    -0.206 F 
ATOM     88  C   UNL     1     -17.970  14.956   7.782  1.00  0.00     0.006 A 
ENDBRANCH  64  81
ENDBRANCH  38  39
ENDBRANCH  30  33
ENDBRANCH  28  29
ENDBRANCH  27  28
ENDBRANCH  26  27
ENDBRANCH   3  26
TORSDOF 16
