REMARK SMILES O=C(NCCCNC(=O)c1ccn(-c2cc(-c3ccncc3)nc(-c3ccccc3F)n2)n1)c1ccc(-c2c3nc(c(-c4c(F)cccc4F)c4ccc([nH]4)c(-c4c(F)cccc4F)c4nc(c(-c5c(F)cccc5F)c5ccc2[nH]5)C=C4)C=C3)cc1
REMARK SMILES IDX 5 1 4 2 3 3 1 4 2 5 34 7 35 8 87 9 36 10 86 11 37 12 38 13
REMARK SMILES IDX 39 14 80 15 40 16 85 17 79 18 81 19 41 20 84 21 78 22 77 23
REMARK SMILES IDX 42 25 68 26 51 27 67 28 52 29 55 30 66 31 82 32 53 33 54 34
REMARK SMILES IDX 65 36 83 37 56 38 43 39 44 40 49 41 45 42 46 43 48 44 50 45
REMARK SMILES IDX 47 46 69 47 70 48 75 49 71 50 72 51 74 52 76 53 73 54 57 55
REMARK SMILES IDX 58 56 63 57 59 58 60 59 62 60 64 61 61 62 6 63 7 64 8 65
REMARK SMILES IDX 9 67 10 68 11 69 33 70 12 71 13 72 14 73 15 74 32 75 16 76
REMARK SMILES IDX 24 77 23 78 17 79 18 80 22 81 19 82 21 83 20 84 25 85 26 86
REMARK SMILES IDX 30 87 27 88 29 89 31 90 28 91
REMARK H PARENT 3 6 81 24 55 35 7 66
REMARK Flexibility Score: inf
ROOT
ATOM      1  C   UNL     1       4.949  -1.182   1.814  1.00  0.00     0.042 C 
ENDROOT
BRANCH   1   2
ATOM      2  C   UNL     1       4.678  -0.984   0.323  1.00  0.00     0.118 C 
BRANCH   2   3
ATOM      3  N   UNL     1       3.281  -1.011  -0.064  1.00  0.00    -0.352 N 
ATOM      4  O   UNL     1       1.232  -0.436  -0.652  1.00  0.00    -0.269 OA
ATOM      5  C   UNL     1       2.259  -0.104  -0.054  1.00  0.00     0.251 C 
ATOM      6  H   UNL     1       3.003  -1.888  -0.415  1.00  0.00     0.163 HD
BRANCH   5   7
ATOM      7  C   UNL     1       2.266   1.189   0.681  1.00  0.00     0.039 A 
ATOM      8  C   UNL     1       3.393   1.850   1.170  1.00  0.00     0.014 A 
ATOM      9  C   UNL     1       0.999   1.765   0.900  1.00  0.00     0.014 A 
ATOM     10  C   UNL     1       3.251   3.009   1.934  1.00  0.00     0.010 A 
ATOM     11  C   UNL     1       0.852   2.924   1.651  1.00  0.00     0.010 A 
ATOM     12  C   UNL     1       1.980   3.531   2.194  1.00  0.00    -0.014 A 
BRANCH  12  13
ATOM     13  C   UNL     1       1.875   4.835   2.849  1.00  0.00     0.031 A 
ATOM     14  C   UNL     1       2.383   5.967   2.021  1.00  0.00     0.074 A 
ATOM     15  C   UNL     1       1.214   5.053   4.005  1.00  0.00     0.049 A 
ATOM     16  N   UNL     1       3.338   6.795   2.293  1.00  0.00    -0.248 NA
ATOM     17  C   UNL     1       1.821   6.130   0.667  1.00  0.00     0.031 C 
ATOM     18  C   UNL     1       0.402   4.096   4.760  1.00  0.00     0.029 A 
ATOM     19  N   UNL     1       1.040   6.216   4.702  1.00  0.00    -0.354 N 
ATOM     20  C   UNL     1       3.367   7.704   1.236  1.00  0.00     0.074 A 
ATOM     21  C   UNL     1       2.533   7.155   0.201  1.00  0.00     0.031 C 
ATOM     22  C   UNL     1      -0.345   4.763   5.671  1.00  0.00     0.029 A 
ATOM     23  C   UNL     1       0.024   6.169   5.652  1.00  0.00     0.049 A 
ATOM     24  H   UNL     1       1.587   7.020   4.544  1.00  0.00     0.167 HD
ATOM     25  C   UNL     1       3.874   8.957   1.391  1.00  0.00     0.037 A 
ATOM     26  C   UNL     1      -0.514   7.218   6.329  1.00  0.00     0.037 A 
ATOM     27  C   UNL     1       4.742   9.034   2.537  1.00  0.00     0.049 A 
ATOM     28  C   UNL     1       0.446   8.342   6.248  1.00  0.00     0.074 A 
ATOM     29  C   UNL     1       5.906   8.405   2.931  1.00  0.00     0.029 A 
ATOM     30  N   UNL     1       4.249   9.645   3.660  1.00  0.00    -0.354 N 
ATOM     31  N   UNL     1       1.601   8.371   6.848  1.00  0.00    -0.248 NA
ATOM     32  C   UNL     1       0.276   9.302   5.169  1.00  0.00     0.031 C 
ATOM     33  C   UNL     1       5.794   8.273   4.346  1.00  0.00     0.029 A 
ATOM     34  C   UNL     1       4.599   8.877   4.737  1.00  0.00     0.049 A 
ATOM     35  H   UNL     1       3.736  10.485   3.688  1.00  0.00     0.167 HD
ATOM     36  C   UNL     1       2.439   9.013   5.952  1.00  0.00     0.074 A 
ATOM     37  C   UNL     1       1.548   9.666   4.997  1.00  0.00     0.031 C 
ATOM     38  C   UNL     1       3.769   8.715   5.907  1.00  0.00     0.037 A 
BRANCH  25  39
ATOM     39  C   UNL     1       3.270  10.193   0.761  1.00  0.00     0.057 A 
ATOM     40  C   UNL     1       1.941  10.277   0.296  1.00  0.00     0.134 A 
ATOM     41  C   UNL     1       3.926  11.430   0.907  1.00  0.00     0.134 A 
ATOM     42  F   UNL     1       1.147   9.206   0.185  1.00  0.00    -0.206 F 
ATOM     43  C   UNL     1       1.308  11.492   0.018  1.00  0.00     0.040 A 
ATOM     44  C   UNL     1       3.283  12.655   0.684  1.00  0.00     0.040 A 
ATOM     45  F   UNL     1       5.186  11.492   1.364  1.00  0.00    -0.206 F 
ATOM     46  C   UNL     1       1.967  12.688   0.243  1.00  0.00     0.006 A 
ENDBRANCH  25  39
BRANCH  26  47
ATOM     47  C   UNL     1      -1.907   7.441   6.792  1.00  0.00     0.057 A 
ATOM     48  C   UNL     1      -3.003   6.840   6.151  1.00  0.00     0.134 A 
ATOM     49  C   UNL     1      -2.216   8.493   7.672  1.00  0.00     0.134 A 
ATOM     50  F   UNL     1      -2.829   5.868   5.245  1.00  0.00    -0.206 F 
ATOM     51  C   UNL     1      -4.318   7.283   6.340  1.00  0.00     0.040 A 
ATOM     52  C   UNL     1      -3.526   8.952   7.863  1.00  0.00     0.040 A 
ATOM     53  F   UNL     1      -1.240   9.156   8.312  1.00  0.00    -0.206 F 
ATOM     54  C   UNL     1      -4.582   8.356   7.182  1.00  0.00     0.006 A 
ENDBRANCH  26  47
BRANCH  38  55
ATOM     55  C   UNL     1       4.361   7.941   7.051  1.00  0.00     0.057 A 
ATOM     56  C   UNL     1       5.455   8.495   7.726  1.00  0.00     0.134 A 
ATOM     57  C   UNL     1       3.994   6.633   7.402  1.00  0.00     0.134 A 
ATOM     58  F   UNL     1       5.892   9.724   7.409  1.00  0.00    -0.206 F 
ATOM     59  C   UNL     1       6.158   7.785   8.700  1.00  0.00     0.040 A 
ATOM     60  C   UNL     1       4.667   5.925   8.403  1.00  0.00     0.040 A 
ATOM     61  F   UNL     1       3.019   5.983   6.752  1.00  0.00    -0.206 F 
ATOM     62  C   UNL     1       5.760   6.498   9.048  1.00  0.00     0.006 A 
ENDBRANCH  38  55
ENDBRANCH  12  13
ENDBRANCH   5   7
ENDBRANCH   2   3
ENDBRANCH   1   2
BRANCH   1  63
ATOM     63  C   UNL     1       4.396  -2.482   2.396  1.00  0.00     0.118 C 
BRANCH  63  64
ATOM     64  N   UNL     1       4.990  -3.651   1.776  1.00  0.00    -0.351 N 
ATOM     65  C   UNL     1       5.900  -4.543   2.292  1.00  0.00     0.271 C 
ATOM     66  H   UNL     1       4.700  -3.831   0.853  1.00  0.00     0.163 HD
ATOM     67  O   UNL     1       6.426  -5.347   1.527  1.00  0.00    -0.267 OA
BRANCH  65  68
ATOM     68  C   UNL     1       6.162  -4.543   3.736  1.00  0.00     0.150 A 
ATOM     69  C   UNL     1       5.226  -4.798   4.771  1.00  0.00     0.056 A 
ATOM     70  N   UNL     1       7.399  -4.368   4.237  1.00  0.00    -0.161 NA
ATOM     71  C   UNL     1       5.980  -4.927   5.910  1.00  0.00     0.118 A 
ATOM     72  N   UNL     1       7.290  -4.720   5.544  1.00  0.00    -0.222 N 
BRANCH  72  73
ATOM     73  C   UNL     1       8.426  -4.866   6.388  1.00  0.00     0.158 A 
ATOM     74  C   UNL     1       9.578  -4.178   6.072  1.00  0.00     0.078 A 
ATOM     75  N   UNL     1       8.314  -5.667   7.473  1.00  0.00    -0.209 NA
ATOM     76  C   UNL     1      10.622  -4.308   6.964  1.00  0.00     0.077 A 
ATOM     77  C   UNL     1       9.418  -5.798   8.226  1.00  0.00     0.165 A 
ATOM     78  N   UNL     1      10.574  -5.144   8.021  1.00  0.00    -0.228 NA
BRANCH  76  79
ATOM     79  C   UNL     1      11.832  -3.488   6.858  1.00  0.00     0.003 A 
ATOM     80  C   UNL     1      11.757  -2.091   6.941  1.00  0.00     0.030 A 
ATOM     81  C   UNL     1      13.092  -4.069   6.697  1.00  0.00     0.030 A 
ATOM     82  C   UNL     1      12.923  -1.349   6.844  1.00  0.00     0.111 A 
ATOM     83  C   UNL     1      14.200  -3.242   6.600  1.00  0.00     0.111 A 
ATOM     84  N   UNL     1      14.142  -1.895   6.665  1.00  0.00    -0.265 NA
ENDBRANCH  76  79
BRANCH  77  85
ATOM     85  C   UNL     1       9.392  -6.809   9.275  1.00  0.00     0.055 A 
ATOM     86  C   UNL     1       9.273  -8.175   8.957  1.00  0.00     0.015 A 
ATOM     87  C   UNL     1       9.491  -6.458  10.623  1.00  0.00     0.134 A 
ATOM     88  C   UNL     1       9.266  -9.150   9.960  1.00  0.00     0.001 A 
ATOM     89  C   UNL     1       9.477  -7.424  11.630  1.00  0.00     0.040 A 
ATOM     90  F   UNL     1       9.580  -5.168  10.983  1.00  0.00    -0.206 F 
ATOM     91  C   UNL     1       9.368  -8.773  11.298  1.00  0.00     0.003 A 
ENDBRANCH  77  85
ENDBRANCH  72  73
ENDBRANCH  65  68
ENDBRANCH  63  64
ENDBRANCH   1  63
TORSDOF 13
