REMARK SMILES Cc1cc(Br)cc2c1O[C@H](C(F)(F)F)C(C(=O)NCCCNC(=O)c1ccc(-c3c4nc(c(-c5c(F)cccc5F)c5ccc([nH]5)c(-c5c(F)cccc5F)c5nc(c(-c6c(F)cccc6F)c6ccc3[nH]6)C=C5)C=C4)cc1)=C2
REMARK SMILES IDX 20 1 19 2 18 3 16 4 17 5 15 7 1 8 2 9 3 10 8 11 4 12 7 13
REMARK SMILES IDX 9 14 5 15 6 16 79 17 10 18 11 19 12 20 13 21 14 22 21 23
REMARK SMILES IDX 22 24 23 25 24 27 25 28 26 29 78 30 27 31 77 32 28 33 29 34
REMARK SMILES IDX 30 35 71 36 31 37 76 38 70 39 72 40 32 41 75 42 69 43 68 44
REMARK SMILES IDX 33 46 59 47 42 48 58 49 43 50 46 51 57 52 73 53 44 54 45 55
REMARK SMILES IDX 56 57 74 58 47 59 34 60 35 61 40 62 36 63 37 64 39 65 41 66
REMARK SMILES IDX 38 67 60 68 61 69 66 70 62 71 63 72 65 73 67 74 64 75 48 76
REMARK SMILES IDX 49 77 54 78 50 79 51 80 53 81 55 82 52 83
REMARK H PARENT 18 6 22 26 72 45 46 56
REMARK Flexibility Score: inf
ROOT
ATOM      1  C   UNL     1      -2.584  -2.399   6.114  1.00  0.00     0.042 C 
ENDROOT
BRANCH   1   2
ATOM      2  C   UNL     1      -3.418  -1.465   5.249  1.00  0.00     0.118 C 
BRANCH   2   3
ATOM      3  N   UNL     1      -3.269  -0.076   5.653  1.00  0.00    -0.352 N 
ATOM      4  C   UNL     1      -2.651   1.034   5.189  1.00  0.00     0.251 C 
ATOM      5  O   UNL     1      -2.787   2.039   5.895  1.00  0.00    -0.270 OA
ATOM      6  H   UNL     1      -3.748   0.106   6.494  1.00  0.00     0.163 HD
BRANCH   4   7
ATOM      7  C   UNL     1      -1.850   1.114   3.935  1.00  0.00     0.067 C 
ATOM      8  C   UNL     1       1.060   0.228  -0.240  1.00  0.00     0.048 C 
ATOM      9  C   UNL     1       0.647   1.427   0.564  1.00  0.00    -0.007 A 
ATOM     10  C   UNL     1       1.042   2.703   0.133  1.00  0.00     0.023 A 
ATOM     11  C   UNL     1      -0.133   1.323   1.723  1.00  0.00     0.130 A 
ATOM     12  C   UNL     1       0.671   3.837   0.857  1.00  0.00     0.019 A 
ATOM     13  C   UNL     1      -0.500   2.461   2.453  1.00  0.00     0.019 A 
ATOM     14  O   UNL     1      -0.483   0.068   2.143  1.00  0.00    -0.475 OA
ATOM     15  Br  UNL     1       1.220   5.545   0.261  1.00  0.00    -0.051 Br
ATOM     16  C   UNL     1      -0.093   3.723   2.017  1.00  0.00     0.027 A 
ATOM     17  C   UNL     1      -1.278   2.305   3.678  1.00  0.00     0.025 C 
ATOM     18  C   UNL     1      -1.679  -0.017   2.964  1.00  0.00     0.314 C 
BRANCH  18  19
ATOM     19  C   UNL     1      -2.912  -0.223   2.062  1.00  0.00     0.429 C 
ATOM     20  F   UNL     1      -2.872  -1.449   1.482  1.00  0.00    -0.167 F 
ATOM     21  F   UNL     1      -4.075  -0.164   2.753  1.00  0.00    -0.167 F 
ATOM     22  F   UNL     1      -2.999   0.692   1.071  1.00  0.00    -0.167 F 
ENDBRANCH  18  19
ENDBRANCH   4   7
ENDBRANCH   2   3
ENDBRANCH   1   2
BRANCH   1  23
ATOM     23  C   UNL     1      -3.221  -2.650   7.475  1.00  0.00     0.118 C 
BRANCH  23  24
ATOM     24  N   UNL     1      -4.471  -3.396   7.361  1.00  0.00    -0.352 N 
ATOM     25  C   UNL     1      -4.753  -4.704   7.664  1.00  0.00     0.251 C 
ATOM     26  H   UNL     1      -5.232  -2.878   7.011  1.00  0.00     0.163 HD
ATOM     27  O   UNL     1      -5.789  -5.220   7.253  1.00  0.00    -0.269 OA
BRANCH  25  28
ATOM     28  C   UNL     1      -3.809  -5.494   8.477  1.00  0.00     0.039 A 
ATOM     29  C   UNL     1      -3.548  -6.822   8.127  1.00  0.00     0.014 A 
ATOM     30  C   UNL     1      -3.196  -4.928   9.597  1.00  0.00     0.014 A 
ATOM     31  C   UNL     1      -2.614  -7.555   8.860  1.00  0.00     0.010 A 
ATOM     32  C   UNL     1      -2.200  -5.627  10.266  1.00  0.00     0.010 A 
ATOM     33  C   UNL     1      -1.905  -6.950   9.910  1.00  0.00    -0.014 A 
BRANCH  33  34
ATOM     34  C   UNL     1      -0.858  -7.685  10.658  1.00  0.00     0.031 A 
ATOM     35  C   UNL     1      -1.031  -7.952  12.127  1.00  0.00     0.074 A 
ATOM     36  C   UNL     1       0.272  -8.056  10.026  1.00  0.00     0.049 A 
ATOM     37  N   UNL     1      -0.206  -8.528  12.963  1.00  0.00    -0.248 NA
ATOM     38  C   UNL     1      -2.282  -7.484  12.746  1.00  0.00     0.031 C 
ATOM     39  C   UNL     1       0.575  -7.803   8.616  1.00  0.00     0.029 A 
ATOM     40  N   UNL     1       1.377  -8.725  10.488  1.00  0.00    -0.354 N 
ATOM     41  C   UNL     1      -0.833  -8.481  14.202  1.00  0.00     0.074 A 
ATOM     42  C   UNL     1      -2.075  -7.765  14.024  1.00  0.00     0.031 C 
ATOM     43  C   UNL     1       1.765  -8.348   8.317  1.00  0.00     0.029 A 
ATOM     44  C   UNL     1       2.325  -8.957   9.520  1.00  0.00     0.049 A 
ATOM     45  H   UNL     1       1.481  -9.013  11.423  1.00  0.00     0.167 HD
ATOM     46  C   UNL     1      -0.424  -9.017  15.375  1.00  0.00     0.037 A 
ATOM     47  C   UNL     1       3.508  -9.595   9.595  1.00  0.00     0.037 A 
ATOM     48  C   UNL     1       0.796  -9.760  15.537  1.00  0.00     0.049 A 
ATOM     49  C   UNL     1       3.939 -10.184  10.908  1.00  0.00     0.074 A 
ATOM     50  C   UNL     1       1.275 -10.390  16.672  1.00  0.00     0.029 A 
ATOM     51  N   UNL     1       1.723  -9.981  14.530  1.00  0.00    -0.354 N 
ATOM     52  N   UNL     1       3.310 -10.180  12.059  1.00  0.00    -0.248 NA
ATOM     53  C   UNL     1       5.240 -10.867  10.936  1.00  0.00     0.031 C 
ATOM     54  C   UNL     1       2.510 -10.965  16.360  1.00  0.00     0.029 A 
ATOM     55  C   UNL     1       2.780 -10.727  15.021  1.00  0.00     0.049 A 
ATOM     56  H   UNL     1       1.642  -9.655  13.605  1.00  0.00     0.167 HD
ATOM     57  C   UNL     1       4.123 -10.880  12.939  1.00  0.00     0.074 A 
ATOM     58  C   UNL     1       5.288 -11.301  12.189  1.00  0.00     0.031 C 
ATOM     59  C   UNL     1       3.923 -11.148  14.252  1.00  0.00     0.037 A 
BRANCH  46  60
ATOM     60  C   UNL     1      -1.317  -8.844  16.567  1.00  0.00     0.057 A 
ATOM     61  C   UNL     1      -2.534  -9.529  16.676  1.00  0.00     0.134 A 
ATOM     62  C   UNL     1      -0.938  -8.025  17.638  1.00  0.00     0.134 A 
ATOM     63  F   UNL     1      -2.961 -10.319  15.678  1.00  0.00    -0.206 F 
ATOM     64  C   UNL     1      -3.352  -9.391  17.798  1.00  0.00     0.040 A 
ATOM     65  C   UNL     1      -1.736  -7.899  18.776  1.00  0.00     0.040 A 
ATOM     66  F   UNL     1       0.217  -7.344  17.600  1.00  0.00    -0.206 F 
ATOM     67  C   UNL     1      -2.949  -8.580  18.857  1.00  0.00     0.006 A 
ENDBRANCH  46  60
BRANCH  47  68
ATOM     68  C   UNL     1       4.337  -9.755   8.375  1.00  0.00     0.057 A 
ATOM     69  C   UNL     1       4.458 -11.003   7.752  1.00  0.00     0.134 A 
ATOM     70  C   UNL     1       5.001  -8.673   7.786  1.00  0.00     0.134 A 
ATOM     71  F   UNL     1       3.855 -12.080   8.277  1.00  0.00    -0.206 F 
ATOM     72  C   UNL     1       5.218 -11.172   6.594  1.00  0.00     0.040 A 
ATOM     73  C   UNL     1       5.747  -8.823   6.616  1.00  0.00     0.040 A 
ATOM     74  F   UNL     1       4.915  -7.450   8.329  1.00  0.00    -0.206 F 
ATOM     75  C   UNL     1       5.860 -10.078   6.018  1.00  0.00     0.006 A 
ENDBRANCH  47  68
BRANCH  59  76
ATOM     76  C   UNL     1       4.967 -11.952  14.964  1.00  0.00     0.057 A 
ATOM     77  C   UNL     1       6.185 -11.388  15.357  1.00  0.00     0.134 A 
ATOM     78  C   UNL     1       4.707 -13.275  15.347  1.00  0.00     0.134 A 
ATOM     79  F   UNL     1       6.494 -10.128  15.012  1.00  0.00    -0.206 F 
ATOM     80  C   UNL     1       7.114 -12.113  16.105  1.00  0.00     0.040 A 
ATOM     81  C   UNL     1       5.618 -14.002  16.113  1.00  0.00     0.040 A 
ATOM     82  F   UNL     1       3.552 -13.867  15.009  1.00  0.00    -0.206 F 
ATOM     83  C   UNL     1       6.825 -13.420  16.495  1.00  0.00     0.006 A 
ENDBRANCH  59  76
ENDBRANCH  33  34
ENDBRANCH  25  28
ENDBRANCH  23  24
ENDBRANCH   1  23
TORSDOF 11
