REMARK SMILES Cc1c(C(=O)NCCCNC(=O)c2ccc(-c3c4nc(c(-c5c(F)cccc5F)c5ccc([nH]5)c(-c5c(F)cccc5F)c5nc(c(-c6c(F)cccc6F)c6ccc3[nH]6)C=C5)C=C4)cc2)ccc2c1N[C@@H](c1ccc(S(=O)(=O)N3CCOCC3)cc1)[C@@H]1CC=C[C@H]21
REMARK SMILES IDX 7 1 6 2 4 3 5 4 3 6 1 7 2 8 70 9 67 10 69 11 71 12 68 13
REMARK SMILES IDX 92 14 72 15 88 17 91 18 89 19 90 20 73 21 74 22 87 23 75 24
REMARK SMILES IDX 86 25 76 26 77 27 78 28 79 29 80 30 81 31 85 32 82 33 84 34
REMARK SMILES IDX 83 35 8 36 9 37 10 38 11 39 12 41 13 42 14 43 66 44 15 45
REMARK SMILES IDX 65 46 16 47 17 48 18 49 59 50 19 51 64 52 58 53 60 54 20 55
REMARK SMILES IDX 63 56 57 57 56 58 21 60 47 61 30 62 46 63 31 64 34 65 45 66
REMARK SMILES IDX 61 67 32 68 33 69 44 71 62 72 35 73 22 74 23 75 28 76 24 77
REMARK SMILES IDX 25 78 27 79 29 80 26 81 48 82 49 83 54 84 50 85 51 86 53 87
REMARK SMILES IDX 55 88 52 89 36 90 37 91 42 92 38 93 39 94 41 95 43 96 40 97
REMARK H PARENT 6 5 71 16 10 40 60 59 34 70
REMARK Flexibility Score: inf
ROOT
ATOM      1  C   UNL     1       1.686  -0.553   1.683  1.00  0.00     0.118 C 
ENDROOT
BRANCH   1   2
ATOM      2  N   UNL     1       2.576  -1.611   1.230  1.00  0.00    -0.352 N 
ATOM      3  C   UNL     1       2.576  -2.336   0.060  1.00  0.00     0.251 C 
ATOM      4  O   UNL     1       3.465  -3.166  -0.120  1.00  0.00    -0.269 OA
ATOM      5  H   UNL     1       3.293  -1.847   1.862  1.00  0.00     0.163 HD
BRANCH   3   6
ATOM      6  C   UNL     1       1.484  -2.202  -0.936  1.00  0.00     0.044 A 
ATOM      7  C   UNL     1       1.686   0.331  -1.221  1.00  0.00     0.047 C 
ATOM      8  C   UNL     1       0.954  -0.979  -1.367  1.00  0.00    -0.015 A 
ATOM      9  C   UNL     1      -0.273  -0.983  -2.053  1.00  0.00     0.042 A 
ATOM     10  C   UNL     1       0.972  -3.397  -1.461  1.00  0.00     0.014 A 
ATOM     11  C   UNL     1      -0.723  -2.160  -2.661  1.00  0.00    -0.017 A 
ATOM     12  N   UNL     1      -0.974   0.202  -2.193  1.00  0.00    -0.377 N 
ATOM     13  C   UNL     1      -0.086  -3.371  -2.367  1.00  0.00     0.007 A 
ATOM     14  C   UNL     1      -1.811  -2.098  -3.701  1.00  0.00     0.049 C 
ATOM     15  C   UNL     1      -2.318   0.192  -2.748  1.00  0.00     0.114 C 
ATOM     16  H   UNL     1      -0.562   1.053  -1.917  1.00  0.00     0.161 HD
ATOM     17  C   UNL     1      -2.327  -0.671  -4.033  1.00  0.00     0.031 C 
ATOM     18  C   UNL     1      -3.087  -2.818  -3.352  1.00  0.00    -0.023 C 
ATOM     19  C   UNL     1      -3.724  -0.959  -4.614  1.00  0.00     0.034 C 
ATOM     20  C   UNL     1      -4.147  -2.187  -3.871  1.00  0.00    -0.030 C 
BRANCH  15  21
ATOM     21  C   UNL     1      -2.755   1.643  -2.928  1.00  0.00    -0.025 A 
ATOM     22  C   UNL     1      -1.849   2.724  -2.999  1.00  0.00     0.007 A 
ATOM     23  C   UNL     1      -4.120   1.934  -2.963  1.00  0.00     0.007 A 
ATOM     24  C   UNL     1      -2.296   4.045  -3.106  1.00  0.00     0.022 A 
ATOM     25  C   UNL     1      -4.562   3.241  -3.119  1.00  0.00     0.022 A 
ATOM     26  C   UNL     1      -3.663   4.298  -3.183  1.00  0.00     0.082 A 
BRANCH  26  27
ATOM     27  S   UNL     1      -4.222   5.975  -3.381  1.00  0.00     0.243 S 
ATOM     28  O   UNL     1      -4.169   6.575  -2.061  1.00  0.00    -0.207 OA
ATOM     29  O   UNL     1      -3.487   6.521  -4.497  1.00  0.00    -0.207 OA
BRANCH  27  30
ATOM     30  N   UNL     1      -5.830   5.850  -3.835  1.00  0.00    -0.193 NA
ATOM     31  C   UNL     1      -6.934   5.827  -2.854  1.00  0.00     0.131 C 
ATOM     32  C   UNL     1      -6.228   5.673  -5.243  1.00  0.00     0.131 C 
ATOM     33  C   UNL     1      -7.926   4.686  -3.136  1.00  0.00     0.177 C 
ATOM     34  C   UNL     1      -7.174   4.479  -5.381  1.00  0.00     0.177 C 
ATOM     35  O   UNL     1      -8.310   4.606  -4.514  1.00  0.00    -0.379 OA
ENDBRANCH  27  30
ENDBRANCH  26  27
ENDBRANCH  15  21
ENDBRANCH   3   6
ENDBRANCH   1   2
BRANCH   1  36
ATOM     36  C   UNL     1       1.480  -0.495   3.186  1.00  0.00     0.042 C 
BRANCH  36  37
ATOM     37  C   UNL     1       2.765  -0.285   3.975  1.00  0.00     0.118 C 
BRANCH  37  38
ATOM     38  N   UNL     1       3.405   1.003   3.728  1.00  0.00    -0.352 N 
ATOM     39  C   UNL     1       3.294   2.218   4.362  1.00  0.00     0.251 C 
ATOM     40  H   UNL     1       4.030   1.002   2.968  1.00  0.00     0.163 HD
ATOM     41  O   UNL     1       3.843   3.204   3.877  1.00  0.00    -0.269 OA
BRANCH  39  42
ATOM     42  C   UNL     1       2.489   2.368   5.593  1.00  0.00     0.039 A 
ATOM     43  C   UNL     1       1.702   3.514   5.755  1.00  0.00     0.014 A 
ATOM     44  C   UNL     1       2.523   1.409   6.603  1.00  0.00     0.014 A 
ATOM     45  C   UNL     1       0.886   3.649   6.883  1.00  0.00     0.010 A 
ATOM     46  C   UNL     1       1.633   1.487   7.667  1.00  0.00     0.010 A 
ATOM     47  C   UNL     1       0.814   2.614   7.827  1.00  0.00    -0.014 A 
BRANCH  47  48
ATOM     48  C   UNL     1      -0.061   2.696   9.022  1.00  0.00     0.031 A 
ATOM     49  C   UNL     1       0.556   2.681  10.395  1.00  0.00     0.074 A 
ATOM     50  C   UNL     1      -1.400   2.695   8.881  1.00  0.00     0.049 A 
ATOM     51  N   UNL     1      -0.024   2.611  11.565  1.00  0.00    -0.248 NA
ATOM     52  C   UNL     1       2.027   2.707  10.454  1.00  0.00     0.031 C 
ATOM     53  C   UNL     1      -2.122   2.668   7.607  1.00  0.00     0.029 A 
ATOM     54  N   UNL     1      -2.394   2.700   9.826  1.00  0.00    -0.354 N 
ATOM     55  C   UNL     1       1.009   2.564  12.493  1.00  0.00     0.074 A 
ATOM     56  C   UNL     1       2.248   2.545  11.749  1.00  0.00     0.031 C 
ATOM     57  C   UNL     1      -3.443   2.679   7.851  1.00  0.00     0.029 A 
ATOM     58  C   UNL     1      -3.661   2.679   9.294  1.00  0.00     0.049 A 
ATOM     59  H   UNL     1      -2.217   2.717  10.794  1.00  0.00     0.167 HD
ATOM     60  C   UNL     1       0.936   2.569  13.845  1.00  0.00     0.037 A 
ATOM     61  C   UNL     1      -4.859   2.655   9.906  1.00  0.00     0.037 A 
ATOM     62  C   UNL     1      -0.296   2.623  14.585  1.00  0.00     0.049 A 
ATOM     63  C   UNL     1      -4.915   2.650  11.409  1.00  0.00     0.074 A 
ATOM     64  C   UNL     1      -0.480   2.689  15.954  1.00  0.00     0.029 A 
ATOM     65  N   UNL     1      -1.557   2.623  14.009  1.00  0.00    -0.354 N 
ATOM     66  N   UNL     1      -3.931   2.663  12.275  1.00  0.00    -0.248 NA
ATOM     67  C   UNL     1      -6.253   2.630  12.019  1.00  0.00     0.031 C 
ATOM     68  C   UNL     1      -1.857   2.699  16.209  1.00  0.00     0.029 A 
ATOM     69  C   UNL     1      -2.527   2.674  14.996  1.00  0.00     0.049 A 
ATOM     70  H   UNL     1      -1.736   2.592  13.041  1.00  0.00     0.167 HD
ATOM     71  C   UNL     1      -4.528   2.683  13.529  1.00  0.00     0.074 A 
ATOM     72  C   UNL     1      -5.960   2.693  13.310  1.00  0.00     0.031 C 
ATOM     73  C   UNL     1      -3.946   2.693  14.753  1.00  0.00     0.037 A 
BRANCH  60  74
ATOM     74  C   UNL     1       2.233   2.527  14.598  1.00  0.00     0.057 A 
ATOM     75  C   UNL     1       2.615   1.383  15.308  1.00  0.00     0.134 A 
ATOM     76  C   UNL     1       3.112   3.619  14.610  1.00  0.00     0.134 A 
ATOM     77  F   UNL     1       1.820   0.303  15.342  1.00  0.00    -0.206 F 
ATOM     78  C   UNL     1       3.830   1.323  15.995  1.00  0.00     0.040 A 
ATOM     79  C   UNL     1       4.341   3.561  15.268  1.00  0.00     0.040 A 
ATOM     80  F   UNL     1       2.813   4.739  13.934  1.00  0.00    -0.206 F 
ATOM     81  C   UNL     1       4.701   2.411  15.967  1.00  0.00     0.006 A 
ENDBRANCH  60  74
BRANCH  61  82
ATOM     82  C   UNL     1      -6.110   2.664   9.108  1.00  0.00     0.057 A 
ATOM     83  C   UNL     1      -6.532   1.542   8.387  1.00  0.00     0.134 A 
ATOM     84  C   UNL     1      -6.932   3.798   9.080  1.00  0.00     0.134 A 
ATOM     85  F   UNL     1      -5.787   0.428   8.369  1.00  0.00    -0.206 F 
ATOM     86  C   UNL     1      -7.730   1.545   7.668  1.00  0.00     0.040 A 
ATOM     87  C   UNL     1      -8.142   3.807   8.384  1.00  0.00     0.040 A 
ATOM     88  F   UNL     1      -6.589   4.896   9.768  1.00  0.00    -0.206 F 
ATOM     89  C   UNL     1      -8.542   2.678   7.673  1.00  0.00     0.006 A 
ENDBRANCH  61  82
BRANCH  73  90
ATOM     90  C   UNL     1      -4.860   2.751  15.940  1.00  0.00     0.057 A 
ATOM     91  C   UNL     1      -4.970   3.925  16.696  1.00  0.00     0.134 A 
ATOM     92  C   UNL     1      -5.610   1.642  16.349  1.00  0.00     0.134 A 
ATOM     93  F   UNL     1      -4.273   5.021  16.359  1.00  0.00    -0.206 F 
ATOM     94  C   UNL     1      -5.794   3.993  17.819  1.00  0.00     0.040 A 
ATOM     95  C   UNL     1      -6.456   1.705  17.457  1.00  0.00     0.040 A 
ATOM     96  F   UNL     1      -5.559   0.494  15.657  1.00  0.00    -0.206 F 
ATOM     97  C   UNL     1      -6.545   2.881  18.199  1.00  0.00     0.006 A 
ENDBRANCH  73  90
ENDBRANCH  47  48
ENDBRANCH  39  42
ENDBRANCH  37  38
ENDBRANCH  36  37
ENDBRANCH   1  36
TORSDOF 13
