REMARK SMILES Cc1c(CC(=O)NCCCNC(=O)c2ccc(-c3c4nc(c(-c5c(F)cccc5F)c5ccc([nH]5)c(-c5c(F)cccc5F)c5nc(c(-c6c(F)cccc6F)c6ccc3[nH]6)C=C5)C=C4)cc2)c2ccccc2n1C(=O)c1ccc(Cl)cc1
REMARK SMILES IDX 8 1 7 2 5 3 6 4 4 6 3 7 1 8 2 9 74 10 68 11 73 12 69 13
REMARK SMILES IDX 72 14 70 15 71 16 75 17 76 18 77 19 78 20 83 21 79 22 82 23
REMARK SMILES IDX 80 24 81 25 9 26 10 27 11 28 12 29 13 31 14 32 15 33 67 34
REMARK SMILES IDX 16 35 66 36 17 37 18 38 19 39 60 40 20 41 65 42 59 43 61 44
REMARK SMILES IDX 21 45 64 46 58 47 57 48 22 50 48 51 31 52 47 53 32 54 35 55
REMARK SMILES IDX 46 56 62 57 33 58 34 59 45 61 63 62 36 63 23 64 24 65 29 66
REMARK SMILES IDX 25 67 26 68 28 69 30 70 27 71 49 72 50 73 55 74 51 75 52 76
REMARK SMILES IDX 54 77 56 78 53 79 37 80 38 81 43 82 39 83 40 84 42 85 44 86
REMARK SMILES IDX 41 87
REMARK H PARENT 7 5 11 30 61 49 35 60
REMARK Flexibility Score: inf
ROOT
ATOM      1  C   UNL     1       2.734  -1.553   2.569  1.00  0.00     0.117 C 
ENDROOT
BRANCH   1   2
ATOM      2  N   UNL     1       1.844  -1.938   3.650  1.00  0.00    -0.356 N 
ATOM      3  C   UNL     1       0.482  -1.857   3.719  1.00  0.00     0.224 C 
ATOM      4  O   UNL     1      -0.073  -2.276   4.738  1.00  0.00    -0.275 OA
ATOM      5  H   UNL     1       2.285  -2.311   4.448  1.00  0.00     0.163 HD
BRANCH   3   6
ATOM      6  C   UNL     1      -0.318  -1.305   2.550  1.00  0.00     0.138 C 
BRANCH   6   7
ATOM      7  C   UNL     1      -0.078   0.159   2.313  1.00  0.00    -0.010 A 
ATOM      8  C   UNL     1       0.685   0.127  -0.172  1.00  0.00     0.065 C 
ATOM      9  C   UNL     1       0.359   0.766   1.144  1.00  0.00     0.028 A 
ATOM     10  N   UNL     1       0.522   2.139   1.378  1.00  0.00    -0.280 N 
ATOM     11  C   UNL     1      -0.294   1.192   3.268  1.00  0.00     0.004 A 
ATOM     12  C   UNL     1       0.016   2.413   2.661  1.00  0.00     0.056 A 
ATOM     13  C   UNL     1      -0.751   1.179   4.606  1.00  0.00     0.010 A 
ATOM     14  C   UNL     1      -0.205   3.619   3.363  1.00  0.00     0.027 A 
ATOM     15  C   UNL     1      -0.891   2.371   5.316  1.00  0.00     0.001 A 
ATOM     16  C   UNL     1      -0.629   3.579   4.694  1.00  0.00     0.002 A 
BRANCH  10  17
ATOM     17  C   UNL     1       1.106   3.071   0.471  1.00  0.00     0.262 C 
ATOM     18  O   UNL     1       1.415   2.687  -0.662  1.00  0.00    -0.268 OA
BRANCH  17  19
ATOM     19  C   UNL     1       1.383   4.485   0.760  1.00  0.00     0.040 A 
ATOM     20  C   UNL     1       2.285   4.850   1.765  1.00  0.00     0.015 A 
ATOM     21  C   UNL     1       0.697   5.457   0.024  1.00  0.00     0.015 A 
ATOM     22  C   UNL     1       2.426   6.199   2.098  1.00  0.00     0.021 A 
ATOM     23  C   UNL     1       0.849   6.803   0.355  1.00  0.00     0.021 A 
ATOM     24  C   UNL     1       1.695   7.166   1.404  1.00  0.00     0.041 A 
ATOM     25  Cl  UNL     1       1.817   8.819   1.864  1.00  0.00    -0.084 Cl
ENDBRANCH  17  19
ENDBRANCH  10  17
ENDBRANCH   6   7
ENDBRANCH   3   6
ENDBRANCH   1   2
BRANCH   1  26
ATOM     26  C   UNL     1       3.544  -0.290   2.884  1.00  0.00     0.042 C 
BRANCH  26  27
ATOM     27  C   UNL     1       4.559  -0.475   4.013  1.00  0.00     0.118 C 
BRANCH  27  28
ATOM     28  N   UNL     1       5.471  -1.581   3.790  1.00  0.00    -0.352 N 
ATOM     29  C   UNL     1       6.704  -1.757   3.235  1.00  0.00     0.251 C 
ATOM     30  H   UNL     1       5.102  -2.429   4.129  1.00  0.00     0.163 HD
ATOM     31  O   UNL     1       7.154  -2.904   3.311  1.00  0.00    -0.269 OA
BRANCH  29  32
ATOM     32  C   UNL     1       7.512  -0.728   2.525  1.00  0.00     0.039 A 
ATOM     33  C   UNL     1       7.155   0.602   2.312  1.00  0.00     0.014 A 
ATOM     34  C   UNL     1       8.733  -1.187   1.984  1.00  0.00     0.014 A 
ATOM     35  C   UNL     1       7.960   1.423   1.516  1.00  0.00     0.010 A 
ATOM     36  C   UNL     1       9.539  -0.371   1.198  1.00  0.00     0.010 A 
ATOM     37  C   UNL     1       9.129   0.925   0.923  1.00  0.00    -0.014 A 
BRANCH  37  38
ATOM     38  C   UNL     1       9.932   1.827   0.094  1.00  0.00     0.031 A 
ATOM     39  C   UNL     1      10.400   3.063   0.783  1.00  0.00     0.074 A 
ATOM     40  C   UNL     1      10.326   1.562  -1.171  1.00  0.00     0.049 A 
ATOM     41  N   UNL     1      10.068   4.288   0.532  1.00  0.00    -0.248 NA
ATOM     42  C   UNL     1      11.261   2.910   1.966  1.00  0.00     0.031 C 
ATOM     43  C   UNL     1      10.213   0.310  -1.923  1.00  0.00     0.029 A 
ATOM     44  N   UNL     1      10.992   2.377  -2.042  1.00  0.00    -0.354 N 
ATOM     45  C   UNL     1      10.807   5.081   1.408  1.00  0.00     0.074 A 
ATOM     46  C   UNL     1      11.422   4.178   2.347  1.00  0.00     0.031 C 
ATOM     47  C   UNL     1      10.973   0.385  -3.041  1.00  0.00     0.029 A 
ATOM     48  C   UNL     1      11.505   1.732  -3.162  1.00  0.00     0.049 A 
ATOM     49  H   UNL     1      11.100   3.343  -1.889  1.00  0.00     0.167 HD
ATOM     50  C   UNL     1      11.009   6.407   1.170  1.00  0.00     0.037 A 
ATOM     51  C   UNL     1      12.332   2.258  -4.101  1.00  0.00     0.037 A 
ATOM     52  C   UNL     1      10.055   6.920   0.220  1.00  0.00     0.049 A 
ATOM     53  C   UNL     1      12.217   3.734  -4.031  1.00  0.00     0.074 A 
ATOM     54  C   UNL     1       8.679   7.038   0.181  1.00  0.00     0.029 A 
ATOM     55  N   UNL     1      10.474   7.122  -1.071  1.00  0.00    -0.354 N 
ATOM     56  N   UNL     1      11.158   4.398  -4.396  1.00  0.00    -0.248 NA
ATOM     57  C   UNL     1      13.121   4.440  -3.136  1.00  0.00     0.031 C 
ATOM     58  C   UNL     1       8.328   6.790  -1.180  1.00  0.00     0.029 A 
ATOM     59  C   UNL     1       9.512   6.593  -1.889  1.00  0.00     0.049 A 
ATOM     60  H   UNL     1      11.307   7.564  -1.354  1.00  0.00     0.167 HD
ATOM     61  C   UNL     1      11.030   5.400  -3.448  1.00  0.00     0.074 A 
ATOM     62  C   UNL     1      12.314   5.431  -2.750  1.00  0.00     0.031 C 
ATOM     63  C   UNL     1       9.807   5.919  -3.130  1.00  0.00     0.037 A 
BRANCH  50  64
ATOM     64  C   UNL     1      12.286   7.153   1.487  1.00  0.00     0.057 A 
ATOM     65  C   UNL     1      13.532   6.531   1.698  1.00  0.00     0.134 A 
ATOM     66  C   UNL     1      12.347   8.539   1.242  1.00  0.00     0.134 A 
ATOM     67  F   UNL     1      13.653   5.215   1.908  1.00  0.00    -0.206 F 
ATOM     68  C   UNL     1      14.746   7.217   1.599  1.00  0.00     0.040 A 
ATOM     69  C   UNL     1      13.558   9.225   1.094  1.00  0.00     0.040 A 
ATOM     70  F   UNL     1      11.229   9.254   1.041  1.00  0.00    -0.206 F 
ATOM     71  C   UNL     1      14.765   8.558   1.254  1.00  0.00     0.006 A 
ENDBRANCH  50  64
BRANCH  51  72
ATOM     72  C   UNL     1      13.421   1.595  -4.856  1.00  0.00     0.057 A 
ATOM     73  C   UNL     1      14.139   0.523  -4.299  1.00  0.00     0.134 A 
ATOM     74  C   UNL     1      13.973   2.170  -6.011  1.00  0.00     0.134 A 
ATOM     75  F   UNL     1      13.748  -0.047  -3.150  1.00  0.00    -0.206 F 
ATOM     76  C   UNL     1      15.339   0.058  -4.846  1.00  0.00     0.040 A 
ATOM     77  C   UNL     1      15.178   1.716  -6.568  1.00  0.00     0.040 A 
ATOM     78  F   UNL     1      13.390   3.229  -6.591  1.00  0.00    -0.206 F 
ATOM     79  C   UNL     1      15.870   0.663  -5.979  1.00  0.00     0.006 A 
ENDBRANCH  51  72
BRANCH  63  80
ATOM     80  C   UNL     1       8.641   5.553  -4.003  1.00  0.00     0.057 A 
ATOM     81  C   UNL     1       7.894   6.577  -4.595  1.00  0.00     0.134 A 
ATOM     82  C   UNL     1       8.161   4.244  -4.165  1.00  0.00     0.134 A 
ATOM     83  F   UNL     1       8.257   7.859  -4.432  1.00  0.00    -0.206 F 
ATOM     84  C   UNL     1       6.734   6.315  -5.328  1.00  0.00     0.040 A 
ATOM     85  C   UNL     1       7.021   3.965  -4.926  1.00  0.00     0.040 A 
ATOM     86  F   UNL     1       8.747   3.208  -3.551  1.00  0.00    -0.206 F 
ATOM     87  C   UNL     1       6.301   5.004  -5.506  1.00  0.00     0.006 A 
ENDBRANCH  63  80
ENDBRANCH  37  38
ENDBRANCH  29  32
ENDBRANCH  27  28
ENDBRANCH  26  27
ENDBRANCH   1  26
TORSDOF 13
