REMARK SMILES C[C@@]1(CN2C(=O)c3ccc(C(=O)NCCCNC(=O)c4ccc(-c5c6nc(c(-c7c(F)cccc7F)c7ccc([nH]7)c(-c7c(F)cccc7F)c7nc(c(-c8c(F)cccc8F)c8ccc5[nH]8)C=C7)C=C6)cc4)cc3C2=O)CCCO1
REMARK SMILES IDX 15 1 14 2 13 3 11 4 12 5 10 7 4 8 5 9 76 10 6 11 7 12 75 13
REMARK SMILES IDX 77 14 8 15 74 16 9 17 3 18 2 19 1 20 78 21 81 22 79 23 80 24
REMARK SMILES IDX 16 25 17 26 18 27 19 29 20 30 21 31 73 32 22 33 72 34 23 35
REMARK SMILES IDX 24 36 25 37 66 38 26 39 71 40 65 41 67 42 27 43 70 44 64 45
REMARK SMILES IDX 63 46 28 48 54 49 37 50 53 51 38 52 41 53 52 54 68 55 39 56
REMARK SMILES IDX 40 57 51 59 69 60 42 61 29 62 30 63 35 64 31 65 32 66 34 67
REMARK SMILES IDX 36 68 33 69 55 70 56 71 61 72 57 73 58 74 60 75 62 76 59 77
REMARK SMILES IDX 43 78 44 79 49 80 45 81 46 82 48 83 50 84 47 85
REMARK H PARENT 13 6 17 28 67 47 41 58
REMARK Flexibility Score: inf
ROOT
ATOM      1  C   UNL     1       9.014   5.560   0.097  1.00  0.00     0.042 C 
ENDROOT
BRANCH   1   2
ATOM      2  C   UNL     1       7.706   6.218  -0.347  1.00  0.00     0.118 C 
BRANCH   2   3
ATOM      3  N   UNL     1       7.509   6.085  -1.779  1.00  0.00    -0.352 N 
ATOM      4  C   UNL     1       6.756   5.226  -2.537  1.00  0.00     0.251 C 
ATOM      5  O   UNL     1       6.739   5.412  -3.753  1.00  0.00    -0.269 OA
ATOM      6  H   UNL     1       8.014   6.741  -2.311  1.00  0.00     0.163 HD
BRANCH   4   7
ATOM      7  C   UNL     1       5.951   4.103  -1.973  1.00  0.00     0.040 A 
ATOM      8  N   UNL     1       2.709   0.825  -1.984  1.00  0.00    -0.271 N 
ATOM      9  C   UNL     1       3.559   0.815  -0.916  1.00  0.00     0.261 C 
ATOM     10  C   UNL     1       3.021   1.826  -2.868  1.00  0.00     0.261 C 
ATOM     11  O   UNL     1       3.655   0.018  -0.003  1.00  0.00    -0.269 OA
ATOM     12  C   UNL     1       4.449   1.955  -1.083  1.00  0.00     0.053 A 
ATOM     13  C   UNL     1       4.136   2.570  -2.278  1.00  0.00     0.054 A 
ATOM     14  O   UNL     1       2.555   2.062  -3.967  1.00  0.00    -0.269 OA
ATOM     15  C   UNL     1       5.498   2.368  -0.295  1.00  0.00     0.015 A 
ATOM     16  C   UNL     1       4.868   3.644  -2.751  1.00  0.00     0.028 A 
ATOM     17  C   UNL     1       6.264   3.439  -0.764  1.00  0.00     0.015 A 
BRANCH   8  18
ATOM     18  C   UNL     1       1.697  -0.191  -2.221  1.00  0.00     0.164 C 
BRANCH  18  19
ATOM     19  C   UNL     1       0.390  -0.004  -1.401  1.00  0.00     0.084 C 
ATOM     20  C   UNL     1       0.617  -0.084   0.109  1.00  0.00     0.044 C 
ATOM     21  C   UNL     1      -0.664  -1.028  -1.839  1.00  0.00     0.039 C 
ATOM     22  O   UNL     1      -0.183   1.285  -1.706  1.00  0.00    -0.373 OA
ATOM     23  C   UNL     1      -1.331  -0.344  -3.006  1.00  0.00     0.031 C 
ATOM     24  C   UNL     1      -1.293   1.113  -2.598  1.00  0.00     0.161 C 
ENDBRANCH  18  19
ENDBRANCH   8  18
ENDBRANCH   4   7
ENDBRANCH   2   3
ENDBRANCH   1   2
BRANCH   1  25
ATOM     25  C   UNL     1      10.252   6.390  -0.230  1.00  0.00     0.118 C 
BRANCH  25  26
ATOM     26  N   UNL     1      10.311   7.608   0.564  1.00  0.00    -0.352 N 
ATOM     27  C   UNL     1      11.259   8.039   1.456  1.00  0.00     0.251 C 
ATOM     28  H   UNL     1       9.549   8.219   0.442  1.00  0.00     0.163 HD
ATOM     29  O   UNL     1      10.997   8.975   2.207  1.00  0.00    -0.269 OA
BRANCH  27  30
ATOM     30  C   UNL     1      12.587   7.392   1.526  1.00  0.00     0.039 A 
ATOM     31  C   UNL     1      13.190   7.231   2.777  1.00  0.00     0.014 A 
ATOM     32  C   UNL     1      13.268   7.003   0.369  1.00  0.00     0.014 A 
ATOM     33  C   UNL     1      14.451   6.639   2.872  1.00  0.00     0.010 A 
ATOM     34  C   UNL     1      14.492   6.346   0.470  1.00  0.00     0.010 A 
ATOM     35  C   UNL     1      15.101   6.166   1.721  1.00  0.00    -0.014 A 
BRANCH  35  36
ATOM     36  C   UNL     1      16.416   5.482   1.808  1.00  0.00     0.031 A 
ATOM     37  C   UNL     1      17.630   6.087   1.156  1.00  0.00     0.074 A 
ATOM     38  C   UNL     1      16.500   4.282   2.414  1.00  0.00     0.049 A 
ATOM     39  N   UNL     1      18.841   5.602   1.055  1.00  0.00    -0.248 NA
ATOM     40  C   UNL     1      17.454   7.397   0.507  1.00  0.00     0.031 C 
ATOM     41  C   UNL     1      15.382   3.568   3.036  1.00  0.00     0.029 A 
ATOM     42  N   UNL     1      17.569   3.439   2.590  1.00  0.00    -0.354 N 
ATOM     43  C   UNL     1      19.561   6.530   0.312  1.00  0.00     0.074 A 
ATOM     44  C   UNL     1      18.644   7.590  -0.045  1.00  0.00     0.031 C 
ATOM     45  C   UNL     1      15.826   2.402   3.532  1.00  0.00     0.029 A 
ATOM     46  C   UNL     1      17.247   2.267   3.231  1.00  0.00     0.049 A 
ATOM     47  H   UNL     1      18.480   3.655   2.287  1.00  0.00     0.167 HD
ATOM     48  C   UNL     1      20.872   6.507  -0.026  1.00  0.00     0.037 A 
ATOM     49  C   UNL     1      18.008   1.196   3.528  1.00  0.00     0.037 A 
ATOM     50  C   UNL     1      21.790   5.470   0.368  1.00  0.00     0.049 A 
ATOM     51  C   UNL     1      19.465   1.209   3.156  1.00  0.00     0.074 A 
ATOM     52  C   UNL     1      23.155   5.403   0.154  1.00  0.00     0.029 A 
ATOM     53  N   UNL     1      21.434   4.319   1.053  1.00  0.00    -0.354 N 
ATOM     54  N   UNL     1      20.152   2.137   2.535  1.00  0.00    -0.248 NA
ATOM     55  C   UNL     1      20.257   0.030   3.536  1.00  0.00     0.031 C 
ATOM     56  C   UNL     1      23.618   4.186   0.663  1.00  0.00     0.029 A 
ATOM     57  C   UNL     1      22.550   3.521   1.244  1.00  0.00     0.049 A 
ATOM     58  H   UNL     1      20.524   4.101   1.359  1.00  0.00     0.167 HD
ATOM     59  C   UNL     1      21.458   1.669   2.476  1.00  0.00     0.074 A 
ATOM     60  C   UNL     1      21.472   0.382   3.140  1.00  0.00     0.031 C 
ATOM     61  C   UNL     1      22.549   2.250   1.919  1.00  0.00     0.037 A 
BRANCH  48  62
ATOM     62  C   UNL     1      21.405   7.632  -0.865  1.00  0.00     0.057 A 
ATOM     63  C   UNL     1      21.582   8.922  -0.349  1.00  0.00     0.134 A 
ATOM     64  C   UNL     1      21.818   7.402  -2.184  1.00  0.00     0.134 A 
ATOM     65  F   UNL     1      21.200   9.213   0.903  1.00  0.00    -0.206 F 
ATOM     66  C   UNL     1      22.137   9.946  -1.119  1.00  0.00     0.040 A 
ATOM     67  C   UNL     1      22.398   8.410  -2.955  1.00  0.00     0.040 A 
ATOM     68  F   UNL     1      21.683   6.187  -2.737  1.00  0.00    -0.206 F 
ATOM     69  C   UNL     1      22.556   9.688  -2.423  1.00  0.00     0.006 A 
ENDBRANCH  48  62
BRANCH  49  70
ATOM     70  C   UNL     1      17.412   0.019   4.211  1.00  0.00     0.057 A 
ATOM     71  C   UNL     1      17.772  -0.320   5.521  1.00  0.00     0.134 A 
ATOM     72  C   UNL     1      16.494  -0.815   3.560  1.00  0.00     0.134 A 
ATOM     73  F   UNL     1      18.660   0.429   6.192  1.00  0.00    -0.206 F 
ATOM     74  C   UNL     1      17.269  -1.462   6.146  1.00  0.00     0.040 A 
ATOM     75  C   UNL     1      15.960  -1.943   4.184  1.00  0.00     0.040 A 
ATOM     76  F   UNL     1      16.099  -0.540   2.308  1.00  0.00    -0.206 F 
ATOM     77  C   UNL     1      16.357  -2.276   5.478  1.00  0.00     0.006 A 
ENDBRANCH  49  70
BRANCH  61  78
ATOM     78  C   UNL     1      23.854   1.520   2.042  1.00  0.00     0.057 A 
ATOM     79  C   UNL     1      24.122   0.353   1.316  1.00  0.00     0.134 A 
ATOM     80  C   UNL     1      24.871   2.018   2.867  1.00  0.00     0.134 A 
ATOM     81  F   UNL     1      23.186  -0.182   0.518  1.00  0.00    -0.206 F 
ATOM     82  C   UNL     1      25.347  -0.307   1.426  1.00  0.00     0.040 A 
ATOM     83  C   UNL     1      26.110   1.383   2.962  1.00  0.00     0.040 A 
ATOM     84  F   UNL     1      24.683   3.138   3.582  1.00  0.00    -0.206 F 
ATOM     85  C   UNL     1      26.348   0.213   2.245  1.00  0.00     0.006 A 
ENDBRANCH  61  78
ENDBRANCH  35  36
ENDBRANCH  27  30
ENDBRANCH  25  26
ENDBRANCH   1  25
TORSDOF 12
