REMARK SMILES C[C@H]1OCC[C@@H]1C(=O)Nc1ccc(Cl)c(C(=O)NCCCNC(=O)c2ccc(-c3c4nc(c(-c5c(F)cccc5F)c5ccc([nH]5)c(-c5c(F)cccc5F)c5nc(c(-c6c(F)cccc6F)c6ccc3[nH]6)C=C5)C=C4)cc2)c1
REMARK SMILES IDX 20 1 19 2 18 3 16 4 17 5 15 7 10 8 11 9 79 10 12 11 13 12
REMARK SMILES IDX 14 13 9 14 7 15 8 16 6 18 1 19 2 20 3 21 4 22 5 23 21 24
REMARK SMILES IDX 22 25 23 26 24 28 25 29 26 30 78 31 27 32 77 33 28 34 29 35
REMARK SMILES IDX 30 36 71 37 31 38 76 39 70 40 72 41 32 42 75 43 69 44 68 45
REMARK SMILES IDX 33 47 59 48 42 49 58 50 43 51 46 52 57 53 73 54 44 55 45 56
REMARK SMILES IDX 56 58 74 59 47 60 34 61 35 62 40 63 36 64 37 65 39 66 41 67
REMARK SMILES IDX 38 68 60 69 61 70 66 71 62 72 63 73 65 74 67 75 64 76 48 77
REMARK SMILES IDX 49 78 54 79 50 80 51 81 53 82 55 83 52 84
REMARK H PARENT 18 6 9 17 22 27 72 46 46 57
REMARK Flexibility Score: inf
ROOT
ATOM      1  C   UNL     1      -2.873   3.872   6.598  1.00  0.00     0.042 C 
ENDROOT
BRANCH   1   2
ATOM      2  C   UNL     1      -1.890   3.605   5.481  1.00  0.00     0.118 C 
BRANCH   2   3
ATOM      3  N   UNL     1      -0.732   2.800   5.834  1.00  0.00    -0.352 N 
ATOM      4  C   UNL     1      -0.129   1.751   5.173  1.00  0.00     0.252 C 
ATOM      5  O   UNL     1       0.909   1.289   5.648  1.00  0.00    -0.269 OA
ATOM      6  H   UNL     1      -0.307   3.045   6.688  1.00  0.00     0.163 HD
BRANCH   4   7
ATOM      7  C   UNL     1      -0.754   1.073   4.008  1.00  0.00     0.060 A 
ATOM      8  C   UNL     1      -1.161  -1.004   2.851  1.00  0.00     0.042 A 
ATOM      9  C   UNL     1      -2.243  -0.428   2.204  1.00  0.00     0.028 A 
ATOM     10  C   UNL     1      -0.533  -0.311   3.882  1.00  0.00     0.041 A 
ATOM     11  C   UNL     1      -2.407   0.947   2.261  1.00  0.00     0.023 A 
ATOM     12  C   UNL     1      -1.523   1.701   3.026  1.00  0.00     0.053 A 
ATOM     13  Cl  UNL     1      -1.251   3.329   2.495  1.00  0.00    -0.083 Cl
BRANCH   8  14
ATOM     14  N   UNL     1      -0.652  -2.228   2.419  1.00  0.00    -0.326 N 
ATOM     15  C   UNL     1      -0.231  -2.569   1.157  1.00  0.00     0.230 C 
ATOM     16  O   UNL     1       0.067  -3.756   0.969  1.00  0.00    -0.274 OA
ATOM     17  H   UNL     1      -0.588  -2.935   3.102  1.00  0.00     0.169 HD
BRANCH  15  18
ATOM     18  C   UNL     1       0.002  -1.562   0.008  1.00  0.00     0.110 C 
ATOM     19  C   UNL     1       2.052  -0.127  -0.458  1.00  0.00     0.039 C 
ATOM     20  C   UNL     1       0.808  -0.325   0.404  1.00  0.00     0.127 C 
ATOM     21  O   UNL     1      -0.048   0.809   0.204  1.00  0.00    -0.378 OA
ATOM     22  C   UNL     1      -1.023   0.470  -0.782  1.00  0.00     0.161 C 
ATOM     23  C   UNL     1      -1.208  -1.035  -0.737  1.00  0.00     0.044 C 
ENDBRANCH  15  18
ENDBRANCH   8  14
ENDBRANCH   4   7
ENDBRANCH   2   3
ENDBRANCH   1   2
BRANCH   1  24
ATOM     24  C   UNL     1      -2.322   4.707   7.734  1.00  0.00     0.118 C 
BRANCH  24  25
ATOM     25  N   UNL     1      -1.951   6.061   7.335  1.00  0.00    -0.352 N 
ATOM     26  C   UNL     1      -2.580   7.270   7.522  1.00  0.00     0.251 C 
ATOM     27  H   UNL     1      -1.100   6.120   6.844  1.00  0.00     0.163 HD
ATOM     28  O   UNL     1      -2.147   8.275   6.961  1.00  0.00    -0.269 OA
BRANCH  26  29
ATOM     29  C   UNL     1      -3.793   7.371   8.363  1.00  0.00     0.039 A 
ATOM     30  C   UNL     1      -4.838   8.212   7.965  1.00  0.00     0.014 A 
ATOM     31  C   UNL     1      -3.906   6.645   9.546  1.00  0.00     0.014 A 
ATOM     32  C   UNL     1      -6.025   8.244   8.704  1.00  0.00     0.010 A 
ATOM     33  C   UNL     1      -5.127   6.574  10.201  1.00  0.00     0.010 A 
ATOM     34  C   UNL     1      -6.198   7.385   9.799  1.00  0.00    -0.014 A 
BRANCH  34  35
ATOM     35  C   UNL     1      -7.460   7.330  10.581  1.00  0.00     0.031 A 
ATOM     36  C   UNL     1      -7.425   7.617  12.060  1.00  0.00     0.074 A 
ATOM     37  C   UNL     1      -8.604   6.928   9.996  1.00  0.00     0.049 A 
ATOM     38  N   UNL     1      -8.362   7.457  12.958  1.00  0.00    -0.248 NA
ATOM     39  C   UNL     1      -6.148   8.106  12.609  1.00  0.00     0.031 C 
ATOM     40  C   UNL     1      -8.762   6.580   8.582  1.00  0.00     0.029 A 
ATOM     41  N   UNL     1      -9.854   6.722  10.528  1.00  0.00    -0.354 N 
ATOM     42  C   UNL     1      -7.779   7.793  14.174  1.00  0.00     0.074 A 
ATOM     43  C   UNL     1      -6.392   8.103  13.909  1.00  0.00     0.031 C 
ATOM     44  C   UNL     1     -10.038   6.227   8.355  1.00  0.00     0.029 A 
ATOM     45  C   UNL     1     -10.776   6.272   9.613  1.00  0.00     0.049 A 
ATOM     46  H   UNL     1     -10.068   6.881  11.475  1.00  0.00     0.167 HD
ATOM     47  C   UNL     1      -8.353   7.867  15.397  1.00  0.00     0.037 A 
ATOM     48  C   UNL     1     -12.066   5.922   9.776  1.00  0.00     0.037 A 
ATOM     49  C   UNL     1      -9.743   7.603  15.648  1.00  0.00     0.049 A 
ATOM     50  C   UNL     1     -12.682   6.010  11.146  1.00  0.00     0.074 A 
ATOM     51  C   UNL     1     -10.439   7.707  16.839  1.00  0.00     0.029 A 
ATOM     52  N   UNL     1     -10.652   7.189  14.686  1.00  0.00    -0.354 N 
ATOM     53  N   UNL     1     -12.132   6.381  12.278  1.00  0.00    -0.248 NA
ATOM     54  C   UNL     1     -14.098   5.635  11.263  1.00  0.00     0.031 C 
ATOM     55  C   UNL     1     -11.760   7.314  16.607  1.00  0.00     0.029 A 
ATOM     56  C   UNL     1     -11.900   7.019  15.260  1.00  0.00     0.049 A 
ATOM     57  H   UNL     1     -10.441   7.039  13.736  1.00  0.00     0.167 HD
ATOM     58  C   UNL     1     -13.143   6.323  13.229  1.00  0.00     0.074 A 
ATOM     59  C   UNL     1     -14.340   5.886  12.542  1.00  0.00     0.031 C 
ATOM     60  C   UNL     1     -13.086   6.610  14.552  1.00  0.00     0.037 A 
BRANCH  47  61
ATOM     61  C   UNL     1      -7.479   8.262  16.553  1.00  0.00     0.057 A 
ATOM     62  C   UNL     1      -6.958   9.557  16.678  1.00  0.00     0.134 A 
ATOM     63  C   UNL     1      -7.178   7.345  17.569  1.00  0.00     0.134 A 
ATOM     64  F   UNL     1      -7.196  10.480  15.734  1.00  0.00    -0.206 F 
ATOM     65  C   UNL     1      -6.147   9.918  17.756  1.00  0.00     0.040 A 
ATOM     66  C   UNL     1      -6.394   7.704  18.667  1.00  0.00     0.040 A 
ATOM     67  F   UNL     1      -7.648   6.090  17.515  1.00  0.00    -0.206 F 
ATOM     68  C   UNL     1      -5.870   8.991  18.758  1.00  0.00     0.006 A 
ENDBRANCH  47  61
BRANCH  48  69
ATOM     69  C   UNL     1     -12.874   5.475   8.611  1.00  0.00     0.057 A 
ATOM     70  C   UNL     1     -13.918   6.265   8.114  1.00  0.00     0.134 A 
ATOM     71  C   UNL     1     -12.639   4.248   7.980  1.00  0.00     0.134 A 
ATOM     72  F   UNL     1     -14.204   7.443   8.687  1.00  0.00    -0.206 F 
ATOM     73  C   UNL     1     -14.716   5.841   7.050  1.00  0.00     0.040 A 
ATOM     74  C   UNL     1     -13.411   3.823   6.897  1.00  0.00     0.040 A 
ATOM     75  F   UNL     1     -11.648   3.448   8.400  1.00  0.00    -0.206 F 
ATOM     76  C   UNL     1     -14.460   4.617   6.436  1.00  0.00     0.006 A 
ENDBRANCH  48  69
BRANCH  60  77
ATOM     77  C   UNL     1     -14.361   6.524  15.337  1.00  0.00     0.057 A 
ATOM     78  C   UNL     1     -14.945   5.298  15.674  1.00  0.00     0.134 A 
ATOM     79  C   UNL     1     -14.974   7.689  15.818  1.00  0.00     0.134 A 
ATOM     80  F   UNL     1     -14.414   4.147  15.235  1.00  0.00    -0.206 F 
ATOM     81  C   UNL     1     -16.104   5.233  16.451  1.00  0.00     0.040 A 
ATOM     82  C   UNL     1     -16.115   7.636  16.617  1.00  0.00     0.040 A 
ATOM     83  F   UNL     1     -14.458   8.895  15.538  1.00  0.00    -0.206 F 
ATOM     84  C   UNL     1     -16.685   6.404  16.933  1.00  0.00     0.006 A 
ENDBRANCH  60  77
ENDBRANCH  34  35
ENDBRANCH  26  29
ENDBRANCH  24  25
ENDBRANCH   1  24
TORSDOF 12
