REMARK SMILES CC(=O)O[C@H]1C[C@@H](C(=O)NCCCNC(=O)c2ccc(-c3c4nc(c(-c5c(F)cccc5F)c5ccc([nH]5)c(-c5c(F)cccc5F)c5nc(c(-c6c(F)cccc6F)c6ccc3[nH]6)C=C5)C=C4)cc2)N(S(=O)(=O)c2ccc(F)cc2)C1
REMARK SMILES IDX 12 1 11 2 10 3 8 4 9 5 7 7 5 8 6 9 82 10 71 11 4 12 2 13
REMARK SMILES IDX 1 14 3 15 72 16 73 17 74 18 75 19 76 20 81 21 77 22 80 23
REMARK SMILES IDX 78 24 79 25 13 26 14 27 15 28 16 30 17 31 18 32 70 33 19 34
REMARK SMILES IDX 69 35 20 36 21 37 22 38 63 39 23 40 68 41 62 42 64 43 24 44
REMARK SMILES IDX 67 45 61 46 60 47 25 49 51 50 34 51 50 52 35 53 38 54 49 55
REMARK SMILES IDX 65 56 36 57 37 58 48 60 66 61 39 62 26 63 27 64 32 65 28 66
REMARK SMILES IDX 29 67 31 68 33 69 30 70 52 71 53 72 58 73 54 74 55 75 57 76
REMARK SMILES IDX 59 77 56 78 40 79 41 80 46 81 42 82 43 83 45 84 47 85 44 86
REMARK H PARENT 10 6 14 29 64 48 38 59
REMARK Flexibility Score: inf
ROOT
ATOM      1  C   UNL     1       2.560  -7.368   1.779  1.00  0.00     0.042 C 
ENDROOT
BRANCH   1   2
ATOM      2  C   UNL     1       3.087  -6.720   0.505  1.00  0.00     0.117 C 
BRANCH   2   3
ATOM      3  N   UNL     1       2.409  -7.172  -0.701  1.00  0.00    -0.355 N 
ATOM      4  C   UNL     1       1.568  -6.582  -1.594  1.00  0.00     0.238 C 
ATOM      5  O   UNL     1       1.420  -7.190  -2.662  1.00  0.00    -0.273 OA
ATOM      6  H   UNL     1       2.601  -8.113  -0.919  1.00  0.00     0.163 HD
BRANCH   4   7
ATOM      7  C   UNL     1       0.832  -5.266  -1.385  1.00  0.00     0.166 C 
ATOM      8  C   UNL     1       0.274  -3.302  -0.103  1.00  0.00     0.193 C 
ATOM      9  C   UNL     1       1.223  -4.468  -0.173  1.00  0.00     0.077 C 
ATOM     10  C   UNL     1      -1.003  -3.849  -0.772  1.00  0.00     0.148 C 
ATOM     11  N   UNL     1      -0.663  -5.202  -1.383  1.00  0.00    -0.182 NA
BRANCH   8  12
ATOM     12  O   UNL     1       0.008  -2.943   1.276  1.00  0.00    -0.461 OA
BRANCH  12  13
ATOM     13  C   UNL     1       0.949  -2.756   2.236  1.00  0.00     0.302 C 
ATOM     14  C   UNL     1       2.372  -2.522   1.815  1.00  0.00     0.139 C 
ATOM     15  O   UNL     1       0.648  -2.798   3.425  1.00  0.00    -0.253 OA
ENDBRANCH  12  13
ENDBRANCH   8  12
BRANCH  11  16
ATOM     16  S   UNL     1      -1.572  -6.465  -0.675  1.00  0.00     0.243 S 
ATOM     17  O   UNL     1      -0.976  -6.732   0.615  1.00  0.00    -0.207 OA
ATOM     18  O   UNL     1      -2.968  -6.079  -0.775  1.00  0.00    -0.207 OA
BRANCH  16  19
ATOM     19  C   UNL     1      -1.389  -7.923  -1.679  1.00  0.00     0.082 A 
ATOM     20  C   UNL     1      -2.232  -8.137  -2.776  1.00  0.00     0.025 A 
ATOM     21  C   UNL     1      -0.509  -8.932  -1.264  1.00  0.00     0.025 A 
ATOM     22  C   UNL     1      -2.133  -9.331  -3.500  1.00  0.00     0.040 A 
ATOM     23  C   UNL     1      -0.384 -10.101  -2.014  1.00  0.00     0.040 A 
ATOM     24  C   UNL     1      -1.195 -10.289  -3.126  1.00  0.00     0.123 A 
ATOM     25  F   UNL     1      -1.086 -11.421  -3.834  1.00  0.00    -0.207 F 
ENDBRANCH  16  19
ENDBRANCH  11  16
ENDBRANCH   4   7
ENDBRANCH   2   3
ENDBRANCH   1   2
BRANCH   1  26
ATOM     26  C   UNL     1       3.196  -8.725   2.050  1.00  0.00     0.118 C 
BRANCH  26  27
ATOM     27  N   UNL     1       4.653  -8.636   2.128  1.00  0.00    -0.352 N 
ATOM     28  C   UNL     1       5.504  -8.739   3.196  1.00  0.00     0.251 C 
ATOM     29  H   UNL     1       5.099  -8.473   1.266  1.00  0.00     0.163 HD
ATOM     30  O   UNL     1       6.645  -8.295   3.100  1.00  0.00    -0.269 OA
BRANCH  28  31
ATOM     31  C   UNL     1       5.070  -9.408   4.437  1.00  0.00     0.039 A 
ATOM     32  C   UNL     1       5.609  -8.999   5.660  1.00  0.00     0.014 A 
ATOM     33  C   UNL     1       4.190 -10.490   4.386  1.00  0.00     0.014 A 
ATOM     34  C   UNL     1       5.233  -9.658   6.831  1.00  0.00     0.010 A 
ATOM     35  C   UNL     1       3.726 -11.063   5.559  1.00  0.00     0.010 A 
ATOM     36  C   UNL     1       4.271 -10.680   6.790  1.00  0.00    -0.014 A 
BRANCH  36  37
ATOM     37  C   UNL     1       3.853 -11.403   8.013  1.00  0.00     0.031 A 
ATOM     38  C   UNL     1       4.077 -12.889   8.115  1.00  0.00     0.074 A 
ATOM     39  C   UNL     1       3.218 -10.737   8.994  1.00  0.00     0.049 A 
ATOM     40  N   UNL     1       3.721 -13.716   9.063  1.00  0.00    -0.248 NA
ATOM     41  C   UNL     1       4.760 -13.539   6.982  1.00  0.00     0.031 C 
ATOM     42  C   UNL     1       2.895  -9.308   8.977  1.00  0.00     0.029 A 
ATOM     43  N   UNL     1       2.724 -11.176  10.194  1.00  0.00    -0.354 N 
ATOM     44  C   UNL     1       4.114 -14.977   8.631  1.00  0.00     0.074 A 
ATOM     45  C   UNL     1       4.670 -14.819   7.307  1.00  0.00     0.031 C 
ATOM     46  C   UNL     1       2.289  -8.982  10.129  1.00  0.00     0.029 A 
ATOM     47  C   UNL     1       2.141 -10.183  10.944  1.00  0.00     0.049 A 
ATOM     48  H   UNL     1       2.782 -12.113  10.491  1.00  0.00     0.167 HD
ATOM     49  C   UNL     1       4.049 -16.156   9.292  1.00  0.00     0.037 A 
ATOM     50  C   UNL     1       1.552 -10.242  12.152  1.00  0.00     0.037 A 
ATOM     51  C   UNL     1       3.520 -16.297  10.622  1.00  0.00     0.049 A 
ATOM     52  C   UNL     1       1.497 -11.562  12.868  1.00  0.00     0.074 A 
ATOM     53  C   UNL     1       3.454 -17.433  11.409  1.00  0.00     0.029 A 
ATOM     54  N   UNL     1       2.964 -15.263  11.361  1.00  0.00    -0.354 N 
ATOM     55  N   UNL     1       1.935 -12.736  12.479  1.00  0.00    -0.248 NA
ATOM     56  C   UNL     1       0.877 -11.564  14.199  1.00  0.00     0.031 C 
ATOM     57  C   UNL     1       2.813 -17.097  12.605  1.00  0.00     0.029 A 
ATOM     58  C   UNL     1       2.538 -15.738  12.590  1.00  0.00     0.049 A 
ATOM     59  H   UNL     1       2.885 -14.330  11.058  1.00  0.00     0.167 HD
ATOM     60  C   UNL     1       1.679 -13.606  13.530  1.00  0.00     0.074 A 
ATOM     61  C   UNL     1       1.060 -12.820  14.578  1.00  0.00     0.031 C 
ATOM     62  C   UNL     1       1.936 -14.934  13.624  1.00  0.00     0.037 A 
BRANCH  49  63
ATOM     63  C   UNL     1       4.567 -17.378   8.586  1.00  0.00     0.057 A 
ATOM     64  C   UNL     1       5.929 -17.549   8.300  1.00  0.00     0.134 A 
ATOM     65  C   UNL     1       3.697 -18.408   8.207  1.00  0.00     0.134 A 
ATOM     66  F   UNL     1       6.817 -16.595   8.622  1.00  0.00    -0.206 F 
ATOM     67  C   UNL     1       6.402 -18.682   7.635  1.00  0.00     0.040 A 
ATOM     68  C   UNL     1       4.162 -19.561   7.570  1.00  0.00     0.040 A 
ATOM     69  F   UNL     1       2.382 -18.315   8.452  1.00  0.00    -0.206 F 
ATOM     70  C   UNL     1       5.517 -19.696   7.275  1.00  0.00     0.006 A 
ENDBRANCH  49  63
BRANCH  50  71
ATOM     71  C   UNL     1       1.002  -9.010  12.773  1.00  0.00     0.057 A 
ATOM     72  C   UNL     1       1.595  -8.447  13.909  1.00  0.00     0.134 A 
ATOM     73  C   UNL     1      -0.130  -8.370  12.254  1.00  0.00     0.134 A 
ATOM     74  F   UNL     1       2.675  -9.021  14.461  1.00  0.00    -0.206 F 
ATOM     75  C   UNL     1       1.068  -7.311  14.524  1.00  0.00     0.040 A 
ATOM     76  C   UNL     1      -0.651  -7.216  12.840  1.00  0.00     0.040 A 
ATOM     77  F   UNL     1      -0.738  -8.851  11.159  1.00  0.00    -0.206 F 
ATOM     78  C   UNL     1      -0.057  -6.689  13.986  1.00  0.00     0.006 A 
ENDBRANCH  50  71
BRANCH  62  79
ATOM     79  C   UNL     1       1.601 -15.606  14.924  1.00  0.00     0.057 A 
ATOM     80  C   UNL     1       0.280 -15.819  15.337  1.00  0.00     0.134 A 
ATOM     81  C   UNL     1       2.623 -16.072  15.762  1.00  0.00     0.134 A 
ATOM     82  F   UNL     1      -0.746 -15.387  14.587  1.00  0.00    -0.206 F 
ATOM     83  C   UNL     1      -0.013 -16.439  16.553  1.00  0.00     0.040 A 
ATOM     84  C   UNL     1       2.343 -16.724  16.963  1.00  0.00     0.040 A 
ATOM     85  F   UNL     1       3.911 -15.913  15.420  1.00  0.00    -0.206 F 
ATOM     86  C   UNL     1       1.022 -16.899  17.366  1.00  0.00     0.006 A 
ENDBRANCH  62  79
ENDBRANCH  36  37
ENDBRANCH  28  31
ENDBRANCH  26  27
ENDBRANCH   1  26
TORSDOF 14
