REMARK SMILES O=C(NCCCNC(=O)c1ccc(-c2c3nc(c(-c4c(F)cccc4F)c4ccc([nH]4)c(-c4c(F)cccc4F)c4nc(c(-c5c(F)cccc5F)c5ccc2[nH]5)C=C4)C=C3)cc1)C1=Cc2cc(S(F)(F)(F)(F)F)cc(Br)c2O[C@@H]1C(F)(F)F
REMARK SMILES IDX 5 1 4 2 3 3 1 4 2 5 64 7 65 8 80 9 66 10 79 11 67 12 78 13
REMARK SMILES IDX 68 14 76 15 75 16 77 17 81 18 82 19 83 20 84 21 69 22 70 23
REMARK SMILES IDX 71 24 72 25 73 26 74 27 6 28 7 29 8 30 9 32 10 33 11 34
REMARK SMILES IDX 63 35 12 36 62 37 13 38 14 39 15 40 56 41 16 42 61 43 55 44
REMARK SMILES IDX 57 45 17 46 60 47 54 48 53 49 18 51 44 52 27 53 43 54 28 55
REMARK SMILES IDX 31 56 42 57 58 58 29 59 30 60 41 62 59 63 32 64 19 65 20 66
REMARK SMILES IDX 25 67 21 68 22 69 24 70 26 71 23 72 45 73 46 74 51 75 47 76
REMARK SMILES IDX 48 77 50 78 52 79 49 80 33 81 34 82 39 83 35 84 36 85 38 86
REMARK SMILES IDX 40 87 37 88
REMARK H PARENT 3 6 7 31 57 50 31 61
REMARK Flexibility Score: inf
ROOT
ATOM      1  C   UNL     1       5.037   2.305  -0.069  1.00  0.00     0.042 C 
ENDROOT
BRANCH   1   2
ATOM      2  C   UNL     1       4.530   1.084   0.682  1.00  0.00     0.118 C 
BRANCH   2   3
ATOM      3  N   UNL     1       3.060   1.084   0.682  1.00  0.00    -0.352 N 
ATOM      4  O   UNL     1       1.054  -0.035   0.076  1.00  0.00    -0.270 OA
ATOM      5  C   UNL     1       2.325  -0.035   0.076  1.00  0.00     0.251 C 
ATOM      6  H   UNL     1       2.567   1.834   1.088  1.00  0.00     0.163 HD
BRANCH   5   7
ATOM      7  C   UNL     1       3.085  -1.193  -0.550  1.00  0.00     0.067 C 
ATOM      8  C   UNL     1       4.445  -1.193  -0.550  1.00  0.00     0.025 C 
ATOM      9  C   UNL     1       2.325  -2.351  -1.176  1.00  0.00     0.314 C 
ATOM     10  C   UNL     1       5.205  -0.035   0.076  1.00  0.00     0.020 A 
ATOM     11  O   UNL     1       3.523  -0.067   1.755  1.00  0.00    -0.474 OA
ATOM     12  C   UNL     1       6.341   0.500  -0.507  1.00  0.00     0.036 A 
ATOM     13  C   UNL     1       4.774   0.386   1.260  1.00  0.00     0.142 A 
ATOM     14  C   UNL     1       7.125   1.282   0.375  1.00  0.00     0.109 A 
ATOM     15  C   UNL     1       5.528   1.257   2.009  1.00  0.00     0.062 A 
ATOM     16  C   UNL     1       6.692   1.780   1.519  1.00  0.00     0.044 A 
ATOM     17  Br  UNL     1       4.926   1.755   3.806  1.00  0.00    -0.047 Br
BRANCH   9  18
ATOM     18  C   UNL     1       2.692  -3.643  -0.464  1.00  0.00     0.429 C 
ATOM     19  F   UNL     1       2.371  -3.546   0.823  1.00  0.00    -0.167 F 
ATOM     20  F   UNL     1       2.027  -4.656  -1.012  1.00  0.00    -0.167 F 
ATOM     21  F   UNL     1       4.000  -3.857  -0.579  1.00  0.00    -0.167 F 
ENDBRANCH   9  18
BRANCH  14  22
ATOM     22  S   UNL     1       8.838   1.622  -0.098  1.00  0.00     0.310 S 
ATOM     23  F   UNL     1       9.321   1.651   1.413  1.00  0.00    -0.094 F 
ATOM     24  F   UNL     1       8.538   3.162   0.041  1.00  0.00    -0.094 F 
ATOM     25  F   UNL     1      10.309   1.918  -0.509  1.00  0.00    -0.094 F 
ATOM     26  F   UNL     1       9.159   0.075  -0.095  1.00  0.00    -0.094 F 
ATOM     27  F   UNL     1       7.381   1.306   0.427  1.00  0.00    -0.094 F 
ENDBRANCH  14  22
ENDBRANCH   5   7
ENDBRANCH   2   3
ENDBRANCH   1   2
BRANCH   1  28
ATOM     28  C   UNL     1       4.530   3.566   0.613  1.00  0.00     0.118 C 
BRANCH  28  29
ATOM     29  N   UNL     1       5.020   3.604   1.998  1.00  0.00    -0.352 N 
ATOM     30  C   UNL     1       5.865   4.719   2.448  1.00  0.00     0.251 C 
ATOM     31  H   UNL     1       4.782   2.883   2.625  1.00  0.00     0.163 HD
ATOM     32  O   UNL     1       6.289   4.753   3.646  1.00  0.00    -0.269 OA
BRANCH  30  33
ATOM     33  C   UNL     1       6.232   5.833   1.481  1.00  0.00     0.039 A 
ATOM     34  C   UNL     1       7.532   6.259   1.263  1.00  0.00     0.014 A 
ATOM     35  C   UNL     1       5.225   6.289   0.745  1.00  0.00     0.014 A 
ATOM     36  C   UNL     1       7.630   7.396   0.427  1.00  0.00     0.010 A 
ATOM     37  C   UNL     1       5.422   7.312  -0.152  1.00  0.00     0.010 A 
ATOM     38  C   UNL     1       6.671   7.821  -0.375  1.00  0.00    -0.014 A 
BRANCH  38  39
ATOM     39  C   UNL     1       6.940   8.824  -1.485  1.00  0.00     0.031 A 
ATOM     40  C   UNL     1       6.233  10.025  -1.411  1.00  0.00     0.074 A 
ATOM     41  C   UNL     1       7.732   8.457  -2.559  1.00  0.00     0.049 A 
ATOM     42  N   UNL     1       6.216  11.015  -2.304  1.00  0.00    -0.248 NA
ATOM     43  C   UNL     1       5.364  10.401  -0.286  1.00  0.00     0.031 C 
ATOM     44  C   UNL     1       8.456   7.251  -2.638  1.00  0.00     0.029 A 
ATOM     45  N   UNL     1       7.965   9.164  -3.718  1.00  0.00    -0.354 N 
ATOM     46  C   UNL     1       5.438  12.011  -1.873  1.00  0.00     0.074 A 
ATOM     47  C   UNL     1       4.874  11.627  -0.572  1.00  0.00     0.031 C 
ATOM     48  C   UNL     1       9.105   7.226  -3.832  1.00  0.00     0.029 A 
ATOM     49  C   UNL     1       8.799   8.416  -4.519  1.00  0.00     0.049 A 
ATOM     50  H   UNL     1       7.597  10.051  -3.937  1.00  0.00     0.167 HD
ATOM     51  C   UNL     1       5.178  13.223  -2.514  1.00  0.00     0.037 A 
ATOM     52  C   UNL     1       9.276   8.735  -5.780  1.00  0.00     0.037 A 
ATOM     53  C   UNL     1       5.690  13.561  -3.757  1.00  0.00     0.049 A 
ATOM     54  C   UNL     1       8.969   9.923  -6.447  1.00  0.00     0.074 A 
ATOM     55  C   UNL     1       5.444  14.782  -4.413  1.00  0.00     0.029 A 
ATOM     56  N   UNL     1       6.504  12.802  -4.568  1.00  0.00    -0.354 N 
ATOM     57  N   UNL     1       8.223  10.935  -6.000  1.00  0.00    -0.248 NA
ATOM     58  C   UNL     1       9.442  10.258  -7.797  1.00  0.00     0.031 C 
ATOM     59  C   UNL     1       6.093  14.757  -5.608  1.00  0.00     0.029 A 
ATOM     60  C   UNL     1       6.755  13.519  -5.717  1.00  0.00     0.049 A 
ATOM     61  H   UNL     1       6.848  11.903  -4.362  1.00  0.00     0.167 HD
ATOM     62  C   UNL     1       8.173  11.908  -6.912  1.00  0.00     0.074 A 
ATOM     63  C   UNL     1       8.950  11.483  -8.084  1.00  0.00     0.031 C 
ATOM     64  C   UNL     1       7.513  13.134  -6.812  1.00  0.00     0.037 A 
BRANCH  51  65
ATOM     65  C   UNL     1       4.283  14.230  -1.809  1.00  0.00     0.057 A 
ATOM     66  C   UNL     1       4.665  14.622  -0.537  1.00  0.00     0.134 A 
ATOM     67  C   UNL     1       3.147  14.654  -2.349  1.00  0.00     0.134 A 
ATOM     68  F   UNL     1       5.891  14.435  -0.057  1.00  0.00    -0.206 F 
ATOM     69  C   UNL     1       3.632  15.240   0.207  1.00  0.00     0.040 A 
ATOM     70  C   UNL     1       2.243  15.370  -1.602  1.00  0.00     0.040 A 
ATOM     71  F   UNL     1       2.881  14.383  -3.623  1.00  0.00    -0.206 F 
ATOM     72  C   UNL     1       2.529  15.742  -0.318  1.00  0.00     0.006 A 
ENDBRANCH  51  65
BRANCH  52  73
ATOM     73  C   UNL     1      10.184   7.735  -6.478  1.00  0.00     0.057 A 
ATOM     74  C   UNL     1      11.472   8.168  -6.746  1.00  0.00     0.134 A 
ATOM     75  C   UNL     1       9.799   6.497  -6.766  1.00  0.00     0.134 A 
ATOM     76  F   UNL     1      11.975   9.296  -6.253  1.00  0.00    -0.206 F 
ATOM     77  C   UNL     1      12.204   7.301  -7.591  1.00  0.00     0.040 A 
ATOM     78  C   UNL     1      10.620   5.658  -7.479  1.00  0.00     0.040 A 
ATOM     79  F   UNL     1       8.607   6.067  -6.362  1.00  0.00    -0.206 F 
ATOM     80  C   UNL     1      11.885   6.041  -7.829  1.00  0.00     0.006 A 
ENDBRANCH  52  73
BRANCH  64  81
ATOM     81  C   UNL     1       7.633  14.105  -7.975  1.00  0.00     0.057 A 
ATOM     82  C   UNL     1       7.151  13.800  -9.237  1.00  0.00     0.134 A 
ATOM     83  C   UNL     1       8.172  15.290  -7.712  1.00  0.00     0.134 A 
ATOM     84  F   UNL     1       6.384  12.741  -9.484  1.00  0.00    -0.206 F 
ATOM     85  C   UNL     1       7.548  14.716 -10.240  1.00  0.00     0.040 A 
ATOM     86  C   UNL     1       8.407  16.191  -8.722  1.00  0.00     0.040 A 
ATOM     87  F   UNL     1       8.487  15.607  -6.459  1.00  0.00    -0.206 F 
ATOM     88  C   UNL     1       8.011  15.930 -10.004  1.00  0.00     0.006 A 
ENDBRANCH  64  81
ENDBRANCH  38  39
ENDBRANCH  30  33
ENDBRANCH  28  29
ENDBRANCH   1  28
TORSDOF 12
