REMARK SMILES Cc1nn(C)c2c1nc(SCC(=O)NCCCNC(=O)c1ccc(-c3c4nc(c(-c5c(F)cccc5F)c5ccc([nH]5)c(-c5c(F)cccc5F)c5nc(c(-c6c(F)cccc6F)c6ccc3[nH]6)C=C5)C=C4)cc1)n2[C@H]1CC[N@@H+](C)C1
REMARK SMILES IDX 15 1 14 2 12 3 13 4 11 6 10 7 9 8 1 9 2 10 3 11 7 12 4 13
REMARK SMILES IDX 6 14 8 15 5 16 75 17 76 18 77 19 81 20 78 21 79 22 80 23
REMARK SMILES IDX 16 25 17 26 18 27 19 28 20 30 21 31 22 32 74 33 23 34 73 35
REMARK SMILES IDX 24 36 25 37 26 38 67 39 27 40 72 41 66 42 68 43 28 44 71 45
REMARK SMILES IDX 65 46 64 47 29 49 55 50 38 51 54 52 39 53 42 54 53 55 69 56
REMARK SMILES IDX 40 57 41 58 52 60 70 61 43 62 30 63 31 64 36 65 32 66 33 67
REMARK SMILES IDX 35 68 37 69 34 70 56 71 57 72 62 73 58 74 59 75 61 76 63 77
REMARK SMILES IDX 60 78 44 79 45 80 50 81 46 82 47 83 49 84 51 85 48 86
REMARK H PARENT 14 5 79 24 18 29 68 48 42 59
REMARK Flexibility Score: inf
ROOT
ATOM      1  C   UNL     1      -1.667  -0.375  -0.524  1.00  0.00     0.117 C 
ENDROOT
BRANCH   1   2
ATOM      2  N   UNL     1      -2.134   0.913  -1.022  1.00  0.00    -0.355 N 
ATOM      3  C   UNL     1      -3.022   1.234  -2.011  1.00  0.00     0.230 C 
ATOM      4  O   UNL     1      -3.288   2.431  -2.153  1.00  0.00    -0.274 OA
ATOM      5  H   UNL     1      -1.740   1.690  -0.565  1.00  0.00     0.163 HD
BRANCH   3   6
ATOM      6  C   UNL     1      -3.771   0.176  -2.792  1.00  0.00     0.178 C 
BRANCH   6   7
ATOM      7  S   UNL     1      -2.732  -1.023  -3.620  1.00  0.00    -0.078 SA
BRANCH   7   8
ATOM      8  C   UNL     1      -2.034  -0.223  -4.992  1.00  0.00     0.171 A 
ATOM      9  C   UNL     1      -1.826   3.379  -7.752  1.00  0.00     0.071 C 
ATOM     10  C   UNL     1      -1.226   2.054  -7.499  1.00  0.00     0.087 A 
ATOM     11  N   UNL     1      -0.271   1.579  -8.323  1.00  0.00    -0.174 NA
ATOM     12  C   UNL     1      -1.494   1.116  -6.501  1.00  0.00     0.132 A 
ATOM     13  N   UNL     1       0.035   0.353  -7.824  1.00  0.00    -0.250 N 
ATOM     14  C   UNL     1      -0.743   0.018  -6.757  1.00  0.00     0.159 A 
ATOM     15  N   UNL     1      -2.291   0.999  -5.416  1.00  0.00    -0.219 NA
ATOM     16  C   UNL     1       1.133  -0.350  -8.438  1.00  0.00     0.176 C 
ATOM     17  N   UNL     1      -1.143  -0.906  -5.835  1.00  0.00    -0.295 N 
BRANCH  17  18
ATOM     18  C   UNL     1      -0.887  -2.335  -5.739  1.00  0.00     0.152 C 
ATOM     19  C   UNL     1      -2.164  -3.180  -5.954  1.00  0.00     0.093 C 
ATOM     20  C   UNL     1       0.115  -2.966  -6.705  1.00  0.00     0.288 C 
ATOM     21  C   UNL     1      -1.825  -4.164  -7.056  1.00  0.00     0.264 C 
ATOM     22  N   UNL     1      -0.382  -4.335  -6.888  1.00  0.00    -0.336 N 
ATOM     23  C   UNL     1       0.216  -4.985  -8.048  1.00  0.00     0.332 C 
ATOM     24  H   UNL     1      -0.144  -4.939  -6.102  1.00  0.00     0.347 HD
ENDBRANCH  17  18
ENDBRANCH   7   8
ENDBRANCH   6   7
ENDBRANCH   3   6
ENDBRANCH   1   2
BRANCH   1  25
ATOM     25  C   UNL     1      -0.257  -0.734  -1.011  1.00  0.00     0.042 C 
BRANCH  25  26
ATOM     26  C   UNL     1       0.823   0.196  -0.477  1.00  0.00     0.118 C 
BRANCH  26  27
ATOM     27  N   UNL     1       1.076   0.043   0.961  1.00  0.00    -0.352 N 
ATOM     28  C   UNL     1       1.985   0.739   1.734  1.00  0.00     0.251 C 
ATOM     29  H   UNL     1       0.535  -0.634   1.428  1.00  0.00     0.163 HD
ATOM     30  O   UNL     1       2.367   0.297   2.820  1.00  0.00    -0.269 OA
BRANCH  28  31
ATOM     31  C   UNL     1       2.485   2.032   1.245  1.00  0.00     0.039 A 
ATOM     32  C   UNL     1       3.828   2.409   1.350  1.00  0.00     0.014 A 
ATOM     33  C   UNL     1       1.561   2.856   0.613  1.00  0.00     0.014 A 
ATOM     34  C   UNL     1       4.245   3.588   0.732  1.00  0.00     0.010 A 
ATOM     35  C   UNL     1       2.004   3.896  -0.153  1.00  0.00     0.010 A 
ATOM     36  C   UNL     1       3.324   4.316  -0.036  1.00  0.00    -0.014 A 
BRANCH  36  37
ATOM     37  C   UNL     1       3.720   5.464  -0.844  1.00  0.00     0.031 A 
ATOM     38  C   UNL     1       4.750   5.156  -1.874  1.00  0.00     0.074 A 
ATOM     39  C   UNL     1       2.984   6.600  -0.851  1.00  0.00     0.049 A 
ATOM     40  N   UNL     1       5.956   5.612  -1.955  1.00  0.00    -0.248 NA
ATOM     41  C   UNL     1       4.459   4.088  -2.848  1.00  0.00     0.031 C 
ATOM     42  C   UNL     1       1.740   6.873  -0.115  1.00  0.00     0.029 A 
ATOM     43  N   UNL     1       3.109   7.710  -1.626  1.00  0.00    -0.354 N 
ATOM     44  C   UNL     1       6.486   5.079  -3.130  1.00  0.00     0.074 A 
ATOM     45  C   UNL     1       5.624   3.989  -3.492  1.00  0.00     0.031 C 
ATOM     46  C   UNL     1       1.108   7.934  -0.661  1.00  0.00     0.029 A 
ATOM     47  C   UNL     1       1.976   8.523  -1.660  1.00  0.00     0.049 A 
ATOM     48  H   UNL     1       3.932   7.923  -2.123  1.00  0.00     0.167 HD
ATOM     49  C   UNL     1       7.402   5.778  -3.859  1.00  0.00     0.037 A 
ATOM     50  C   UNL     1       1.762   9.584  -2.478  1.00  0.00     0.037 A 
ATOM     51  C   UNL     1       7.974   6.841  -3.063  1.00  0.00     0.049 A 
ATOM     52  C   UNL     1       3.083   9.995  -3.012  1.00  0.00     0.074 A 
ATOM     53  C   UNL     1       8.666   6.912  -1.869  1.00  0.00     0.029 A 
ATOM     54  N   UNL     1       7.524   8.116  -3.306  1.00  0.00    -0.354 N 
ATOM     55  N   UNL     1       4.031  10.511  -2.280  1.00  0.00    -0.248 NA
ATOM     56  C   UNL     1       3.516   9.387  -4.260  1.00  0.00     0.031 C 
ATOM     57  C   UNL     1       8.180   8.094  -1.231  1.00  0.00     0.029 A 
ATOM     58  C   UNL     1       7.285   8.717  -2.101  1.00  0.00     0.049 A 
ATOM     59  H   UNL     1       7.395   8.525  -4.192  1.00  0.00     0.167 HD
ATOM     60  C   UNL     1       5.193   9.908  -2.737  1.00  0.00     0.074 A 
ATOM     61  C   UNL     1       4.825   9.292  -4.012  1.00  0.00     0.031 C 
ATOM     62  C   UNL     1       6.252   9.706  -1.897  1.00  0.00     0.037 A 
BRANCH  49  63
ATOM     63  C   UNL     1       7.445   5.825  -5.379  1.00  0.00     0.057 A 
ATOM     64  C   UNL     1       8.422   6.636  -5.993  1.00  0.00     0.134 A 
ATOM     65  C   UNL     1       6.410   5.404  -6.239  1.00  0.00     0.134 A 
ATOM     66  F   UNL     1       9.484   7.080  -5.303  1.00  0.00    -0.206 F 
ATOM     67  C   UNL     1       8.295   7.113  -7.303  1.00  0.00     0.040 A 
ATOM     68  C   UNL     1       6.299   5.837  -7.564  1.00  0.00     0.040 A 
ATOM     69  F   UNL     1       5.400   4.625  -5.841  1.00  0.00    -0.206 F 
ATOM     70  C   UNL     1       7.216   6.731  -8.087  1.00  0.00     0.006 A 
ENDBRANCH  49  63
BRANCH  50  71
ATOM     71  C   UNL     1       0.493  10.072  -3.067  1.00  0.00     0.057 A 
ATOM     72  C   UNL     1       0.401  11.351  -3.636  1.00  0.00     0.134 A 
ATOM     73  C   UNL     1      -0.573   9.198  -3.344  1.00  0.00     0.134 A 
ATOM     74  F   UNL     1       1.386  12.244  -3.463  1.00  0.00    -0.206 F 
ATOM     75  C   UNL     1      -0.671  11.730  -4.457  1.00  0.00     0.040 A 
ATOM     76  C   UNL     1      -1.652   9.565  -4.157  1.00  0.00     0.040 A 
ATOM     77  F   UNL     1      -0.557   7.930  -2.911  1.00  0.00    -0.206 F 
ATOM     78  C   UNL     1      -1.697  10.830  -4.730  1.00  0.00     0.006 A 
ENDBRANCH  50  71
BRANCH  62  79
ATOM     79  C   UNL     1       6.231  10.391  -0.558  1.00  0.00     0.057 A 
ATOM     80  C   UNL     1       5.299  10.125   0.457  1.00  0.00     0.134 A 
ATOM     81  C   UNL     1       7.293  11.240  -0.231  1.00  0.00     0.134 A 
ATOM     82  F   UNL     1       4.301   9.253   0.273  1.00  0.00    -0.206 F 
ATOM     83  C   UNL     1       5.400  10.707   1.724  1.00  0.00     0.040 A 
ATOM     84  C   UNL     1       7.425  11.801   1.040  1.00  0.00     0.040 A 
ATOM     85  F   UNL     1       8.253  11.497  -1.134  1.00  0.00    -0.206 F 
ATOM     86  C   UNL     1       6.471  11.543   2.021  1.00  0.00     0.006 A 
ENDBRANCH  62  79
ENDBRANCH  36  37
ENDBRANCH  28  31
ENDBRANCH  26  27
ENDBRANCH  25  26
ENDBRANCH   1  25
TORSDOF 13
