REMARK SMILES Cc1noc(-c2ccc(CCl)cc2)c1C(=O)NCCCNC(=O)c1ccc(-c2c3nc(c(-c4c(F)cccc4F)c4ccc([nH]4)c(-c4c(F)cccc4F)c4nc(c(-c5c(F)cccc5F)c5ccc2[nH]5)C=C4)C=C3)cc1
REMARK SMILES IDX 19 1 18 2 17 3 15 4 16 5 14 7 1 8 2 9 3 10 4 11 5 12 6 13
REMARK SMILES IDX 7 14 13 15 8 16 12 17 9 18 10 19 11 20 20 21 21 22 22 23
REMARK SMILES IDX 23 25 24 26 25 27 77 28 26 29 76 30 27 31 28 32 29 33 70 34
REMARK SMILES IDX 30 35 75 36 69 37 71 38 31 39 74 40 68 41 67 42 32 44 58 45
REMARK SMILES IDX 41 46 57 47 42 48 45 49 56 50 72 51 43 52 44 53 55 55 73 56
REMARK SMILES IDX 46 57 33 58 34 59 39 60 35 61 36 62 38 63 40 64 37 65 59 66
REMARK SMILES IDX 60 67 65 68 61 69 62 70 64 71 66 72 63 73 47 74 48 75 53 76
REMARK SMILES IDX 49 77 50 78 52 79 54 80 51 81
REMARK H PARENT 17 6 21 24 71 43 45 54
REMARK Flexibility Score: inf
ROOT
ATOM      1  C   UNL     1       3.755  -2.150   0.734  1.00  0.00     0.042 C 
ENDROOT
BRANCH   1   2
ATOM      2  C   UNL     1       2.903  -2.327  -0.523  1.00  0.00     0.118 C 
BRANCH   2   3
ATOM      3  N   UNL     1       1.644  -2.932  -0.192  1.00  0.00    -0.352 N 
ATOM      4  C   UNL     1       0.386  -2.466   0.034  1.00  0.00     0.257 C 
ATOM      5  O   UNL     1      -0.409  -3.388   0.245  1.00  0.00    -0.269 OA
ATOM      6  H   UNL     1       1.706  -3.911  -0.108  1.00  0.00     0.163 HD
BRANCH   4   7
ATOM      7  C   UNL     1      -0.048  -1.069   0.006  1.00  0.00     0.110 A 
ATOM      8  C   UNL     1       1.906   0.805   0.173  1.00  0.00     0.071 C 
ATOM      9  C   UNL     1       0.540   0.249   0.026  1.00  0.00     0.094 A 
ATOM     10  N   UNL     1      -0.399   1.204  -0.067  1.00  0.00    -0.084 NA
ATOM     11  O   UNL     1      -1.603   0.568  -0.092  1.00  0.00    -0.355 OA
ATOM     12  C   UNL     1      -1.412  -0.768  -0.016  1.00  0.00     0.179 A 
BRANCH  12  13
ATOM     13  C   UNL     1      -2.655  -1.524   0.031  1.00  0.00     0.021 A 
ATOM     14  C   UNL     1      -3.589  -1.413  -1.005  1.00  0.00     0.012 A 
ATOM     15  C   UNL     1      -2.942  -2.366   1.113  1.00  0.00     0.012 A 
ATOM     16  C   UNL     1      -4.766  -2.165  -0.980  1.00  0.00     0.006 A 
ATOM     17  C   UNL     1      -4.114  -3.123   1.137  1.00  0.00     0.006 A 
ATOM     18  C   UNL     1      -5.035  -3.037   0.085  1.00  0.00    -0.033 A 
BRANCH  18  19
ATOM     19  C   UNL     1      -6.279  -3.880   0.093  1.00  0.00     0.145 C 
ATOM     20  Cl  UNL     1      -7.726  -2.880   0.335  1.00  0.00    -0.122 Cl
ENDBRANCH  18  19
ENDBRANCH  12  13
ENDBRANCH   4   7
ENDBRANCH   2   3
ENDBRANCH   1   2
BRANCH   1  21
ATOM     21  C   UNL     1       4.484  -3.429   1.141  1.00  0.00     0.118 C 
BRANCH  21  22
ATOM     22  N   UNL     1       5.472  -3.819   0.140  1.00  0.00    -0.352 N 
ATOM     23  C   UNL     1       6.828  -3.960   0.244  1.00  0.00     0.251 C 
ATOM     24  H   UNL     1       5.103  -4.010  -0.753  1.00  0.00     0.163 HD
ATOM     25  O   UNL     1       7.510  -4.024  -0.781  1.00  0.00    -0.269 OA
BRANCH  23  26
ATOM     26  C   UNL     1       7.477  -4.039   1.565  1.00  0.00     0.039 A 
ATOM     27  C   UNL     1       8.716  -3.419   1.748  1.00  0.00     0.014 A 
ATOM     28  C   UNL     1       6.891  -4.761   2.607  1.00  0.00     0.014 A 
ATOM     29  C   UNL     1       9.343  -3.482   2.992  1.00  0.00     0.010 A 
ATOM     30  C   UNL     1       7.476  -4.753   3.868  1.00  0.00     0.010 A 
ATOM     31  C   UNL     1       8.712  -4.123   4.070  1.00  0.00    -0.014 A 
BRANCH  31  32
ATOM     32  C   UNL     1       9.330  -4.146   5.417  1.00  0.00     0.031 A 
ATOM     33  C   UNL     1       9.723  -5.454   6.046  1.00  0.00     0.074 A 
ATOM     34  C   UNL     1       9.475  -2.993   6.097  1.00  0.00     0.049 A 
ATOM     35  N   UNL     1      10.211  -5.684   7.238  1.00  0.00    -0.248 NA
ATOM     36  C   UNL     1       9.511  -6.668   5.240  1.00  0.00     0.031 C 
ATOM     37  C   UNL     1       9.085  -1.669   5.608  1.00  0.00     0.029 A 
ATOM     38  N   UNL     1       9.981  -2.749   7.348  1.00  0.00    -0.354 N 
ATOM     39  C   UNL     1      10.345  -7.063   7.331  1.00  0.00     0.074 A 
ATOM     40  C   UNL     1       9.837  -7.623   6.098  1.00  0.00     0.031 C 
ATOM     41  C   UNL     1       9.393  -0.750   6.536  1.00  0.00     0.029 A 
ATOM     42  C   UNL     1       9.960  -1.422   7.700  1.00  0.00     0.049 A 
ATOM     43  H   UNL     1      10.326  -3.458   7.937  1.00  0.00     0.167 HD
ATOM     44  C   UNL     1      10.867  -7.794   8.345  1.00  0.00     0.037 A 
ATOM     45  C   UNL     1      10.348  -0.817   8.838  1.00  0.00     0.037 A 
ATOM     46  C   UNL     1      11.395  -7.226   9.557  1.00  0.00     0.049 A 
ATOM     47  C   UNL     1      10.920  -1.652   9.949  1.00  0.00     0.074 A 
ATOM     48  C   UNL     1      12.007  -7.872  10.616  1.00  0.00     0.029 A 
ATOM     49  N   UNL     1      11.369  -5.875   9.873  1.00  0.00    -0.354 N 
ATOM     50  N   UNL     1      11.108  -2.949   9.996  1.00  0.00    -0.248 NA
ATOM     51  C   UNL     1      11.340  -0.938  11.162  1.00  0.00     0.031 C 
ATOM     52  C   UNL     1      12.302  -6.920  11.596  1.00  0.00     0.029 A 
ATOM     53  C   UNL     1      11.929  -5.672  11.123  1.00  0.00     0.049 A 
ATOM     54  H   UNL     1      11.005  -5.167   9.294  1.00  0.00     0.167 HD
ATOM     55  C   UNL     1      11.694  -3.204  11.229  1.00  0.00     0.074 A 
ATOM     56  C   UNL     1      11.843  -1.924  11.892  1.00  0.00     0.031 C 
ATOM     57  C   UNL     1      12.074  -4.390  11.765  1.00  0.00     0.037 A 
BRANCH  44  58
ATOM     58  C   UNL     1      10.889  -9.288   8.186  1.00  0.00     0.057 A 
ATOM     59  C   UNL     1      11.726  -9.923   7.257  1.00  0.00     0.134 A 
ATOM     60  C   UNL     1      10.091 -10.104   8.997  1.00  0.00     0.134 A 
ATOM     61  F   UNL     1      12.507  -9.201   6.440  1.00  0.00    -0.206 F 
ATOM     62  C   UNL     1      11.746 -11.313   7.122  1.00  0.00     0.040 A 
ATOM     63  C   UNL     1      10.125 -11.496   8.892  1.00  0.00     0.040 A 
ATOM     64  F   UNL     1       9.271  -9.564   9.910  1.00  0.00    -0.206 F 
ATOM     65  C   UNL     1      10.949 -12.104   7.947  1.00  0.00     0.006 A 
ENDBRANCH  44  58
BRANCH  45  66
ATOM     66  C   UNL     1      10.233   0.657   8.971  1.00  0.00     0.057 A 
ATOM     67  C   UNL     1      11.373   1.469   9.004  1.00  0.00     0.134 A 
ATOM     68  C   UNL     1       8.989   1.291   9.066  1.00  0.00     0.134 A 
ATOM     69  F   UNL     1      12.595   0.920   8.933  1.00  0.00    -0.206 F 
ATOM     70  C   UNL     1      11.282   2.854   9.147  1.00  0.00     0.040 A 
ATOM     71  C   UNL     1       8.881   2.678   9.182  1.00  0.00     0.040 A 
ATOM     72  F   UNL     1       7.857   0.571   9.028  1.00  0.00    -0.206 F 
ATOM     73  C   UNL     1      10.031   3.463   9.231  1.00  0.00     0.006 A 
ENDBRANCH  45  66
BRANCH  57  74
ATOM     74  C   UNL     1      12.724  -4.355  13.117  1.00  0.00     0.057 A 
ATOM     75  C   UNL     1      12.000  -4.068  14.281  1.00  0.00     0.134 A 
ATOM     76  C   UNL     1      14.085  -4.654  13.259  1.00  0.00     0.134 A 
ATOM     77  F   UNL     1      10.696  -3.761  14.213  1.00  0.00    -0.206 F 
ATOM     78  C   UNL     1      12.612  -4.055  15.536  1.00  0.00     0.040 A 
ATOM     79  C   UNL     1      14.702  -4.675  14.511  1.00  0.00     0.040 A 
ATOM     80  F   UNL     1      14.835  -4.948  12.186  1.00  0.00    -0.206 F 
ATOM     81  C   UNL     1      13.966  -4.367  15.653  1.00  0.00     0.006 A 
ENDBRANCH  57  74
ENDBRANCH  31  32
ENDBRANCH  23  26
ENDBRANCH  21  22
ENDBRANCH   1  21
TORSDOF 12
