REMARK SMILES Cc1ccc(C(=O)N[C@@H]2CCCCC[C@@H]2C(=O)NCCCNC(=O)c2ccc(-c3c4nc(c(-c5c(F)cccc5F)c5ccc([nH]5)c(-c5c(F)cccc5F)c5nc(c(-c6c(F)cccc6F)c6ccc3[nH]6)C=C5)C=C4)cc2)c(C)n1
REMARK SMILES IDX 19 1 18 2 16 3 17 4 15 6 9 7 8 8 6 9 7 10 5 12 1 13 2 14
REMARK SMILES IDX 3 15 81 16 4 17 79 18 80 19 10 20 11 21 14 23 13 24 12 25
REMARK SMILES IDX 20 27 21 28 22 29 23 30 24 32 25 33 26 34 78 35 27 36 77 37
REMARK SMILES IDX 28 38 29 39 30 40 71 41 31 42 76 43 70 44 72 45 32 46 75 47
REMARK SMILES IDX 69 48 68 49 33 51 59 52 42 53 58 54 43 55 46 56 57 57 73 58
REMARK SMILES IDX 44 59 45 60 56 62 74 63 47 64 34 65 35 66 40 67 36 68 37 69
REMARK SMILES IDX 39 70 41 71 38 72 60 73 61 74 66 75 62 76 63 77 65 78 67 79
REMARK SMILES IDX 64 80 48 81 49 82 54 83 50 84 51 85 53 86 55 87 52 88
REMARK H PARENT 18 5 8 11 22 31 72 50 46 61
REMARK Flexibility Score: 90.00
ROOT
ATOM      1  C   UNL     1       4.401  -5.597   0.146  1.00  0.00     0.117 C 
ENDROOT
BRANCH   1   2
ATOM      2  N   UNL     1       3.830  -5.554  -1.187  1.00  0.00    -0.356 N 
ATOM      3  C   UNL     1       2.541  -5.689  -1.601  1.00  0.00     0.225 C 
ATOM      4  O   UNL     1       2.330  -5.766  -2.812  1.00  0.00    -0.275 OA
ATOM      5  H   UNL     1       4.481  -5.402  -1.910  1.00  0.00     0.163 HD
BRANCH   3   6
ATOM      6  C   UNL     1       1.388  -5.690  -0.606  1.00  0.00     0.101 C 
BRANCH   6   7
ATOM      7  C   UNL     1       1.077  -4.282  -0.016  1.00  0.00     0.094 C 
BRANCH   7   8
ATOM      8  N   UNL     1       2.090  -3.243  -0.257  1.00  0.00    -0.348 N 
ATOM      9  C   UNL     1       2.098  -1.865  -0.307  1.00  0.00     0.253 C 
ATOM     10  O   UNL     1       3.207  -1.381  -0.546  1.00  0.00    -0.269 OA
ATOM     11  H   UNL     1       2.981  -3.626  -0.422  1.00  0.00     0.164 HD
BRANCH   9  12
ATOM     12  C   UNL     1       0.909  -0.962  -0.119  1.00  0.00     0.061 A 
ATOM     13  C   UNL     1      -2.419   1.744   0.072  1.00  0.00     0.067 C 
ATOM     14  C   UNL     1      -1.277   0.778   0.057  1.00  0.00     0.038 A 
ATOM     15  C   UNL     1      -1.504  -0.576  -0.032  1.00  0.00     0.024 A 
ATOM     16  N   UNL     1      -0.028   1.283   0.094  1.00  0.00    -0.258 NA
ATOM     17  C   UNL     1      -0.409  -1.432  -0.123  1.00  0.00     0.017 A 
ATOM     18  C   UNL     1       1.048   0.432   0.020  1.00  0.00     0.050 A 
ATOM     19  C   UNL     1       2.353   1.178   0.051  1.00  0.00     0.067 C 
ENDBRANCH   9  12
ENDBRANCH   7   8
BRANCH   7  20
ATOM     20  C   UNL     1       0.689  -4.275   1.470  1.00  0.00     0.026 C 
BRANCH  20  21
ATOM     21  C   UNL     1      -0.628  -4.995   1.748  1.00  0.00     0.002 CG0
ATOM     22  G   UNL     1      -0.455  -6.477   2.047  1.00  0.00     0.000 G0
ENDBRANCH  20  21
ENDBRANCH   7  20
ENDBRANCH   6   7
BRANCH   6  23
ATOM     23  C   UNL     1       1.428  -6.894   0.351  1.00  0.00     0.015 C 
BRANCH  23  24
ATOM     24  C   UNL     1       0.052  -7.311   0.877  1.00  0.00     0.001 C 
BRANCH  24  25
ATOM     25  C   UNL     1      -0.455  -6.477   2.047  1.00  0.00     0.000 CG0
ATOM     26  G   UNL     1      -0.628  -4.995   1.748  1.00  0.00     0.000 G0
ENDBRANCH  24  25
ENDBRANCH  23  24
ENDBRANCH   6  23
ENDBRANCH   3   6
ENDBRANCH   1   2
BRANCH   1  27
ATOM     27  C   UNL     1       4.964  -6.976   0.465  1.00  0.00     0.042 C 
BRANCH  27  28
ATOM     28  C   UNL     1       6.156  -7.352  -0.407  1.00  0.00     0.118 C 
BRANCH  28  29
ATOM     29  N   UNL     1       7.296  -6.473  -0.184  1.00  0.00    -0.352 N 
ATOM     30  C   UNL     1       8.547  -6.768   0.286  1.00  0.00     0.251 C 
ATOM     31  H   UNL     1       7.144  -5.526  -0.405  1.00  0.00     0.163 HD
ATOM     32  O   UNL     1       9.300  -5.856   0.636  1.00  0.00    -0.269 OA
BRANCH  30  33
ATOM     33  C   UNL     1       8.996  -8.169   0.387  1.00  0.00     0.039 A 
ATOM     34  C   UNL     1       9.730  -8.566   1.506  1.00  0.00     0.014 A 
ATOM     35  C   UNL     1       8.715  -9.086  -0.631  1.00  0.00     0.014 A 
ATOM     36  C   UNL     1      10.133  -9.896   1.633  1.00  0.00     0.010 A 
ATOM     37  C   UNL     1       9.042 -10.427  -0.464  1.00  0.00     0.010 A 
ATOM     38  C   UNL     1       9.761 -10.844   0.665  1.00  0.00    -0.014 A 
BRANCH  38  39
ATOM     39  C   UNL     1      10.116 -12.275   0.821  1.00  0.00     0.031 A 
ATOM     40  C   UNL     1      11.025 -12.943  -0.173  1.00  0.00     0.074 A 
ATOM     41  C   UNL     1       9.568 -12.986   1.825  1.00  0.00     0.049 A 
ATOM     42  N   UNL     1      11.406 -14.193  -0.233  1.00  0.00    -0.248 NA
ATOM     43  C   UNL     1      11.556 -12.101  -1.258  1.00  0.00     0.031 C 
ATOM     44  C   UNL     1       8.629 -12.462   2.820  1.00  0.00     0.029 A 
ATOM     45  N   UNL     1       9.715 -14.305   2.171  1.00  0.00    -0.354 N 
ATOM     46  C   UNL     1      12.207 -14.290  -1.365  1.00  0.00     0.074 A 
ATOM     47  C   UNL     1      12.212 -12.987  -1.992  1.00  0.00     0.031 C 
ATOM     48  C   UNL     1       8.306 -13.442   3.678  1.00  0.00     0.029 A 
ATOM     49  C   UNL     1       8.981 -14.670   3.273  1.00  0.00     0.049 A 
ATOM     50  H   UNL     1      10.291 -14.931   1.676  1.00  0.00     0.167 HD
ATOM     51  C   UNL     1      12.895 -15.362  -1.825  1.00  0.00     0.037 A 
ATOM     52  C   UNL     1       8.862 -15.863   3.885  1.00  0.00     0.037 A 
ATOM     53  C   UNL     1      12.904 -16.650  -1.183  1.00  0.00     0.049 A 
ATOM     54  C   UNL     1       9.634 -17.037   3.353  1.00  0.00     0.074 A 
ATOM     55  C   UNL     1      13.617 -17.783  -1.533  1.00  0.00     0.029 A 
ATOM     56  N   UNL     1      12.160 -16.977  -0.058  1.00  0.00    -0.354 N 
ATOM     57  N   UNL     1      10.446 -17.096   2.325  1.00  0.00    -0.248 NA
ATOM     58  C   UNL     1       9.480 -18.310   4.070  1.00  0.00     0.031 C 
ATOM     59  C   UNL     1      13.269 -18.809  -0.648  1.00  0.00     0.029 A 
ATOM     60  C   UNL     1      12.379 -18.301   0.284  1.00  0.00     0.049 A 
ATOM     61  H   UNL     1      11.565 -16.359   0.425  1.00  0.00     0.167 HD
ATOM     62  C   UNL     1      10.918 -18.401   2.287  1.00  0.00     0.074 A 
ATOM     63  C   UNL     1      10.316 -19.095   3.407  1.00  0.00     0.031 C 
ATOM     64  C   UNL     1      11.772 -18.975   1.404  1.00  0.00     0.037 A 
BRANCH  51  65
ATOM     65  C   UNL     1      13.698 -15.184  -3.081  1.00  0.00     0.057 A 
ATOM     66  C   UNL     1      14.859 -14.400  -3.111  1.00  0.00     0.134 A 
ATOM     67  C   UNL     1      13.329 -15.835  -4.265  1.00  0.00     0.134 A 
ATOM     68  F   UNL     1      15.263 -13.740  -2.015  1.00  0.00    -0.206 F 
ATOM     69  C   UNL     1      15.609 -14.249  -4.279  1.00  0.00     0.040 A 
ATOM     70  C   UNL     1      14.086 -15.714  -5.431  1.00  0.00     0.040 A 
ATOM     71  F   UNL     1      12.232 -16.606  -4.306  1.00  0.00    -0.206 F 
ATOM     72  C   UNL     1      15.227 -14.914  -5.442  1.00  0.00     0.006 A 
ENDBRANCH  51  65
BRANCH  52  73
ATOM     73  C   UNL     1       7.994 -16.003   5.082  1.00  0.00     0.057 A 
ATOM     74  C   UNL     1       8.543 -16.226   6.350  1.00  0.00     0.134 A 
ATOM     75  C   UNL     1       6.599 -15.924   4.988  1.00  0.00     0.134 A 
ATOM     76  F   UNL     1       9.872 -16.328   6.501  1.00  0.00    -0.206 F 
ATOM     77  C   UNL     1       7.737 -16.390   7.478  1.00  0.00     0.040 A 
ATOM     78  C   UNL     1       5.782 -16.058   6.111  1.00  0.00     0.040 A 
ATOM     79  F   UNL     1       6.011 -15.700   3.803  1.00  0.00    -0.206 F 
ATOM     80  C   UNL     1       6.351 -16.301   7.360  1.00  0.00     0.006 A 
ENDBRANCH  52  73
BRANCH  64  81
ATOM     81  C   UNL     1      12.128 -20.415   1.634  1.00  0.00     0.057 A 
ATOM     82  C   UNL     1      11.210 -21.448   1.409  1.00  0.00     0.134 A 
ATOM     83  C   UNL     1      13.414 -20.772   2.058  1.00  0.00     0.134 A 
ATOM     84  F   UNL     1       9.957 -21.172   1.016  1.00  0.00    -0.206 F 
ATOM     85  C   UNL     1      11.551 -22.785   1.623  1.00  0.00     0.040 A 
ATOM     86  C   UNL     1      13.776 -22.106   2.247  1.00  0.00     0.040 A 
ATOM     87  F   UNL     1      14.344 -19.831   2.282  1.00  0.00    -0.206 F 
ATOM     88  C   UNL     1      12.840 -23.116   2.036  1.00  0.00     0.006 A 
ENDBRANCH  64  81
ENDBRANCH  38  39
ENDBRANCH  30  33
ENDBRANCH  28  29
ENDBRANCH  27  28
ENDBRANCH   1  27
TORSDOF 12
