REMARK SMILES C[C@@H]1CCC[C@H](S[C@@H]2CCC[C@]([NH2+]C3CC3)(C(=O)NCCCNC(=O)c3ccc(-c4c5nc(c(-c6c(F)cccc6F)c6ccc([nH]6)c(-c6c(F)cccc6F)c6nc(c(-c7c(F)cccc7F)c7ccc4[nH]7)C=C6)C=C5)cc3)C2)C1
REMARK SMILES IDX 21 1 20 2 19 3 17 4 18 5 12 7 8 8 9 9 80 10 10 11 11 12 7 13
REMARK SMILES IDX 6 14 1 15 2 16 3 17 81 18 4 19 5 20 13 21 14 24 15 25 16 26
REMARK SMILES IDX 22 27 23 28 24 29 25 31 26 32 27 33 79 34 28 35 78 36 29 37
REMARK SMILES IDX 30 38 31 39 72 40 32 41 77 42 71 43 73 44 33 45 76 46 70 47
REMARK SMILES IDX 69 48 34 50 60 51 43 52 59 53 44 54 47 55 58 56 74 57 45 58
REMARK SMILES IDX 46 59 57 61 75 62 48 63 35 64 36 65 41 66 37 67 38 68 40 69
REMARK SMILES IDX 42 70 39 71 61 72 62 73 67 74 63 75 64 76 66 77 68 78 65 79
REMARK SMILES IDX 49 80 50 81 55 82 51 83 52 84 54 85 56 86 53 87
REMARK H PARENT 19 6 13 22 13 23 23 30 73 49 47 60
REMARK Flexibility Score: inf
ROOT
ATOM      1  C   UNL     1       4.585   4.038   4.767  1.00  0.00     0.042 C 
ENDROOT
BRANCH   1   2
ATOM      2  C   UNL     1       3.573   4.182   3.640  1.00  0.00     0.118 C 
BRANCH   2   3
ATOM      3  N   UNL     1       3.633   3.095   2.677  1.00  0.00    -0.351 N 
ATOM      4  C   UNL     1       2.814   2.043   2.387  1.00  0.00     0.281 C 
ATOM      5  O   UNL     1       3.218   1.306   1.483  1.00  0.00    -0.268 OA
ATOM      6  H   UNL     1       4.439   3.124   2.112  1.00  0.00     0.163 HD
BRANCH   4   7
ATOM      7  C   UNL     1       1.456   1.792   3.121  1.00  0.00     0.176 C 
ATOM      8  C   UNL     1      -0.760   0.408   2.887  1.00  0.00     0.053 C 
ATOM      9  C   UNL     1      -1.605   1.675   2.788  1.00  0.00     0.015 C 
ATOM     10  C   UNL     1       0.713   0.567   2.521  1.00  0.00     0.093 C 
ATOM     11  C   UNL     1      -0.877   2.882   3.369  1.00  0.00     0.008 C 
ATOM     12  C   UNL     1       0.541   3.017   2.826  1.00  0.00     0.079 C 
BRANCH   8  13
ATOM     13  S   UNL     1      -1.551  -1.105   2.150  1.00  0.00    -0.155 SA
BRANCH  13  14
ATOM     14  C   UNL     1      -1.592  -1.025   0.292  1.00  0.00     0.047 C 
ATOM     15  C   UNL     1       1.885  -1.459   0.192  1.00  0.00     0.007 C 
ATOM     16  C   UNL     1       0.777  -1.100  -0.802  1.00  0.00    -0.013 C 
ATOM     17  C   UNL     1       0.621   0.403  -1.122  1.00  0.00     0.003 C 
ATOM     18  C   UNL     1      -0.516  -1.836  -0.446  1.00  0.00     0.017 C 
ATOM     19  C   UNL     1      -0.645   1.137  -0.668  1.00  0.00     0.001 C 
ATOM     20  C   UNL     1      -1.870   0.273  -0.447  1.00  0.00     0.014 C 
ENDBRANCH  13  14
ENDBRANCH   8  13
BRANCH   7  21
ATOM     21  N   UNL     1       1.697   1.612   4.570  1.00  0.00    -0.331 N 
ATOM     22  H   UNL     1       0.778   1.594   5.012  1.00  0.00     0.347 HD
ATOM     23  H   UNL     1       2.333   2.382   4.778  1.00  0.00     0.347 HD
BRANCH  21  24
ATOM     24  C   UNL     1       2.434   0.449   5.102  1.00  0.00     0.183 C 
ATOM     25  C   UNL     1       3.108  -0.652   4.330  1.00  0.00     0.071 C 
ATOM     26  C   UNL     1       3.941   0.376   5.021  1.00  0.00     0.071 C 
ENDBRANCH  21  24
ENDBRANCH   7  21
ENDBRANCH   4   7
ENDBRANCH   2   3
ENDBRANCH   1   2
BRANCH   1  27
ATOM     27  C   UNL     1       6.026   3.951   4.288  1.00  0.00     0.118 C 
BRANCH  27  28
ATOM     28  N   UNL     1       6.453   5.163   3.602  1.00  0.00    -0.352 N 
ATOM     29  C   UNL     1       7.176   6.239   4.056  1.00  0.00     0.251 C 
ATOM     30  H   UNL     1       6.178   5.220   2.658  1.00  0.00     0.163 HD
ATOM     31  O   UNL     1       7.197   7.275   3.401  1.00  0.00    -0.269 OA
BRANCH  29  32
ATOM     32  C   UNL     1       7.911   6.162   5.337  1.00  0.00     0.039 A 
ATOM     33  C   UNL     1       7.934   7.279   6.177  1.00  0.00     0.014 A 
ATOM     34  C   UNL     1       8.608   5.008   5.695  1.00  0.00     0.014 A 
ATOM     35  C   UNL     1       8.597   7.208   7.405  1.00  0.00     0.010 A 
ATOM     36  C   UNL     1       9.174   4.902   6.960  1.00  0.00     0.010 A 
ATOM     37  C   UNL     1       9.188   6.006   7.824  1.00  0.00    -0.014 A 
BRANCH  37  38
ATOM     38  C   UNL     1       9.843   5.882   9.151  1.00  0.00     0.031 A 
ATOM     39  C   UNL     1      11.306   5.542   9.242  1.00  0.00     0.074 A 
ATOM     40  C   UNL     1       9.106   6.006  10.273  1.00  0.00     0.049 A 
ATOM     41  N   UNL     1      12.039   5.312  10.303  1.00  0.00    -0.248 NA
ATOM     42  C   UNL     1      12.038   5.410   7.971  1.00  0.00     0.031 C 
ATOM     43  C   UNL     1       7.669   6.282  10.317  1.00  0.00     0.029 A 
ATOM     44  N   UNL     1       9.464   5.906  11.594  1.00  0.00    -0.354 N 
ATOM     45  C   UNL     1      13.304   4.992   9.826  1.00  0.00     0.074 A 
ATOM     46  C   UNL     1      13.226   4.995   8.382  1.00  0.00     0.031 C 
ATOM     47  C   UNL     1       7.274   6.358  11.598  1.00  0.00     0.029 A 
ATOM     48  C   UNL     1       8.418   6.094  12.464  1.00  0.00     0.049 A 
ATOM     49  H   UNL     1      10.384   5.717  11.890  1.00  0.00     0.167 HD
ATOM     50  C   UNL     1      14.436   4.746  10.527  1.00  0.00     0.037 A 
ATOM     51  C   UNL     1       8.384   6.051  13.809  1.00  0.00     0.037 A 
ATOM     52  C   UNL     1      14.516   4.772  11.963  1.00  0.00     0.049 A 
ATOM     53  C   UNL     1       9.654   5.771  14.564  1.00  0.00     0.074 A 
ATOM     54  C   UNL     1      15.627   4.597  12.768  1.00  0.00     0.029 A 
ATOM     55  N   UNL     1      13.438   4.987  12.809  1.00  0.00    -0.354 N 
ATOM     56  N   UNL     1      10.859   5.540  14.101  1.00  0.00    -0.248 NA
ATOM     57  C   UNL     1       9.561   5.753  16.031  1.00  0.00     0.031 C 
ATOM     58  C   UNL     1      15.213   4.658  14.103  1.00  0.00     0.029 A 
ATOM     59  C   UNL     1      13.854   4.926  14.128  1.00  0.00     0.049 A 
ATOM     60  H   UNL     1      12.514   5.157  12.515  1.00  0.00     0.167 HD
ATOM     61  C   UNL     1      11.671   5.380  15.216  1.00  0.00     0.074 A 
ATOM     62  C   UNL     1      10.825   5.556  16.378  1.00  0.00     0.031 C 
ATOM     63  C   UNL     1      12.999   5.112  15.273  1.00  0.00     0.037 A 
BRANCH  50  64
ATOM     64  C   UNL     1      15.682   4.434   9.746  1.00  0.00     0.057 A 
ATOM     65  C   UNL     1      16.331   5.404   8.969  1.00  0.00     0.134 A 
ATOM     66  C   UNL     1      16.258   3.159   9.796  1.00  0.00     0.134 A 
ATOM     67  F   UNL     1      15.826   6.643   8.867  1.00  0.00    -0.206 F 
ATOM     68  C   UNL     1      17.489   5.109   8.248  1.00  0.00     0.040 A 
ATOM     69  C   UNL     1      17.433   2.860   9.104  1.00  0.00     0.040 A 
ATOM     70  F   UNL     1      15.694   2.183  10.525  1.00  0.00    -0.206 F 
ATOM     71  C   UNL     1      18.048   3.835   8.321  1.00  0.00     0.006 A 
ENDBRANCH  50  64
BRANCH  51  72
ATOM     72  C   UNL     1       7.111   6.303  14.532  1.00  0.00     0.057 A 
ATOM     73  C   UNL     1       6.932   7.461  15.297  1.00  0.00     0.134 A 
ATOM     74  C   UNL     1       6.049   5.392  14.486  1.00  0.00     0.134 A 
ATOM     75  F   UNL     1       7.919   8.364  15.395  1.00  0.00    -0.206 F 
ATOM     76  C   UNL     1       5.755   7.694  16.010  1.00  0.00     0.040 A 
ATOM     77  C   UNL     1       4.855   5.625  15.171  1.00  0.00     0.040 A 
ATOM     78  F   UNL     1       6.152   4.267  13.762  1.00  0.00    -0.206 F 
ATOM     79  C   UNL     1       4.710   6.775  15.944  1.00  0.00     0.006 A 
ENDBRANCH  51  72
BRANCH  63  80
ATOM     80  C   UNL     1      13.625   5.032  16.635  1.00  0.00     0.057 A 
ATOM     81  C   UNL     1      13.379   3.962  17.503  1.00  0.00     0.134 A 
ATOM     82  C   UNL     1      14.517   6.023  17.066  1.00  0.00     0.134 A 
ATOM     83  F   UNL     1      12.525   2.986  17.156  1.00  0.00    -0.206 F 
ATOM     84  C   UNL     1      13.977   3.893  18.763  1.00  0.00     0.040 A 
ATOM     85  C   UNL     1      15.144   5.950  18.310  1.00  0.00     0.040 A 
ATOM     86  F   UNL     1      14.805   7.071  16.278  1.00  0.00    -0.206 F 
ATOM     87  C   UNL     1      14.868   4.886  19.165  1.00  0.00     0.006 A 
ENDBRANCH  63  80
ENDBRANCH  37  38
ENDBRANCH  29  32
ENDBRANCH  27  28
ENDBRANCH   1  27
TORSDOF 14
