REMARK SMILES Cc1cc(C(=O)Nc2c(Cl)cc(Cl)cc2C(=O)NCCCNC(=O)c2ccc(-c3c4nc(c(-c5c(F)cccc5F)c5ccc([nH]5)c(-c5c(F)cccc5F)c5nc(c(-c6c(F)cccc6F)c6ccc3[nH]6)C=C5)C=C4)cc2)c(C)s1
REMARK SMILES IDX 20 1 19 2 18 3 16 4 17 5 15 7 8 8 9 9 10 10 11 11 14 12
REMARK SMILES IDX 12 13 13 14 7 15 5 16 6 17 4 19 1 20 2 21 3 22 81 23 79 24
REMARK SMILES IDX 80 25 21 26 22 27 23 28 24 30 25 31 26 32 78 33 27 34 77 35
REMARK SMILES IDX 28 36 29 37 30 38 71 39 31 40 76 41 70 42 72 43 32 44 75 45
REMARK SMILES IDX 69 46 68 47 33 49 59 50 42 51 58 52 43 53 46 54 57 55 73 56
REMARK SMILES IDX 44 57 45 58 56 60 74 61 47 62 34 63 35 64 40 65 36 66 37 67
REMARK SMILES IDX 39 68 41 69 38 70 60 71 61 72 66 73 62 74 63 75 65 76 67 77
REMARK SMILES IDX 64 78 48 79 49 80 54 81 50 82 51 83 53 84 55 85 52 86
REMARK H PARENT 18 6 7 18 22 29 72 48 46 59
REMARK Flexibility Score: inf
ROOT
ATOM      1  C   UNL     1       2.647  -3.982   2.379  1.00  0.00     0.042 C 
ENDROOT
BRANCH   1   2
ATOM      2  C   UNL     1       1.691  -4.449   1.311  1.00  0.00     0.118 C 
BRANCH   2   3
ATOM      3  N   UNL     1       0.824  -5.551   1.616  1.00  0.00    -0.352 N 
ATOM      4  C   UNL     1      -0.429  -5.843   1.143  1.00  0.00     0.253 C 
ATOM      5  O   UNL     1      -0.920  -6.903   1.541  1.00  0.00    -0.269 OA
ATOM      6  H   UNL     1       1.185  -6.198   2.264  1.00  0.00     0.163 HD
BRANCH   4   7
ATOM      7  C   UNL     1      -1.274  -4.976   0.246  1.00  0.00     0.066 A 
ATOM      8  C   UNL     1      -0.904  -4.115  -0.817  1.00  0.00     0.073 A 
ATOM      9  C   UNL     1      -1.921  -3.529  -1.618  1.00  0.00     0.066 A 
ATOM     10  Cl  UNL     1      -1.552  -2.613  -3.045  1.00  0.00    -0.082 Cl
ATOM     11  C   UNL     1      -3.270  -3.666  -1.296  1.00  0.00     0.043 A 
ATOM     12  C   UNL     1      -2.653  -5.090   0.547  1.00  0.00     0.036 A 
ATOM     13  C   UNL     1      -3.627  -4.425  -0.196  1.00  0.00     0.043 A 
ATOM     14  Cl  UNL     1      -5.282  -4.552   0.251  1.00  0.00    -0.084 Cl
BRANCH   8  15
ATOM     15  N   UNL     1       0.432  -3.810  -1.127  1.00  0.00    -0.320 N 
ATOM     16  C   UNL     1       1.100  -2.584  -1.040  1.00  0.00     0.256 C 
ATOM     17  O   UNL     1       2.281  -2.592  -1.395  1.00  0.00    -0.269 OA
ATOM     18  H   UNL     1       0.974  -4.566  -1.449  1.00  0.00     0.170 HD
BRANCH  16  19
ATOM     19  C   UNL     1       0.482  -1.370  -0.442  1.00  0.00     0.054 A 
ATOM     20  C   UNL     1      -2.619   0.620   0.351  1.00  0.00     0.056 C 
ATOM     21  C   UNL     1      -1.231   0.104   0.198  1.00  0.00     0.003 A 
ATOM     22  C   UNL     1      -0.823  -1.208   0.139  1.00  0.00     0.029 A 
ATOM     23  S   UNL     1       0.098   1.146   0.066  1.00  0.00    -0.145 S 
ATOM     24  C   UNL     1       1.169  -0.166  -0.253  1.00  0.00     0.014 A 
ATOM     25  C   UNL     1       2.629   0.153  -0.335  1.00  0.00     0.057 C 
ENDBRANCH  16  19
ENDBRANCH   8  15
ENDBRANCH   4   7
ENDBRANCH   2   3
ENDBRANCH   1   2
BRANCH   1  26
ATOM     26  C   UNL     1       3.635  -5.020   2.861  1.00  0.00     0.118 C 
BRANCH  26  27
ATOM     27  N   UNL     1       4.595  -5.456   1.853  1.00  0.00    -0.352 N 
ATOM     28  C   UNL     1       5.923  -5.159   1.650  1.00  0.00     0.251 C 
ATOM     29  H   UNL     1       4.222  -6.082   1.192  1.00  0.00     0.163 HD
ATOM     30  O   UNL     1       6.489  -5.611   0.652  1.00  0.00    -0.269 OA
BRANCH  28  31
ATOM     31  C   UNL     1       6.680  -4.290   2.579  1.00  0.00     0.039 A 
ATOM     32  C   UNL     1       7.697  -3.466   2.083  1.00  0.00     0.014 A 
ATOM     33  C   UNL     1       6.423  -4.293   3.946  1.00  0.00     0.014 A 
ATOM     34  C   UNL     1       8.395  -2.617   2.950  1.00  0.00     0.010 A 
ATOM     35  C   UNL     1       6.979  -3.325   4.768  1.00  0.00     0.010 A 
ATOM     36  C   UNL     1       8.016  -2.515   4.298  1.00  0.00    -0.014 A 
BRANCH  36  37
ATOM     37  C   UNL     1       8.741  -1.652   5.266  1.00  0.00     0.031 A 
ATOM     38  C   UNL     1       9.358  -2.268   6.500  1.00  0.00     0.074 A 
ATOM     39  C   UNL     1       8.790  -0.319   5.082  1.00  0.00     0.049 A 
ATOM     40  N   UNL     1       9.975  -1.689   7.499  1.00  0.00    -0.248 NA
ATOM     41  C   UNL     1       9.220  -3.726   6.657  1.00  0.00     0.031 C 
ATOM     42  C   UNL     1       8.181   0.408   3.966  1.00  0.00     0.029 A 
ATOM     43  N   UNL     1       9.384   0.662   5.832  1.00  0.00    -0.354 N 
ATOM     44  C   UNL     1      10.257  -2.704   8.407  1.00  0.00     0.074 A 
ATOM     45  C   UNL     1       9.667  -3.914   7.887  1.00  0.00     0.031 C 
ATOM     46  C   UNL     1       8.486   1.711   4.074  1.00  0.00     0.029 A 
ATOM     47  C   UNL     1       9.272   1.917   5.285  1.00  0.00     0.049 A 
ATOM     48  H   UNL     1       9.848   0.484   6.683  1.00  0.00     0.167 HD
ATOM     49  C   UNL     1      10.980  -2.649   9.551  1.00  0.00     0.037 A 
ATOM     50  C   UNL     1       9.763   3.096   5.710  1.00  0.00     0.037 A 
ATOM     51  C   UNL     1      11.609  -1.452  10.038  1.00  0.00     0.049 A 
ATOM     52  C   UNL     1      10.575   3.136   6.975  1.00  0.00     0.074 A 
ATOM     53  C   UNL     1      12.427  -1.292  11.141  1.00  0.00     0.029 A 
ATOM     54  N   UNL     1      11.486  -0.204   9.444  1.00  0.00    -0.354 N 
ATOM     55  N   UNL     1      10.904   2.156   7.782  1.00  0.00    -0.248 NA
ATOM     56  C   UNL     1      11.096   4.449   7.380  1.00  0.00     0.031 C 
ATOM     57  C   UNL     1      12.755   0.064  11.246  1.00  0.00     0.029 A 
ATOM     58  C   UNL     1      12.194   0.737  10.172  1.00  0.00     0.049 A 
ATOM     59  H   UNL     1      10.971  -0.015   8.626  1.00  0.00     0.167 HD
ATOM     60  C   UNL     1      11.705   2.724   8.765  1.00  0.00     0.074 A 
ATOM     61  C   UNL     1      11.816   4.134   8.446  1.00  0.00     0.031 C 
ATOM     62  C   UNL     1      12.301   2.134   9.831  1.00  0.00     0.037 A 
BRANCH  49  63
ATOM     63  C   UNL     1      11.120  -3.922  10.340  1.00  0.00     0.057 A 
ATOM     64  C   UNL     1      11.817  -5.036   9.848  1.00  0.00     0.134 A 
ATOM     65  C   UNL     1      10.532  -4.044  11.606  1.00  0.00     0.134 A 
ATOM     66  F   UNL     1      12.394  -4.997   8.637  1.00  0.00    -0.206 F 
ATOM     67  C   UNL     1      11.878  -6.237  10.558  1.00  0.00     0.040 A 
ATOM     68  C   UNL     1      10.619  -5.227  12.343  1.00  0.00     0.040 A 
ATOM     69  F   UNL     1       9.856  -3.019  12.146  1.00  0.00    -0.206 F 
ATOM     70  C   UNL     1      11.281  -6.332  11.813  1.00  0.00     0.006 A 
ENDBRANCH  49  63
BRANCH  50  71
ATOM     71  C   UNL     1       9.565   4.321   4.893  1.00  0.00     0.057 A 
ATOM     72  C   UNL     1      10.640   4.911   4.218  1.00  0.00     0.134 A 
ATOM     73  C   UNL     1       8.310   4.926   4.759  1.00  0.00     0.134 A 
ATOM     74  F   UNL     1      11.870   4.386   4.319  1.00  0.00    -0.206 F 
ATOM     75  C   UNL     1      10.481   6.070   3.457  1.00  0.00     0.040 A 
ATOM     76  C   UNL     1       8.131   6.071   3.979  1.00  0.00     0.040 A 
ATOM     77  F   UNL     1       7.237   4.404   5.371  1.00  0.00    -0.206 F 
ATOM     78  C   UNL     1       9.221   6.650   3.332  1.00  0.00     0.006 A 
ENDBRANCH  50  71
BRANCH  62  79
ATOM     79  C   UNL     1      13.175   2.998  10.694  1.00  0.00     0.057 A 
ATOM     80  C   UNL     1      12.652   3.999  11.523  1.00  0.00     0.134 A 
ATOM     81  C   UNL     1      14.563   2.804  10.711  1.00  0.00     0.134 A 
ATOM     82  F   UNL     1      11.333   4.243  11.546  1.00  0.00    -0.206 F 
ATOM     83  C   UNL     1      13.481   4.800  12.310  1.00  0.00     0.040 A 
ATOM     84  C   UNL     1      15.398   3.575  11.520  1.00  0.00     0.040 A 
ATOM     85  F   UNL     1      15.128   1.854   9.952  1.00  0.00    -0.206 F 
ATOM     86  C   UNL     1      14.858   4.584  12.314  1.00  0.00     0.006 A 
ENDBRANCH  62  79
ENDBRANCH  36  37
ENDBRANCH  28  31
ENDBRANCH  26  27
ENDBRANCH   1  26
TORSDOF 12
