REMARK SMILES C[C@@H](C(=O)NCCCNC(=O)c1ccc(-c2c3nc(c(-c4c(F)cccc4F)c4ccc([nH]4)c(-c4c(F)cccc4F)c4nc(c(-c5c(F)cccc5F)c5ccc2[nH]5)C=C4)C=C3)cc1)c1ccc(-c2ccccc2)cc1
REMARK SMILES IDX 7 1 6 2 5 3 3 4 4 5 2 7 1 8 66 9 67 10 77 11 68 12 76 13
REMARK SMILES IDX 69 14 70 15 71 16 75 17 72 18 74 19 73 20 8 21 9 22 10 23
REMARK SMILES IDX 11 25 12 26 13 27 65 28 14 29 64 30 15 31 16 32 17 33 58 34
REMARK SMILES IDX 18 35 63 36 57 37 59 38 19 39 62 40 56 41 55 42 20 44 46 45
REMARK SMILES IDX 29 46 45 47 30 48 33 49 44 50 60 51 31 52 32 53 43 55 61 56
REMARK SMILES IDX 34 57 21 58 22 59 27 60 23 61 24 62 26 63 28 64 25 65 47 66
REMARK SMILES IDX 48 67 53 68 49 69 50 70 52 71 54 72 51 73 35 74 36 75 41 76
REMARK SMILES IDX 37 77 38 78 40 79 42 80 39 81
REMARK H PARENT 5 6 9 24 59 43 33 54
REMARK Flexibility Score: inf
ROOT
ATOM      1  C   UNL     1       4.278  -1.144   0.493  1.00  0.00     0.042 C 
ENDROOT
BRANCH   1   2
ATOM      2  C   UNL     1       3.290  -2.054  -0.240  1.00  0.00     0.117 C 
BRANCH   2   3
ATOM      3  N   UNL     1       2.238  -2.525   0.642  1.00  0.00    -0.356 N 
ATOM      4  C   UNL     1       0.947  -2.104   0.798  1.00  0.00     0.227 C 
ATOM      5  O   UNL     1       0.330  -2.581   1.752  1.00  0.00    -0.274 OA
ATOM      6  H   UNL     1       2.498  -3.273   1.227  1.00  0.00     0.163 HD
BRANCH   4   7
ATOM      7  C   UNL     1       0.328  -1.104  -0.199  1.00  0.00     0.105 C 
ATOM      8  C   UNL     1       0.878   0.298   0.089  1.00  0.00     0.023 C 
BRANCH   7   9
ATOM      9  C   UNL     1      -1.206  -1.160  -0.225  1.00  0.00    -0.036 A 
ATOM     10  C   UNL     1      -2.004  -0.008  -0.153  1.00  0.00     0.005 A 
ATOM     11  C   UNL     1      -1.865  -2.395  -0.351  1.00  0.00     0.005 A 
ATOM     12  C   UNL     1      -3.399  -0.090  -0.159  1.00  0.00     0.009 A 
ATOM     13  C   UNL     1      -3.264  -2.478  -0.341  1.00  0.00     0.009 A 
ATOM     14  C   UNL     1      -4.052  -1.325  -0.235  1.00  0.00    -0.018 A 
BRANCH  14  15
ATOM     15  C   UNL     1      -5.518  -1.387  -0.169  1.00  0.00    -0.018 A 
ATOM     16  C   UNL     1      -6.311  -0.713  -1.111  1.00  0.00     0.009 A 
ATOM     17  C   UNL     1      -6.162  -2.071   0.874  1.00  0.00     0.009 A 
ATOM     18  C   UNL     1      -7.704  -0.711  -1.008  1.00  0.00     0.001 A 
ATOM     19  C   UNL     1      -7.555  -2.068   0.980  1.00  0.00     0.001 A 
ATOM     20  C   UNL     1      -8.325  -1.385   0.041  1.00  0.00     0.000 A 
ENDBRANCH  14  15
ENDBRANCH   7   9
ENDBRANCH   4   7
ENDBRANCH   2   3
ENDBRANCH   1   2
BRANCH   1  21
ATOM     21  C   UNL     1       5.037  -1.814   1.633  1.00  0.00     0.118 C 
BRANCH  21  22
ATOM     22  N   UNL     1       5.989  -2.806   1.166  1.00  0.00    -0.352 N 
ATOM     23  C   UNL     1       7.319  -2.951   1.459  1.00  0.00     0.251 C 
ATOM     24  H   UNL     1       5.623  -3.475   0.544  1.00  0.00     0.163 HD
ATOM     25  O   UNL     1       7.986  -3.768   0.820  1.00  0.00    -0.269 OA
BRANCH  23  26
ATOM     26  C   UNL     1       7.975  -2.144   2.514  1.00  0.00     0.039 A 
ATOM     27  C   UNL     1       9.289  -1.714   2.299  1.00  0.00     0.014 A 
ATOM     28  C   UNL     1       7.349  -1.867   3.734  1.00  0.00     0.014 A 
ATOM     29  C   UNL     1       9.963  -0.994   3.288  1.00  0.00     0.010 A 
ATOM     30  C   UNL     1       7.998  -1.091   4.695  1.00  0.00     0.010 A 
ATOM     31  C   UNL     1       9.320  -0.669   4.493  1.00  0.00    -0.014 A 
BRANCH  31  32
ATOM     32  C   UNL     1      10.044   0.059   5.566  1.00  0.00     0.031 A 
ATOM     33  C   UNL     1      10.363  -0.632   6.864  1.00  0.00     0.074 A 
ATOM     34  C   UNL     1      10.395   1.347   5.389  1.00  0.00     0.049 A 
ATOM     35  N   UNL     1      10.966  -0.162   7.927  1.00  0.00    -0.248 NA
ATOM     36  C   UNL     1       9.922  -2.030   6.994  1.00  0.00     0.031 C 
ATOM     37  C   UNL     1      10.104   2.147   4.199  1.00  0.00     0.029 A 
ATOM     38  N   UNL     1      11.069   2.210   6.215  1.00  0.00    -0.354 N 
ATOM     39  C   UNL     1      10.963  -1.198   8.853  1.00  0.00     0.074 A 
ATOM     40  C   UNL     1      10.255  -2.304   8.247  1.00  0.00     0.031 C 
ATOM     41  C   UNL     1      10.614   3.379   4.364  1.00  0.00     0.029 A 
ATOM     42  C   UNL     1      11.249   3.460   5.677  1.00  0.00     0.049 A 
ATOM     43  H   UNL     1      11.394   1.956   7.110  1.00  0.00     0.167 HD
ATOM     44  C   UNL     1      11.518  -1.235  10.088  1.00  0.00     0.037 A 
ATOM     45  C   UNL     1      11.863   4.546   6.182  1.00  0.00     0.037 A 
ATOM     46  C   UNL     1      12.250  -0.148  10.683  1.00  0.00     0.049 A 
ATOM     47  C   UNL     1      12.512   4.468   7.535  1.00  0.00     0.074 A 
ATOM     48  C   UNL     1      12.882  -0.102  11.914  1.00  0.00     0.029 A 
ATOM     49  N   UNL     1      12.453   1.084  10.082  1.00  0.00    -0.354 N 
ATOM     50  N   UNL     1      12.544   3.465   8.378  1.00  0.00    -0.248 NA
ATOM     51  C   UNL     1      13.225   5.667   7.998  1.00  0.00     0.031 C 
ATOM     52  C   UNL     1      13.451   1.167  12.066  1.00  0.00     0.029 A 
ATOM     53  C   UNL     1      13.201   1.899  10.916  1.00  0.00     0.049 A 
ATOM     54  H   UNL     1      12.116   1.343   9.194  1.00  0.00     0.167 HD
ATOM     55  C   UNL     1      13.299   3.901   9.459  1.00  0.00     0.074 A 
ATOM     56  C   UNL     1      13.717   5.255   9.159  1.00  0.00     0.031 C 
ATOM     57  C   UNL     1      13.617   3.240  10.598  1.00  0.00     0.037 A 
BRANCH  44  58
ATOM     58  C   UNL     1      11.360  -2.505  10.871  1.00  0.00     0.057 A 
ATOM     59  C   UNL     1      12.055  -3.672  10.526  1.00  0.00     0.134 A 
ATOM     60  C   UNL     1      10.514  -2.562  11.985  1.00  0.00     0.134 A 
ATOM     61  F   UNL     1      12.869  -3.688   9.460  1.00  0.00    -0.206 F 
ATOM     62  C   UNL     1      11.891  -4.859  11.243  1.00  0.00     0.040 A 
ATOM     63  C   UNL     1      10.360  -3.735  12.725  1.00  0.00     0.040 A 
ATOM     64  F   UNL     1       9.823  -1.479  12.372  1.00  0.00    -0.206 F 
ATOM     65  C   UNL     1      11.044  -4.890  12.350  1.00  0.00     0.006 A 
ENDBRANCH  44  58
BRANCH  45  66
ATOM     66  C   UNL     1      11.929   5.793   5.381  1.00  0.00     0.057 A 
ATOM     67  C   UNL     1      13.123   6.198   4.775  1.00  0.00     0.134 A 
ATOM     68  C   UNL     1      10.802   6.602   5.197  1.00  0.00     0.134 A 
ATOM     69  F   UNL     1      14.239   5.470   4.931  1.00  0.00    -0.206 F 
ATOM     70  C   UNL     1      13.200   7.372   4.026  1.00  0.00     0.040 A 
ATOM     71  C   UNL     1      10.860   7.769   4.434  1.00  0.00     0.040 A 
ATOM     72  F   UNL     1       9.627   6.261   5.747  1.00  0.00    -0.206 F 
ATOM     73  C   UNL     1      12.063   8.159   3.850  1.00  0.00     0.006 A 
ENDBRANCH  45  66
BRANCH  57  74
ATOM     74  C   UNL     1      14.486   3.958  11.585  1.00  0.00     0.057 A 
ATOM     75  C   UNL     1      13.989   4.987  12.393  1.00  0.00     0.134 A 
ATOM     76  C   UNL     1      15.828   3.594  11.750  1.00  0.00     0.134 A 
ATOM     77  F   UNL     1      12.715   5.390  12.274  1.00  0.00    -0.206 F 
ATOM     78  C   UNL     1      14.803   5.645  13.317  1.00  0.00     0.040 A 
ATOM     79  C   UNL     1      16.646   4.230  12.684  1.00  0.00     0.040 A 
ATOM     80  F   UNL     1      16.363   2.611  11.010  1.00  0.00    -0.206 F 
ATOM     81  C   UNL     1      16.135   5.263  13.467  1.00  0.00     0.006 A 
ENDBRANCH  57  74
ENDBRANCH  31  32
ENDBRANCH  23  26
ENDBRANCH  21  22
ENDBRANCH   1  21
TORSDOF 12
