REMARK SMILES O=C(NCCCNC(=O)[C@@H]1CC2(CC[NH2+]CC2)C[NH+]1Cc1cccc2nonc12)c1ccc(-c2c3nc(c(-c4c(F)cccc4F)c4ccc([nH]4)c(-c4c(F)cccc4F)c4nc(c(-c5c(F)cccc5F)c5ccc2[nH]5)C=C4)C=C3)cc1
REMARK SMILES IDX 5 1 4 2 3 3 1 4 2 5 30 7 31 8 83 9 32 10 82 11 33 12 34 13
REMARK SMILES IDX 35 14 76 15 36 16 81 17 75 18 77 19 37 20 80 21 74 22 73 23
REMARK SMILES IDX 38 25 64 26 47 27 63 28 48 29 51 30 62 31 78 32 49 33 50 34
REMARK SMILES IDX 61 36 79 37 52 38 39 39 40 40 45 41 41 42 42 43 44 44 46 45
REMARK SMILES IDX 43 46 65 47 66 48 71 49 67 50 68 51 70 52 72 53 69 54 53 55
REMARK SMILES IDX 54 56 59 57 55 58 56 59 58 60 60 61 57 62 6 63 7 64 8 65
REMARK SMILES IDX 9 67 10 68 11 69 19 70 12 71 18 72 13 74 17 75 14 76 16 77
REMARK SMILES IDX 15 78 20 81 21 82 22 83 29 84 23 85 25 86 28 87 24 88 26 89
REMARK SMILES IDX 27 90
REMARK H PARENT 3 6 77 24 51 35 7 66 19 73 15 79 15 80
REMARK Flexibility Score: inf
ROOT
ATOM      1  C   UNL     1       5.670  -1.601   1.061  1.00  0.00     0.042 C 
ENDROOT
BRANCH   1   2
ATOM      2  C   UNL     1       4.873  -0.609   0.203  1.00  0.00     0.118 C 
BRANCH   2   3
ATOM      3  N   UNL     1       3.441  -0.742   0.392  1.00  0.00    -0.352 N 
ATOM      4  O   UNL     1       1.303  -0.192   0.737  1.00  0.00    -0.269 OA
ATOM      5  C   UNL     1       2.431   0.181   0.420  1.00  0.00     0.251 C 
ATOM      6  H   UNL     1       3.139  -1.669   0.525  1.00  0.00     0.163 HD
BRANCH   5   7
ATOM      7  C   UNL     1       2.640   1.609   0.086  1.00  0.00     0.039 A 
ATOM      8  C   UNL     1       1.890   2.547   0.806  1.00  0.00     0.014 A 
ATOM      9  C   UNL     1       3.428   2.033  -0.990  1.00  0.00     0.014 A 
ATOM     10  C   UNL     1       1.954   3.900   0.478  1.00  0.00     0.010 A 
ATOM     11  C   UNL     1       3.501   3.394  -1.311  1.00  0.00     0.010 A 
ATOM     12  C   UNL     1       2.769   4.335  -0.575  1.00  0.00    -0.014 A 
BRANCH  12  13
ATOM     13  C   UNL     1       2.847   5.789  -0.815  1.00  0.00     0.031 A 
ATOM     14  C   UNL     1       4.219   6.367  -0.945  1.00  0.00     0.074 A 
ATOM     15  C   UNL     1       1.841   6.445  -1.430  1.00  0.00     0.049 A 
ATOM     16  N   UNL     1       4.914   6.327  -2.045  1.00  0.00    -0.248 NA
ATOM     17  C   UNL     1       4.977   6.833   0.216  1.00  0.00     0.031 C 
ATOM     18  C   UNL     1       1.057   5.868  -2.529  1.00  0.00     0.029 A 
ATOM     19  N   UNL     1       1.494   7.777  -1.422  1.00  0.00    -0.354 N 
ATOM     20  C   UNL     1       6.205   6.712  -1.729  1.00  0.00     0.074 A 
ATOM     21  C   UNL     1       6.194   7.025  -0.317  1.00  0.00     0.031 C 
ATOM     22  C   UNL     1       0.459   6.872  -3.201  1.00  0.00     0.029 A 
ATOM     23  C   UNL     1       0.683   8.132  -2.496  1.00  0.00     0.049 A 
ATOM     24  H   UNL     1       1.789   8.411  -0.730  1.00  0.00     0.167 HD
ATOM     25  C   UNL     1       7.213   6.750  -2.639  1.00  0.00     0.037 A 
ATOM     26  C   UNL     1       0.671   9.360  -3.083  1.00  0.00     0.037 A 
ATOM     27  C   UNL     1       6.855   6.417  -3.985  1.00  0.00     0.049 A 
ATOM     28  C   UNL     1       1.976   9.336  -3.835  1.00  0.00     0.074 A 
ATOM     29  C   UNL     1       6.835   5.293  -4.781  1.00  0.00     0.029 A 
ATOM     30  N   UNL     1       6.334   7.414  -4.776  1.00  0.00    -0.354 N 
ATOM     31  N   UNL     1       2.189   8.762  -4.990  1.00  0.00    -0.248 NA
ATOM     32  C   UNL     1       3.190   9.674  -3.090  1.00  0.00     0.031 C 
ATOM     33  C   UNL     1       5.886   5.575  -5.813  1.00  0.00     0.029 A 
ATOM     34  C   UNL     1       5.353   6.833  -5.537  1.00  0.00     0.049 A 
ATOM     35  H   UNL     1       6.612   8.359  -4.793  1.00  0.00     0.167 HD
ATOM     36  C   UNL     1       3.544   8.421  -4.988  1.00  0.00     0.074 A 
ATOM     37  C   UNL     1       4.110   9.054  -3.815  1.00  0.00     0.031 C 
ATOM     38  C   UNL     1       4.093   7.483  -5.813  1.00  0.00     0.037 A 
BRANCH  25  39
ATOM     39  C   UNL     1       8.585   7.223  -2.373  1.00  0.00     0.057 A 
ATOM     40  C   UNL     1       9.582   6.376  -1.890  1.00  0.00     0.134 A 
ATOM     41  C   UNL     1       8.968   8.481  -2.857  1.00  0.00     0.134 A 
ATOM     42  F   UNL     1       9.276   5.154  -1.431  1.00  0.00    -0.206 F 
ATOM     43  C   UNL     1      10.927   6.754  -1.929  1.00  0.00     0.040 A 
ATOM     44  C   UNL     1      10.305   8.867  -2.909  1.00  0.00     0.040 A 
ATOM     45  F   UNL     1       8.044   9.326  -3.345  1.00  0.00    -0.206 F 
ATOM     46  C   UNL     1      11.291   7.994  -2.457  1.00  0.00     0.006 A 
ENDBRANCH  25  39
BRANCH  26  47
ATOM     47  C   UNL     1       0.213  10.482  -2.206  1.00  0.00     0.057 A 
ATOM     48  C   UNL     1       0.907  11.663  -1.921  1.00  0.00     0.134 A 
ATOM     49  C   UNL     1      -1.052  10.361  -1.593  1.00  0.00     0.134 A 
ATOM     50  F   UNL     1       2.055  11.968  -2.539  1.00  0.00    -0.206 F 
ATOM     51  C   UNL     1       0.448  12.591  -0.977  1.00  0.00     0.040 A 
ATOM     52  C   UNL     1      -1.536  11.291  -0.668  1.00  0.00     0.040 A 
ATOM     53  F   UNL     1      -1.851   9.322  -1.886  1.00  0.00    -0.206 F 
ATOM     54  C   UNL     1      -0.769  12.398  -0.333  1.00  0.00     0.006 A 
ENDBRANCH  26  47
BRANCH  38  55
ATOM     55  C   UNL     1       3.200   6.939  -6.872  1.00  0.00     0.057 A 
ATOM     56  C   UNL     1       2.707   5.628  -6.819  1.00  0.00     0.134 A 
ATOM     57  C   UNL     1       2.869   7.710  -7.990  1.00  0.00     0.134 A 
ATOM     58  F   UNL     1       2.966   4.836  -5.766  1.00  0.00    -0.206 F 
ATOM     59  C   UNL     1       1.958   5.087  -7.864  1.00  0.00     0.040 A 
ATOM     60  C   UNL     1       2.099   7.187  -9.030  1.00  0.00     0.040 A 
ATOM     61  F   UNL     1       3.317   8.970  -8.106  1.00  0.00    -0.206 F 
ATOM     62  C   UNL     1       1.653   5.867  -8.975  1.00  0.00     0.006 A 
ENDBRANCH  38  55
ENDBRANCH  12  13
ENDBRANCH   5   7
ENDBRANCH   2   3
ENDBRANCH   1   2
BRANCH   1  63
ATOM     63  C   UNL     1       5.446  -3.091   0.769  1.00  0.00     0.118 C 
BRANCH  63  64
ATOM     64  N   UNL     1       5.955  -3.518  -0.521  1.00  0.00    -0.351 N 
ATOM     65  C   UNL     1       6.144  -4.787  -1.006  1.00  0.00     0.278 C 
ATOM     66  H   UNL     1       6.201  -2.791  -1.138  1.00  0.00     0.163 HD
ATOM     67  O   UNL     1       6.536  -4.891  -2.171  1.00  0.00    -0.268 OA
BRANCH  65  68
ATOM     68  C   UNL     1       5.861  -6.010  -0.106  1.00  0.00     0.275 C 
ATOM     69  C   UNL     1       6.860  -7.164  -0.387  1.00  0.00     0.089 C 
ATOM     70  N   UNL     1       4.569  -6.636  -0.368  1.00  0.00    -0.320 N 
ATOM     71  C   UNL     1       6.040  -8.309  -1.034  1.00  0.00     0.036 C 
ATOM     72  C   UNL     1       4.651  -8.073  -0.426  1.00  0.00     0.270 C 
ATOM     73  H   UNL     1       3.958  -5.861  -0.627  1.00  0.00     0.349 HD
ATOM     74  C   UNL     1       6.557  -9.714  -0.671  1.00  0.00     0.074 C 
ATOM     75  C   UNL     1       6.001  -8.189  -2.580  1.00  0.00     0.074 C 
ATOM     76  C   UNL     1       7.841 -10.082  -1.413  1.00  0.00     0.261 C 
ATOM     77  C   UNL     1       7.302  -8.627  -3.252  1.00  0.00     0.261 C 
ATOM     78  N   UNL     1       7.676  -9.987  -2.863  1.00  0.00    -0.346 N 
ATOM     79  H   UNL     1       6.945 -10.634  -3.159  1.00  0.00     0.346 HD
ATOM     80  H   UNL     1       8.562 -10.225  -3.310  1.00  0.00     0.346 HD
BRANCH  70  81
ATOM     81  C   UNL     1       3.313  -5.946  -0.524  1.00  0.00     0.302 C 
BRANCH  81  82
ATOM     82  C   UNL     1       3.121  -5.448  -1.931  1.00  0.00     0.038 A 
ATOM     83  C   UNL     1       3.091  -6.328  -3.044  1.00  0.00     0.012 A 
ATOM     84  C   UNL     1       3.042  -4.090  -2.310  1.00  0.00     0.144 A 
ATOM     85  C   UNL     1       3.107  -5.907  -4.399  1.00  0.00     0.003 A 
ATOM     86  C   UNL     1       3.055  -3.656  -3.702  1.00  0.00     0.135 A 
ATOM     87  N   UNL     1       2.960  -2.997  -1.541  1.00  0.00    -0.049 NA
ATOM     88  C   UNL     1       3.116  -4.557  -4.777  1.00  0.00     0.034 A 
ATOM     89  N   UNL     1       3.013  -2.319  -3.728  1.00  0.00    -0.050 NA
ATOM     90  O   UNL     1       2.924  -1.921  -2.409  1.00  0.00    -0.243 OA
ENDBRANCH  81  82
ENDBRANCH  70  81
ENDBRANCH  65  68
ENDBRANCH  63  64
ENDBRANCH   1  63
TORSDOF 12
