REMARK SMILES Cc1ccc2c(c1)C=C(C(=O)NCCCNC(=O)c1ccc(-c3c4nc(c(-c5c(F)cccc5F)c5ccc([nH]5)c(-c5c(F)cccc5F)c5nc(c(-c6c(F)cccc6F)c6ccc3[nH]6)C=C5)C=C4)cc1)[C@@H](C(F)(F)F)O2
REMARK SMILES IDX 14 1 13 2 12 3 10 4 11 5 9 7 1 8 2 9 3 10 7 11 4 12 6 13
REMARK SMILES IDX 5 14 8 15 78 16 73 17 74 18 75 19 76 20 77 21 15 22 16 23
REMARK SMILES IDX 17 24 18 26 19 27 20 28 72 29 21 30 71 31 22 32 23 33 24 34
REMARK SMILES IDX 65 35 25 36 70 37 64 38 66 39 26 40 69 41 63 42 62 43 27 45
REMARK SMILES IDX 53 46 36 47 52 48 37 49 40 50 51 51 67 52 38 53 39 54 50 56
REMARK SMILES IDX 68 57 41 58 28 59 29 60 34 61 30 62 31 63 33 64 35 65 32 66
REMARK SMILES IDX 54 67 55 68 60 69 56 70 57 71 59 72 61 73 58 74 42 75 43 76
REMARK SMILES IDX 48 77 44 78 45 79 47 80 49 81 46 82
REMARK H PARENT 12 6 16 25 66 44 40 55
REMARK Flexibility Score: inf
ROOT
ATOM      1  C   UNL     1      -0.226   9.983   0.270  1.00  0.00     0.042 C 
ENDROOT
BRANCH   1   2
ATOM      2  C   UNL     1       0.696   9.255  -0.695  1.00  0.00     0.118 C 
BRANCH   2   3
ATOM      3  N   UNL     1       1.735   8.515   0.004  1.00  0.00    -0.352 N 
ATOM      4  C   UNL     1       2.020   7.220   0.275  1.00  0.00     0.251 C 
ATOM      5  O   UNL     1       3.050   7.041   0.932  1.00  0.00    -0.270 OA
ATOM      6  H   UNL     1       2.414   9.119   0.382  1.00  0.00     0.163 HD
BRANCH   4   7
ATOM      7  C   UNL     1       1.200   6.051  -0.153  1.00  0.00     0.067 C 
ATOM      8  C   UNL     1       1.164  -0.134   0.002  1.00  0.00     0.044 C 
ATOM      9  C   UNL     1       0.640   1.245  -0.267  1.00  0.00    -0.050 A 
ATOM     10  C   UNL     1      -0.631   1.416  -0.831  1.00  0.00     0.007 A 
ATOM     11  C   UNL     1       1.385   2.375   0.102  1.00  0.00     0.015 A 
ATOM     12  C   UNL     1      -1.139   2.696  -1.047  1.00  0.00     0.047 A 
ATOM     13  C   UNL     1       0.882   3.660  -0.122  1.00  0.00     0.017 A 
ATOM     14  C   UNL     1      -0.378   3.808  -0.704  1.00  0.00     0.128 A 
ATOM     15  C   UNL     1       1.627   4.848   0.275  1.00  0.00     0.025 C 
ATOM     16  O   UNL     1      -0.945   5.031  -0.922  1.00  0.00    -0.475 OA
ATOM     17  C   UNL     1      -0.018   6.146  -1.029  1.00  0.00     0.314 C 
BRANCH  17  18
ATOM     18  C   UNL     1       0.332   6.377  -2.512  1.00  0.00     0.429 C 
ATOM     19  F   UNL     1      -0.746   6.862  -3.179  1.00  0.00    -0.167 F 
ATOM     20  F   UNL     1       1.323   7.287  -2.678  1.00  0.00    -0.167 F 
ATOM     21  F   UNL     1       0.728   5.251  -3.144  1.00  0.00    -0.167 F 
ENDBRANCH  17  18
ENDBRANCH   4   7
ENDBRANCH   2   3
ENDBRANCH   1   2
BRANCH   1  22
ATOM     22  C   UNL     1       0.399  11.261   0.812  1.00  0.00     0.118 C 
BRANCH  22  23
ATOM     23  N   UNL     1       0.599  12.265  -0.232  1.00  0.00    -0.352 N 
ATOM     24  C   UNL     1      -0.024  13.469  -0.450  1.00  0.00     0.251 C 
ATOM     25  H   UNL     1       1.298  12.040  -0.888  1.00  0.00     0.163 HD
ATOM     26  O   UNL     1       0.130  14.051  -1.520  1.00  0.00    -0.269 OA
BRANCH  24  27
ATOM     27  C   UNL     1      -0.892  14.056   0.590  1.00  0.00     0.039 A 
ATOM     28  C   UNL     1      -0.541  13.957   1.935  1.00  0.00     0.014 A 
ATOM     29  C   UNL     1      -2.067  14.718   0.222  1.00  0.00     0.014 A 
ATOM     30  C   UNL     1      -1.455  14.317   2.912  1.00  0.00     0.010 A 
ATOM     31  C   UNL     1      -2.931  15.198   1.211  1.00  0.00     0.010 A 
ATOM     32  C   UNL     1      -2.658  14.952   2.565  1.00  0.00    -0.014 A 
BRANCH  32  33
ATOM     33  C   UNL     1      -3.595  15.347   3.649  1.00  0.00     0.031 A 
ATOM     34  C   UNL     1      -4.981  14.765   3.724  1.00  0.00     0.074 A 
ATOM     35  C   UNL     1      -3.157  16.180   4.614  1.00  0.00     0.049 A 
ATOM     36  N   UNL     1      -5.913  14.971   4.620  1.00  0.00    -0.248 NA
ATOM     37  C   UNL     1      -5.378  13.839   2.652  1.00  0.00     0.031 C 
ATOM     38  C   UNL     1      -1.831  16.806   4.651  1.00  0.00     0.029 A 
ATOM     39  N   UNL     1      -3.760  16.617   5.764  1.00  0.00    -0.354 N 
ATOM     40  C   UNL     1      -7.010  14.224   4.209  1.00  0.00     0.074 A 
ATOM     41  C   UNL     1      -6.640  13.582   2.967  1.00  0.00     0.031 C 
ATOM     42  C   UNL     1      -1.698  17.489   5.796  1.00  0.00     0.029 A 
ATOM     43  C   UNL     1      -2.952  17.417   6.535  1.00  0.00     0.049 A 
ATOM     44  H   UNL     1      -4.682  16.381   6.013  1.00  0.00     0.167 HD
ATOM     45  C   UNL     1      -8.213  14.079   4.817  1.00  0.00     0.037 A 
ATOM     46  C   UNL     1      -3.199  18.043   7.700  1.00  0.00     0.037 A 
ATOM     47  C   UNL     1      -8.568  14.703   6.066  1.00  0.00     0.049 A 
ATOM     48  C   UNL     1      -4.552  17.892   8.330  1.00  0.00     0.074 A 
ATOM     49  C   UNL     1      -9.750  14.598   6.779  1.00  0.00     0.029 A 
ATOM     50  N   UNL     1      -7.741  15.550   6.789  1.00  0.00    -0.354 N 
ATOM     51  N   UNL     1      -5.572  17.170   7.935  1.00  0.00    -0.248 NA
ATOM     52  C   UNL     1      -4.790  18.652   9.563  1.00  0.00     0.031 C 
ATOM     53  C   UNL     1      -9.656  15.418   7.909  1.00  0.00     0.029 A 
ATOM     54  C   UNL     1      -8.396  15.995   7.927  1.00  0.00     0.049 A 
ATOM     55  H   UNL     1      -6.824  15.799   6.532  1.00  0.00     0.167 HD
ATOM     56  C   UNL     1      -6.570  17.379   8.876  1.00  0.00     0.074 A 
ATOM     57  C   UNL     1      -6.019  18.270   9.877  1.00  0.00     0.031 C 
ATOM     58  C   UNL     1      -7.832  16.887   8.907  1.00  0.00     0.037 A 
BRANCH  45  59
ATOM     59  C   UNL     1      -9.242  13.230   4.126  1.00  0.00     0.057 A 
ATOM     60  C   UNL     1     -10.380  13.815   3.556  1.00  0.00     0.134 A 
ATOM     61  C   UNL     1      -9.127  11.836   4.048  1.00  0.00     0.134 A 
ATOM     62  F   UNL     1     -10.558  15.144   3.601  1.00  0.00    -0.206 F 
ATOM     63  C   UNL     1     -11.366  13.045   2.935  1.00  0.00     0.040 A 
ATOM     64  C   UNL     1     -10.093  11.057   3.406  1.00  0.00     0.040 A 
ATOM     65  F   UNL     1      -8.055  11.212   4.560  1.00  0.00    -0.206 F 
ATOM     66  C   UNL     1     -11.220  11.662   2.853  1.00  0.00     0.006 A 
ENDBRANCH  45  59
BRANCH  46  67
ATOM     67  C   UNL     1      -2.156  18.892   8.328  1.00  0.00     0.057 A 
ATOM     68  C   UNL     1      -1.736  20.088   7.731  1.00  0.00     0.134 A 
ATOM     69  C   UNL     1      -1.570  18.540   9.548  1.00  0.00     0.134 A 
ATOM     70  F   UNL     1      -2.253  20.478   6.557  1.00  0.00    -0.206 F 
ATOM     71  C   UNL     1      -0.767  20.899   8.322  1.00  0.00     0.040 A 
ATOM     72  C   UNL     1      -0.622  19.358  10.166  1.00  0.00     0.040 A 
ATOM     73  F   UNL     1      -1.943  17.416  10.177  1.00  0.00    -0.206 F 
ATOM     74  C   UNL     1      -0.215  20.539   9.549  1.00  0.00     0.006 A 
ENDBRANCH  46  67
BRANCH  58  75
ATOM     75  C   UNL     1      -8.682  17.290  10.076  1.00  0.00     0.057 A 
ATOM     76  C   UNL     1      -9.003  16.365  11.077  1.00  0.00     0.134 A 
ATOM     77  C   UNL     1      -9.175  18.594  10.215  1.00  0.00     0.134 A 
ATOM     78  F   UNL     1      -8.567  15.098  11.001  1.00  0.00    -0.206 F 
ATOM     79  C   UNL     1      -9.779  16.725  12.180  1.00  0.00     0.040 A 
ATOM     80  C   UNL     1      -9.928  18.973  11.328  1.00  0.00     0.040 A 
ATOM     81  F   UNL     1      -8.888  19.531   9.299  1.00  0.00    -0.206 F 
ATOM     82  C   UNL     1     -10.235  18.035  12.312  1.00  0.00     0.006 A 
ENDBRANCH  58  75
ENDBRANCH  32  33
ENDBRANCH  24  27
ENDBRANCH  22  23
ENDBRANCH   1  22
TORSDOF 11
