REMARK SMILES O=C(Cn1nc(C(=O)NCCCNC(=O)c2ccc(-c3c4nc(c(-c5c(F)cccc5F)c5ccc([nH]5)c(-c5c(F)cccc5F)c5nc(c(-c6c(F)cccc6F)c6ccc3[nH]6)C=C5)C=C4)cc2)c2ccccc2c1=O)NCc1ccc(F)cc1
REMARK SMILES IDX 10 1 9 2 7 3 8 4 6 6 4 7 5 8 76 9 75 10 77 11 70 12 74 13
REMARK SMILES IDX 71 14 73 15 72 16 3 17 2 18 1 19 78 20 79 22 80 23 81 24
REMARK SMILES IDX 86 25 82 26 85 27 83 28 84 29 11 30 12 31 13 32 14 33 15 35
REMARK SMILES IDX 16 36 17 37 69 38 18 39 68 40 19 41 20 42 21 43 62 44 22 45
REMARK SMILES IDX 67 46 61 47 63 48 23 49 66 50 60 51 59 52 24 54 50 55 33 56
REMARK SMILES IDX 49 57 34 58 37 59 48 60 64 61 35 62 36 63 47 65 65 66 38 67
REMARK SMILES IDX 25 68 26 69 31 70 27 71 28 72 30 73 32 74 29 75 51 76 52 77
REMARK SMILES IDX 57 78 53 79 54 80 56 81 58 82 55 83 39 84 40 85 45 86 41 87
REMARK SMILES IDX 42 88 44 89 46 90 43 91
REMARK H PARENT 9 5 78 21 13 34 63 53 37 64
REMARK Flexibility Score: inf
ROOT
ATOM      1  C   UNL     1       2.163  -3.369   2.074  1.00  0.00     0.118 C 
ENDROOT
BRANCH   1   2
ATOM      2  N   UNL     1       3.318  -3.659   2.904  1.00  0.00    -0.351 N 
ATOM      3  C   UNL     1       4.465  -2.938   3.143  1.00  0.00     0.272 C 
ATOM      4  O   UNL     1       5.448  -3.563   3.526  1.00  0.00    -0.267 OA
ATOM      5  H   UNL     1       3.273  -4.521   3.377  1.00  0.00     0.163 HD
BRANCH   3   6
ATOM      6  C   UNL     1       4.556  -1.407   2.963  1.00  0.00     0.156 A 
ATOM      7  N   UNL     1       3.927   0.524   1.833  1.00  0.00    -0.219 N 
ATOM      8  N   UNL     1       3.841  -0.843   2.029  1.00  0.00    -0.163 NA
ATOM      9  C   UNL     1       4.770   1.361   2.552  1.00  0.00     0.275 A 
ATOM     10  C   UNL     1       5.599   0.738   3.587  1.00  0.00     0.051 A 
ATOM     11  O   UNL     1       4.834   2.580   2.374  1.00  0.00    -0.267 OA
ATOM     12  C   UNL     1       5.487  -0.628   3.834  1.00  0.00     0.020 A 
ATOM     13  C   UNL     1       6.476   1.542   4.335  1.00  0.00     0.014 A 
ATOM     14  C   UNL     1       6.259  -1.177   4.868  1.00  0.00     0.011 A 
ATOM     15  C   UNL     1       7.256   0.978   5.338  1.00  0.00     0.001 A 
ATOM     16  C   UNL     1       7.145  -0.381   5.605  1.00  0.00     0.001 A 
BRANCH   7  17
ATOM     17  C   UNL     1       2.987   1.183   0.927  1.00  0.00     0.248 C 
BRANCH  17  18
ATOM     18  C   UNL     1       2.211   0.281  -0.015  1.00  0.00     0.242 C 
ATOM     19  O   UNL     1       0.988   0.336  -0.118  1.00  0.00    -0.273 OA
ATOM     20  N   UNL     1       3.001  -0.493  -0.833  1.00  0.00    -0.350 N 
ATOM     21  H   UNL     1       3.978  -0.377  -0.808  1.00  0.00     0.163 HD
BRANCH  20  22
ATOM     22  C   UNL     1       2.434  -1.465  -1.720  1.00  0.00     0.151 C 
BRANCH  22  23
ATOM     23  C   UNL     1       2.782  -1.246  -3.155  1.00  0.00    -0.029 A 
ATOM     24  C   UNL     1       2.468  -0.040  -3.795  1.00  0.00     0.008 A 
ATOM     25  C   UNL     1       3.341  -2.304  -3.886  1.00  0.00     0.008 A 
ATOM     26  C   UNL     1       2.658   0.084  -5.165  1.00  0.00     0.039 A 
ATOM     27  C   UNL     1       3.565  -2.161  -5.244  1.00  0.00     0.039 A 
ATOM     28  C   UNL     1       3.172  -0.990  -5.876  1.00  0.00     0.123 A 
ATOM     29  F   UNL     1       3.233  -0.904  -7.206  1.00  0.00    -0.207 F 
ENDBRANCH  22  23
ENDBRANCH  20  22
ENDBRANCH  17  18
ENDBRANCH   7  17
ENDBRANCH   3   6
ENDBRANCH   1   2
BRANCH   1  30
ATOM     30  C   UNL     1       2.416  -3.812   0.635  1.00  0.00     0.042 C 
BRANCH  30  31
ATOM     31  C   UNL     1       2.481  -5.320   0.389  1.00  0.00     0.118 C 
BRANCH  31  32
ATOM     32  N   UNL     1       1.168  -5.890   0.120  1.00  0.00    -0.352 N 
ATOM     33  C   UNL     1       0.557  -6.302  -1.042  1.00  0.00     0.251 C 
ATOM     34  H   UNL     1       0.611  -6.002   0.924  1.00  0.00     0.163 HD
ATOM     35  O   UNL     1      -0.654  -6.524  -1.005  1.00  0.00    -0.269 OA
BRANCH  33  36
ATOM     36  C   UNL     1       1.278  -6.484  -2.333  1.00  0.00     0.039 A 
ATOM     37  C   UNL     1       2.591  -6.941  -2.417  1.00  0.00     0.014 A 
ATOM     38  C   UNL     1       0.562  -6.304  -3.527  1.00  0.00     0.014 A 
ATOM     39  C   UNL     1       3.219  -7.076  -3.664  1.00  0.00     0.010 A 
ATOM     40  C   UNL     1       1.164  -6.537  -4.776  1.00  0.00     0.010 A 
ATOM     41  C   UNL     1       2.518  -6.880  -4.869  1.00  0.00    -0.014 A 
BRANCH  41  42
ATOM     42  C   UNL     1       3.219  -7.089  -6.175  1.00  0.00     0.031 A 
ATOM     43  C   UNL     1       3.395  -5.976  -7.181  1.00  0.00     0.074 A 
ATOM     44  C   UNL     1       3.782  -8.282  -6.460  1.00  0.00     0.049 A 
ATOM     45  N   UNL     1       4.296  -5.873  -8.131  1.00  0.00    -0.248 NA
ATOM     46  C   UNL     1       2.478  -4.832  -7.114  1.00  0.00     0.031 C 
ATOM     47  C   UNL     1       3.660  -9.498  -5.654  1.00  0.00     0.029 A 
ATOM     48  N   UNL     1       4.580  -8.662  -7.513  1.00  0.00    -0.354 N 
ATOM     49  C   UNL     1       4.141  -4.600  -8.665  1.00  0.00     0.074 A 
ATOM     50  C   UNL     1       2.975  -4.024  -8.042  1.00  0.00     0.031 C 
ATOM     51  C   UNL     1       4.367 -10.482  -6.234  1.00  0.00     0.029 A 
ATOM     52  C   UNL     1       4.975  -9.976  -7.462  1.00  0.00     0.049 A 
ATOM     53  H   UNL     1       4.843  -8.049  -8.237  1.00  0.00     0.167 HD
ATOM     54  C   UNL     1       4.927  -3.949  -9.554  1.00  0.00     0.037 A 
ATOM     55  C   UNL     1       5.733 -10.697  -8.310  1.00  0.00     0.037 A 
ATOM     56  C   UNL     1       5.926  -4.579 -10.367  1.00  0.00     0.049 A 
ATOM     57  C   UNL     1       6.351 -10.034  -9.511  1.00  0.00     0.074 A 
ATOM     58  C   UNL     1       6.719  -4.016 -11.351  1.00  0.00     0.029 A 
ATOM     59  N   UNL     1       6.184  -5.937 -10.366  1.00  0.00    -0.354 N 
ATOM     60  N   UNL     1       6.382  -8.764  -9.833  1.00  0.00    -0.248 NA
ATOM     61  C   UNL     1       7.044 -10.910 -10.468  1.00  0.00     0.031 C 
ATOM     62  C   UNL     1       7.374  -5.055 -12.022  1.00  0.00     0.029 A 
ATOM     63  C   UNL     1       7.042  -6.250 -11.405  1.00  0.00     0.049 A 
ATOM     64  H   UNL     1       5.813  -6.583  -9.723  1.00  0.00     0.167 HD
ATOM     65  C   UNL     1       7.122  -8.686 -11.008  1.00  0.00     0.074 A 
ATOM     66  C   UNL     1       7.530 -10.035 -11.336  1.00  0.00     0.031 C 
ATOM     67  C   UNL     1       7.440  -7.591 -11.742  1.00  0.00     0.037 A 
BRANCH  54  68
ATOM     68  C   UNL     1       4.740  -2.472  -9.702  1.00  0.00     0.057 A 
ATOM     69  C   UNL     1       3.971  -1.922 -10.730  1.00  0.00     0.134 A 
ATOM     70  C   UNL     1       5.405  -1.589  -8.840  1.00  0.00     0.134 A 
ATOM     71  F   UNL     1       3.334  -2.718 -11.601  1.00  0.00    -0.206 F 
ATOM     72  C   UNL     1       3.848  -0.539 -10.883  1.00  0.00     0.040 A 
ATOM     73  C   UNL     1       5.290  -0.204  -8.983  1.00  0.00     0.040 A 
ATOM     74  F   UNL     1       6.148  -2.059  -7.825  1.00  0.00    -0.206 F 
ATOM     75  C   UNL     1       4.503   0.324 -10.004  1.00  0.00     0.006 A 
ENDBRANCH  54  68
BRANCH  55  76
ATOM     76  C   UNL     1       5.928 -12.152  -8.081  1.00  0.00     0.057 A 
ATOM     77  C   UNL     1       4.860 -13.049  -8.209  1.00  0.00     0.134 A 
ATOM     78  C   UNL     1       7.187 -12.686  -7.787  1.00  0.00     0.134 A 
ATOM     79  F   UNL     1       3.629 -12.600  -8.497  1.00  0.00    -0.206 F 
ATOM     80  C   UNL     1       5.034 -14.423  -8.047  1.00  0.00     0.040 A 
ATOM     81  C   UNL     1       7.381 -14.062  -7.648  1.00  0.00     0.040 A 
ATOM     82  F   UNL     1       8.254 -11.881  -7.679  1.00  0.00    -0.206 F 
ATOM     83  C   UNL     1       6.301 -14.934  -7.775  1.00  0.00     0.006 A 
ENDBRANCH  55  76
BRANCH  67  84
ATOM     84  C   UNL     1       8.277  -7.793 -12.970  1.00  0.00     0.057 A 
ATOM     85  C   UNL     1       9.591  -7.311 -13.027  1.00  0.00     0.134 A 
ATOM     86  C   UNL     1       7.772  -8.427 -14.113  1.00  0.00     0.134 A 
ATOM     87  F   UNL     1      10.133  -6.682 -11.972  1.00  0.00    -0.206 F 
ATOM     88  C   UNL     1      10.371  -7.448 -14.175  1.00  0.00     0.040 A 
ATOM     89  C   UNL     1       8.553  -8.598 -15.257  1.00  0.00     0.040 A 
ATOM     90  F   UNL     1       6.524  -8.919 -14.122  1.00  0.00    -0.206 F 
ATOM     91  C   UNL     1       9.854  -8.101 -15.292  1.00  0.00     0.006 A 
ENDBRANCH  67  84
ENDBRANCH  41  42
ENDBRANCH  33  36
ENDBRANCH  31  32
ENDBRANCH  30  31
ENDBRANCH   1  30
TORSDOF 14
