REMARK SMILES COC(=O)[C@H]1CC[C@]2(C)[C@H](CC[C@]3(C)[C@H]2CC=C2[C@H]4CC(C)(C)CC[C@]4(C(=O)NCCCNC(=O)c4ccc(-c5c6nc(c(-c7c(F)cccc7F)c7ccc([nH]7)c(-c7c(F)cccc7F)c7nc(c(-c8c(F)cccc8F)c8ccc5[nH]8)C=C7)C=C6)cc4)CC[C@@]23C)C1(C)C
REMARK SMILES IDX 31 1 30 2 29 3 27 4 28 5 26 7 5 8 6 9 94 10 7 11 10 12 95 13
REMARK SMILES IDX 96 14 8 15 11 16 15 17 9 18 12 19 16 20 13 21 17 22 92 23
REMARK SMILES IDX 14 24 18 25 91 26 93 27 19 28 90 29 20 30 21 31 25 32 24 33
REMARK SMILES IDX 22 34 23 35 3 36 4 37 2 38 1 39 32 40 33 41 34 42 35 44
REMARK SMILES IDX 36 45 37 46 89 47 38 48 88 49 39 50 40 51 41 52 82 53 42 54
REMARK SMILES IDX 87 55 81 56 83 57 43 58 86 59 80 60 79 61 44 63 70 64 53 65
REMARK SMILES IDX 69 66 54 67 57 68 68 69 84 70 55 71 56 72 67 74 85 75 58 76
REMARK SMILES IDX 45 77 46 78 51 79 47 80 48 81 50 82 52 83 49 84 71 85 72 86
REMARK SMILES IDX 77 87 73 88 74 89 76 90 78 91 75 92 59 93 60 94 65 95 61 96
REMARK SMILES IDX 62 97 64 98 66 99 63 100
REMARK H PARENT 29 6 33 43 83 62 57 73
REMARK Flexibility Score: inf
ROOT
ATOM      1  C   UNL     1      -7.185  -1.521  -3.194  1.00  0.00     0.042 C 
ENDROOT
BRANCH   1   2
ATOM      2  C   UNL     1      -7.794  -1.130  -4.556  1.00  0.00     0.117 C 
BRANCH   2   3
ATOM      3  N   UNL     1      -6.989  -0.215  -5.364  1.00  0.00    -0.356 N 
ATOM      4  C   UNL     1      -6.783  -0.397  -6.719  1.00  0.00     0.226 C 
ATOM      5  O   UNL     1      -7.710  -0.196  -7.502  1.00  0.00    -0.274 OA
ATOM      6  H   UNL     1      -6.575   0.563  -4.924  1.00  0.00     0.163 HD
BRANCH   4   7
ATOM      7  C   UNL     1      -5.374  -0.871  -7.178  1.00  0.00     0.056 C 
ATOM      8  C   UNL     1       1.682   1.193  -3.485  1.00  0.00     0.105 C 
ATOM      9  C   UNL     1       1.433   2.737  -3.611  1.00  0.00     0.016 C 
ATOM     10  C   UNL     1       0.574   0.211  -4.041  1.00  0.00    -0.019 C 
ATOM     11  C   UNL     1       0.395   3.259  -4.646  1.00  0.00     0.008 C 
ATOM     12  C   UNL     1      -0.159   0.985  -5.194  1.00  0.00     0.002 C 
ATOM     13  C   UNL     1      -0.339  -0.320  -2.895  1.00  0.00     0.012 C 
ATOM     14  C   UNL     1       1.187  -1.115  -4.596  1.00  0.00     0.012 C 
ATOM     15  C   UNL     1      -0.849   2.327  -4.767  1.00  0.00    -0.026 C 
ATOM     16  C   UNL     1      -1.009   0.146  -6.108  1.00  0.00     0.005 C 
ATOM     17  C   UNL     1      -1.963   2.921  -5.822  1.00  0.00     0.006 C 
ATOM     18  C   UNL     1      -1.457   2.347  -3.335  1.00  0.00     0.012 C 
ATOM     19  C   UNL     1      -1.311   0.878  -7.401  1.00  0.00     0.008 C 
ATOM     20  C   UNL     1      -3.380   3.166  -5.138  1.00  0.00     0.032 C 
ATOM     21  C   UNL     1      -2.168   2.166  -7.280  1.00  0.00    -0.020 C 
ATOM     22  C   UNL     1      -4.172   1.893  -5.127  1.00  0.00    -0.027 C 
ATOM     23  C   UNL     1      -3.758   1.845  -7.560  1.00  0.00    -0.006 C 
ATOM     24  C   UNL     1      -1.619   3.111  -8.386  1.00  0.00     0.012 C 
ATOM     25  C   UNL     1      -4.197   1.167  -6.256  1.00  0.00    -0.064 C 
ATOM     26  C   UNL     1      -4.165   0.947  -8.792  1.00  0.00     0.013 C 
ATOM     27  C   UNL     1      -4.512   3.191  -7.891  1.00  0.00     0.017 C 
ATOM     28  C   UNL     1      -4.266  -0.361  -6.276  1.00  0.00     0.031 C 
ATOM     29  C   UNL     1      -5.028  -0.341  -8.617  1.00  0.00     0.018 C 
ATOM     30  C   UNL     1      -4.109  -1.126  -4.942  1.00  0.00     0.015 C 
ATOM     31  C   UNL     1      -3.919  -2.650  -5.137  1.00  0.00    -0.035 C 
ATOM     32  C   UNL     1      -5.370  -2.431  -7.262  1.00  0.00     0.018 C 
ATOM     33  C   UNL     1      -5.099  -3.195  -5.962  1.00  0.00     0.007 C 
ATOM     34  C   UNL     1      -3.861  -3.354  -3.762  1.00  0.00     0.011 C 
ATOM     35  C   UNL     1      -2.578  -2.967  -5.835  1.00  0.00     0.011 C 
BRANCH   8  36
ATOM     36  C   UNL     1       3.035   0.869  -4.110  1.00  0.00     0.309 C 
ATOM     37  O   UNL     1       3.403   1.238  -5.214  1.00  0.00    -0.252 OA
BRANCH  36  38
ATOM     38  O   UNL     1       3.706  -0.007  -3.305  1.00  0.00    -0.469 OA
ATOM     39  C   UNL     1       4.782  -0.688  -3.947  1.00  0.00     0.282 C 
ENDBRANCH  36  38
ENDBRANCH   8  36
ENDBRANCH   4   7
ENDBRANCH   2   3
ENDBRANCH   1   2
BRANCH   1  40
ATOM     40  C   UNL     1      -6.692  -0.383  -2.288  1.00  0.00     0.118 C 
BRANCH  40  41
ATOM     41  N   UNL     1      -7.569  -0.211  -1.143  1.00  0.00    -0.352 N 
ATOM     42  C   UNL     1      -7.517  -0.750   0.119  1.00  0.00     0.251 C 
ATOM     43  H   UNL     1      -8.329   0.395  -1.297  1.00  0.00     0.163 HD
ATOM     44  O   UNL     1      -8.551  -0.762   0.786  1.00  0.00    -0.269 OA
BRANCH  42  45
ATOM     45  C   UNL     1      -6.275  -1.290   0.736  1.00  0.00     0.039 A 
ATOM     46  C   UNL     1      -6.392  -2.419   1.562  1.00  0.00     0.014 A 
ATOM     47  C   UNL     1      -5.062  -0.594   0.714  1.00  0.00     0.014 A 
ATOM     48  C   UNL     1      -5.322  -2.838   2.368  1.00  0.00     0.010 A 
ATOM     49  C   UNL     1      -3.982  -1.028   1.506  1.00  0.00     0.010 A 
ATOM     50  C   UNL     1      -4.106  -2.138   2.363  1.00  0.00    -0.014 A 
BRANCH  50  51
ATOM     51  C   UNL     1      -2.997  -2.521   3.289  1.00  0.00     0.031 A 
ATOM     52  C   UNL     1      -2.631  -1.636   4.457  1.00  0.00     0.074 A 
ATOM     53  C   UNL     1      -2.295  -3.655   3.093  1.00  0.00     0.049 A 
ATOM     54  N   UNL     1      -1.644  -1.754   5.313  1.00  0.00    -0.248 NA
ATOM     55  C   UNL     1      -3.485  -0.462   4.691  1.00  0.00     0.031 C 
ATOM     56  C   UNL     1      -2.538  -4.626   2.028  1.00  0.00     0.029 A 
ATOM     57  N   UNL     1      -1.221  -4.176   3.779  1.00  0.00    -0.354 N 
ATOM     58  C   UNL     1      -1.739  -0.658   6.164  1.00  0.00     0.074 A 
ATOM     59  C   UNL     1      -2.876   0.120   5.716  1.00  0.00     0.031 C 
ATOM     60  C   UNL     1      -1.638  -5.620   2.127  1.00  0.00     0.029 A 
ATOM     61  C   UNL     1      -0.730  -5.340   3.237  1.00  0.00     0.049 A 
ATOM     62  H   UNL     1      -0.840  -3.753   4.583  1.00  0.00     0.167 HD
ATOM     63  C   UNL     1      -0.959  -0.330   7.223  1.00  0.00     0.037 A 
ATOM     64  C   UNL     1       0.341  -6.087   3.576  1.00  0.00     0.037 A 
ATOM     65  C   UNL     1       0.143  -1.117   7.714  1.00  0.00     0.049 A 
ATOM     66  C   UNL     1       1.211  -5.680   4.735  1.00  0.00     0.074 A 
ATOM     67  C   UNL     1       0.937  -0.886   8.826  1.00  0.00     0.029 A 
ATOM     68  N   UNL     1       0.607  -2.283   7.129  1.00  0.00    -0.354 N 
ATOM     69  N   UNL     1       1.082  -4.662   5.550  1.00  0.00    -0.248 NA
ATOM     70  C   UNL     1       2.382  -6.526   5.019  1.00  0.00     0.031 C 
ATOM     71  C   UNL     1       1.909  -1.890   8.890  1.00  0.00     0.029 A 
ATOM     72  C   UNL     1       1.694  -2.767   7.841  1.00  0.00     0.049 A 
ATOM     73  H   UNL     1       0.222  -2.706   6.328  1.00  0.00     0.167 HD
ATOM     74  C   UNL     1       2.128  -4.767   6.459  1.00  0.00     0.074 A 
ATOM     75  C   UNL     1       2.885  -5.946   6.100  1.00  0.00     0.031 C 
ATOM     76  C   UNL     1       2.431  -3.954   7.499  1.00  0.00     0.037 A 
BRANCH  63  77
ATOM     77  C   UNL     1      -1.252   0.956   7.939  1.00  0.00     0.057 A 
ATOM     78  C   UNL     1      -2.332   1.084   8.820  1.00  0.00     0.134 A 
ATOM     79  C   UNL     1      -0.386   2.051   7.811  1.00  0.00     0.134 A 
ATOM     80  F   UNL     1      -3.197   0.072   8.986  1.00  0.00    -0.206 F 
ATOM     81  C   UNL     1      -2.549   2.261   9.539  1.00  0.00     0.040 A 
ATOM     82  C   UNL     1      -0.581   3.225   8.540  1.00  0.00     0.040 A 
ATOM     83  F   UNL     1       0.676   1.986   6.993  1.00  0.00    -0.206 F 
ATOM     84  C   UNL     1      -1.667   3.333   9.406  1.00  0.00     0.006 A 
ENDBRANCH  63  77
BRANCH  64  85
ATOM     85  C   UNL     1       0.677  -7.304   2.795  1.00  0.00     0.057 A 
ATOM     86  C   UNL     1       0.540  -8.581   3.350  1.00  0.00     0.134 A 
ATOM     87  C   UNL     1       1.190  -7.216   1.495  1.00  0.00     0.134 A 
ATOM     88  F   UNL     1       0.083  -8.726   4.603  1.00  0.00    -0.206 F 
ATOM     89  C   UNL     1       0.918  -9.727   2.650  1.00  0.00     0.040 A 
ATOM     90  C   UNL     1       1.550  -8.356   0.774  1.00  0.00     0.040 A 
ATOM     91  F   UNL     1       1.350  -6.021   0.909  1.00  0.00    -0.206 F 
ATOM     92  C   UNL     1       1.422  -9.616   1.355  1.00  0.00     0.006 A 
ENDBRANCH  64  85
BRANCH  76  93
ATOM     93  C   UNL     1       3.598  -4.330   8.362  1.00  0.00     0.057 A 
ATOM     94  C   UNL     1       4.920  -4.143   7.941  1.00  0.00     0.134 A 
ATOM     95  C   UNL     1       3.396  -4.835   9.653  1.00  0.00     0.134 A 
ATOM     96  F   UNL     1       5.181  -3.675   6.711  1.00  0.00    -0.206 F 
ATOM     97  C   UNL     1       6.000  -4.455   8.769  1.00  0.00     0.040 A 
ATOM     98  C   UNL     1       4.467  -5.132  10.498  1.00  0.00     0.040 A 
ATOM     99  F   UNL     1       2.154  -5.032  10.121  1.00  0.00    -0.206 F 
ATOM    100  C   UNL     1       5.774  -4.943  10.055  1.00  0.00     0.006 A 
ENDBRANCH  76  93
ENDBRANCH  50  51
ENDBRANCH  42  45
ENDBRANCH  40  41
ENDBRANCH   1  40
TORSDOF 12
