REMARK SMILES COc1ccc2c(c1OC)C(=O)O[C@@H]2Nc1nonc1C(=O)NCCCNC(=O)c1ccc(-c2c3nc(c(-c4c(F)cccc4F)c4ccc([nH]4)c(-c4c(F)cccc4F)c4nc(c(-c5c(F)cccc5F)c5ccc2[nH]5)C=C4)C=C3)cc1
REMARK SMILES IDX 24 1 23 2 21 3 22 4 20 6 16 7 17 8 18 9 19 10 15 11 14 13
REMARK SMILES IDX 3 14 4 15 8 16 5 17 7 18 6 19 11 20 12 21 13 22 2 23 1 24
REMARK SMILES IDX 9 25 10 26 25 27 26 28 27 29 28 30 29 32 30 33 31 34 83 35
REMARK SMILES IDX 32 36 82 37 33 38 34 39 35 40 76 41 36 42 81 43 75 44 77 45
REMARK SMILES IDX 37 46 80 47 74 48 73 49 38 51 64 52 47 53 63 54 48 55 51 56
REMARK SMILES IDX 62 57 78 58 49 59 50 60 61 62 79 63 52 64 39 65 40 66 45 67
REMARK SMILES IDX 41 68 42 69 44 70 46 71 43 72 65 73 66 74 71 75 67 76 68 77
REMARK SMILES IDX 70 78 72 79 69 80 53 81 54 82 59 83 55 84 56 85 58 86 60 87
REMARK SMILES IDX 57 88
REMARK H PARENT 23 5 15 12 27 31 77 50 51 61
REMARK Flexibility Score: inf
ROOT
ATOM      1  C   UNL     1      -0.766   5.466  -3.180  1.00  0.00     0.118 C 
ENDROOT
BRANCH   1   2
ATOM      2  N   UNL     1      -1.390   5.011  -4.403  1.00  0.00    -0.350 N 
ATOM      3  C   UNL     1      -0.968   5.314  -5.684  1.00  0.00     0.277 C 
ATOM      4  O   UNL     1      -1.624   4.878  -6.630  1.00  0.00    -0.267 OA
ATOM      5  H   UNL     1      -2.184   4.435  -4.315  1.00  0.00     0.163 HD
BRANCH   3   6
ATOM      6  C   UNL     1       0.196   6.172  -5.860  1.00  0.00     0.216 A 
ATOM      7  C   UNL     1       1.505   6.109  -5.311  1.00  0.00     0.207 A 
ATOM      8  N   UNL     1       2.151   7.236  -5.607  1.00  0.00    -0.031 NA
ATOM      9  O   UNL     1       1.294   7.954  -6.425  1.00  0.00    -0.242 OA
ATOM     10  N   UNL     1       0.089   7.292  -6.591  1.00  0.00    -0.042 NA
BRANCH   7  11
ATOM     11  N   UNL     1       2.024   5.167  -4.479  1.00  0.00    -0.326 N 
ATOM     12  H   UNL     1       2.008   5.323  -3.507  1.00  0.00     0.166 HD
BRANCH  11  13
ATOM     13  C   UNL     1       2.598   3.943  -4.989  1.00  0.00     0.307 C 
ATOM     14  C   UNL     1       1.497   0.366  -2.971  1.00  0.00     0.161 A 
ATOM     15  C   UNL     1       0.551   0.944  -3.842  1.00  0.00     0.051 A 
ATOM     16  C   UNL     1       2.777   0.946  -2.808  1.00  0.00     0.175 A 
ATOM     17  C   UNL     1       0.825   2.125  -4.527  1.00  0.00     0.014 A 
ATOM     18  C   UNL     1       3.018   2.148  -3.492  1.00  0.00     0.114 A 
ATOM     19  C   UNL     1       2.057   2.728  -4.326  1.00  0.00     0.032 A 
ATOM     20  C   UNL     1       4.208   3.001  -3.611  1.00  0.00     0.344 C 
ATOM     21  O   UNL     1       5.256   2.957  -2.993  1.00  0.00    -0.246 OA
ATOM     22  O   UNL     1       3.961   3.939  -4.569  1.00  0.00    -0.434 OA
BRANCH  14  23
ATOM     23  O   UNL     1       1.025  -0.785  -2.382  1.00  0.00    -0.493 OA
ATOM     24  C   UNL     1       1.509  -1.114  -1.083  1.00  0.00     0.278 C 
ENDBRANCH  14  23
BRANCH  16  25
ATOM     25  O   UNL     1       3.666   0.198  -2.093  1.00  0.00    -0.492 OA
ATOM     26  C   UNL     1       4.709   0.833  -1.373  1.00  0.00     0.278 C 
ENDBRANCH  16  25
ENDBRANCH  11  13
ENDBRANCH   7  11
ENDBRANCH   3   6
ENDBRANCH   1   2
BRANCH   1  27
ATOM     27  C   UNL     1      -1.526   5.157  -1.907  1.00  0.00     0.042 C 
BRANCH  27  28
ATOM     28  C   UNL     1      -1.569   3.674  -1.558  1.00  0.00     0.118 C 
BRANCH  28  29
ATOM     29  N   UNL     1      -0.245   3.099  -1.373  1.00  0.00    -0.352 N 
ATOM     30  C   UNL     1       0.298   2.285  -0.418  1.00  0.00     0.251 C 
ATOM     31  H   UNL     1       0.392   3.349  -2.082  1.00  0.00     0.163 HD
ATOM     32  O   UNL     1       1.525   2.210  -0.373  1.00  0.00    -0.269 OA
BRANCH  30  33
ATOM     33  C   UNL     1      -0.515   1.580   0.598  1.00  0.00     0.039 A 
ATOM     34  C   UNL     1       0.146   1.121   1.743  1.00  0.00     0.014 A 
ATOM     35  C   UNL     1      -1.899   1.471   0.520  1.00  0.00     0.014 A 
ATOM     36  C   UNL     1      -0.584   0.797   2.877  1.00  0.00     0.010 A 
ATOM     37  C   UNL     1      -2.624   1.323   1.691  1.00  0.00     0.010 A 
ATOM     38  C   UNL     1      -1.958   1.067   2.893  1.00  0.00    -0.014 A 
BRANCH  38  39
ATOM     39  C   UNL     1      -2.649   1.283   4.183  1.00  0.00     0.031 A 
ATOM     40  C   UNL     1      -3.853   0.479   4.551  1.00  0.00     0.074 A 
ATOM     41  C   UNL     1      -2.212   2.295   4.964  1.00  0.00     0.049 A 
ATOM     42  N   UNL     1      -4.592   0.560   5.625  1.00  0.00    -0.248 NA
ATOM     43  C   UNL     1      -4.314  -0.519   3.573  1.00  0.00     0.031 C 
ATOM     44  C   UNL     1      -1.108   3.207   4.631  1.00  0.00     0.029 A 
ATOM     45  N   UNL     1      -2.622   2.728   6.197  1.00  0.00    -0.354 N 
ATOM     46  C   UNL     1      -5.608  -0.368   5.448  1.00  0.00     0.074 A 
ATOM     47  C   UNL     1      -5.431  -0.952   4.138  1.00  0.00     0.031 C 
ATOM     48  C   UNL     1      -0.883   4.033   5.661  1.00  0.00     0.029 A 
ATOM     49  C   UNL     1      -1.865   3.762   6.698  1.00  0.00     0.049 A 
ATOM     50  H   UNL     1      -3.387   2.337   6.678  1.00  0.00     0.167 HD
ATOM     51  C   UNL     1      -6.583  -0.713   6.320  1.00  0.00     0.037 A 
ATOM     52  C   UNL     1      -1.958   4.421   7.866  1.00  0.00     0.037 A 
ATOM     53  C   UNL     1      -6.729  -0.114   7.620  1.00  0.00     0.049 A 
ATOM     54  C   UNL     1      -3.038   4.003   8.820  1.00  0.00     0.074 A 
ATOM     55  C   UNL     1      -7.647  -0.411   8.610  1.00  0.00     0.029 A 
ATOM     56  N   UNL     1      -5.932   0.915   8.107  1.00  0.00    -0.354 N 
ATOM     57  N   UNL     1      -3.942   3.063   8.678  1.00  0.00    -0.248 NA
ATOM     58  C   UNL     1      -3.114   4.729  10.092  1.00  0.00     0.031 C 
ATOM     59  C   UNL     1      -7.440   0.473   9.673  1.00  0.00     0.029 A 
ATOM     60  C   UNL     1      -6.353   1.281   9.374  1.00  0.00     0.049 A 
ATOM     61  H   UNL     1      -5.179   1.324   7.622  1.00  0.00     0.167 HD
ATOM     62  C   UNL     1      -4.683   3.068   9.849  1.00  0.00     0.074 A 
ATOM     63  C   UNL     1      -4.103   4.090  10.700  1.00  0.00     0.031 C 
ATOM     64  C   UNL     1      -5.749   2.304  10.192  1.00  0.00     0.037 A 
BRANCH  51  65
ATOM     65  C   UNL     1      -7.555  -1.771   5.884  1.00  0.00     0.057 A 
ATOM     66  C   UNL     1      -7.164  -3.104   5.694  1.00  0.00     0.134 A 
ATOM     67  C   UNL     1      -8.899  -1.456   5.649  1.00  0.00     0.134 A 
ATOM     68  F   UNL     1      -5.887  -3.473   5.883  1.00  0.00    -0.206 F 
ATOM     69  C   UNL     1      -8.065  -4.076   5.255  1.00  0.00     0.040 A 
ATOM     70  C   UNL     1      -9.816  -2.426   5.239  1.00  0.00     0.040 A 
ATOM     71  F   UNL     1      -9.343  -0.201   5.809  1.00  0.00    -0.206 F 
ATOM     72  C   UNL     1      -9.397  -3.739   5.031  1.00  0.00     0.006 A 
ENDBRANCH  51  65
BRANCH  52  73
ATOM     73  C   UNL     1      -1.002   5.512   8.198  1.00  0.00     0.057 A 
ATOM     74  C   UNL     1      -0.072   5.372   9.235  1.00  0.00     0.134 A 
ATOM     75  C   UNL     1      -0.989   6.718   7.485  1.00  0.00     0.134 A 
ATOM     76  F   UNL     1      -0.036   4.246   9.962  1.00  0.00    -0.206 F 
ATOM     77  C   UNL     1       0.815   6.399   9.569  1.00  0.00     0.040 A 
ATOM     78  C   UNL     1      -0.087   7.740   7.787  1.00  0.00     0.040 A 
ATOM     79  F   UNL     1      -1.840   6.913   6.467  1.00  0.00    -0.206 F 
ATOM     80  C   UNL     1       0.811   7.586   8.840  1.00  0.00     0.006 A 
ENDBRANCH  52  73
BRANCH  64  81
ATOM     81  C   UNL     1      -6.326   2.529  11.557  1.00  0.00     0.057 A 
ATOM     82  C   UNL     1      -7.043   3.689  11.876  1.00  0.00     0.134 A 
ATOM     83  C   UNL     1      -6.189   1.555  12.553  1.00  0.00     0.134 A 
ATOM     84  F   UNL     1      -7.195   4.666  10.969  1.00  0.00    -0.206 F 
ATOM     85  C   UNL     1      -7.582   3.883  13.148  1.00  0.00     0.040 A 
ATOM     86  C   UNL     1      -6.752   1.723  13.818  1.00  0.00     0.040 A 
ATOM     87  F   UNL     1      -5.521   0.418  12.308  1.00  0.00    -0.206 F 
ATOM     88  C   UNL     1      -7.444   2.894  14.120  1.00  0.00     0.006 A 
ENDBRANCH  64  81
ENDBRANCH  38  39
ENDBRANCH  30  33
ENDBRANCH  28  29
ENDBRANCH  27  28
ENDBRANCH   1  27
TORSDOF 14
