REMARK SMILES Nc1nc(N)nc(N/C=C/C(=O)NCCCNC(=O)c2ccc(-c3c4nc(c(-c5c(F)cccc5F)c5ccc([nH]5)c(-c5c(F)cccc5F)c5nc(c(-c6c(F)cccc6F)c6ccc3[nH]6)C=C5)C=C4)cc2)n1
REMARK SMILES IDX 14 1 13 2 11 3 12 4 10 6 9 7 8 8 7 10 2 11 3 12 74 13 4 14
REMARK SMILES IDX 6 15 1 16 5 19 15 22 16 23 17 24 18 25 19 27 20 28 21 29
REMARK SMILES IDX 73 30 22 31 72 32 23 33 24 34 25 35 66 36 26 37 71 38 65 39
REMARK SMILES IDX 67 40 27 41 70 42 64 43 63 44 28 46 54 47 37 48 53 49 38 50
REMARK SMILES IDX 41 51 52 52 68 53 39 54 40 55 51 57 69 58 42 59 29 60 30 61
REMARK SMILES IDX 35 62 31 63 32 64 34 65 36 66 33 67 55 68 56 69 61 70 57 71
REMARK SMILES IDX 58 72 60 73 62 74 59 75 43 76 44 77 49 78 45 79 46 80 48 81
REMARK SMILES IDX 50 82 47 83
REMARK H PARENT 13 5 8 9 1 17 1 18 5 20 5 21 17 26 67 45 41 56
REMARK Flexibility Score: inf
ROOT
ATOM      1  C   UNL     1       4.023   3.993   0.441  1.00  0.00     0.118 C 
ENDROOT
BRANCH   1   2
ATOM      2  N   UNL     1       3.593   5.341   0.098  1.00  0.00    -0.352 N 
ATOM      3  C   UNL     1       2.357   5.886  -0.054  1.00  0.00     0.245 C 
ATOM      4  O   UNL     1       2.260   7.097  -0.248  1.00  0.00    -0.270 OA
ATOM      5  H   UNL     1       4.333   5.973  -0.052  1.00  0.00     0.163 HD
BRANCH   3   6
ATOM      6  C   UNL     1       1.118   5.088   0.096  1.00  0.00     0.089 C 
ATOM      7  C   UNL     1       0.963   3.825  -0.312  1.00  0.00     0.091 C 
BRANCH   7   8
ATOM      8  N   UNL     1      -0.135   3.021  -0.175  1.00  0.00    -0.330 N 
ATOM      9  H   UNL     1      -1.007   3.464  -0.069  1.00  0.00     0.169 HD
BRANCH   8  10
ATOM     10  C   UNL     1      -0.123   1.624  -0.175  1.00  0.00     0.233 A 
ATOM     11  C   UNL     1      -1.251  -0.301  -0.017  1.00  0.00     0.226 A 
ATOM     12  N   UNL     1      -0.145  -1.026  -0.036  1.00  0.00    -0.177 NA
ATOM     13  N   UNL     1      -1.299   1.021  -0.065  1.00  0.00    -0.177 NA
ATOM     14  C   UNL     1       0.974  -0.332  -0.132  1.00  0.00     0.226 A 
ATOM     15  N   UNL     1       1.043   0.982  -0.221  1.00  0.00    -0.177 NA
BRANCH  11  16
ATOM     16  N   UNL     1      -2.437  -0.973   0.059  1.00  0.00    -0.368 N 
ATOM     17  H   UNL     1      -2.444  -1.957   0.097  1.00  0.00     0.159 HD
ATOM     18  H   UNL     1      -3.286  -0.473   0.076  1.00  0.00     0.159 HD
ENDBRANCH  11  16
BRANCH  14  19
ATOM     19  N   UNL     1       2.154  -1.022  -0.114  1.00  0.00    -0.368 N 
ATOM     20  H   UNL     1       2.149  -2.005  -0.048  1.00  0.00     0.159 HD
ATOM     21  H   UNL     1       3.009  -0.537  -0.166  1.00  0.00     0.159 HD
ENDBRANCH  14  19
ENDBRANCH   8  10
ENDBRANCH   7   8
ENDBRANCH   3   6
ENDBRANCH   1   2
BRANCH   1  22
ATOM     22  C   UNL     1       4.580   3.256  -0.778  1.00  0.00     0.042 C 
BRANCH  22  23
ATOM     23  C   UNL     1       5.981   3.715  -1.176  1.00  0.00     0.118 C 
BRANCH  23  24
ATOM     24  N   UNL     1       6.987   3.312  -0.201  1.00  0.00    -0.352 N 
ATOM     25  C   UNL     1       8.101   2.523  -0.349  1.00  0.00     0.251 C 
ATOM     26  H   UNL     1       6.845   3.660   0.709  1.00  0.00     0.163 HD
ATOM     27  O   UNL     1       8.696   2.123   0.646  1.00  0.00    -0.269 OA
BRANCH  25  28
ATOM     28  C   UNL     1       8.582   2.139  -1.694  1.00  0.00     0.039 A 
ATOM     29  C   UNL     1       9.032   0.831  -1.900  1.00  0.00     0.014 A 
ATOM     30  C   UNL     1       8.635   3.068  -2.737  1.00  0.00     0.014 A 
ATOM     31  C   UNL     1       9.468   0.435  -3.167  1.00  0.00     0.010 A 
ATOM     32  C   UNL     1       9.011   2.656  -4.014  1.00  0.00     0.010 A 
ATOM     33  C   UNL     1       9.425   1.335  -4.243  1.00  0.00    -0.014 A 
BRANCH  33  34
ATOM     34  C   UNL     1       9.785   0.914  -5.620  1.00  0.00     0.031 A 
ATOM     35  C   UNL     1      10.968   1.524  -6.317  1.00  0.00     0.074 A 
ATOM     36  C   UNL     1       8.992   0.042  -6.274  1.00  0.00     0.049 A 
ATOM     37  N   UNL     1      11.368   1.372  -7.555  1.00  0.00    -0.248 NA
ATOM     38  C   UNL     1      11.799   2.444  -5.525  1.00  0.00     0.031 C 
ATOM     39  C   UNL     1       7.795  -0.593  -5.719  1.00  0.00     0.029 A 
ATOM     40  N   UNL     1       9.062  -0.445  -7.555  1.00  0.00    -0.354 N 
ATOM     41  C   UNL     1      12.482   2.189  -7.695  1.00  0.00     0.074 A 
ATOM     42  C   UNL     1      12.671   2.866  -6.429  1.00  0.00     0.031 C 
ATOM     43  C   UNL     1       7.250  -1.392  -6.649  1.00  0.00     0.029 A 
ATOM     44  C   UNL     1       8.030  -1.293  -7.878  1.00  0.00     0.049 A 
ATOM     45  H   UNL     1       9.782  -0.208  -8.183  1.00  0.00     0.167 HD
ATOM     46  C   UNL     1      13.284   2.348  -8.775  1.00  0.00     0.037 A 
ATOM     47  C   UNL     1       7.735  -1.906  -9.040  1.00  0.00     0.037 A 
ATOM     48  C   UNL     1      13.104   1.657 -10.026  1.00  0.00     0.049 A 
ATOM     49  C   UNL     1       8.626  -1.694 -10.231  1.00  0.00     0.074 A 
ATOM     50  C   UNL     1      13.899   1.704 -11.158  1.00  0.00     0.029 A 
ATOM     51  N   UNL     1      12.054   0.798 -10.309  1.00  0.00    -0.354 N 
ATOM     52  N   UNL     1       9.711  -0.966 -10.332  1.00  0.00    -0.248 NA
ATOM     53  C   UNL     1       8.251  -2.389 -11.471  1.00  0.00     0.031 C 
ATOM     54  C   UNL     1      13.305   0.908 -12.143  1.00  0.00     0.029 A 
ATOM     55  C   UNL     1      12.165   0.328 -11.608  1.00  0.00     0.049 A 
ATOM     56  H   UNL     1      11.335   0.557  -9.681  1.00  0.00     0.167 HD
ATOM     57  C   UNL     1      10.162  -1.133 -11.634  1.00  0.00     0.074 A 
ATOM     58  C   UNL     1       9.240  -2.042 -12.283  1.00  0.00     0.031 C 
ATOM     59  C   UNL     1      11.242  -0.581 -12.238  1.00  0.00     0.037 A 
BRANCH  46  60
ATOM     60  C   UNL     1      14.431   3.308  -8.653  1.00  0.00     0.057 A 
ATOM     61  C   UNL     1      15.550   3.025  -7.859  1.00  0.00     0.134 A 
ATOM     62  C   UNL     1      14.436   4.513  -9.368  1.00  0.00     0.134 A 
ATOM     63  F   UNL     1      15.605   1.893  -7.141  1.00  0.00    -0.206 F 
ATOM     64  C   UNL     1      16.621   3.916  -7.760  1.00  0.00     0.040 A 
ATOM     65  C   UNL     1      15.512   5.399  -9.298  1.00  0.00     0.040 A 
ATOM     66  F   UNL     1      13.400   4.843 -10.154  1.00  0.00    -0.206 F 
ATOM     67  C   UNL     1      16.606   5.104  -8.487  1.00  0.00     0.006 A 
ENDBRANCH  46  60
BRANCH  47  68
ATOM     68  C   UNL     1       6.543  -2.786  -9.131  1.00  0.00     0.057 A 
ATOM     69  C   UNL     1       6.680  -4.173  -9.258  1.00  0.00     0.134 A 
ATOM     70  C   UNL     1       5.243  -2.267  -9.097  1.00  0.00     0.134 A 
ATOM     71  F   UNL     1       7.900  -4.728  -9.317  1.00  0.00    -0.206 F 
ATOM     72  C   UNL     1       5.569  -5.011  -9.365  1.00  0.00     0.040 A 
ATOM     73  C   UNL     1       4.123  -3.096  -9.177  1.00  0.00     0.040 A 
ATOM     74  F   UNL     1       5.044  -0.947  -8.969  1.00  0.00    -0.206 F 
ATOM     75  C   UNL     1       4.285  -4.472  -9.318  1.00  0.00     0.006 A 
ENDBRANCH  47  68
BRANCH  59  76
ATOM     76  C   UNL     1      11.505  -0.968 -13.663  1.00  0.00     0.057 A 
ATOM     77  C   UNL     1      10.722  -0.482 -14.717  1.00  0.00     0.134 A 
ATOM     78  C   UNL     1      12.585  -1.799 -13.989  1.00  0.00     0.134 A 
ATOM     79  F   UNL     1       9.664   0.306 -14.470  1.00  0.00    -0.206 F 
ATOM     80  C   UNL     1      10.994  -0.820 -16.043  1.00  0.00     0.040 A 
ATOM     81  C   UNL     1      12.882  -2.124 -15.313  1.00  0.00     0.040 A 
ATOM     82  F   UNL     1      13.379  -2.293 -13.027  1.00  0.00    -0.206 F 
ATOM     83  C   UNL     1      12.082  -1.637 -16.344  1.00  0.00     0.006 A 
ENDBRANCH  59  76
ENDBRANCH  33  34
ENDBRANCH  25  28
ENDBRANCH  23  24
ENDBRANCH  22  23
ENDBRANCH   1  22
TORSDOF 14
