REMARK SMILES Cc1nn(C[C@@H]2[NH2+][C@@H](C(=O)NCCCNC(=O)c3ccc(-c4c5nc(c(-c6c(F)cccc6F)c6ccc([nH]6)c(-c6c(F)cccc6F)c6nc(c(-c7c(F)cccc7F)c7ccc4[nH]7)C=C6)C=C5)cc3)CS2)c(C)c1Cl
REMARK SMILES IDX 13 1 12 2 11 3 9 4 10 5 8 7 6 8 7 9 73 10 72 13 5 14 4 15
REMARK SMILES IDX 1 16 2 17 3 18 76 19 74 20 77 21 75 22 14 23 15 24 16 25
REMARK SMILES IDX 17 27 18 28 19 29 71 30 20 31 70 32 21 33 22 34 23 35 64 36
REMARK SMILES IDX 24 37 69 38 63 39 65 40 25 41 68 42 62 43 61 44 26 46 52 47
REMARK SMILES IDX 35 48 51 49 36 50 39 51 50 52 66 53 37 54 38 55 49 57 67 58
REMARK SMILES IDX 40 59 27 60 28 61 33 62 29 63 30 64 32 65 34 66 31 67 53 68
REMARK SMILES IDX 54 69 59 70 55 71 56 72 58 73 60 74 57 75 41 76 42 77 47 78
REMARK SMILES IDX 43 79 44 80 46 81 48 82 45 83
REMARK H PARENT 11 6 7 11 7 12 15 26 65 45 39 56
REMARK Flexibility Score: inf
ROOT
ATOM      1  C   UNL     1       1.157  -6.165   3.358  1.00  0.00     0.042 C 
ENDROOT
BRANCH   1   2
ATOM      2  C   UNL     1       1.209  -5.175   2.184  1.00  0.00     0.118 C 
BRANCH   2   3
ATOM      3  N   UNL     1       0.089  -5.324   1.255  1.00  0.00    -0.351 N 
ATOM      4  C   UNL     1      -1.097  -4.629   1.231  1.00  0.00     0.279 C 
ATOM      5  O   UNL     1      -1.931  -4.901   0.368  1.00  0.00    -0.268 OA
ATOM      6  H   UNL     1       0.199  -6.010   0.557  1.00  0.00     0.163 HD
BRANCH   4   7
ATOM      7  C   UNL     1      -1.289  -3.491   2.238  1.00  0.00     0.283 C 
ATOM      8  C   UNL     1      -1.475  -2.854   4.512  1.00  0.00     0.264 C 
ATOM      9  N   UNL     1      -1.175  -3.992   3.635  1.00  0.00    -0.323 N 
ATOM     10  S   UNL     1      -2.954  -2.091   3.781  1.00  0.00    -0.091 SA
ATOM     11  H   UNL     1      -1.845  -4.745   3.794  1.00  0.00     0.348 HD
ATOM     12  H   UNL     1      -0.243  -4.363   3.818  1.00  0.00     0.348 HD
ATOM     13  C   UNL     1      -2.613  -2.741   2.109  1.00  0.00     0.151 C 
BRANCH   8  14
ATOM     14  C   UNL     1      -0.281  -1.905   4.819  1.00  0.00     0.221 C 
BRANCH  14  15
ATOM     15  N   UNL     1       0.006  -0.853   3.860  1.00  0.00    -0.261 N 
ATOM     16  C   UNL     1       1.111  -0.121   0.589  1.00  0.00     0.070 C 
ATOM     17  C   UNL     1       0.610  -0.069   1.984  1.00  0.00     0.078 A 
ATOM     18  N   UNL     1       0.772  -1.131   2.784  1.00  0.00    -0.176 NA
ATOM     19  C   UNL     1      -0.067   0.972   2.657  1.00  0.00     0.084 A 
ATOM     20  C   UNL     1      -0.392   0.462   3.897  1.00  0.00     0.055 A 
ATOM     21  Cl  UNL     1      -0.413   2.514   2.042  1.00  0.00    -0.080 Cl
ATOM     22  C   UNL     1      -1.076   1.080   5.059  1.00  0.00     0.068 C 
ENDBRANCH  14  15
ENDBRANCH   8  14
ENDBRANCH   4   7
ENDBRANCH   2   3
ENDBRANCH   1   2
BRANCH   1  23
ATOM     23  C   UNL     1       1.438  -7.591   2.930  1.00  0.00     0.118 C 
BRANCH  23  24
ATOM     24  N   UNL     1       2.837  -7.822   2.541  1.00  0.00    -0.352 N 
ATOM     25  C   UNL     1       3.421  -8.995   2.075  1.00  0.00     0.251 C 
ATOM     26  H   UNL     1       3.438  -7.047   2.621  1.00  0.00     0.163 HD
ATOM     27  O   UNL     1       4.626  -9.167   2.114  1.00  0.00    -0.269 OA
BRANCH  25  28
ATOM     28  C   UNL     1       2.533 -10.024   1.507  1.00  0.00     0.039 A 
ATOM     29  C   UNL     1       2.715 -11.398   1.692  1.00  0.00     0.014 A 
ATOM     30  C   UNL     1       1.436  -9.545   0.811  1.00  0.00     0.014 A 
ATOM     31  C   UNL     1       1.740 -12.264   1.198  1.00  0.00     0.010 A 
ATOM     32  C   UNL     1       0.353 -10.347   0.661  1.00  0.00     0.010 A 
ATOM     33  C   UNL     1       0.560 -11.713   0.680  1.00  0.00    -0.014 A 
BRANCH  33  34
ATOM     34  C   UNL     1      -0.540 -12.494   0.147  1.00  0.00     0.031 A 
ATOM     35  C   UNL     1      -1.201 -13.376   1.135  1.00  0.00     0.074 A 
ATOM     36  C   UNL     1      -1.084 -12.184  -1.054  1.00  0.00     0.049 A 
ATOM     37  N   UNL     1      -1.222 -14.665   1.145  1.00  0.00    -0.248 NA
ATOM     38  C   UNL     1      -1.777 -12.760   2.342  1.00  0.00     0.031 C 
ATOM     39  C   UNL     1      -0.729 -11.094  -1.979  1.00  0.00     0.029 A 
ATOM     40  N   UNL     1      -2.181 -12.720  -1.648  1.00  0.00    -0.354 N 
ATOM     41  C   UNL     1      -2.001 -15.023   2.241  1.00  0.00     0.074 A 
ATOM     42  C   UNL     1      -2.129 -13.838   3.046  1.00  0.00     0.031 C 
ATOM     43  C   UNL     1      -1.724 -10.909  -2.874  1.00  0.00     0.029 A 
ATOM     44  C   UNL     1      -2.698 -11.965  -2.700  1.00  0.00     0.049 A 
ATOM     45  H   UNL     1      -2.579 -13.573  -1.360  1.00  0.00     0.167 HD
ATOM     46  C   UNL     1      -2.683 -16.201   2.260  1.00  0.00     0.037 A 
ATOM     47  C   UNL     1      -3.877 -12.194  -3.332  1.00  0.00     0.037 A 
ATOM     48  C   UNL     1      -2.223 -17.079   1.211  1.00  0.00     0.049 A 
ATOM     49  C   UNL     1      -4.249 -13.606  -3.045  1.00  0.00     0.074 A 
ATOM     50  C   UNL     1      -1.004 -17.649   0.897  1.00  0.00     0.029 A 
ATOM     51  N   UNL     1      -2.971 -17.143   0.059  1.00  0.00    -0.354 N 
ATOM     52  N   UNL     1      -3.565 -14.630  -3.483  1.00  0.00    -0.248 NA
ATOM     53  C   UNL     1      -5.047 -13.854  -1.852  1.00  0.00     0.031 C 
ATOM     54  C   UNL     1      -0.909 -17.546  -0.523  1.00  0.00     0.029 A 
ATOM     55  C   UNL     1      -2.106 -17.009  -0.999  1.00  0.00     0.049 A 
ATOM     56  H   UNL     1      -3.947 -17.262   0.003  1.00  0.00     0.167 HD
ATOM     57  C   UNL     1      -3.503 -15.506  -2.407  1.00  0.00     0.074 A 
ATOM     58  C   UNL     1      -4.484 -14.998  -1.447  1.00  0.00     0.031 C 
ATOM     59  C   UNL     1      -2.456 -16.372  -2.249  1.00  0.00     0.037 A 
BRANCH  46  60
ATOM     60  C   UNL     1      -3.997 -16.424   2.965  1.00  0.00     0.057 A 
ATOM     61  C   UNL     1      -4.518 -17.729   3.035  1.00  0.00     0.134 A 
ATOM     62  C   UNL     1      -4.898 -15.401   3.324  1.00  0.00     0.134 A 
ATOM     63  F   UNL     1      -3.762 -18.790   2.716  1.00  0.00    -0.206 F 
ATOM     64  C   UNL     1      -5.856 -17.987   3.355  1.00  0.00     0.040 A 
ATOM     65  C   UNL     1      -6.221 -15.652   3.696  1.00  0.00     0.040 A 
ATOM     66  F   UNL     1      -4.588 -14.103   3.238  1.00  0.00    -0.206 F 
ATOM     67  C   UNL     1      -6.715 -16.946   3.678  1.00  0.00     0.006 A 
ENDBRANCH  46  60
BRANCH  47  68
ATOM     68  C   UNL     1      -4.835 -11.191  -3.855  1.00  0.00     0.057 A 
ATOM     69  C   UNL     1      -5.861 -11.546  -4.743  1.00  0.00     0.134 A 
ATOM     70  C   UNL     1      -4.930  -9.905  -3.292  1.00  0.00     0.134 A 
ATOM     71  F   UNL     1      -5.888 -12.766  -5.297  1.00  0.00    -0.206 F 
ATOM     72  C   UNL     1      -6.924 -10.678  -5.042  1.00  0.00     0.040 A 
ATOM     73  C   UNL     1      -5.981  -9.028  -3.585  1.00  0.00     0.040 A 
ATOM     74  F   UNL     1      -4.052  -9.487  -2.369  1.00  0.00    -0.206 F 
ATOM     75  C   UNL     1      -6.991  -9.418  -4.454  1.00  0.00     0.006 A 
ENDBRANCH  47  68
BRANCH  59  76
ATOM     76  C   UNL     1      -1.454 -16.493  -3.369  1.00  0.00     0.057 A 
ATOM     77  C   UNL     1      -0.624 -15.446  -3.803  1.00  0.00     0.134 A 
ATOM     78  C   UNL     1      -1.188 -17.758  -3.901  1.00  0.00     0.134 A 
ATOM     79  F   UNL     1      -0.725 -14.220  -3.280  1.00  0.00    -0.206 F 
ATOM     80  C   UNL     1       0.391 -15.640  -4.746  1.00  0.00     0.040 A 
ATOM     81  C   UNL     1      -0.156 -17.974  -4.819  1.00  0.00     0.040 A 
ATOM     82  F   UNL     1      -1.894 -18.824  -3.491  1.00  0.00    -0.206 F 
ATOM     83  C   UNL     1       0.633 -16.911  -5.252  1.00  0.00     0.006 A 
ENDBRANCH  59  76
ENDBRANCH  33  34
ENDBRANCH  25  28
ENDBRANCH  23  24
ENDBRANCH   1  23
TORSDOF 12
