REMARK SMILES O=C(NCCCNC(=O)[C@H]1CCCN(C(=O)c2cc(Br)ccc2Cl)C1)c1ccc(-c2c3nc(c(-c4c(F)cccc4F)c4ccc([nH]4)c(-c4c(F)cccc4F)c4nc(c(-c5c(F)cccc5F)c5ccc2[nH]5)C=C4)C=C3)cc1
REMARK SMILES IDX 5 1 4 2 3 3 1 4 2 5 26 7 27 8 79 9 28 10 78 11 29 12 30 13
REMARK SMILES IDX 31 14 72 15 32 16 77 17 71 18 73 19 33 20 76 21 70 22 69 23
REMARK SMILES IDX 34 25 60 26 43 27 59 28 44 29 47 30 58 31 74 32 45 33 46 34
REMARK SMILES IDX 57 36 75 37 48 38 35 39 36 40 41 41 37 42 38 43 40 44 42 45
REMARK SMILES IDX 39 46 61 47 62 48 67 49 63 50 64 51 66 52 68 53 65 54 49 55
REMARK SMILES IDX 50 56 55 57 51 58 52 59 54 60 56 61 53 62 6 63 7 64 8 65
REMARK SMILES IDX 9 67 10 68 11 69 25 70 12 71 14 72 13 73 15 74 16 75 17 76
REMARK SMILES IDX 18 77 23 78 19 79 22 80 24 81 20 82 21 83
REMARK H PARENT 3 6 73 24 47 35 7 66
REMARK Flexibility Score: inf
ROOT
ATOM      1  C   UNL     1       9.963  -4.116   5.117  1.00  0.00     0.042 C 
ENDROOT
BRANCH   1   2
ATOM      2  C   UNL     1      10.792  -4.924   6.107  1.00  0.00     0.118 C 
BRANCH   2   3
ATOM      3  N   UNL     1      11.675  -5.863   5.438  1.00  0.00    -0.352 N 
ATOM      4  O   UNL     1      13.576  -6.591   4.488  1.00  0.00    -0.269 OA
ATOM      5  C   UNL     1      13.038  -5.835   5.300  1.00  0.00     0.251 C 
ATOM      6  H   UNL     1      11.227  -6.634   5.021  1.00  0.00     0.163 HD
BRANCH   5   7
ATOM      7  C   UNL     1      13.877  -4.918   6.104  1.00  0.00     0.039 A 
ATOM      8  C   UNL     1      13.650  -4.724   7.471  1.00  0.00     0.014 A 
ATOM      9  C   UNL     1      14.978  -4.310   5.492  1.00  0.00     0.014 A 
ATOM     10  C   UNL     1      14.467  -3.863   8.203  1.00  0.00     0.010 A 
ATOM     11  C   UNL     1      15.835  -3.499   6.239  1.00  0.00     0.010 A 
ATOM     12  C   UNL     1      15.581  -3.261   7.599  1.00  0.00    -0.014 A 
BRANCH  12  13
ATOM     13  C   UNL     1      16.530  -2.451   8.402  1.00  0.00     0.031 A 
ATOM     14  C   UNL     1      16.691  -0.981   8.149  1.00  0.00     0.074 A 
ATOM     15  C   UNL     1      17.289  -3.063   9.331  1.00  0.00     0.049 A 
ATOM     16  N   UNL     1      17.543  -0.141   8.679  1.00  0.00    -0.248 NA
ATOM     17  C   UNL     1      15.783  -0.378   7.162  1.00  0.00     0.031 C 
ATOM     18  C   UNL     1      17.233  -4.488   9.658  1.00  0.00     0.029 A 
ATOM     19  N   UNL     1      18.268  -2.569  10.155  1.00  0.00    -0.354 N 
ATOM     20  C   UNL     1      17.294   1.084   8.074  1.00  0.00     0.074 A 
ATOM     21  C   UNL     1      16.220   0.874   7.125  1.00  0.00     0.031 C 
ATOM     22  C   UNL     1      18.134  -4.754  10.616  1.00  0.00     0.029 A 
ATOM     23  C   UNL     1      18.865  -3.531  10.932  1.00  0.00     0.049 A 
ATOM     24  H   UNL     1      18.517  -1.617  10.187  1.00  0.00     0.167 HD
ATOM     25  C   UNL     1      17.904   2.274   8.293  1.00  0.00     0.037 A 
ATOM     26  C   UNL     1      19.906  -3.449  11.781  1.00  0.00     0.037 A 
ATOM     27  C   UNL     1      18.964   2.480   9.246  1.00  0.00     0.049 A 
ATOM     28  C   UNL     1      20.580  -2.126  11.993  1.00  0.00     0.074 A 
ATOM     29  C   UNL     1      19.615   3.657   9.571  1.00  0.00     0.029 A 
ATOM     30  N   UNL     1      19.532   1.481  10.023  1.00  0.00    -0.354 N 
ATOM     31  N   UNL     1      20.311  -0.968  11.441  1.00  0.00    -0.248 NA
ATOM     32  C   UNL     1      21.701  -2.096  12.942  1.00  0.00     0.031 C 
ATOM     33  C   UNL     1      20.604   3.364  10.518  1.00  0.00     0.029 A 
ATOM     34  C   UNL     1      20.540   2.011  10.812  1.00  0.00     0.049 A 
ATOM     35  H   UNL     1      19.259   0.535  10.015  1.00  0.00     0.167 HD
ATOM     36  C   UNL     1      21.214  -0.068  11.988  1.00  0.00     0.074 A 
ATOM     37  C   UNL     1      22.036  -0.813  12.920  1.00  0.00     0.031 C 
ATOM     38  C   UNL     1      21.345   1.258  11.740  1.00  0.00     0.037 A 
BRANCH  25  39
ATOM     39  C   UNL     1      17.453   3.440   7.465  1.00  0.00     0.057 A 
ATOM     40  C   UNL     1      16.219   4.068   7.677  1.00  0.00     0.134 A 
ATOM     41  C   UNL     1      18.274   3.955   6.453  1.00  0.00     0.134 A 
ATOM     42  F   UNL     1      15.382   3.617   8.624  1.00  0.00    -0.206 F 
ATOM     43  C   UNL     1      15.806   5.148   6.895  1.00  0.00     0.040 A 
ATOM     44  C   UNL     1      17.881   5.048   5.679  1.00  0.00     0.040 A 
ATOM     45  F   UNL     1      19.472   3.405   6.202  1.00  0.00    -0.206 F 
ATOM     46  C   UNL     1      16.640   5.643   5.894  1.00  0.00     0.006 A 
ENDBRANCH  25  39
BRANCH  26  47
ATOM     47  C   UNL     1      20.367  -4.671  12.481  1.00  0.00     0.057 A 
ATOM     48  C   UNL     1      20.101  -4.868  13.840  1.00  0.00     0.134 A 
ATOM     49  C   UNL     1      21.037  -5.692  11.796  1.00  0.00     0.134 A 
ATOM     50  F   UNL     1      19.476  -3.918  14.550  1.00  0.00    -0.206 F 
ATOM     51  C   UNL     1      20.484  -6.040  14.494  1.00  0.00     0.040 A 
ATOM     52  C   UNL     1      21.407  -6.877  12.432  1.00  0.00     0.040 A 
ATOM     53  F   UNL     1      21.311  -5.563  10.489  1.00  0.00    -0.206 F 
ATOM     54  C   UNL     1      21.131  -7.053  13.787  1.00  0.00     0.006 A 
ENDBRANCH  26  47
BRANCH  38  55
ATOM     55  C   UNL     1      22.393   1.999  12.513  1.00  0.00     0.057 A 
ATOM     56  C   UNL     1      23.752   1.903  12.190  1.00  0.00     0.134 A 
ATOM     57  C   UNL     1      22.031   2.861  13.555  1.00  0.00     0.134 A 
ATOM     58  F   UNL     1      24.162   1.084  11.210  1.00  0.00    -0.206 F 
ATOM     59  C   UNL     1      24.717   2.635  12.885  1.00  0.00     0.040 A 
ATOM     60  C   UNL     1      22.984   3.611  14.244  1.00  0.00     0.040 A 
ATOM     61  F   UNL     1      20.744   2.999  13.909  1.00  0.00    -0.206 F 
ATOM     62  C   UNL     1      24.332   3.498  13.910  1.00  0.00     0.006 A 
ENDBRANCH  38  55
ENDBRANCH  12  13
ENDBRANCH   5   7
ENDBRANCH   2   3
ENDBRANCH   1   2
BRANCH   1  63
ATOM     63  C   UNL     1       8.791  -4.891   4.511  1.00  0.00     0.117 C 
BRANCH  63  64
ATOM     64  N   UNL     1       7.776  -5.180   5.510  1.00  0.00    -0.356 N 
ATOM     65  C   UNL     1       6.626  -4.522   5.827  1.00  0.00     0.224 C 
ATOM     66  H   UNL     1       7.947  -5.986   6.047  1.00  0.00     0.163 HD
ATOM     67  O   UNL     1       5.990  -4.949   6.793  1.00  0.00    -0.275 OA
BRANCH  65  68
ATOM     68  C   UNL     1       6.127  -3.351   4.983  1.00  0.00     0.098 C 
ATOM     69  C   UNL     1       4.722  -2.911   5.458  1.00  0.00     0.017 C 
ATOM     70  C   UNL     1       7.055  -2.140   5.047  1.00  0.00     0.133 C 
ATOM     71  C   UNL     1       4.207  -1.680   4.704  1.00  0.00     0.022 C 
ATOM     72  N   UNL     1       6.516  -1.042   4.253  1.00  0.00    -0.338 N 
ATOM     73  C   UNL     1       5.225  -0.540   4.712  1.00  0.00     0.120 C 
BRANCH  72  74
ATOM     74  C   UNL     1       7.156  -0.699   3.067  1.00  0.00     0.255 C 
ATOM     75  O   UNL     1       8.101  -1.325   2.593  1.00  0.00    -0.269 OA
BRANCH  74  76
ATOM     76  C   UNL     1       6.663   0.453   2.298  1.00  0.00     0.059 A 
ATOM     77  C   UNL     1       6.048   0.193   1.067  1.00  0.00     0.031 A 
ATOM     78  C   UNL     1       6.852   1.767   2.740  1.00  0.00     0.053 A 
ATOM     79  C   UNL     1       5.585   1.258   0.299  1.00  0.00     0.018 A 
ATOM     80  C   UNL     1       6.380   2.826   1.960  1.00  0.00     0.022 A 
ATOM     81  Cl  UNL     1       7.664   2.145   4.215  1.00  0.00    -0.083 Cl
ATOM     82  Br  UNL     1       4.741   0.923  -1.357  1.00  0.00    -0.051 Br
ATOM     83  C   UNL     1       5.742   2.572   0.742  1.00  0.00     0.017 A 
ENDBRANCH  74  76
ENDBRANCH  72  74
ENDBRANCH  65  68
ENDBRANCH  63  64
ENDBRANCH   1  63
TORSDOF 12
