REMARK SMILES O=C(NCCCNC(=O)c1ccc2c(c1)CCN2C(=O)c1ccn[nH]1)c1ccc(-c2c3nc(c(-c4c(F)cccc4F)c4ccc([nH]4)c(-c4c(F)cccc4F)c4nc(c(-c5c(F)cccc5F)c5ccc2[nH]5)C=C4)C=C3)cc1
REMARK SMILES IDX 5 1 4 2 3 3 1 4 2 5 26 7 27 8 79 9 28 10 78 11 29 12 30 13
REMARK SMILES IDX 31 14 72 15 32 16 77 17 71 18 73 19 33 20 76 21 70 22 69 23
REMARK SMILES IDX 34 25 60 26 43 27 59 28 44 29 47 30 58 31 74 32 45 33 46 34
REMARK SMILES IDX 57 36 75 37 48 38 35 39 36 40 41 41 37 42 38 43 40 44 42 45
REMARK SMILES IDX 39 46 61 47 62 48 67 49 63 50 64 51 66 52 68 53 65 54 49 55
REMARK SMILES IDX 50 56 55 57 51 58 52 59 54 60 56 61 53 62 6 63 7 64 8 65
REMARK SMILES IDX 9 67 10 68 11 69 15 70 12 71 14 72 13 73 16 74 18 75 17 76
REMARK SMILES IDX 19 77 20 78 21 79 22 80 25 81 23 82 24 83
REMARK H PARENT 3 6 73 24 47 35 7 66 25 84
REMARK Flexibility Score: inf
ROOT
ATOM      1  C   UNL     1       5.170  -0.598   2.320  1.00  0.00     0.042 C 
ENDROOT
BRANCH   1   2
ATOM      2  C   UNL     1       4.946  -1.112   0.899  1.00  0.00     0.118 C 
BRANCH   2   3
ATOM      3  N   UNL     1       3.537  -1.210   0.554  1.00  0.00    -0.352 N 
ATOM      4  O   UNL     1       1.522  -0.590  -0.200  1.00  0.00    -0.269 OA
ATOM      5  C   UNL     1       2.740  -0.427  -0.239  1.00  0.00     0.251 C 
ATOM      6  H   UNL     1       3.072  -1.976   0.964  1.00  0.00     0.163 HD
BRANCH   5   7
ATOM      7  C   UNL     1       3.300   0.611  -1.135  1.00  0.00     0.039 A 
ATOM      8  C   UNL     1       4.426   0.376  -1.928  1.00  0.00     0.014 A 
ATOM      9  C   UNL     1       2.599   1.817  -1.272  1.00  0.00     0.014 A 
ATOM     10  C   UNL     1       4.899   1.371  -2.786  1.00  0.00     0.010 A 
ATOM     11  C   UNL     1       3.047   2.797  -2.163  1.00  0.00     0.010 A 
ATOM     12  C   UNL     1       4.211   2.588  -2.914  1.00  0.00    -0.014 A 
BRANCH  12  13
ATOM     13  C   UNL     1       4.694   3.616  -3.867  1.00  0.00     0.031 A 
ATOM     14  C   UNL     1       5.356   4.870  -3.375  1.00  0.00     0.074 A 
ATOM     15  C   UNL     1       4.545   3.416  -5.190  1.00  0.00     0.049 A 
ATOM     16  N   UNL     1       5.851   5.866  -4.066  1.00  0.00    -0.248 NA
ATOM     17  C   UNL     1       5.474   5.030  -1.918  1.00  0.00     0.031 C 
ATOM     18  C   UNL     1       3.899   2.254  -5.802  1.00  0.00     0.029 A 
ATOM     19  N   UNL     1       4.942   4.180  -6.257  1.00  0.00    -0.354 N 
ATOM     20  C   UNL     1       6.311   6.783  -3.133  1.00  0.00     0.074 A 
ATOM     21  C   UNL     1       6.046   6.223  -1.823  1.00  0.00     0.031 C 
ATOM     22  C   UNL     1       3.979   2.364  -7.139  1.00  0.00     0.029 A 
ATOM     23  C   UNL     1       4.664   3.609  -7.473  1.00  0.00     0.049 A 
ATOM     24  H   UNL     1       5.383   5.055  -6.159  1.00  0.00     0.167 HD
ATOM     25  C   UNL     1       6.902   7.983  -3.345  1.00  0.00     0.037 A 
ATOM     26  C   UNL     1       4.937   4.036  -8.718  1.00  0.00     0.037 A 
ATOM     27  C   UNL     1       7.210   8.535  -4.636  1.00  0.00     0.049 A 
ATOM     28  C   UNL     1       5.635   5.345  -8.926  1.00  0.00     0.074 A 
ATOM     29  C   UNL     1       7.843   9.729  -4.938  1.00  0.00     0.029 A 
ATOM     30  N   UNL     1       6.912   7.924  -5.843  1.00  0.00    -0.354 N 
ATOM     31  N   UNL     1       6.070   6.197  -8.032  1.00  0.00    -0.248 NA
ATOM     32  C   UNL     1       5.870   5.755 -10.318  1.00  0.00     0.031 C 
ATOM     33  C   UNL     1       7.927   9.841  -6.332  1.00  0.00     0.029 A 
ATOM     34  C   UNL     1       7.346   8.717  -6.892  1.00  0.00     0.049 A 
ATOM     35  H   UNL     1       6.459   7.056  -5.940  1.00  0.00     0.167 HD
ATOM     36  C   UNL     1       6.623   7.247  -8.749  1.00  0.00     0.074 A 
ATOM     37  C   UNL     1       6.479   6.922 -10.154  1.00  0.00     0.031 C 
ATOM     38  C   UNL     1       7.193   8.383  -8.282  1.00  0.00     0.037 A 
BRANCH  25  39
ATOM     39  C   UNL     1       7.251   8.787  -2.135  1.00  0.00     0.057 A 
ATOM     40  C   UNL     1       8.480   8.630  -1.486  1.00  0.00     0.134 A 
ATOM     41  C   UNL     1       6.360   9.742  -1.630  1.00  0.00     0.134 A 
ATOM     42  F   UNL     1       9.366   7.722  -1.919  1.00  0.00    -0.206 F 
ATOM     43  C   UNL     1       8.812   9.397  -0.368  1.00  0.00     0.040 A 
ATOM     44  C   UNL     1       6.681  10.516  -0.515  1.00  0.00     0.040 A 
ATOM     45  F   UNL     1       5.164   9.928  -2.208  1.00  0.00    -0.206 F 
ATOM     46  C   UNL     1       7.911  10.345   0.118  1.00  0.00     0.006 A 
ENDBRANCH  25  39
BRANCH  26  47
ATOM     47  C   UNL     1       4.557   3.198  -9.874  1.00  0.00     0.057 A 
ATOM     48  C   UNL     1       5.465   2.291 -10.429  1.00  0.00     0.134 A 
ATOM     49  C   UNL     1       3.280   3.276 -10.437  1.00  0.00     0.134 A 
ATOM     50  F   UNL     1       6.706   2.187  -9.930  1.00  0.00    -0.206 F 
ATOM     51  C   UNL     1       5.115   1.485 -11.511  1.00  0.00     0.040 A 
ATOM     52  C   UNL     1       2.916   2.474 -11.518  1.00  0.00     0.040 A 
ATOM     53  F   UNL     1       2.376   4.135  -9.945  1.00  0.00    -0.206 F 
ATOM     54  C   UNL     1       3.835   1.575 -12.057  1.00  0.00     0.006 A 
ENDBRANCH  26  47
BRANCH  38  55
ATOM     55  C   UNL     1       7.689   9.356  -9.301  1.00  0.00     0.057 A 
ATOM     56  C   UNL     1       6.845  10.340  -9.827  1.00  0.00     0.134 A 
ATOM     57  C   UNL     1       9.015   9.324  -9.745  1.00  0.00     0.134 A 
ATOM     58  F   UNL     1       5.561  10.410  -9.444  1.00  0.00    -0.206 F 
ATOM     59  C   UNL     1       7.304  11.261 -10.769  1.00  0.00     0.040 A 
ATOM     60  C   UNL     1       9.486  10.241 -10.685  1.00  0.00     0.040 A 
ATOM     61  F   UNL     1       9.866   8.397  -9.280  1.00  0.00    -0.206 F 
ATOM     62  C   UNL     1       8.629  11.213 -11.199  1.00  0.00     0.006 A 
ENDBRANCH  38  55
ENDBRANCH  12  13
ENDBRANCH   5   7
ENDBRANCH   2   3
ENDBRANCH   1   2
BRANCH   1  63
ATOM     63  C   UNL     1       4.538  -1.445   3.423  1.00  0.00     0.118 C 
BRANCH  63  64
ATOM     64  N   UNL     1       5.038  -2.811   3.445  1.00  0.00    -0.352 N 
ATOM     65  C   UNL     1       5.770  -3.486   4.389  1.00  0.00     0.251 C 
ATOM     66  H   UNL     1       4.813  -3.342   2.646  1.00  0.00     0.163 HD
ATOM     67  O   UNL     1       6.234  -4.590   4.114  1.00  0.00    -0.269 OA
BRANCH  65  68
ATOM     68  C   UNL     1       6.028  -2.905   5.725  1.00  0.00     0.040 A 
ATOM     69  C   UNL     1       5.008  -2.302   6.476  1.00  0.00     0.016 A 
ATOM     70  C   UNL     1       7.312  -3.027   6.264  1.00  0.00     0.019 A 
ATOM     71  C   UNL     1       5.280  -1.735   7.729  1.00  0.00     0.027 A 
ATOM     72  C   UNL     1       7.555  -2.490   7.522  1.00  0.00    -0.022 A 
ATOM     73  C   UNL     1       6.555  -1.843   8.258  1.00  0.00     0.047 A 
ATOM     74  C   UNL     1       8.860  -2.501   8.252  1.00  0.00     0.059 C 
ATOM     75  N   UNL     1       7.100  -1.349   9.458  1.00  0.00    -0.306 N 
ATOM     76  C   UNL     1       8.536  -1.660   9.486  1.00  0.00     0.131 C 
BRANCH  75  77
ATOM     77  C   UNL     1       6.567  -0.564  10.473  1.00  0.00     0.276 C 
ATOM     78  O   UNL     1       7.312   0.002  11.275  1.00  0.00    -0.267 OA
BRANCH  77  79
ATOM     79  C   UNL     1       5.148  -0.382  10.576  1.00  0.00     0.123 A 
ATOM     80  C   UNL     1       4.111  -1.272  10.779  1.00  0.00     0.055 A 
ATOM     81  N   UNL     1       4.570   0.858  10.617  1.00  0.00    -0.273 N 
ATOM     82  C   UNL     1       2.953  -0.473  10.829  1.00  0.00     0.135 A 
ATOM     83  N   UNL     1       3.227   0.825  10.692  1.00  0.00    -0.183 NA
ATOM     84  H   UNL     1       5.088   1.694  10.595  1.00  0.00     0.190 HD
ENDBRANCH  77  79
ENDBRANCH  75  77
ENDBRANCH  65  68
ENDBRANCH  63  64
ENDBRANCH   1  63
TORSDOF 12
