REMARK SMILES O=C(COc1ccc(C(=O)NCCCNC(=O)c2ccc(-c3c4nc(c(-c5c(F)cccc5F)c5ccc([nH]5)c(-c5c(F)cccc5F)c5nc(c(-c6c(F)cccc6F)c6ccc3[nH]6)C=C5)C=C4)cc2)nc1)Nc1ccccc1F
REMARK SMILES IDX 12 1 11 2 9 3 10 4 8 6 5 7 6 8 73 9 7 10 72 11 4 12 3 13
REMARK SMILES IDX 2 14 1 15 74 16 75 18 76 19 80 20 77 21 79 22 81 23 78 24
REMARK SMILES IDX 13 25 14 26 15 27 16 28 17 30 18 31 19 32 71 33 20 34 70 35
REMARK SMILES IDX 21 36 22 37 23 38 64 39 24 40 69 41 63 42 65 43 25 44 68 45
REMARK SMILES IDX 62 46 61 47 26 49 52 50 35 51 51 52 36 53 39 54 50 55 66 56
REMARK SMILES IDX 37 57 38 58 49 60 67 61 40 62 27 63 28 64 33 65 29 66 30 67
REMARK SMILES IDX 32 68 34 69 31 70 53 71 54 72 59 73 55 74 56 75 58 76 60 77
REMARK SMILES IDX 57 78 41 79 42 80 47 81 43 82 44 83 46 84 48 85 45 86
REMARK H PARENT 11 5 74 17 15 29 65 48 39 59
REMARK Flexibility Score: inf
ROOT
ATOM      1  C   UNL     1      -0.383   2.428  -5.310  1.00  0.00     0.118 C 
ENDROOT
BRANCH   1   2
ATOM      2  N   UNL     1       0.537   1.936  -6.321  1.00  0.00    -0.351 N 
ATOM      3  C   UNL     1       1.662   1.139  -6.231  1.00  0.00     0.269 C 
ATOM      4  O   UNL     1       2.176   0.780  -7.291  1.00  0.00    -0.268 OA
ATOM      5  H   UNL     1       0.320   2.222  -7.238  1.00  0.00     0.163 HD
BRANCH   3   6
ATOM      6  C   UNL     1       2.261   0.714  -4.919  1.00  0.00     0.128 A 
ATOM      7  C   UNL     1       3.470  -0.144  -2.598  1.00  0.00     0.138 A 
ATOM      8  C   UNL     1       2.866   1.103  -2.632  1.00  0.00     0.050 A 
ATOM      9  C   UNL     1       3.488  -0.889  -3.767  1.00  0.00     0.158 A 
ATOM     10  C   UNL     1       2.262   1.542  -3.805  1.00  0.00     0.038 A 
ATOM     11  N   UNL     1       2.886  -0.495  -4.916  1.00  0.00    -0.247 NA
BRANCH   7  12
ATOM     12  O   UNL     1       4.123  -0.562  -1.473  1.00  0.00    -0.482 OA
BRANCH  12  13
ATOM     13  C   UNL     1       3.237  -1.238  -0.572  1.00  0.00     0.329 C 
BRANCH  13  14
ATOM     14  C   UNL     1       2.327  -0.305   0.240  1.00  0.00     0.262 C 
ATOM     15  O   UNL     1       1.142  -0.571   0.402  1.00  0.00    -0.271 OA
ATOM     16  N   UNL     1       2.992   0.837   0.666  1.00  0.00    -0.321 N 
ATOM     17  H   UNL     1       3.961   0.878   0.493  1.00  0.00     0.170 HD
BRANCH  16  18
ATOM     18  C   UNL     1       2.415   1.945   1.324  1.00  0.00     0.077 A 
ATOM     19  C   UNL     1       3.045   3.185   1.136  1.00  0.00     0.029 A 
ATOM     20  C   UNL     1       1.263   1.899   2.118  1.00  0.00     0.146 A 
ATOM     21  C   UNL     1       2.495   4.354   1.672  1.00  0.00     0.002 A 
ATOM     22  C   UNL     1       0.721   3.063   2.663  1.00  0.00     0.041 A 
ATOM     23  F   UNL     1       0.688   0.738   2.455  1.00  0.00    -0.205 F 
ATOM     24  C   UNL     1       1.327   4.295   2.429  1.00  0.00     0.003 A 
ENDBRANCH  16  18
ENDBRANCH  13  14
ENDBRANCH  12  13
ENDBRANCH   7  12
ENDBRANCH   3   6
ENDBRANCH   1   2
BRANCH   1  25
ATOM     25  C   UNL     1      -0.139   3.903  -4.986  1.00  0.00     0.042 C 
BRANCH  25  26
ATOM     26  C   UNL     1      -0.644   4.869  -6.054  1.00  0.00     0.118 C 
BRANCH  26  27
ATOM     27  N   UNL     1      -2.095   4.946  -6.081  1.00  0.00    -0.352 N 
ATOM     28  C   UNL     1      -2.933   6.016  -5.885  1.00  0.00     0.251 C 
ATOM     29  H   UNL     1      -2.551   4.094  -6.270  1.00  0.00     0.163 HD
ATOM     30  O   UNL     1      -4.136   5.815  -5.741  1.00  0.00    -0.269 OA
BRANCH  28  31
ATOM     31  C   UNL     1      -2.415   7.403  -5.835  1.00  0.00     0.039 A 
ATOM     32  C   UNL     1      -2.994   8.299  -4.930  1.00  0.00     0.014 A 
ATOM     33  C   UNL     1      -1.423   7.850  -6.712  1.00  0.00     0.014 A 
ATOM     34  C   UNL     1      -2.549   9.623  -4.871  1.00  0.00     0.010 A 
ATOM     35  C   UNL     1      -0.933   9.152  -6.608  1.00  0.00     0.010 A 
ATOM     36  C   UNL     1      -1.496  10.054  -5.693  1.00  0.00    -0.014 A 
BRANCH  36  37
ATOM     37  C   UNL     1      -0.981  11.445  -5.615  1.00  0.00     0.031 A 
ATOM     38  C   UNL     1      -1.131  12.377  -6.787  1.00  0.00     0.074 A 
ATOM     39  C   UNL     1      -0.325  11.852  -4.511  1.00  0.00     0.049 A 
ATOM     40  N   UNL     1      -0.675  13.594  -6.939  1.00  0.00    -0.248 NA
ATOM     41  C   UNL     1      -1.871  11.863  -7.950  1.00  0.00     0.031 C 
ATOM     42  C   UNL     1      -0.081  11.034  -3.322  1.00  0.00     0.029 A 
ATOM     43  N   UNL     1       0.268  13.054  -4.215  1.00  0.00    -0.354 N 
ATOM     44  C   UNL     1      -1.055  13.984  -8.217  1.00  0.00     0.074 A 
ATOM     45  C   UNL     1      -1.743  12.860  -8.815  1.00  0.00     0.031 C 
ATOM     46  C   UNL     1       0.596  11.762  -2.419  1.00  0.00     0.029 A 
ATOM     47  C   UNL     1       0.865  13.083  -2.978  1.00  0.00     0.049 A 
ATOM     48  H   UNL     1       0.266  13.822  -4.830  1.00  0.00     0.167 HD
ATOM     49  C   UNL     1      -0.867  15.177  -8.831  1.00  0.00     0.037 A 
ATOM     50  C   UNL     1       1.559  14.061  -2.366  1.00  0.00     0.037 A 
ATOM     51  C   UNL     1      -0.210  16.306  -8.225  1.00  0.00     0.049 A 
ATOM     52  C   UNL     1       1.754  15.376  -3.068  1.00  0.00     0.074 A 
ATOM     53  C   UNL     1      -0.021  17.575  -8.745  1.00  0.00     0.029 A 
ATOM     54  N   UNL     1       0.363  16.302  -6.963  1.00  0.00    -0.354 N 
ATOM     55  N   UNL     1       1.341  15.747  -4.256  1.00  0.00    -0.248 NA
ATOM     56  C   UNL     1       2.507  16.409  -2.344  1.00  0.00     0.031 C 
ATOM     57  C   UNL     1       0.697  18.329  -7.810  1.00  0.00     0.029 A 
ATOM     58  C   UNL     1       0.920  17.541  -6.692  1.00  0.00     0.049 A 
ATOM     59  H   UNL     1       0.372  15.532  -6.349  1.00  0.00     0.167 HD
ATOM     60  C   UNL     1       1.762  17.061  -4.411  1.00  0.00     0.074 A 
ATOM     61  C   UNL     1       2.450  17.427  -3.190  1.00  0.00     0.031 C 
ATOM     62  C   UNL     1       1.595  17.890  -5.469  1.00  0.00     0.037 A 
BRANCH  49  63
ATOM     63  C   UNL     1      -1.385  15.326 -10.232  1.00  0.00     0.057 A 
ATOM     64  C   UNL     1      -2.756  15.417 -10.505  1.00  0.00     0.134 A 
ATOM     65  C   UNL     1      -0.502  15.421 -11.315  1.00  0.00     0.134 A 
ATOM     66  F   UNL     1      -3.654  15.322  -9.512  1.00  0.00    -0.206 F 
ATOM     67  C   UNL     1      -3.232  15.573 -11.807  1.00  0.00     0.040 A 
ATOM     68  C   UNL     1      -0.966  15.602 -12.620  1.00  0.00     0.040 A 
ATOM     69  F   UNL     1       0.823  15.349 -11.123  1.00  0.00    -0.206 F 
ATOM     70  C   UNL     1      -2.335  15.673 -12.869  1.00  0.00     0.006 A 
ENDBRANCH  49  63
BRANCH  50  71
ATOM     71  C   UNL     1       2.109  13.843  -1.005  1.00  0.00     0.057 A 
ATOM     72  C   UNL     1       1.565  14.501   0.105  1.00  0.00     0.134 A 
ATOM     73  C   UNL     1       3.192  12.986  -0.781  1.00  0.00     0.134 A 
ATOM     74  F   UNL     1       0.537  15.348  -0.050  1.00  0.00    -0.206 F 
ATOM     75  C   UNL     1       2.091  14.329   1.386  1.00  0.00     0.040 A 
ATOM     76  C   UNL     1       3.714  12.788   0.498  1.00  0.00     0.040 A 
ATOM     77  F   UNL     1       3.753  12.321  -1.802  1.00  0.00    -0.206 F 
ATOM     78  C   UNL     1       3.167  13.467   1.585  1.00  0.00     0.006 A 
ENDBRANCH  50  71
BRANCH  62  79
ATOM     79  C   UNL     1       2.138  19.282  -5.341  1.00  0.00     0.057 A 
ATOM     80  C   UNL     1       3.511  19.546  -5.408  1.00  0.00     0.134 A 
ATOM     81  C   UNL     1       1.274  20.373  -5.183  1.00  0.00     0.134 A 
ATOM     82  F   UNL     1       4.391  18.542  -5.544  1.00  0.00    -0.206 F 
ATOM     83  C   UNL     1       4.008  20.846  -5.303  1.00  0.00     0.040 A 
ATOM     84  C   UNL     1       1.757  21.679  -5.100  1.00  0.00     0.040 A 
ATOM     85  F   UNL     1      -0.053  20.187  -5.117  1.00  0.00    -0.206 F 
ATOM     86  C   UNL     1       3.129  21.918  -5.155  1.00  0.00     0.006 A 
ENDBRANCH  62  79
ENDBRANCH  36  37
ENDBRANCH  28  31
ENDBRANCH  26  27
ENDBRANCH  25  26
ENDBRANCH   1  25
TORSDOF 14
