REMARK SMILES Cc1ccccc1N[C@H](C(=O)NCCCNC(=O)c1ccc(-c2c3nc(c(-c4c(F)cccc4F)c4ccc([nH]4)c(-c4c(F)cccc4F)c4nc(c(-c5c(F)cccc5F)c5ccc2[nH]5)C=C4)C=C3)cc1)c1ccccc1
REMARK SMILES IDX 14 1 13 2 12 3 10 4 11 5 9 7 8 8 7 10 1 11 2 12 3 13 4 14
REMARK SMILES IDX 6 15 5 16 73 17 74 18 78 19 75 20 77 21 76 22 15 23 16 24
REMARK SMILES IDX 17 25 18 27 19 28 20 29 72 30 21 31 71 32 22 33 23 34 24 35
REMARK SMILES IDX 65 36 25 37 70 38 64 39 66 40 26 41 69 42 63 43 62 44 27 46
REMARK SMILES IDX 53 47 36 48 52 49 37 50 40 51 51 52 67 53 38 54 39 55 50 57
REMARK SMILES IDX 68 58 41 59 28 60 29 61 34 62 30 63 31 64 33 65 35 66 32 67
REMARK SMILES IDX 54 68 55 69 60 70 56 71 57 72 59 73 61 74 58 75 42 76 43 77
REMARK SMILES IDX 48 78 44 79 45 80 47 81 49 82 46 83
REMARK H PARENT 12 6 8 9 16 26 66 45 40 56
REMARK Flexibility Score: inf
ROOT
ATOM      1  C   UNL     1       1.787   4.187   3.412  1.00  0.00     0.042 C 
ENDROOT
BRANCH   1   2
ATOM      2  C   UNL     1       2.082   4.160   1.925  1.00  0.00     0.117 C 
BRANCH   2   3
ATOM      3  N   UNL     1       1.616   2.947   1.274  1.00  0.00    -0.354 N 
ATOM      4  C   UNL     1       0.812   2.863   0.163  1.00  0.00     0.247 C 
ATOM      5  O   UNL     1       0.611   1.746  -0.323  1.00  0.00    -0.272 OA
ATOM      6  H   UNL     1       1.907   2.095   1.672  1.00  0.00     0.163 HD
BRANCH   4   7
ATOM      7  C   UNL     1       0.127   4.142  -0.415  1.00  0.00     0.200 C 
BRANCH   7   8
ATOM      8  N   UNL     1      -0.945   4.511   0.549  1.00  0.00    -0.370 N 
ATOM      9  H   UNL     1      -1.720   3.911   0.453  1.00  0.00     0.161 HD
BRANCH   8  10
ATOM     10  C   UNL     1      -1.173   5.443   1.535  1.00  0.00     0.038 A 
ATOM     11  C   UNL     1      -2.555   3.763   2.925  1.00  0.00     0.046 C 
ATOM     12  C   UNL     1      -2.050   5.151   2.610  1.00  0.00    -0.028 A 
ATOM     13  C   UNL     1      -2.478   6.169   3.493  1.00  0.00     0.005 A 
ATOM     14  C   UNL     1      -1.988   7.462   3.384  1.00  0.00     0.000 A 
ATOM     15  C   UNL     1      -0.601   6.718   1.557  1.00  0.00     0.026 A 
ATOM     16  C   UNL     1      -1.016   7.725   2.438  1.00  0.00     0.002 A 
ENDBRANCH   8  10
ENDBRANCH   7   8
BRANCH   7  17
ATOM     17  C   UNL     1       1.095   5.199  -0.950  1.00  0.00    -0.016 A 
ATOM     18  C   UNL     1       0.646   6.458  -1.367  1.00  0.00     0.006 A 
ATOM     19  C   UNL     1       2.479   4.945  -1.061  1.00  0.00     0.006 A 
ATOM     20  C   UNL     1       1.556   7.493  -1.612  1.00  0.00     0.000 A 
ATOM     21  C   UNL     1       3.390   5.972  -1.309  1.00  0.00     0.000 A 
ATOM     22  C   UNL     1       2.927   7.260  -1.538  1.00  0.00     0.000 A 
ENDBRANCH   7  17
ENDBRANCH   4   7
ENDBRANCH   2   3
ENDBRANCH   1   2
BRANCH   1  23
ATOM     23  C   UNL     1       3.074   4.078   4.207  1.00  0.00     0.118 C 
BRANCH  23  24
ATOM     24  N   UNL     1       3.877   5.290   4.240  1.00  0.00    -0.352 N 
ATOM     25  C   UNL     1       5.210   5.471   4.640  1.00  0.00     0.251 C 
ATOM     26  H   UNL     1       3.416   6.106   3.938  1.00  0.00     0.163 HD
ATOM     27  O   UNL     1       5.705   6.581   4.621  1.00  0.00    -0.269 OA
BRANCH  25  28
ATOM     28  C   UNL     1       6.043   4.279   4.933  1.00  0.00     0.039 A 
ATOM     29  C   UNL     1       7.336   4.236   4.396  1.00  0.00     0.014 A 
ATOM     30  C   UNL     1       5.473   3.128   5.457  1.00  0.00     0.014 A 
ATOM     31  C   UNL     1       7.910   3.000   4.106  1.00  0.00     0.010 A 
ATOM     32  C   UNL     1       5.951   1.914   5.016  1.00  0.00     0.010 A 
ATOM     33  C   UNL     1       7.140   1.853   4.287  1.00  0.00    -0.014 A 
BRANCH  33  34
ATOM     34  C   UNL     1       7.431   0.574   3.649  1.00  0.00     0.031 A 
ATOM     35  C   UNL     1       7.782  -0.601   4.476  1.00  0.00     0.074 A 
ATOM     36  C   UNL     1       7.237   0.443   2.317  1.00  0.00     0.049 A 
ATOM     37  N   UNL     1       8.394  -1.648   4.040  1.00  0.00    -0.248 NA
ATOM     38  C   UNL     1       7.490  -0.666   5.903  1.00  0.00     0.031 C 
ATOM     39  C   UNL     1       7.156  -0.798   1.550  1.00  0.00     0.029 A 
ATOM     40  N   UNL     1       7.251   1.453   1.343  1.00  0.00    -0.354 N 
ATOM     41  C   UNL     1       8.344  -2.611   5.025  1.00  0.00     0.074 A 
ATOM     42  C   UNL     1       7.806  -1.933   6.179  1.00  0.00     0.031 C 
ATOM     43  C   UNL     1       7.403  -0.526   0.259  1.00  0.00     0.029 A 
ATOM     44  C   UNL     1       7.801   0.870   0.180  1.00  0.00     0.049 A 
ATOM     45  H   UNL     1       6.941   2.381   1.449  1.00  0.00     0.167 HD
ATOM     46  C   UNL     1       8.648  -3.904   4.713  1.00  0.00     0.037 A 
ATOM     47  C   UNL     1       8.987   1.307  -0.334  1.00  0.00     0.037 A 
ATOM     48  C   UNL     1       9.096  -4.010   3.325  1.00  0.00     0.049 A 
ATOM     49  C   UNL     1      10.078   0.261  -0.335  1.00  0.00     0.074 A 
ATOM     50  C   UNL     1       8.434  -4.346   2.155  1.00  0.00     0.029 A 
ATOM     51  N   UNL     1      10.298  -3.425   2.942  1.00  0.00    -0.354 N 
ATOM     52  N   UNL     1      10.037  -0.838   0.367  1.00  0.00    -0.248 NA
ATOM     53  C   UNL     1      11.321   0.391  -1.094  1.00  0.00     0.031 C 
ATOM     54  C   UNL     1       9.210  -3.883   1.063  1.00  0.00     0.029 A 
ATOM     55  C   UNL     1      10.355  -3.291   1.567  1.00  0.00     0.049 A 
ATOM     56  H   UNL     1      11.010  -3.145   3.563  1.00  0.00     0.167 HD
ATOM     57  C   UNL     1      11.219  -1.514   0.225  1.00  0.00     0.074 A 
ATOM     58  C   UNL     1      11.977  -0.722  -0.725  1.00  0.00     0.031 C 
ATOM     59  C   UNL     1      11.493  -2.653   0.923  1.00  0.00     0.037 A 
BRANCH  46  60
ATOM     60  C   UNL     1       8.245  -5.094   5.561  1.00  0.00     0.057 A 
ATOM     61  C   UNL     1       7.980  -6.345   4.967  1.00  0.00     0.134 A 
ATOM     62  C   UNL     1       8.032  -5.068   6.950  1.00  0.00     0.134 A 
ATOM     63  F   UNL     1       8.249  -6.584   3.677  1.00  0.00    -0.206 F 
ATOM     64  C   UNL     1       7.423  -7.424   5.667  1.00  0.00     0.040 A 
ATOM     65  C   UNL     1       7.422  -6.118   7.654  1.00  0.00     0.040 A 
ATOM     66  F   UNL     1       8.466  -4.054   7.708  1.00  0.00    -0.206 F 
ATOM     67  C   UNL     1       7.098  -7.299   7.008  1.00  0.00     0.006 A 
ENDBRANCH  46  60
BRANCH  47  68
ATOM     68  C   UNL     1       9.212   2.763  -0.138  1.00  0.00     0.057 A 
ATOM     69  C   UNL     1       8.387   3.671  -0.824  1.00  0.00     0.134 A 
ATOM     70  C   UNL     1       9.926   3.255   0.959  1.00  0.00     0.134 A 
ATOM     71  F   UNL     1       7.677   3.264  -1.888  1.00  0.00    -0.206 F 
ATOM     72  C   UNL     1       8.191   4.978  -0.371  1.00  0.00     0.040 A 
ATOM     73  C   UNL     1       9.741   4.565   1.418  1.00  0.00     0.040 A 
ATOM     74  F   UNL     1      10.714   2.444   1.679  1.00  0.00    -0.206 F 
ATOM     75  C   UNL     1       8.842   5.416   0.777  1.00  0.00     0.006 A 
ENDBRANCH  47  68
BRANCH  59  76
ATOM     76  C   UNL     1      12.846  -3.306   1.002  1.00  0.00     0.057 A 
ATOM     77  C   UNL     1      14.055  -2.595   1.000  1.00  0.00     0.134 A 
ATOM     78  C   UNL     1      12.958  -4.692   1.239  1.00  0.00     0.134 A 
ATOM     79  F   UNL     1      14.081  -1.260   0.891  1.00  0.00    -0.206 F 
ATOM     80  C   UNL     1      15.295  -3.227   1.162  1.00  0.00     0.040 A 
ATOM     81  C   UNL     1      14.185  -5.325   1.451  1.00  0.00     0.040 A 
ATOM     82  F   UNL     1      11.875  -5.483   1.295  1.00  0.00    -0.206 F 
ATOM     83  C   UNL     1      15.362  -4.594   1.399  1.00  0.00     0.006 A 
ENDBRANCH  59  76
ENDBRANCH  33  34
ENDBRANCH  25  28
ENDBRANCH  23  24
ENDBRANCH   1  23
TORSDOF 13
