REMARK SMILES [NH3+]Cc1c(-c2ccccc2)c(C(=O)NCCCNC(=O)c2ccc(-c3c4nc(c(-c5c(F)cccc5F)c5ccc([nH]5)c(-c5c(F)cccc5F)c5nc(c(-c6c(F)cccc6F)c6ccc3[nH]6)C=C5)C=C4)cc2)c2ccccn12
REMARK SMILES IDX 16 1 15 2 14 3 12 4 13 5 11 7 3 8 4 9 80 10 75 11 79 12
REMARK SMILES IDX 76 13 78 14 77 15 2 16 1 17 5 21 6 22 10 23 7 24 9 25 8 26
REMARK SMILES IDX 17 27 18 28 19 29 20 31 21 32 22 33 74 34 23 35 73 36 24 37
REMARK SMILES IDX 25 38 26 39 67 40 27 41 72 42 66 43 68 44 28 45 71 46 65 47
REMARK SMILES IDX 64 48 29 50 55 51 38 52 54 53 39 54 42 55 53 56 69 57 40 58
REMARK SMILES IDX 41 59 52 61 70 62 43 63 30 64 31 65 36 66 32 67 33 68 35 69
REMARK SMILES IDX 37 70 34 71 56 72 57 73 62 74 58 75 59 76 61 77 63 78 60 79
REMARK SMILES IDX 44 80 45 81 50 82 46 83 47 84 49 85 51 86 48 87
REMARK H PARENT 14 6 1 18 1 19 1 20 18 30 68 49 42 60
REMARK Flexibility Score: inf
ROOT
ATOM      1  C   UNL     1       4.061   3.736  -6.670  1.00  0.00     0.042 C 
ENDROOT
BRANCH   1   2
ATOM      2  C   UNL     1       2.693   3.386  -6.107  1.00  0.00     0.118 C 
BRANCH   2   3
ATOM      3  N   UNL     1       2.362   1.976  -6.115  1.00  0.00    -0.352 N 
ATOM      4  C   UNL     1       1.689   1.180  -5.215  1.00  0.00     0.254 C 
ATOM      5  O   UNL     1       1.509   0.017  -5.575  1.00  0.00    -0.269 OA
ATOM      6  H   UNL     1       2.679   1.496  -6.914  1.00  0.00     0.163 HD
BRANCH   4   7
ATOM      7  C   UNL     1       1.281   1.653  -3.886  1.00  0.00     0.073 A 
ATOM      8  C   UNL     1       0.840   1.618  -1.613  1.00  0.00     0.086 A 
ATOM      9  C   UNL     1       1.174   0.820  -2.709  1.00  0.00     0.022 A 
ATOM     10  N   UNL     1       0.738   2.918  -2.094  1.00  0.00    -0.314 N 
ATOM     11  C   UNL     1       0.795   2.892  -3.489  1.00  0.00     0.059 A 
ATOM     12  C   UNL     1       0.580   4.116  -1.381  1.00  0.00     0.092 A 
ATOM     13  C   UNL     1       0.398   4.091  -4.162  1.00  0.00     0.027 A 
ATOM     14  C   UNL     1       0.395   5.272  -2.036  1.00  0.00     0.018 A 
ATOM     15  C   UNL     1       0.250   5.238  -3.475  1.00  0.00     0.004 A 
BRANCH   8  16
ATOM     16  C   UNL     1       0.527   1.305  -0.179  1.00  0.00     0.315 C 
BRANCH  16  17
ATOM     17  N   UNL     1       1.243   0.160   0.357  1.00  0.00    -0.353 N 
ATOM     18  H   UNL     1       0.975   0.016   1.331  1.00  0.00     0.344 HD
ATOM     19  H   UNL     1       2.247   0.331   0.303  1.00  0.00     0.344 HD
ATOM     20  H   UNL     1       1.010  -0.672  -0.186  1.00  0.00     0.344 HD
ENDBRANCH  16  17
ENDBRANCH   8  16
BRANCH   9  21
ATOM     21  C   UNL     1       1.324  -0.625  -2.629  1.00  0.00    -0.016 A 
ATOM     22  C   UNL     1       2.591  -1.215  -2.680  1.00  0.00     0.009 A 
ATOM     23  C   UNL     1       0.187  -1.436  -2.501  1.00  0.00     0.009 A 
ATOM     24  C   UNL     1       2.719  -2.604  -2.591  1.00  0.00     0.001 A 
ATOM     25  C   UNL     1       0.319  -2.822  -2.405  1.00  0.00     0.001 A 
ATOM     26  C   UNL     1       1.585  -3.405  -2.450  1.00  0.00     0.000 A 
ENDBRANCH   9  21
ENDBRANCH   4   7
ENDBRANCH   2   3
ENDBRANCH   1   2
BRANCH   1  27
ATOM     27  C   UNL     1       4.331   3.273  -8.094  1.00  0.00     0.118 C 
BRANCH  27  28
ATOM     28  N   UNL     1       3.489   3.907  -9.099  1.00  0.00    -0.352 N 
ATOM     29  C   UNL     1       3.729   4.917 -10.005  1.00  0.00     0.251 C 
ATOM     30  H   UNL     1       2.574   3.545  -9.139  1.00  0.00     0.163 HD
ATOM     31  O   UNL     1       2.800   5.345 -10.679  1.00  0.00    -0.269 OA
BRANCH  29  32
ATOM     32  C   UNL     1       5.073   5.528 -10.149  1.00  0.00     0.039 A 
ATOM     33  C   UNL     1       5.165   6.907 -10.375  1.00  0.00     0.014 A 
ATOM     34  C   UNL     1       6.240   4.770 -10.094  1.00  0.00     0.014 A 
ATOM     35  C   UNL     1       6.418   7.527 -10.441  1.00  0.00     0.010 A 
ATOM     36  C   UNL     1       7.481   5.399 -10.040  1.00  0.00     0.010 A 
ATOM     37  C   UNL     1       7.588   6.786 -10.217  1.00  0.00    -0.014 A 
BRANCH  37  38
ATOM     38  C   UNL     1       8.932   7.424 -10.184  1.00  0.00     0.031 A 
ATOM     39  C   UNL     1      10.002   6.977 -11.147  1.00  0.00     0.074 A 
ATOM     40  C   UNL     1       9.219   8.345  -9.242  1.00  0.00     0.049 A 
ATOM     41  N   UNL     1      11.270   7.303 -11.188  1.00  0.00    -0.248 NA
ATOM     42  C   UNL     1       9.603   6.005 -12.179  1.00  0.00     0.031 C 
ATOM     43  C   UNL     1       8.293   8.832  -8.217  1.00  0.00     0.029 A 
ATOM     44  N   UNL     1      10.383   9.026  -8.981  1.00  0.00    -0.354 N 
ATOM     45  C   UNL     1      11.817   6.565 -12.230  1.00  0.00     0.074 A 
ATOM     46  C   UNL     1      10.763   5.726 -12.755  1.00  0.00     0.031 C 
ATOM     47  C   UNL     1       8.915   9.748  -7.457  1.00  0.00     0.029 A 
ATOM     48  C   UNL     1      10.295   9.883  -7.909  1.00  0.00     0.049 A 
ATOM     49  H   UNL     1      11.204   8.912  -9.513  1.00  0.00     0.167 HD
ATOM     50  C   UNL     1      13.075   6.603 -12.729  1.00  0.00     0.037 A 
ATOM     51  C   UNL     1      11.226  10.677  -7.347  1.00  0.00     0.037 A 
ATOM     52  C   UNL     1      14.115   7.466 -12.237  1.00  0.00     0.049 A 
ATOM     53  C   UNL     1      12.615  10.703  -7.925  1.00  0.00     0.074 A 
ATOM     54  C   UNL     1      15.412   7.606 -12.700  1.00  0.00     0.029 A 
ATOM     55  N   UNL     1      13.970   8.349 -11.179  1.00  0.00    -0.354 N 
ATOM     56  N   UNL     1      13.102  10.030  -8.938  1.00  0.00    -0.248 NA
ATOM     57  C   UNL     1      13.583  11.606  -7.284  1.00  0.00     0.031 C 
ATOM     58  C   UNL     1      16.059   8.557 -11.905  1.00  0.00     0.029 A 
ATOM     59  C   UNL     1      15.154   9.036 -10.973  1.00  0.00     0.049 A 
ATOM     60  H   UNL     1      13.147   8.470 -10.652  1.00  0.00     0.167 HD
ATOM     61  C   UNL     1      14.419  10.450  -9.076  1.00  0.00     0.074 A 
ATOM     62  C   UNL     1      14.650  11.448  -8.053  1.00  0.00     0.031 C 
ATOM     63  C   UNL     1      15.355  10.045  -9.967  1.00  0.00     0.037 A 
BRANCH  50  64
ATOM     64  C   UNL     1      13.389   5.706 -13.891  1.00  0.00     0.057 A 
ATOM     65  C   UNL     1      12.872   5.957 -15.169  1.00  0.00     0.134 A 
ATOM     66  C   UNL     1      14.254   4.614 -13.746  1.00  0.00     0.134 A 
ATOM     67  F   UNL     1      12.027   6.979 -15.371  1.00  0.00    -0.206 F 
ATOM     68  C   UNL     1      13.188   5.142 -16.257  1.00  0.00     0.040 A 
ATOM     69  C   UNL     1      14.598   3.808 -14.832  1.00  0.00     0.040 A 
ATOM     70  F   UNL     1      14.789   4.322 -12.551  1.00  0.00    -0.206 F 
ATOM     71  C   UNL     1      14.060   4.069 -16.092  1.00  0.00     0.006 A 
ENDBRANCH  50  64
BRANCH  51  72
ATOM     72  C   UNL     1      10.885  11.530  -6.178  1.00  0.00     0.057 A 
ATOM     73  C   UNL     1      10.843  12.925  -6.292  1.00  0.00     0.134 A 
ATOM     74  C   UNL     1      10.639  10.979  -4.916  1.00  0.00     0.134 A 
ATOM     75  F   UNL     1      11.089  13.514  -7.471  1.00  0.00    -0.206 F 
ATOM     76  C   UNL     1      10.602  13.743  -5.186  1.00  0.00     0.040 A 
ATOM     77  C   UNL     1      10.370  11.784  -3.807  1.00  0.00     0.040 A 
ATOM     78  F   UNL     1      10.656   9.650  -4.741  1.00  0.00    -0.206 F 
ATOM     79  C   UNL     1      10.363  13.171  -3.939  1.00  0.00     0.006 A 
ENDBRANCH  51  72
BRANCH  63  80
ATOM     80  C   UNL     1      16.695  10.716  -9.908  1.00  0.00     0.057 A 
ATOM     81  C   UNL     1      17.610  10.450  -8.883  1.00  0.00     0.134 A 
ATOM     82  C   UNL     1      17.086  11.609 -10.913  1.00  0.00     0.134 A 
ATOM     83  F   UNL     1      17.289   9.614  -7.884  1.00  0.00    -0.206 F 
ATOM     84  C   UNL     1      18.861  11.068  -8.847  1.00  0.00     0.040 A 
ATOM     85  C   UNL     1      18.343  12.213 -10.902  1.00  0.00     0.040 A 
ATOM     86  F   UNL     1      16.258  11.899 -11.928  1.00  0.00    -0.206 F 
ATOM     87  C   UNL     1      19.233  11.948  -9.863  1.00  0.00     0.006 A 
ENDBRANCH  63  80
ENDBRANCH  37  38
ENDBRANCH  29  32
ENDBRANCH  27  28
ENDBRANCH   1  27
TORSDOF 13
