REMARK SMILES Cc1ccc(NC(=O)C[C@H]2C(=O)NCCN2C(=O)CCC(=O)NCCCNC(=O)c2ccc(-c3c4nc(c(-c5c(F)cccc5F)c5ccc([nH]5)c(-c5c(F)cccc5F)c5nc(c(-c6c(F)cccc6F)c6ccc3[nH]6)C=C5)C=C4)cc2)c(C)c1
REMARK SMILES IDX 21 1 22 2 23 3 20 5 19 6 17 7 18 8 16 9 10 10 11 11 12 12
REMARK SMILES IDX 13 13 15 14 14 15 9 17 7 18 6 19 8 21 5 22 1 23 2 24 3 25
REMARK SMILES IDX 86 26 4 27 84 28 85 29 24 30 25 31 26 32 27 33 28 34 29 36
REMARK SMILES IDX 30 37 31 38 83 39 32 40 82 41 33 42 34 43 35 44 76 45 36 46
REMARK SMILES IDX 81 47 75 48 77 49 37 50 80 51 74 52 73 53 38 55 64 56 47 57
REMARK SMILES IDX 63 58 48 59 51 60 62 61 78 62 49 63 50 64 61 66 79 67 52 68
REMARK SMILES IDX 39 69 40 70 45 71 41 72 42 73 44 74 46 75 43 76 65 77 66 78
REMARK SMILES IDX 71 79 67 80 68 81 70 82 72 83 69 84 53 85 54 86 59 87 55 88
REMARK SMILES IDX 56 89 58 90 60 91 57 92
REMARK H PARENT 23 4 13 16 6 20 27 35 77 54 51 65
REMARK Flexibility Score: inf
ROOT
ATOM      1  C   UNL     1      -2.822   1.273  -1.064  1.00  0.00     0.220 C 
ATOM      2  O   UNL     1      -1.931   0.479  -1.377  1.00  0.00    -0.275 OA
ATOM      3  N   UNL     1      -2.604   2.122  -0.021  1.00  0.00    -0.356 N 
ATOM      4  H   UNL     1      -1.731   1.954   0.402  1.00  0.00     0.163 HD
ENDROOT
BRANCH   1   5
ATOM      5  C   UNL     1      -4.141   1.209  -1.738  1.00  0.00     0.110 C 
BRANCH   5   6
ATOM      6  C   UNL     1      -5.046   0.340  -0.896  1.00  0.00     0.110 C 
BRANCH   6   7
ATOM      7  C   UNL     1      -5.441   1.109   0.318  1.00  0.00     0.223 C 
ATOM      8  O   UNL     1      -6.374   1.916   0.180  1.00  0.00    -0.275 OA
BRANCH   7   9
ATOM      9  N   UNL     1      -4.742   1.004   1.534  1.00  0.00    -0.328 N 
ATOM     10  C   UNL     1      -3.462   0.184   1.871  1.00  0.00     0.183 C 
ATOM     11  C   UNL     1      -3.764  -0.703   3.118  1.00  0.00     0.243 C 
ATOM     12  O   UNL     1      -3.093  -1.694   3.400  1.00  0.00    -0.273 OA
ATOM     13  N   UNL     1      -4.763  -0.346   3.979  1.00  0.00    -0.353 N 
ATOM     14  C   UNL     1      -5.590   1.553   2.603  1.00  0.00     0.141 C 
ATOM     15  C   UNL     1      -5.550   0.855   3.935  1.00  0.00     0.137 C 
ATOM     16  H   UNL     1      -4.965  -0.978   4.706  1.00  0.00     0.163 HD
BRANCH  10  17
ATOM     17  C   UNL     1      -1.777   0.550   1.841  1.00  0.00     0.135 C 
BRANCH  17  18
ATOM     18  C   UNL     1      -0.547   1.675   2.001  1.00  0.00     0.227 C 
ATOM     19  N   UNL     1       0.034   2.724   1.296  1.00  0.00    -0.326 N 
ATOM     20  H   UNL     1       0.988   2.775   1.535  1.00  0.00     0.169 HD
ATOM     21  O   UNL     1       0.155   1.484   3.026  1.00  0.00    -0.275 OA
BRANCH  19  22
ATOM     22  C   UNL     1      -0.257   3.764   0.342  1.00  0.00     0.044 A 
ATOM     23  C   UNL     1      -2.887   6.340  -1.788  1.00  0.00     0.044 C 
ATOM     24  C   UNL     1      -1.675   5.671  -1.189  1.00  0.00    -0.051 A 
ATOM     25  C   UNL     1      -1.245   5.989   0.100  1.00  0.00     0.005 A 
ATOM     26  C   UNL     1      -1.110   4.545  -1.798  1.00  0.00     0.009 A 
ATOM     27  C   UNL     1      -0.474   5.064   0.833  1.00  0.00     0.026 A 
ATOM     28  C   UNL     1      -0.364   3.602  -1.046  1.00  0.00    -0.027 A 
ATOM     29  C   UNL     1       0.324   2.494  -1.785  1.00  0.00     0.046 C 
ENDBRANCH  19  22
ENDBRANCH  17  18
ENDBRANCH  10  17
ENDBRANCH   7   9
ENDBRANCH   6   7
ENDBRANCH   5   6
ENDBRANCH   1   5
BRANCH   3  30
ATOM     30  C   UNL     1      -3.325   3.227   0.646  1.00  0.00     0.117 C 
BRANCH  30  31
ATOM     31  C   UNL     1      -3.038   3.740   2.135  1.00  0.00     0.042 C 
BRANCH  31  32
ATOM     32  C   UNL     1      -2.957   2.998   3.501  1.00  0.00     0.118 C 
BRANCH  32  33
ATOM     33  N   UNL     1      -1.736   3.223   4.286  1.00  0.00    -0.352 N 
ATOM     34  C   UNL     1      -1.528   3.210   5.658  1.00  0.00     0.251 C 
ATOM     35  H   UNL     1      -0.932   3.414   3.750  1.00  0.00     0.163 HD
ATOM     36  O   UNL     1      -0.434   3.433   6.127  1.00  0.00    -0.269 OA
BRANCH  34  37
ATOM     37  C   UNL     1      -2.671   2.976   6.571  1.00  0.00     0.039 A 
ATOM     38  C   UNL     1      -2.988   3.953   7.514  1.00  0.00     0.014 A 
ATOM     39  C   UNL     1      -3.419   1.805   6.505  1.00  0.00     0.014 A 
ATOM     40  C   UNL     1      -4.143   3.818   8.293  1.00  0.00     0.010 A 
ATOM     41  C   UNL     1      -4.607   1.701   7.240  1.00  0.00     0.010 A 
ATOM     42  C   UNL     1      -5.007   2.725   8.112  1.00  0.00    -0.014 A 
BRANCH  42  43
ATOM     43  C   UNL     1      -6.341   2.687   8.782  1.00  0.00     0.031 A 
ATOM     44  C   UNL     1      -6.706   1.587   9.743  1.00  0.00     0.074 A 
ATOM     45  C   UNL     1      -7.263   3.627   8.486  1.00  0.00     0.049 A 
ATOM     46  N   UNL     1      -7.813   1.421  10.425  1.00  0.00    -0.248 NA
ATOM     47  C   UNL     1      -5.715   0.521   9.942  1.00  0.00     0.031 C 
ATOM     48  C   UNL     1      -7.085   4.716   7.521  1.00  0.00     0.029 A 
ATOM     49  N   UNL     1      -8.533   3.827   8.974  1.00  0.00    -0.354 N 
ATOM     50  C   UNL     1      -7.654   0.233  11.126  1.00  0.00     0.074 A 
ATOM     51  C   UNL     1      -6.371  -0.313  10.735  1.00  0.00     0.031 C 
ATOM     52  C   UNL     1      -8.175   5.499   7.534  1.00  0.00     0.029 A 
ATOM     53  C   UNL     1      -9.145   4.955   8.479  1.00  0.00     0.049 A 
ATOM     54  H   UNL     1      -8.964   3.219   9.617  1.00  0.00     0.167 HD
ATOM     55  C   UNL     1      -8.480  -0.341  12.035  1.00  0.00     0.037 A 
ATOM     56  C   UNL     1     -10.341   5.505   8.765  1.00  0.00     0.037 A 
ATOM     57  C   UNL     1      -9.744   0.206  12.456  1.00  0.00     0.049 A 
ATOM     58  C   UNL     1     -11.241   4.853   9.778  1.00  0.00     0.074 A 
ATOM     59  C   UNL     1     -10.608  -0.267  13.429  1.00  0.00     0.029 A 
ATOM     60  N   UNL     1     -10.328   1.345  11.925  1.00  0.00    -0.354 N 
ATOM     61  N   UNL     1     -11.033   3.779  10.498  1.00  0.00    -0.248 NA
ATOM     62  C   UNL     1     -12.542   5.496  10.019  1.00  0.00     0.031 C 
ATOM     63  C   UNL     1     -11.734   0.564  13.459  1.00  0.00     0.029 A 
ATOM     64  C   UNL     1     -11.553   1.577  12.532  1.00  0.00     0.049 A 
ATOM     65  H   UNL     1      -9.932   1.908  11.221  1.00  0.00     0.167 HD
ATOM     66  C   UNL     1     -12.159   3.634  11.298  1.00  0.00     0.074 A 
ATOM     67  C   UNL     1     -13.046   4.734  10.980  1.00  0.00     0.031 C 
ATOM     68  C   UNL     1     -12.430   2.675  12.216  1.00  0.00     0.037 A 
BRANCH  55  69
ATOM     69  C   UNL     1      -8.027  -1.635  12.647  1.00  0.00     0.057 A 
ATOM     70  C   UNL     1      -6.954  -1.689  13.547  1.00  0.00     0.134 A 
ATOM     71  C   UNL     1      -8.674  -2.839  12.342  1.00  0.00     0.134 A 
ATOM     72  F   UNL     1      -6.286  -0.573  13.875  1.00  0.00    -0.206 F 
ATOM     73  C   UNL     1      -6.515  -2.898  14.090  1.00  0.00     0.040 A 
ATOM     74  C   UNL     1      -8.263  -4.050  12.900  1.00  0.00     0.040 A 
ATOM     75  F   UNL     1      -9.716  -2.857  11.496  1.00  0.00    -0.206 F 
ATOM     76  C   UNL     1      -7.173  -4.083  13.768  1.00  0.00     0.006 A 
ENDBRANCH  55  69
BRANCH  56  77
ATOM     77  C   UNL     1     -10.742   6.784   8.127  1.00  0.00     0.057 A 
ATOM     78  C   UNL     1     -10.773   7.972   8.867  1.00  0.00     0.134 A 
ATOM     79  C   UNL     1     -11.106   6.854   6.778  1.00  0.00     0.134 A 
ATOM     80  F   UNL     1     -10.454   7.963  10.170  1.00  0.00    -0.206 F 
ATOM     81  C   UNL     1     -11.164   9.182   8.293  1.00  0.00     0.040 A 
ATOM     82  C   UNL     1     -11.480   8.062   6.185  1.00  0.00     0.040 A 
ATOM     83  F   UNL     1     -11.092   5.751   6.015  1.00  0.00    -0.206 F 
ATOM     84  C   UNL     1     -11.514   9.230   6.945  1.00  0.00     0.006 A 
ENDBRANCH  56  77
BRANCH  68  85
ATOM     85  C   UNL     1     -13.725   2.784  12.966  1.00  0.00     0.057 A 
ATOM     86  C   UNL     1     -14.956   2.496  12.363  1.00  0.00     0.134 A 
ATOM     87  C   UNL     1     -13.738   3.149  14.319  1.00  0.00     0.134 A 
ATOM     88  F   UNL     1     -15.014   2.155  11.067  1.00  0.00    -0.206 F 
ATOM     89  C   UNL     1     -16.155   2.584  13.073  1.00  0.00     0.040 A 
ATOM     90  C   UNL     1     -14.928   3.219  15.045  1.00  0.00     0.040 A 
ATOM     91  F   UNL     1     -12.594   3.434  14.958  1.00  0.00    -0.206 F 
ATOM     92  C   UNL     1     -16.142   2.940  14.420  1.00  0.00     0.006 A 
ENDBRANCH  68  85
ENDBRANCH  42  43
ENDBRANCH  34  37
ENDBRANCH  32  33
ENDBRANCH  31  32
ENDBRANCH  30  31
ENDBRANCH   3  30
TORSDOF 16
