REMARK SMILES COc1cccc(CC2(CO)CCN(c3nc(C)ccc3C(=O)NCCCNC(=O)c3ccc(-c4c5nc(c(-c6c(F)cccc6F)c6ccc([nH]6)c(-c6c(F)cccc6F)c6nc(c(-c7c(F)cccc7F)c7ccc4[nH]7)C=C6)C=C5)cc3)CC2)c1
REMARK SMILES IDX 25 1 24 2 22 3 23 4 21 6 15 7 16 8 17 9 20 10 18 11 19 12
REMARK SMILES IDX 14 13 9 14 12 15 86 16 13 17 85 18 8 19 7 20 3 21 4 22 87 23
REMARK SMILES IDX 5 24 6 25 2 26 1 27 10 28 11 29 26 31 27 32 28 33 29 34
REMARK SMILES IDX 30 36 31 37 32 38 84 39 33 40 83 41 34 42 35 43 36 44 77 45
REMARK SMILES IDX 37 46 82 47 76 48 78 49 38 50 81 51 75 52 74 53 39 55 65 56
REMARK SMILES IDX 48 57 64 58 49 59 52 60 63 61 79 62 50 63 51 64 62 66 80 67
REMARK SMILES IDX 53 68 40 69 41 70 46 71 42 72 43 73 45 74 47 75 44 76 66 77
REMARK SMILES IDX 67 78 72 79 68 80 69 81 71 82 73 83 70 84 54 85 55 86 60 87
REMARK SMILES IDX 56 88 57 89 59 90 61 91 58 92
REMARK H PARENT 24 5 11 30 28 35 78 54 52 65
REMARK Flexibility Score: inf
ROOT
ATOM      1  C   UNL     1      -1.579   4.760  -5.606  1.00  0.00     0.118 C 
ENDROOT
BRANCH   1   2
ATOM      2  N   UNL     1      -0.621   4.278  -4.631  1.00  0.00    -0.352 N 
ATOM      3  C   UNL     1       0.619   4.660  -4.176  1.00  0.00     0.255 C 
ATOM      4  O   UNL     1       1.181   3.747  -3.577  1.00  0.00    -0.269 OA
ATOM      5  H   UNL     1      -0.941   3.465  -4.177  1.00  0.00     0.163 HD
BRANCH   3   6
ATOM      6  C   UNL     1       1.236   6.020  -4.364  1.00  0.00     0.082 A 
ATOM      7  C   UNL     1       2.142   6.617  -3.454  1.00  0.00     0.141 A 
ATOM      8  N   UNL     1       2.472   7.939  -3.590  1.00  0.00    -0.235 NA
ATOM      9  C   UNL     1       2.002   8.681  -4.611  1.00  0.00     0.040 A 
ATOM     10  C   UNL     1       0.853   6.793  -5.473  1.00  0.00     0.019 A 
ATOM     11  C   UNL     1       2.412  10.120  -4.640  1.00  0.00     0.067 C 
ATOM     12  C   UNL     1       1.219   8.130  -5.598  1.00  0.00     0.024 A 
BRANCH   7  13
ATOM     13  N   UNL     1       2.811   6.039  -2.393  1.00  0.00    -0.356 N 
ATOM     14  C   UNL     1       4.565   5.134  -0.191  1.00  0.00     0.001 C 
ATOM     15  C   UNL     1       3.927   6.546  -0.238  1.00  0.00     0.031 C 
ATOM     16  C   UNL     1       4.609   4.552  -1.622  1.00  0.00     0.031 C 
ATOM     17  C   UNL     1       2.678   6.709  -1.107  1.00  0.00     0.119 C 
ATOM     18  C   UNL     1       3.304   4.674  -2.398  1.00  0.00     0.119 C 
BRANCH  14  19
ATOM     19  C   UNL     1       3.896   4.178   0.863  1.00  0.00     0.045 C 
BRANCH  19  20
ATOM     20  C   UNL     1       2.450   3.766   0.714  1.00  0.00    -0.044 A 
ATOM     21  C   UNL     1       0.767   2.198  -0.074  1.00  0.00     0.119 A 
ATOM     22  C   UNL     1      -0.239   3.096   0.267  1.00  0.00     0.046 A 
ATOM     23  C   UNL     1       2.109   2.533   0.134  1.00  0.00     0.050 A 
ATOM     24  C   UNL     1       0.084   4.290   0.905  1.00  0.00     0.004 A 
ATOM     25  C   UNL     1       1.420   4.606   1.157  1.00  0.00     0.004 A 
BRANCH  21  26
ATOM     26  O   UNL     1       0.372   1.037  -0.683  1.00  0.00    -0.497 OA
ATOM     27  C   UNL     1       0.911  -0.121  -0.051  1.00  0.00     0.278 C 
ENDBRANCH  21  26
ENDBRANCH  19  20
ENDBRANCH  14  19
BRANCH  14  28
ATOM     28  C   UNL     1       6.052   5.287   0.256  1.00  0.00     0.163 C 
BRANCH  28  29
ATOM     29  O   UNL     1       6.168   5.850   1.558  1.00  0.00    -0.396 OA
ATOM     30  H   UNL     1       5.778   6.738   1.562  1.00  0.00     0.210 HD
ENDBRANCH  28  29
ENDBRANCH  14  28
ENDBRANCH   7  13
ENDBRANCH   3   6
ENDBRANCH   1   2
BRANCH   1  31
ATOM     31  C   UNL     1      -1.288   4.151  -6.982  1.00  0.00     0.042 C 
BRANCH  31  32
ATOM     32  C   UNL     1      -1.500   2.634  -7.034  1.00  0.00     0.118 C 
BRANCH  32  33
ATOM     33  N   UNL     1      -2.903   2.272  -6.882  1.00  0.00    -0.352 N 
ATOM     34  C   UNL     1      -3.791   1.764  -7.799  1.00  0.00     0.251 C 
ATOM     35  H   UNL     1      -3.273   2.413  -5.981  1.00  0.00     0.163 HD
ATOM     36  O   UNL     1      -4.992   1.771  -7.555  1.00  0.00    -0.269 OA
BRANCH  34  37
ATOM     37  C   UNL     1      -3.307   1.217  -9.084  1.00  0.00     0.039 A 
ATOM     38  C   UNL     1      -3.992   1.538 -10.260  1.00  0.00     0.014 A 
ATOM     39  C   UNL     1      -2.207   0.356  -9.127  1.00  0.00     0.014 A 
ATOM     40  C   UNL     1      -3.529   1.056 -11.487  1.00  0.00     0.010 A 
ATOM     41  C   UNL     1      -1.709  -0.072 -10.355  1.00  0.00     0.010 A 
ATOM     42  C   UNL     1      -2.360   0.281 -11.547  1.00  0.00    -0.014 A 
BRANCH  42  43
ATOM     43  C   UNL     1      -1.777  -0.142 -12.845  1.00  0.00     0.031 A 
ATOM     44  C   UNL     1      -1.679  -1.599 -13.197  1.00  0.00     0.074 A 
ATOM     45  C   UNL     1      -1.245   0.788 -13.662  1.00  0.00     0.049 A 
ATOM     46  N   UNL     1      -1.097  -2.164 -14.225  1.00  0.00    -0.248 NA
ATOM     47  C   UNL     1      -2.293  -2.548 -12.256  1.00  0.00     0.031 C 
ATOM     48  C   UNL     1      -1.233   2.230 -13.407  1.00  0.00     0.029 A 
ATOM     49  N   UNL     1      -0.587   0.657 -14.859  1.00  0.00    -0.354 N 
ATOM     50  C   UNL     1      -1.257  -3.532 -14.044  1.00  0.00     0.074 A 
ATOM     51  C   UNL     1      -1.954  -3.713 -12.789  1.00  0.00     0.031 C 
ATOM     52  C   UNL     1      -0.604   2.850 -14.417  1.00  0.00     0.029 A 
ATOM     53  C   UNL     1      -0.132   1.849 -15.369  1.00  0.00     0.049 A 
ATOM     54  H   UNL     1      -0.454  -0.208 -15.310  1.00  0.00     0.167 HD
ATOM     55  C   UNL     1      -0.873  -4.543 -14.860  1.00  0.00     0.037 A 
ATOM     56  C   UNL     1       0.602   2.107 -16.467  1.00  0.00     0.037 A 
ATOM     57  C   UNL     1      -0.197  -4.355 -16.118  1.00  0.00     0.049 A 
ATOM     58  C   UNL     1       1.026   0.969 -17.352  1.00  0.00     0.074 A 
ATOM     59  C   UNL     1       0.167  -5.309 -17.052  1.00  0.00     0.029 A 
ATOM     60  N   UNL     1       0.225  -3.129 -16.612  1.00  0.00    -0.354 N 
ATOM     61  N   UNL     1       0.800  -0.314 -17.209  1.00  0.00    -0.248 NA
ATOM     62  C   UNL     1       1.805   1.314 -18.549  1.00  0.00     0.031 C 
ATOM     63  C   UNL     1       0.852  -4.666 -18.089  1.00  0.00     0.029 A 
ATOM     64  C   UNL     1       0.873  -3.306 -17.824  1.00  0.00     0.049 A 
ATOM     65  H   UNL     1       0.085  -2.262 -16.167  1.00  0.00     0.167 HD
ATOM     66  C   UNL     1       1.391  -0.929 -18.305  1.00  0.00     0.074 A 
ATOM     67  C   UNL     1       1.971   0.125 -19.113  1.00  0.00     0.031 C 
ATOM     68  C   UNL     1       1.448  -2.247 -18.614  1.00  0.00     0.037 A 
BRANCH  55  69
ATOM     69  C   UNL     1      -1.170  -5.945 -14.413  1.00  0.00     0.057 A 
ATOM     70  C   UNL     1      -2.477  -6.449 -14.377  1.00  0.00     0.134 A 
ATOM     71  C   UNL     1      -0.135  -6.812 -14.042  1.00  0.00     0.134 A 
ATOM     72  F   UNL     1      -3.516  -5.669 -14.711  1.00  0.00    -0.206 F 
ATOM     73  C   UNL     1      -2.746  -7.754 -13.959  1.00  0.00     0.040 A 
ATOM     74  C   UNL     1      -0.389  -8.127 -13.648  1.00  0.00     0.040 A 
ATOM     75  F   UNL     1       1.141  -6.398 -14.061  1.00  0.00    -0.206 F 
ATOM     76  C   UNL     1      -1.699  -8.599 -13.598  1.00  0.00     0.006 A 
ENDBRANCH  55  69
BRANCH  56  77
ATOM     77  C   UNL     1       0.979   3.506 -16.790  1.00  0.00     0.057 A 
ATOM     78  C   UNL     1       0.402   4.178 -17.873  1.00  0.00     0.134 A 
ATOM     79  C   UNL     1       1.914   4.207 -16.019  1.00  0.00     0.134 A 
ATOM     80  F   UNL     1      -0.487   3.553 -18.658  1.00  0.00    -0.206 F 
ATOM     81  C   UNL     1       0.749   5.493 -18.186  1.00  0.00     0.040 A 
ATOM     82  C   UNL     1       2.253   5.530 -16.306  1.00  0.00     0.040 A 
ATOM     83  F   UNL     1       2.497   3.622 -14.962  1.00  0.00    -0.206 F 
ATOM     84  C   UNL     1       1.674   6.175 -17.397  1.00  0.00     0.006 A 
ENDBRANCH  56  77
BRANCH  68  85
ATOM     85  C   UNL     1       2.146  -2.624 -19.887  1.00  0.00     0.057 A 
ATOM     86  C   UNL     1       3.541  -2.576 -20.005  1.00  0.00     0.134 A 
ATOM     87  C   UNL     1       1.418  -3.087 -20.991  1.00  0.00     0.134 A 
ATOM     88  F   UNL     1       4.293  -2.127 -18.989  1.00  0.00    -0.206 F 
ATOM     89  C   UNL     1       4.186  -2.960 -21.181  1.00  0.00     0.040 A 
ATOM     90  C   UNL     1       2.054  -3.498 -22.163  1.00  0.00     0.040 A 
ATOM     91  F   UNL     1       0.080  -3.164 -20.941  1.00  0.00    -0.206 F 
ATOM     92  C   UNL     1       3.442  -3.431 -22.262  1.00  0.00     0.006 A 
ENDBRANCH  68  85
ENDBRANCH  42  43
ENDBRANCH  34  37
ENDBRANCH  32  33
ENDBRANCH  31  32
ENDBRANCH   1  31
TORSDOF 16
