REMARK SMILES CC1(C)CCCC[C@H]1NC(=O)Nc1ccccc1C(=O)NCCCNC(=O)c1ccc(-c2c3nc(c(-c4c(F)cccc4F)c4ccc([nH]4)c(-c4c(F)cccc4F)c4nc(c(-c5c(F)cccc5F)c5ccc2[nH]5)C=C4)C=C3)cc1
REMARK SMILES IDX 23 1 22 2 21 3 19 4 20 5 18 7 13 8 14 9 15 10 17 11 16 12
REMARK SMILES IDX 12 13 9 14 10 15 11 17 8 19 1 20 2 21 3 22 4 23 5 24 7 25
REMARK SMILES IDX 6 26 24 27 25 28 26 29 27 31 28 32 29 33 81 34 30 35 80 36
REMARK SMILES IDX 31 37 32 38 33 39 74 40 34 41 79 42 73 43 75 44 35 45 78 46
REMARK SMILES IDX 72 47 71 48 36 50 62 51 45 52 61 53 46 54 49 55 60 56 76 57
REMARK SMILES IDX 47 58 48 59 59 61 77 62 50 63 37 64 38 65 43 66 39 67 40 68
REMARK SMILES IDX 42 69 44 70 41 71 63 72 64 73 69 74 65 75 66 76 68 77 70 78
REMARK SMILES IDX 67 79 51 80 52 81 57 82 53 83 54 84 56 85 58 86 55 87
REMARK H PARENT 21 6 9 16 12 18 25 30 75 49 49 60
REMARK Flexibility Score: inf
ROOT
ATOM      1  C   UNL     1       0.747  -6.699   2.098  1.00  0.00     0.042 C 
ENDROOT
BRANCH   1   2
ATOM      2  C   UNL     1       0.447  -5.258   2.455  1.00  0.00     0.118 C 
BRANCH   2   3
ATOM      3  N   UNL     1      -0.796  -4.766   1.910  1.00  0.00    -0.352 N 
ATOM      4  C   UNL     1      -1.573  -3.701   2.274  1.00  0.00     0.253 C 
ATOM      5  O   UNL     1      -2.588  -3.512   1.597  1.00  0.00    -0.269 OA
ATOM      6  H   UNL     1      -1.143  -5.285   1.149  1.00  0.00     0.163 HD
BRANCH   4   7
ATOM      7  C   UNL     1      -1.340  -2.843   3.475  1.00  0.00     0.063 A 
ATOM      8  C   UNL     1      -0.134  -2.437   4.080  1.00  0.00     0.055 A 
ATOM      9  C   UNL     1      -0.197  -1.795   5.338  1.00  0.00     0.027 A 
ATOM     10  C   UNL     1      -1.409  -1.414   5.914  1.00  0.00     0.002 A 
ATOM     11  C   UNL     1      -2.558  -2.421   4.070  1.00  0.00     0.016 A 
ATOM     12  C   UNL     1      -2.594  -1.697   5.260  1.00  0.00     0.001 A 
BRANCH   8  13
ATOM     13  N   UNL     1       1.187  -2.527   3.594  1.00  0.00    -0.307 N 
ATOM     14  N   UNL     1       1.199  -1.899   1.306  1.00  0.00    -0.335 N 
ATOM     15  C   UNL     1       1.773  -2.461   2.382  1.00  0.00     0.319 C 
ATOM     16  H   UNL     1       1.517  -2.230   0.435  1.00  0.00     0.165 HD
ATOM     17  O   UNL     1       2.919  -2.904   2.265  1.00  0.00    -0.248 OA
ATOM     18  H   UNL     1       1.840  -2.675   4.315  1.00  0.00     0.171 HD
BRANCH  14  19
ATOM     19  C   UNL     1       0.177  -0.874   1.250  1.00  0.00     0.089 C 
ATOM     20  C   UNL     1       1.562   0.839  -0.102  1.00  0.00     0.013 C 
ATOM     21  C   UNL     1       0.754   0.572   1.185  1.00  0.00    -0.015 C 
ATOM     22  C   UNL     1       1.690   0.849   2.383  1.00  0.00     0.013 C 
ATOM     23  C   UNL     1      -0.456   1.537   1.279  1.00  0.00     0.008 C 
ATOM     24  C   UNL     1      -1.549   1.258   0.243  1.00  0.00     0.001 C 
ATOM     25  C   UNL     1      -0.810  -1.150   0.112  1.00  0.00     0.025 C 
ATOM     26  C   UNL     1      -1.997  -0.202   0.228  1.00  0.00     0.002 C 
ENDBRANCH  14  19
ENDBRANCH   8  13
ENDBRANCH   4   7
ENDBRANCH   2   3
ENDBRANCH   1   2
BRANCH   1  27
ATOM     27  C   UNL     1       1.089  -6.875   0.621  1.00  0.00     0.118 C 
BRANCH  27  28
ATOM     28  N   UNL     1       2.378  -6.305   0.225  1.00  0.00    -0.352 N 
ATOM     29  C   UNL     1       3.573  -6.900  -0.128  1.00  0.00     0.251 C 
ATOM     30  H   UNL     1       2.396  -5.321   0.208  1.00  0.00     0.163 HD
ATOM     31  O   UNL     1       4.556  -6.224  -0.381  1.00  0.00    -0.269 OA
BRANCH  29  32
ATOM     32  C   UNL     1       3.677  -8.374  -0.142  1.00  0.00     0.039 A 
ATOM     33  C   UNL     1       4.774  -8.986   0.469  1.00  0.00     0.014 A 
ATOM     34  C   UNL     1       2.664  -9.150  -0.696  1.00  0.00     0.014 A 
ATOM     35  C   UNL     1       4.783 -10.373   0.639  1.00  0.00     0.010 A 
ATOM     36  C   UNL     1       2.602 -10.501  -0.393  1.00  0.00     0.010 A 
ATOM     37  C   UNL     1       3.661 -11.133   0.274  1.00  0.00    -0.014 A 
BRANCH  37  38
ATOM     38  C   UNL     1       3.564 -12.589   0.555  1.00  0.00     0.031 A 
ATOM     39  C   UNL     1       3.295 -13.548  -0.576  1.00  0.00     0.074 A 
ATOM     40  C   UNL     1       3.606 -13.039   1.825  1.00  0.00     0.049 A 
ATOM     41  N   UNL     1       3.007 -14.823  -0.531  1.00  0.00    -0.248 NA
ATOM     42  C   UNL     1       3.288 -12.982  -1.936  1.00  0.00     0.031 C 
ATOM     43  C   UNL     1       3.780 -12.210   3.021  1.00  0.00     0.029 A 
ATOM     44  N   UNL     1       3.491 -14.313   2.325  1.00  0.00    -0.354 N 
ATOM     45  C   UNL     1       2.735 -15.192  -1.843  1.00  0.00     0.074 A 
ATOM     46  C   UNL     1       2.826 -13.997  -2.650  1.00  0.00     0.031 C 
ATOM     47  C   UNL     1       3.802 -13.000   4.108  1.00  0.00     0.029 A 
ATOM     48  C   UNL     1       3.602 -14.384   3.693  1.00  0.00     0.049 A 
ATOM     49  H   UNL     1       3.342 -15.102   1.755  1.00  0.00     0.167 HD
ATOM     50  C   UNL     1       2.469 -16.422  -2.340  1.00  0.00     0.037 A 
ATOM     51  C   UNL     1       3.551 -15.447   4.517  1.00  0.00     0.037 A 
ATOM     52  C   UNL     1       2.468 -17.622  -1.551  1.00  0.00     0.049 A 
ATOM     53  C   UNL     1       3.335 -16.815   3.931  1.00  0.00     0.074 A 
ATOM     54  C   UNL     1       2.307 -18.931  -1.969  1.00  0.00     0.029 A 
ATOM     55  N   UNL     1       2.663 -17.659  -0.179  1.00  0.00    -0.354 N 
ATOM     56  N   UNL     1       3.142 -17.157   2.680  1.00  0.00    -0.248 NA
ATOM     57  C   UNL     1       3.337 -17.946   4.870  1.00  0.00     0.031 C 
ATOM     58  C   UNL     1       2.386 -19.759  -0.845  1.00  0.00     0.029 A 
ATOM     59  C   UNL     1       2.626 -18.968   0.267  1.00  0.00     0.049 A 
ATOM     60  H   UNL     1       2.806 -16.870   0.393  1.00  0.00     0.167 HD
ATOM     61  C   UNL     1       3.028 -18.541   2.678  1.00  0.00     0.074 A 
ATOM     62  C   UNL     1       3.187 -18.976   4.050  1.00  0.00     0.031 C 
ATOM     63  C   UNL     1       2.808 -19.377   1.635  1.00  0.00     0.037 A 
BRANCH  50  64
ATOM     64  C   UNL     1       2.192 -16.527  -3.811  1.00  0.00     0.057 A 
ATOM     65  C   UNL     1       3.196 -16.326  -4.768  1.00  0.00     0.134 A 
ATOM     66  C   UNL     1       0.910 -16.843  -4.278  1.00  0.00     0.134 A 
ATOM     67  F   UNL     1       4.442 -16.005  -4.388  1.00  0.00    -0.206 F 
ATOM     68  C   UNL     1       2.929 -16.401  -6.135  1.00  0.00     0.040 A 
ATOM     69  C   UNL     1       0.637 -16.949  -5.643  1.00  0.00     0.040 A 
ATOM     70  F   UNL     1      -0.097 -17.052  -3.417  1.00  0.00    -0.206 F 
ATOM     71  C   UNL     1       1.646 -16.719  -6.576  1.00  0.00     0.006 A 
ENDBRANCH  50  64
BRANCH  51  72
ATOM     72  C   UNL     1       3.752 -15.274   5.978  1.00  0.00     0.057 A 
ATOM     73  C   UNL     1       4.928 -15.715   6.595  1.00  0.00     0.134 A 
ATOM     74  C   UNL     1       2.779 -14.684   6.791  1.00  0.00     0.134 A 
ATOM     75  F   UNL     1       5.890 -16.304   5.870  1.00  0.00    -0.206 F 
ATOM     76  C   UNL     1       5.121 -15.598   7.973  1.00  0.00     0.040 A 
ATOM     77  C   UNL     1       2.967 -14.540   8.168  1.00  0.00     0.040 A 
ATOM     78  F   UNL     1       1.633 -14.232   6.260  1.00  0.00    -0.206 F 
ATOM     79  C   UNL     1       4.138 -15.006   8.763  1.00  0.00     0.006 A 
ENDBRANCH  51  72
BRANCH  63  80
ATOM     80  C   UNL     1       2.767 -20.845   1.931  1.00  0.00     0.057 A 
ATOM     81  C   UNL     1       1.667 -21.438   2.559  1.00  0.00     0.134 A 
ATOM     82  C   UNL     1       3.821 -21.678   1.537  1.00  0.00     0.134 A 
ATOM     83  F   UNL     1       0.632 -20.689   2.970  1.00  0.00    -0.206 F 
ATOM     84  C   UNL     1       1.622 -22.812   2.800  1.00  0.00     0.040 A 
ATOM     85  C   UNL     1       3.778 -23.055   1.752  1.00  0.00     0.040 A 
ATOM     86  F   UNL     1       4.900 -21.169   0.923  1.00  0.00    -0.206 F 
ATOM     87  C   UNL     1       2.678 -23.625   2.389  1.00  0.00     0.006 A 
ENDBRANCH  63  80
ENDBRANCH  37  38
ENDBRANCH  29  32
ENDBRANCH  27  28
ENDBRANCH   1  27
TORSDOF 12
