REMARK SMILES CCC(CC)COc1cc2c(cc1Cl)C=C(C(=O)NCCCNC(=O)c1ccc(-c3c4nc(c(-c5c(F)cccc5F)c5ccc([nH]5)c(-c5c(F)cccc5F)c5nc(c(-c6c(F)cccc6F)c6ccc3[nH]6)C=C5)C=C4)cc1)[C@@H](C(F)(F)F)O2
REMARK SMILES IDX 20 1 19 2 17 3 18 4 16 6 8 7 9 8 13 9 10 10 12 11 14 12
REMARK SMILES IDX 11 13 85 14 15 15 80 16 7 17 6 18 3 19 2 20 1 21 4 22 5 23
REMARK SMILES IDX 81 24 82 25 83 26 84 27 21 28 22 29 23 30 24 31 25 33 26 34
REMARK SMILES IDX 27 35 79 36 28 37 78 38 29 39 30 40 31 41 72 42 32 43 77 44
REMARK SMILES IDX 71 45 73 46 33 47 76 48 70 49 69 50 34 52 60 53 43 54 59 55
REMARK SMILES IDX 44 56 47 57 58 58 74 59 45 60 46 61 57 63 75 64 48 65 35 66
REMARK SMILES IDX 36 67 41 68 37 69 38 70 40 71 42 72 39 73 61 74 62 75 67 76
REMARK SMILES IDX 63 77 64 78 66 79 68 80 65 81 49 82 50 83 55 84 51 85 52 86
REMARK SMILES IDX 54 87 56 88 53 89
REMARK H PARENT 19 5 23 32 73 51 47 62
REMARK Flexibility Score: inf
ROOT
ATOM      1  C   UNL     1      -0.393  -1.587  -9.809  1.00  0.00     0.118 C 
ENDROOT
BRANCH   1   2
ATOM      2  N   UNL     1      -0.450  -0.351  -9.049  1.00  0.00    -0.352 N 
ATOM      3  C   UNL     1      -0.272   0.014  -7.761  1.00  0.00     0.251 C 
ATOM      4  O   UNL     1      -0.432   1.215  -7.524  1.00  0.00    -0.270 OA
ATOM      5  H   UNL     1      -0.676   0.418  -9.619  1.00  0.00     0.163 HD
BRANCH   3   6
ATOM      6  C   UNL     1       0.098  -0.912  -6.664  1.00  0.00     0.067 C 
ATOM      7  C   UNL     1       1.382  -2.861  -2.253  1.00  0.00     0.141 A 
ATOM      8  C   UNL     1       0.501  -3.284  -3.249  1.00  0.00     0.095 A 
ATOM      9  C   UNL     1       2.141  -1.694  -2.432  1.00  0.00     0.083 A 
ATOM     10  C   UNL     1       0.319  -2.475  -4.364  1.00  0.00     0.131 A 
ATOM     11  C   UNL     1       1.850  -0.828  -3.484  1.00  0.00     0.036 A 
ATOM     12  Cl  UNL     1       3.434  -1.267  -1.373  1.00  0.00    -0.080 Cl
ATOM     13  C   UNL     1       0.914  -1.208  -4.438  1.00  0.00     0.019 A 
ATOM     14  O   UNL     1      -0.428  -2.962  -5.410  1.00  0.00    -0.475 OA
ATOM     15  C   UNL     1       0.554  -0.330  -5.541  1.00  0.00     0.025 C 
ATOM     16  C   UNL     1      -0.007  -2.412  -6.702  1.00  0.00     0.314 C 
BRANCH   7  17
ATOM     17  O   UNL     1       1.518  -3.611  -1.115  1.00  0.00    -0.492 OA
BRANCH  17  18
ATOM     18  C   UNL     1       0.428  -3.404  -0.185  1.00  0.00     0.233 C 
BRANCH  18  19
ATOM     19  C   UNL     1       0.632  -2.127   0.669  1.00  0.00     0.026 C 
BRANCH  19  20
ATOM     20  C   UNL     1      -0.077  -0.905   0.037  1.00  0.00     0.003 C 
ATOM     21  C   UNL     1       0.479   0.422   0.534  1.00  0.00     0.004 C 
ENDBRANCH  19  20
BRANCH  19  22
ATOM     22  C   UNL     1       0.228  -2.339   2.143  1.00  0.00     0.003 C 
ATOM     23  C   UNL     1      -1.262  -2.503   2.402  1.00  0.00     0.004 C 
ENDBRANCH  19  22
ENDBRANCH  18  19
ENDBRANCH  17  18
ENDBRANCH   7  17
BRANCH  16  24
ATOM     24  C   UNL     1       1.306  -3.077  -7.195  1.00  0.00     0.429 C 
ATOM     25  F   UNL     1       1.057  -4.319  -7.678  1.00  0.00    -0.167 F 
ATOM     26  F   UNL     1       1.884  -2.378  -8.205  1.00  0.00    -0.167 F 
ATOM     27  F   UNL     1       2.248  -3.199  -6.234  1.00  0.00    -0.167 F 
ENDBRANCH  16  24
ENDBRANCH   3   6
ENDBRANCH   1   2
BRANCH   1  28
ATOM     28  C   UNL     1      -1.766  -1.971 -10.335  1.00  0.00     0.042 C 
BRANCH  28  29
ATOM     29  C   UNL     1      -2.201  -1.094 -11.499  1.00  0.00     0.118 C 
BRANCH  29  30
ATOM     30  N   UNL     1      -1.413  -1.348 -12.701  1.00  0.00    -0.352 N 
ATOM     31  C   UNL     1      -1.770  -1.955 -13.884  1.00  0.00     0.251 C 
ATOM     32  H   UNL     1      -0.479  -1.037 -12.659  1.00  0.00     0.163 HD
ATOM     33  O   UNL     1      -0.913  -2.287 -14.688  1.00  0.00    -0.269 OA
BRANCH  31  34
ATOM     34  C   UNL     1      -3.196  -2.225 -14.161  1.00  0.00     0.039 A 
ATOM     35  C   UNL     1      -4.163  -1.272 -13.844  1.00  0.00     0.014 A 
ATOM     36  C   UNL     1      -3.572  -3.448 -14.722  1.00  0.00     0.014 A 
ATOM     37  C   UNL     1      -5.505  -1.620 -13.881  1.00  0.00     0.010 A 
ATOM     38  C   UNL     1      -4.928  -3.749 -14.873  1.00  0.00     0.010 A 
ATOM     39  C   UNL     1      -5.906  -2.861 -14.398  1.00  0.00    -0.014 A 
BRANCH  39  40
ATOM     40  C   UNL     1      -7.352  -3.197 -14.417  1.00  0.00     0.031 A 
ATOM     41  C   UNL     1      -7.884  -4.360 -13.622  1.00  0.00     0.074 A 
ATOM     42  C   UNL     1      -8.199  -2.397 -15.094  1.00  0.00     0.049 A 
ATOM     43  N   UNL     1      -9.120  -4.775 -13.493  1.00  0.00    -0.248 NA
ATOM     44  C   UNL     1      -6.904  -5.168 -12.880  1.00  0.00     0.031 C 
ATOM     45  C   UNL     1      -7.804  -1.227 -15.883  1.00  0.00     0.029 A 
ATOM     46  N   UNL     1      -9.565  -2.417 -15.193  1.00  0.00    -0.354 N 
ATOM     47  C   UNL     1      -9.061  -5.907 -12.690  1.00  0.00     0.074 A 
ATOM     48  C   UNL     1      -7.666  -6.128 -12.376  1.00  0.00     0.031 C 
ATOM     49  C   UNL     1      -8.905  -0.596 -16.314  1.00  0.00     0.029 A 
ATOM     50  C   UNL     1     -10.077  -1.359 -15.903  1.00  0.00     0.049 A 
ATOM     51  H   UNL     1     -10.126  -3.122 -14.794  1.00  0.00     0.167 HD
ATOM     52  C   UNL     1     -10.077  -6.687 -12.248  1.00  0.00     0.037 A 
ATOM     53  C   UNL     1     -11.350  -1.044 -16.202  1.00  0.00     0.037 A 
ATOM     54  C   UNL     1     -11.468  -6.445 -12.536  1.00  0.00     0.049 A 
ATOM     55  C   UNL     1     -12.449  -1.956 -15.745  1.00  0.00     0.074 A 
ATOM     56  C   UNL     1     -12.577  -7.150 -12.102  1.00  0.00     0.029 A 
ATOM     57  N   UNL     1     -11.939  -5.414 -13.336  1.00  0.00    -0.354 N 
ATOM     58  N   UNL     1     -12.378  -3.018 -14.980  1.00  0.00    -0.248 NA
ATOM     59  C   UNL     1     -13.803  -1.636 -16.214  1.00  0.00     0.031 C 
ATOM     60  C   UNL     1     -13.716  -6.574 -12.677  1.00  0.00     0.029 A 
ATOM     61  C   UNL     1     -13.320  -5.483 -13.434  1.00  0.00     0.049 A 
ATOM     62  H   UNL     1     -11.376  -4.733 -13.770  1.00  0.00     0.167 HD
ATOM     63  C   UNL     1     -13.679  -3.487 -14.864  1.00  0.00     0.074 A 
ATOM     64  C   UNL     1     -14.519  -2.579 -15.620  1.00  0.00     0.031 C 
ATOM     65  C   UNL     1     -14.137  -4.574 -14.197  1.00  0.00     0.037 A 
BRANCH  52  66
ATOM     66  C   UNL     1      -9.714  -7.899 -11.437  1.00  0.00     0.057 A 
ATOM     67  C   UNL     1      -9.852  -9.182 -11.981  1.00  0.00     0.134 A 
ATOM     68  C   UNL     1      -9.236  -7.803 -10.124  1.00  0.00     0.134 A 
ATOM     69  F   UNL     1     -10.310  -9.347 -13.231  1.00  0.00    -0.206 F 
ATOM     70  C   UNL     1      -9.522 -10.326 -11.251  1.00  0.00     0.040 A 
ATOM     71  C   UNL     1      -8.878  -8.939  -9.392  1.00  0.00     0.040 A 
ATOM     72  F   UNL     1      -9.065  -6.604  -9.547  1.00  0.00    -0.206 F 
ATOM     73  C   UNL     1      -9.025 -10.205  -9.956  1.00  0.00     0.006 A 
ENDBRANCH  52  66
BRANCH  53  74
ATOM     74  C   UNL     1     -11.652   0.182 -16.980  1.00  0.00     0.057 A 
ATOM     75  C   UNL     1     -11.289   0.306 -18.327  1.00  0.00     0.134 A 
ATOM     76  C   UNL     1     -12.318   1.262 -16.389  1.00  0.00     0.134 A 
ATOM     77  F   UNL     1     -10.646  -0.693 -18.949  1.00  0.00    -0.206 F 
ATOM     78  C   UNL     1     -11.564   1.464 -19.054  1.00  0.00     0.040 A 
ATOM     79  C   UNL     1     -12.623   2.416 -17.111  1.00  0.00     0.040 A 
ATOM     80  F   UNL     1     -12.707   1.194 -15.107  1.00  0.00    -0.206 F 
ATOM     81  C   UNL     1     -12.240   2.521 -18.447  1.00  0.00     0.006 A 
ENDBRANCH  53  74
BRANCH  65  82
ATOM     82  C   UNL     1     -15.616  -4.816 -14.244  1.00  0.00     0.057 A 
ATOM     83  C   UNL     1     -16.415  -4.578 -13.120  1.00  0.00     0.134 A 
ATOM     84  C   UNL     1     -16.249  -5.281 -15.404  1.00  0.00     0.134 A 
ATOM     85  F   UNL     1     -15.869  -4.136 -11.977  1.00  0.00    -0.206 F 
ATOM     86  C   UNL     1     -17.793  -4.790 -13.148  1.00  0.00     0.040 A 
ATOM     87  C   UNL     1     -17.630  -5.472 -15.452  1.00  0.00     0.040 A 
ATOM     88  F   UNL     1     -15.540  -5.509 -16.521  1.00  0.00    -0.206 F 
ATOM     89  C   UNL     1     -18.406  -5.230 -14.320  1.00  0.00     0.006 A 
ENDBRANCH  65  82
ENDBRANCH  39  40
ENDBRANCH  31  34
ENDBRANCH  29  30
ENDBRANCH  28  29
ENDBRANCH   1  28
TORSDOF 16
