REMARK SMILES CSCc1ccc(C(=O)N2C[C@@H](O)C[C@@H]2C(=O)NCCCNC(=O)c2ccc(-c3c4nc(c(-c5c(F)cccc5F)c5ccc([nH]5)c(-c5c(F)cccc5F)c5nc(c(-c6c(F)cccc6F)c6ccc3[nH]6)C=C5)C=C4)cc2)o1
REMARK SMILES IDX 19 1 18 2 16 3 17 4 15 6 10 7 11 8 12 9 14 10 8 11 9 12 7 13
REMARK SMILES IDX 4 14 5 15 79 16 6 17 3 18 2 19 1 20 13 21 20 23 21 24 22 25
REMARK SMILES IDX 23 26 24 28 25 29 26 30 78 31 27 32 77 33 28 34 29 35 30 36
REMARK SMILES IDX 71 37 31 38 76 39 70 40 72 41 32 42 75 43 69 44 68 45 33 47
REMARK SMILES IDX 59 48 42 49 58 50 43 51 46 52 57 53 73 54 44 55 45 56 56 58
REMARK SMILES IDX 74 59 47 60 34 61 35 62 40 63 36 64 37 65 39 66 41 67 38 68
REMARK SMILES IDX 60 69 61 70 66 71 62 72 63 73 65 74 67 75 64 76 48 77 49 78
REMARK SMILES IDX 54 79 50 80 51 81 53 82 55 83 52 84
REMARK H PARENT 18 5 13 22 22 27 72 46 46 57
REMARK Flexibility Score: inf
ROOT
ATOM      1  C   UNL     1      -3.480   9.775   1.865  1.00  0.00     0.117 C 
ENDROOT
BRANCH   1   2
ATOM      2  N   UNL     1      -3.491   8.447   1.290  1.00  0.00    -0.354 N 
ATOM      3  C   UNL     1      -2.514   7.502   1.249  1.00  0.00     0.242 C 
ATOM      4  O   UNL     1      -2.874   6.356   0.958  1.00  0.00    -0.273 OA
ATOM      5  H   UNL     1      -4.338   8.187   0.861  1.00  0.00     0.163 HD
BRANCH   3   6
ATOM      6  C   UNL     1      -1.040   7.862   1.553  1.00  0.00     0.177 C 
ATOM      7  N   UNL     1      -0.227   6.667   1.312  1.00  0.00    -0.321 N 
ATOM      8  C   UNL     1       0.200   6.040   2.552  1.00  0.00     0.152 C 
ATOM      9  C   UNL     1      -0.577   6.775   3.641  1.00  0.00     0.136 C 
ATOM     10  C   UNL     1      -0.810   8.158   3.033  1.00  0.00     0.069 C 
BRANCH   7  11
ATOM     11  C   UNL     1       0.012   6.216   0.024  1.00  0.00     0.290 C 
ATOM     12  O   UNL     1       0.111   7.023  -0.905  1.00  0.00    -0.265 OA
BRANCH  11  13
ATOM     13  C   UNL     1       0.007   4.777  -0.167  1.00  0.00     0.191 A 
ATOM     14  C   UNL     1       0.536   2.865  -1.143  1.00  0.00     0.114 A 
ATOM     15  C   UNL     1      -0.488   2.587  -0.260  1.00  0.00     0.047 A 
ATOM     16  O   UNL     1       0.837   4.201  -1.092  1.00  0.00    -0.455 OA
ATOM     17  C   UNL     1      -0.821   3.805   0.366  1.00  0.00     0.056 A 
BRANCH  14  18
ATOM     18  C   UNL     1       1.315   2.066  -2.125  1.00  0.00     0.144 C 
BRANCH  18  19
ATOM     19  S   UNL     1       0.917   0.285  -2.133  1.00  0.00    -0.157 SA
ATOM     20  C   UNL     1       1.701  -0.205  -0.576  1.00  0.00     0.085 C 
ENDBRANCH  18  19
ENDBRANCH  14  18
ENDBRANCH  11  13
ENDBRANCH   7  11
BRANCH   9  21
ATOM     21  O   UNL     1       0.126   6.869   4.867  1.00  0.00    -0.391 OA
ATOM     22  H   UNL     1       0.967   7.330   4.723  1.00  0.00     0.211 HD
ENDBRANCH   9  21
ENDBRANCH   3   6
ENDBRANCH   1   2
BRANCH   1  23
ATOM     23  C   UNL     1      -4.229  10.814   1.040  1.00  0.00     0.042 C 
BRANCH  23  24
ATOM     24  C   UNL     1      -5.564  10.375   0.444  1.00  0.00     0.118 C 
BRANCH  24  25
ATOM     25  N   UNL     1      -6.514   9.859   1.419  1.00  0.00    -0.352 N 
ATOM     26  C   UNL     1      -7.691  10.361   1.917  1.00  0.00     0.251 C 
ATOM     27  H   UNL     1      -6.266   8.982   1.792  1.00  0.00     0.163 HD
ATOM     28  O   UNL     1      -8.268   9.740   2.807  1.00  0.00    -0.269 OA
BRANCH  26  29
ATOM     29  C   UNL     1      -8.253  11.649   1.454  1.00  0.00     0.039 A 
ATOM     30  C   UNL     1      -8.808  12.505   2.413  1.00  0.00     0.014 A 
ATOM     31  C   UNL     1      -8.278  12.018   0.108  1.00  0.00     0.014 A 
ATOM     32  C   UNL     1      -9.288  13.763   2.039  1.00  0.00     0.010 A 
ATOM     33  C   UNL     1      -8.686  13.302  -0.255  1.00  0.00     0.010 A 
ATOM     34  C   UNL     1      -9.177  14.195   0.710  1.00  0.00    -0.014 A 
BRANCH  34  35
ATOM     35  C   UNL     1      -9.527  15.583   0.314  1.00  0.00     0.031 A 
ATOM     36  C   UNL     1     -10.618  15.842  -0.686  1.00  0.00     0.074 A 
ATOM     37  C   UNL     1      -8.791  16.611   0.779  1.00  0.00     0.049 A 
ATOM     38  N   UNL     1     -10.937  16.960  -1.287  1.00  0.00    -0.248 NA
ATOM     39  C   UNL     1     -11.436  14.687  -1.088  1.00  0.00     0.031 C 
ATOM     40  C   UNL     1      -7.670  16.502   1.715  1.00  0.00     0.029 A 
ATOM     41  N   UNL     1      -8.866  17.955   0.509  1.00  0.00    -0.354 N 
ATOM     42  C   UNL     1     -11.943  16.632  -2.186  1.00  0.00     0.074 A 
ATOM     43  C   UNL     1     -12.194  15.213  -2.041  1.00  0.00     0.031 C 
ATOM     44  C   UNL     1      -7.175  17.726   1.955  1.00  0.00     0.029 A 
ATOM     45  C   UNL     1      -7.916  18.701   1.163  1.00  0.00     0.049 A 
ATOM     46  H   UNL     1      -9.537  18.347  -0.096  1.00  0.00     0.167 HD
ATOM     47  C   UNL     1     -12.594  17.439  -3.056  1.00  0.00     0.037 A 
ATOM     48  C   UNL     1      -7.659  20.020   1.119  1.00  0.00     0.037 A 
ATOM     49  C   UNL     1     -12.413  18.862  -3.148  1.00  0.00     0.049 A 
ATOM     50  C   UNL     1      -8.473  20.910   0.228  1.00  0.00     0.074 A 
ATOM     51  C   UNL     1     -13.093  19.770  -3.943  1.00  0.00     0.029 A 
ATOM     52  N   UNL     1     -11.498  19.588  -2.405  1.00  0.00    -0.354 N 
ATOM     53  N   UNL     1      -9.430  20.585  -0.604  1.00  0.00    -0.248 NA
ATOM     54  C   UNL     1      -8.165  22.347   0.267  1.00  0.00     0.031 C 
ATOM     55  C   UNL     1     -12.585  21.048  -3.681  1.00  0.00     0.029 A 
ATOM     56  C   UNL     1     -11.596  20.933  -2.719  1.00  0.00     0.049 A 
ATOM     57  H   UNL     1     -10.870  19.205  -1.750  1.00  0.00     0.167 HD
ATOM     58  C   UNL     1      -9.842  21.774  -1.186  1.00  0.00     0.074 A 
ATOM     59  C   UNL     1      -9.040  22.831  -0.605  1.00  0.00     0.031 C 
ATOM     60  C   UNL     1     -10.798  21.971  -2.124  1.00  0.00     0.037 A 
BRANCH  47  61
ATOM     61  C   UNL     1     -13.563  16.792  -3.994  1.00  0.00     0.057 A 
ATOM     62  C   UNL     1     -14.862  16.456  -3.597  1.00  0.00     0.134 A 
ATOM     63  C   UNL     1     -13.197  16.532  -5.320  1.00  0.00     0.134 A 
ATOM     64  F   UNL     1     -15.263  16.669  -2.335  1.00  0.00    -0.206 F 
ATOM     65  C   UNL     1     -15.764  15.871  -4.488  1.00  0.00     0.040 A 
ATOM     66  C   UNL     1     -14.093  15.959  -6.223  1.00  0.00     0.040 A 
ATOM     67  F   UNL     1     -11.964  16.831  -5.757  1.00  0.00    -0.206 F 
ATOM     68  C   UNL     1     -15.381  15.625  -5.806  1.00  0.00     0.006 A 
ENDBRANCH  47  61
BRANCH  48  69
ATOM     69  C   UNL     1      -6.578  20.584   1.957  1.00  0.00     0.057 A 
ATOM     70  C   UNL     1      -6.871  21.227   3.164  1.00  0.00     0.134 A 
ATOM     71  C   UNL     1      -5.236  20.489   1.577  1.00  0.00     0.134 A 
ATOM     72  F   UNL     1      -8.143  21.359   3.566  1.00  0.00    -0.206 F 
ATOM     73  C   UNL     1      -5.864  21.766   3.964  1.00  0.00     0.040 A 
ATOM     74  C   UNL     1      -4.217  21.014   2.373  1.00  0.00     0.040 A 
ATOM     75  F   UNL     1      -4.898  19.880   0.431  1.00  0.00    -0.206 F 
ATOM     76  C   UNL     1      -4.531  21.657   3.570  1.00  0.00     0.006 A 
ENDBRANCH  48  69
BRANCH  60  77
ATOM     77  C   UNL     1     -11.036  23.379  -2.563  1.00  0.00     0.057 A 
ATOM     78  C   UNL     1     -10.238  23.980  -3.542  1.00  0.00     0.134 A 
ATOM     79  C   UNL     1     -12.084  24.131  -2.019  1.00  0.00     0.134 A 
ATOM     80  F   UNL     1      -9.211  23.311  -4.087  1.00  0.00    -0.206 F 
ATOM     81  C   UNL     1     -10.470  25.290  -3.963  1.00  0.00     0.040 A 
ATOM     82  C   UNL     1     -12.331  25.438  -2.438  1.00  0.00     0.040 A 
ATOM     83  F   UNL     1     -12.878  23.606  -1.074  1.00  0.00    -0.206 F 
ATOM     84  C   UNL     1     -11.522  26.021  -3.413  1.00  0.00     0.006 A 
ENDBRANCH  60  77
ENDBRANCH  34  35
ENDBRANCH  26  29
ENDBRANCH  24  25
ENDBRANCH  23  24
ENDBRANCH   1  23
TORSDOF 15
