REMARK SMILES CCc1ccccc1C[N@@H+]1CC2(CCN(C(=O)C3CC3)CC2)C[C@H]1C(=O)NCCCNC(=O)c1ccc(-c2c3nc(c(-c4c(F)cccc4F)c4ccc([nH]4)c(-c4c(F)cccc4F)c4nc(c(-c5c(F)cccc5F)c5ccc2[nH]5)C=C4)C=C3)cc1
REMARK SMILES IDX 28 1 27 2 25 3 26 4 24 6 10 7 11 8 12 10 23 11 13 12 22 13
REMARK SMILES IDX 14 14 21 15 15 16 16 17 17 18 9 19 8 20 3 21 4 22 5 23 7 24
REMARK SMILES IDX 6 25 2 26 1 27 18 28 19 29 20 30 29 31 30 32 31 33 32 34
REMARK SMILES IDX 33 36 34 37 35 38 87 39 36 40 86 41 37 42 38 43 39 44 80 45
REMARK SMILES IDX 40 46 85 47 79 48 81 49 41 50 84 51 78 52 77 53 42 55 68 56
REMARK SMILES IDX 51 57 67 58 52 59 55 60 66 61 82 62 53 63 54 64 65 66 83 67
REMARK SMILES IDX 56 68 43 69 44 70 49 71 45 72 46 73 48 74 50 75 47 76 69 77
REMARK SMILES IDX 70 78 75 79 71 80 72 81 74 82 76 83 73 84 57 85 58 86 63 87
REMARK SMILES IDX 59 88 60 89 62 90 64 91 61 92
REMARK H PARENT 27 5 10 9 31 35 81 54 55 65
REMARK Flexibility Score: inf
ROOT
ATOM      1  C   UNL     1       2.739   7.678   0.664  1.00  0.00     0.118 C 
ENDROOT
BRANCH   1   2
ATOM      2  N   UNL     1       2.458   6.678   1.651  1.00  0.00    -0.351 N 
ATOM      3  C   UNL     1       2.275   5.335   1.478  1.00  0.00     0.278 C 
ATOM      4  O   UNL     1       2.216   4.665   2.518  1.00  0.00    -0.268 OA
ATOM      5  H   UNL     1       2.388   7.002   2.578  1.00  0.00     0.163 HD
BRANCH   3   6
ATOM      6  C   UNL     1       2.125   4.628   0.088  1.00  0.00     0.275 C 
ATOM      7  N   UNL     1       0.898   5.059  -0.596  1.00  0.00    -0.320 N 
ATOM      8  C   UNL     1       1.275   5.815  -1.791  1.00  0.00     0.270 C 
ATOM      9  H   UNL     1       0.376   5.698   0.004  1.00  0.00     0.349 HD
ATOM     10  C   UNL     1       2.748   5.485  -2.162  1.00  0.00     0.029 C 
ATOM     11  C   UNL     1       3.273   4.721  -0.924  1.00  0.00     0.088 C 
ATOM     12  C   UNL     1       3.676   6.683  -2.504  1.00  0.00     0.034 C 
ATOM     13  C   UNL     1       2.820   4.658  -3.464  1.00  0.00     0.034 C 
ATOM     14  C   UNL     1       3.128   7.521  -3.645  1.00  0.00     0.120 C 
ATOM     15  C   UNL     1       2.273   5.447  -4.668  1.00  0.00     0.120 C 
ATOM     16  N   UNL     1       2.979   6.723  -4.850  1.00  0.00    -0.342 N 
ATOM     17  C   UNL     1       3.285   7.104  -6.158  1.00  0.00     0.225 C 
ATOM     18  O   UNL     1       2.907   6.421  -7.111  1.00  0.00    -0.275 OA
BRANCH   7  19
ATOM     19  C   UNL     1      -0.134   4.003  -0.754  1.00  0.00     0.299 C 
BRANCH  19  20
ATOM     20  C   UNL     1       0.155   2.881  -1.749  1.00  0.00     0.009 A 
ATOM     21  C   UNL     1       0.740   1.641  -1.391  1.00  0.00    -0.039 A 
ATOM     22  C   UNL     1       1.277   0.836  -2.415  1.00  0.00     0.004 A 
ATOM     23  C   UNL     1       1.092   1.151  -3.760  1.00  0.00     0.000 A 
ATOM     24  C   UNL     1      -0.143   3.107  -3.110  1.00  0.00     0.010 A 
ATOM     25  C   UNL     1       0.321   2.250  -4.109  1.00  0.00     0.001 A 
BRANCH  21  26
ATOM     26  C   UNL     1       0.686   1.134   0.041  1.00  0.00     0.032 C 
ATOM     27  C   UNL     1       1.078  -0.325   0.270  1.00  0.00     0.009 C 
ENDBRANCH  21  26
ENDBRANCH  19  20
ENDBRANCH   7  19
BRANCH  17  28
ATOM     28  C   UNL     1       4.119   8.293  -6.522  1.00  0.00     0.079 C 
ATOM     29  C   UNL     1       4.254   9.624  -5.842  1.00  0.00     0.014 C 
ATOM     30  C   UNL     1       5.391   8.635  -5.788  1.00  0.00     0.014 C 
ENDBRANCH  17  28
ENDBRANCH   3   6
ENDBRANCH   1   2
BRANCH   1  31
ATOM     31  C   UNL     1       1.644   8.700   0.425  1.00  0.00     0.042 C 
BRANCH  31  32
ATOM     32  C   UNL     1       2.005  10.076   0.948  1.00  0.00     0.118 C 
BRANCH  32  33
ATOM     33  N   UNL     1       3.120  10.687   0.223  1.00  0.00    -0.352 N 
ATOM     34  C   UNL     1       3.235  11.935  -0.351  1.00  0.00     0.251 C 
ATOM     35  H   UNL     1       3.915  10.114   0.130  1.00  0.00     0.163 HD
ATOM     36  O   UNL     1       4.209  12.198  -1.039  1.00  0.00    -0.269 OA
BRANCH  34  37
ATOM     37  C   UNL     1       2.160  12.937  -0.166  1.00  0.00     0.039 A 
ATOM     38  C   UNL     1       1.815  13.771  -1.233  1.00  0.00     0.014 A 
ATOM     39  C   UNL     1       1.478  13.039   1.046  1.00  0.00     0.014 A 
ATOM     40  C   UNL     1       0.729  14.640  -1.107  1.00  0.00     0.010 A 
ATOM     41  C   UNL     1       0.324  13.804   1.125  1.00  0.00     0.010 A 
ATOM     42  C   UNL     1      -0.056  14.625   0.056  1.00  0.00    -0.014 A 
BRANCH  42  43
ATOM     43  C   UNL     1      -1.269  15.466   0.193  1.00  0.00     0.031 A 
ATOM     44  C   UNL     1      -1.363  16.473   1.307  1.00  0.00     0.074 A 
ATOM     45  C   UNL     1      -2.321  15.256  -0.622  1.00  0.00     0.049 A 
ATOM     46  N   UNL     1      -2.367  17.237   1.651  1.00  0.00    -0.248 NA
ATOM     47  C   UNL     1      -0.184  16.606   2.179  1.00  0.00     0.031 C 
ATOM     48  C   UNL     1      -2.379  14.256  -1.690  1.00  0.00     0.029 A 
ATOM     49  N   UNL     1      -3.550  15.863  -0.669  1.00  0.00    -0.354 N 
ATOM     50  C   UNL     1      -1.951  17.915   2.790  1.00  0.00     0.074 A 
ATOM     51  C   UNL     1      -0.633  17.420   3.120  1.00  0.00     0.031 C 
ATOM     52  C   UNL     1      -3.569  14.338  -2.305  1.00  0.00     0.029 A 
ATOM     53  C   UNL     1      -4.372  15.364  -1.650  1.00  0.00     0.049 A 
ATOM     54  H   UNL     1      -3.817  16.588  -0.058  1.00  0.00     0.167 HD
ATOM     55  C   UNL     1      -2.596  18.883   3.482  1.00  0.00     0.037 A 
ATOM     56  C   UNL     1      -5.635  15.693  -1.979  1.00  0.00     0.037 A 
ATOM     57  C   UNL     1      -3.894  19.389   3.127  1.00  0.00     0.049 A 
ATOM     58  C   UNL     1      -6.326  16.787  -1.214  1.00  0.00     0.074 A 
ATOM     59  C   UNL     1      -4.604  20.427   3.704  1.00  0.00     0.029 A 
ATOM     60  N   UNL     1      -4.683  18.885   2.102  1.00  0.00    -0.354 N 
ATOM     61  N   UNL     1      -5.886  17.486  -0.196  1.00  0.00    -0.248 NA
ATOM     62  C   UNL     1      -7.683  17.143  -1.649  1.00  0.00     0.031 C 
ATOM     63  C   UNL     1      -5.845  20.513   3.064  1.00  0.00     0.029 A 
ATOM     64  C   UNL     1      -5.886  19.569   2.050  1.00  0.00     0.049 A 
ATOM     65  H   UNL     1      -4.425  18.149   1.501  1.00  0.00     0.167 HD
ATOM     66  C   UNL     1      -6.902  18.380   0.120  1.00  0.00     0.074 A 
ATOM     67  C   UNL     1      -7.973  18.143  -0.828  1.00  0.00     0.031 C 
ATOM     68  C   UNL     1      -6.943  19.313   1.103  1.00  0.00     0.037 A 
BRANCH  55  69
ATOM     69  C   UNL     1      -1.902  19.444   4.692  1.00  0.00     0.057 A 
ATOM     70  C   UNL     1      -0.721  20.195   4.594  1.00  0.00     0.134 A 
ATOM     71  C   UNL     1      -2.416  19.223   5.976  1.00  0.00     0.134 A 
ATOM     72  F   UNL     1      -0.165  20.434   3.397  1.00  0.00    -0.206 F 
ATOM     73  C   UNL     1      -0.055  20.665   5.728  1.00  0.00     0.040 A 
ATOM     74  C   UNL     1      -1.778  19.718   7.115  1.00  0.00     0.040 A 
ATOM     75  F   UNL     1      -3.545  18.518   6.147  1.00  0.00    -0.206 F 
ATOM     76  C   UNL     1      -0.587  20.430   6.993  1.00  0.00     0.006 A 
ENDBRANCH  55  69
BRANCH  56  77
ATOM     77  C   UNL     1      -6.304  14.997  -3.106  1.00  0.00     0.057 A 
ATOM     78  C   UNL     1      -6.538  15.649  -4.322  1.00  0.00     0.134 A 
ATOM     79  C   UNL     1      -6.689  13.654  -3.011  1.00  0.00     0.134 A 
ATOM     80  F   UNL     1      -6.204  16.939  -4.471  1.00  0.00    -0.206 F 
ATOM     81  C   UNL     1      -7.138  14.995  -5.400  1.00  0.00     0.040 A 
ATOM     82  C   UNL     1      -7.268  12.980  -4.088  1.00  0.00     0.040 A 
ATOM     83  F   UNL     1      -6.480  12.969  -1.876  1.00  0.00    -0.206 F 
ATOM     84  C   UNL     1      -7.497  13.653  -5.286  1.00  0.00     0.006 A 
ENDBRANCH  56  77
BRANCH  68  85
ATOM     85  C   UNL     1      -8.177  20.163   1.190  1.00  0.00     0.057 A 
ATOM     86  C   UNL     1      -9.402  19.648   1.634  1.00  0.00     0.134 A 
ATOM     87  C   UNL     1      -8.127  21.525   0.867  1.00  0.00     0.134 A 
ATOM     88  F   UNL     1      -9.520  18.349   1.947  1.00  0.00    -0.206 F 
ATOM     89  C   UNL     1     -10.538  20.453   1.731  1.00  0.00     0.040 A 
ATOM     90  C   UNL     1      -9.248  22.346   0.989  1.00  0.00     0.040 A 
ATOM     91  F   UNL     1      -6.982  22.084   0.445  1.00  0.00    -0.206 F 
ATOM     92  C   UNL     1     -10.460  21.809   1.416  1.00  0.00     0.006 A 
ENDBRANCH  68  85
ENDBRANCH  42  43
ENDBRANCH  34  37
ENDBRANCH  32  33
ENDBRANCH  31  32
ENDBRANCH   1  31
TORSDOF 14
