REMARK SMILES CCCC(=O)N(c1cc2sc(=O)oc2c2ccccc12)S(=O)(=O)c1ccc(C(=O)NCCCNC(=O)c2ccc(-c3c4nc(c(-c5c(F)cccc5F)c5ccc([nH]5)c(-c5c(F)cccc5F)c5nc(c(-c6c(F)cccc6F)c6ccc3[nH]6)C=C5)C=C4)cc2)cc1
REMARK SMILES IDX 28 1 29 2 30 3 27 5 24 6 25 7 92 8 26 9 91 10 21 11 22 12
REMARK SMILES IDX 23 13 6 14 4 15 5 16 3 17 2 18 1 19 7 20 8 21 20 22 9 23
REMARK SMILES IDX 15 24 19 25 10 26 14 27 16 28 18 29 11 30 13 31 17 32 12 33
REMARK SMILES IDX 31 34 32 35 33 36 34 37 35 38 36 40 37 41 38 42 90 43 39 44
REMARK SMILES IDX 89 45 40 46 41 47 42 48 83 49 43 50 88 51 82 52 84 53 44 54
REMARK SMILES IDX 87 55 81 56 80 57 45 59 71 60 54 61 70 62 55 63 58 64 69 65
REMARK SMILES IDX 85 66 56 67 57 68 68 70 86 71 59 72 46 73 47 74 52 75 48 76
REMARK SMILES IDX 49 77 51 78 53 79 50 80 72 81 73 82 78 83 74 84 75 85 77 86
REMARK SMILES IDX 79 87 76 88 60 89 61 90 66 91 62 92 63 93 65 94 67 95 64 96
REMARK H PARENT 30 4 34 39 84 58 58 69
REMARK Flexibility Score: inf
ROOT
ATOM      1  C   UNL     1       1.999   3.151   6.918  1.00  0.00     0.251 C 
ATOM      2  O   UNL     1       1.478   4.240   6.667  1.00  0.00    -0.269 OA
ATOM      3  N   UNL     1       3.058   3.173   7.784  1.00  0.00    -0.352 N 
ATOM      4  H   UNL     1       3.195   4.064   8.179  1.00  0.00     0.163 HD
ENDROOT
BRANCH   1   5
ATOM      5  C   UNL     1       1.464   1.935   6.244  1.00  0.00     0.039 A 
ATOM      6  C   UNL     1       0.446  -0.225   4.765  1.00  0.00     0.088 A 
ATOM      7  C   UNL     1       0.089   1.078   4.416  1.00  0.00     0.023 A 
ATOM      8  C   UNL     1       1.209  -0.461   5.909  1.00  0.00     0.023 A 
ATOM      9  C   UNL     1       0.627   2.148   5.132  1.00  0.00     0.015 A 
ATOM     10  C   UNL     1       1.676   0.620   6.666  1.00  0.00     0.015 A 
BRANCH   6  11
ATOM     11  S   UNL     1      -0.163  -1.585   3.781  1.00  0.00     0.270 S 
ATOM     12  O   UNL     1      -1.550  -1.284   3.520  1.00  0.00    -0.201 OA
ATOM     13  O   UNL     1       0.234  -2.793   4.490  1.00  0.00    -0.201 OA
BRANCH  11  14
ATOM     14  N   UNL     1       0.717  -1.565   2.328  1.00  0.00    -0.202 N 
BRANCH  14  15
ATOM     15  C   UNL     1       0.440  -2.571   1.348  1.00  0.00     0.241 C 
ATOM     16  O   UNL     1      -0.579  -3.256   1.399  1.00  0.00    -0.273 OA
BRANCH  15  17
ATOM     17  C   UNL     1       1.470  -2.867   0.267  1.00  0.00     0.101 C 
BRANCH  17  18
ATOM     18  C   UNL     1       1.204  -2.173  -1.067  1.00  0.00     0.006 C 
ATOM     19  C   UNL     1       2.374  -1.302  -1.503  1.00  0.00     0.004 C 
ENDBRANCH  17  18
ENDBRANCH  15  17
ENDBRANCH  14  15
BRANCH  14  20
ATOM     20  C   UNL     1       1.479  -0.403   1.958  1.00  0.00     0.070 A 
ATOM     21  C   UNL     1       2.731  -0.250   2.576  1.00  0.00     0.051 A 
ATOM     22  C   UNL     1       1.012   0.557   1.002  1.00  0.00     0.010 A 
ATOM     23  C   UNL     1       3.513   0.842   2.253  1.00  0.00     0.080 A 
ATOM     24  C   UNL     1       1.890   1.602   0.600  1.00  0.00     0.028 A 
ATOM     25  C   UNL     1      -0.261   0.507   0.387  1.00  0.00     0.011 A 
ATOM     26  S   UNL     1       5.066   1.289   2.928  1.00  0.00    -0.052 S 
ATOM     27  C   UNL     1       3.113   1.738   1.270  1.00  0.00     0.157 A 
ATOM     28  C   UNL     1       1.539   2.440  -0.477  1.00  0.00     0.013 A 
ATOM     29  C   UNL     1      -0.587   1.341  -0.687  1.00  0.00     0.001 A 
ATOM     30  C   UNL     1       5.100   2.667   1.821  1.00  0.00     0.396 A 
ATOM     31  O   UNL     1       3.998   2.783   0.977  1.00  0.00    -0.413 OA
ATOM     32  C   UNL     1       0.325   2.284  -1.140  1.00  0.00     0.001 A 
ATOM     33  O   UNL     1       6.031   3.460   1.803  1.00  0.00    -0.233 OA
ENDBRANCH  14  20
ENDBRANCH  11  14
ENDBRANCH   6  11
ENDBRANCH   1   5
BRANCH   3  34
ATOM     34  C   UNL     1       4.031   2.203   8.264  1.00  0.00     0.118 C 
BRANCH  34  35
ATOM     35  C   UNL     1       5.452   2.555   7.844  1.00  0.00     0.042 C 
BRANCH  35  36
ATOM     36  C   UNL     1       5.969   3.837   8.494  1.00  0.00     0.118 C 
BRANCH  36  37
ATOM     37  N   UNL     1       6.461   3.660   9.855  1.00  0.00    -0.352 N 
ATOM     38  C   UNL     1       7.600   3.033  10.309  1.00  0.00     0.251 C 
ATOM     39  H   UNL     1       5.891   4.048  10.558  1.00  0.00     0.163 HD
ATOM     40  O   UNL     1       7.830   2.952  11.511  1.00  0.00    -0.269 OA
BRANCH  38  41
ATOM     41  C   UNL     1       8.494   2.380   9.336  1.00  0.00     0.039 A 
ATOM     42  C   UNL     1       8.931   3.065   8.200  1.00  0.00     0.014 A 
ATOM     43  C   UNL     1       8.820   1.035   9.528  1.00  0.00     0.014 A 
ATOM     44  C   UNL     1       9.545   2.371   7.172  1.00  0.00     0.010 A 
ATOM     45  C   UNL     1       9.488   0.348   8.519  1.00  0.00     0.010 A 
ATOM     46  C   UNL     1       9.819   1.012   7.326  1.00  0.00    -0.014 A 
BRANCH  46  47
ATOM     47  C   UNL     1      10.631   0.404   6.263  1.00  0.00     0.031 A 
ATOM     48  C   UNL     1      11.989   0.041   6.758  1.00  0.00     0.074 A 
ATOM     49  C   UNL     1      10.083  -0.295   5.245  1.00  0.00     0.049 A 
ATOM     50  N   UNL     1      12.140  -1.038   7.460  1.00  0.00    -0.248 NA
ATOM     51  C   UNL     1      13.133   0.944   6.844  1.00  0.00     0.031 C 
ATOM     52  C   UNL     1       8.777  -0.968   5.305  1.00  0.00     0.029 A 
ATOM     53  N   UNL     1      10.610  -0.692   4.037  1.00  0.00    -0.354 N 
ATOM     54  C   UNL     1      13.345  -0.957   8.132  1.00  0.00     0.074 A 
ATOM     55  C   UNL     1      13.945   0.282   7.692  1.00  0.00     0.031 C 
ATOM     56  C   UNL     1       8.684  -1.823   4.267  1.00  0.00     0.029 A 
ATOM     57  C   UNL     1       9.850  -1.668   3.398  1.00  0.00     0.049 A 
ATOM     58  H   UNL     1      11.442  -0.323   3.662  1.00  0.00     0.167 HD
ATOM     59  C   UNL     1      13.727  -1.959   8.974  1.00  0.00     0.037 A 
ATOM     60  C   UNL     1      10.366  -2.675   2.643  1.00  0.00     0.037 A 
ATOM     61  C   UNL     1      12.807  -3.072   9.095  1.00  0.00     0.049 A 
ATOM     62  C   UNL     1      11.002  -3.560   3.683  1.00  0.00     0.074 A 
ATOM     63  C   UNL     1      12.252  -3.896  10.049  1.00  0.00     0.029 A 
ATOM     64  N   UNL     1      12.276  -3.483   7.909  1.00  0.00    -0.354 N 
ATOM     65  N   UNL     1      10.371  -4.403   4.457  1.00  0.00    -0.248 NA
ATOM     66  C   UNL     1      12.405  -3.322   4.059  1.00  0.00     0.031 C 
ATOM     67  C   UNL     1      11.378  -4.814   9.360  1.00  0.00     0.029 A 
ATOM     68  C   UNL     1      11.451  -4.555   7.997  1.00  0.00     0.049 A 
ATOM     69  H   UNL     1      12.477  -3.036   7.055  1.00  0.00     0.167 HD
ATOM     70  C   UNL     1      11.213  -4.591   5.548  1.00  0.00     0.074 A 
ATOM     71  C   UNL     1      12.503  -4.050   5.166  1.00  0.00     0.031 C 
ATOM     72  C   UNL     1      10.762  -4.944   6.789  1.00  0.00     0.037 A 
BRANCH  59  73
ATOM     73  C   UNL     1      15.104  -2.153   9.478  1.00  0.00     0.057 A 
ATOM     74  C   UNL     1      15.577  -1.654  10.689  1.00  0.00     0.134 A 
ATOM     75  C   UNL     1      15.890  -3.108   8.812  1.00  0.00     0.134 A 
ATOM     76  F   UNL     1      14.871  -0.749  11.380  1.00  0.00    -0.206 F 
ATOM     77  C   UNL     1      16.774  -2.130  11.241  1.00  0.00     0.040 A 
ATOM     78  C   UNL     1      17.072  -3.602   9.358  1.00  0.00     0.040 A 
ATOM     79  F   UNL     1      15.483  -3.618   7.637  1.00  0.00    -0.206 F 
ATOM     80  C   UNL     1      17.510  -3.122  10.587  1.00  0.00     0.006 A 
ENDBRANCH  59  73
BRANCH  60  81
ATOM     81  C   UNL     1      11.033  -2.323   1.353  1.00  0.00     0.057 A 
ATOM     82  C   UNL     1      12.222  -2.895   0.880  1.00  0.00     0.134 A 
ATOM     83  C   UNL     1      10.420  -1.398   0.486  1.00  0.00     0.134 A 
ATOM     84  F   UNL     1      12.816  -3.904   1.529  1.00  0.00    -0.206 F 
ATOM     85  C   UNL     1      12.850  -2.455  -0.291  1.00  0.00     0.040 A 
ATOM     86  C   UNL     1      11.020  -0.970  -0.704  1.00  0.00     0.040 A 
ATOM     87  F   UNL     1       9.208  -0.895   0.770  1.00  0.00    -0.206 F 
ATOM     88  C   UNL     1      12.259  -1.474  -1.077  1.00  0.00     0.006 A 
ENDBRANCH  60  81
BRANCH  72  89
ATOM     89  C   UNL     1       9.418  -5.564   6.823  1.00  0.00     0.057 A 
ATOM     90  C   UNL     1       8.347  -5.006   7.527  1.00  0.00     0.134 A 
ATOM     91  C   UNL     1       9.191  -6.755   6.122  1.00  0.00     0.134 A 
ATOM     92  F   UNL     1       8.488  -3.859   8.210  1.00  0.00    -0.206 F 
ATOM     93  C   UNL     1       7.093  -5.620   7.535  1.00  0.00     0.040 A 
ATOM     94  C   UNL     1       7.939  -7.361   6.101  1.00  0.00     0.040 A 
ATOM     95  F   UNL     1      10.190  -7.353   5.451  1.00  0.00    -0.206 F 
ATOM     96  C   UNL     1       6.886  -6.796   6.815  1.00  0.00     0.006 A 
ENDBRANCH  72  89
ENDBRANCH  46  47
ENDBRANCH  38  41
ENDBRANCH  36  37
ENDBRANCH  35  36
ENDBRANCH  34  35
ENDBRANCH   3  34
TORSDOF 16
