REMARK SMILES CCCc1nc2cc(C(=O)NCCCNC(=O)c3ccc(-c4c5nc(c(-c6c(F)cccc6F)c6ccc([nH]6)c(-c6c(F)cccc6F)c6nc(c(-c7c(F)cccc7F)c7ccc4[nH]7)C=C6)C=C5)cc3)ccc2n1[C@H](CO)C(C)C
REMARK SMILES IDX 12 1 11 2 9 3 10 4 8 6 4 7 5 8 75 9 6 10 74 11 7 12 73 13
REMARK SMILES IDX 72 14 3 15 2 16 1 17 76 18 79 19 80 20 81 21 77 22 78 23
REMARK SMILES IDX 13 25 14 26 15 27 16 28 17 30 18 31 19 32 71 33 20 34 70 35
REMARK SMILES IDX 21 36 22 37 23 38 64 39 24 40 69 41 63 42 65 43 25 44 68 45
REMARK SMILES IDX 62 46 61 47 26 49 52 50 35 51 51 52 36 53 39 54 50 55 66 56
REMARK SMILES IDX 37 57 38 58 49 60 67 61 40 62 27 63 28 64 33 65 29 66 30 67
REMARK SMILES IDX 32 68 34 69 31 70 53 71 54 72 59 73 55 74 56 75 58 76 60 77
REMARK SMILES IDX 57 78 41 79 42 80 47 81 43 82 44 83 46 84 48 85 45 86
REMARK H PARENT 11 5 78 24 15 29 65 48 39 59
REMARK Flexibility Score: inf
ROOT
ATOM      1  C   UNL     1      -4.659   8.961   2.903  1.00  0.00     0.118 C 
ENDROOT
BRANCH   1   2
ATOM      2  N   UNL     1      -4.853   8.055   4.025  1.00  0.00    -0.352 N 
ATOM      3  C   UNL     1      -4.135   7.007   4.539  1.00  0.00     0.251 C 
ATOM      4  O   UNL     1      -4.582   6.498   5.578  1.00  0.00    -0.269 OA
ATOM      5  H   UNL     1      -5.682   8.233   4.524  1.00  0.00     0.163 HD
BRANCH   3   6
ATOM      6  C   UNL     1      -2.870   6.465   3.962  1.00  0.00     0.042 A 
ATOM      7  C   UNL     1       0.799   3.787   3.928  1.00  0.00     0.110 A 
ATOM      8  N   UNL     1      -0.091   4.110   4.849  1.00  0.00    -0.233 NA
ATOM      9  N   UNL     1       0.668   4.621   2.823  1.00  0.00    -0.322 N 
ATOM     10  C   UNL     1      -0.928   5.029   4.280  1.00  0.00     0.090 A 
ATOM     11  C   UNL     1      -0.495   5.356   3.005  1.00  0.00     0.069 A 
ATOM     12  C   UNL     1      -2.104   5.611   4.783  1.00  0.00     0.044 A 
ATOM     13  C   UNL     1      -1.217   6.216   2.174  1.00  0.00     0.029 A 
ATOM     14  C   UNL     1      -2.436   6.707   2.656  1.00  0.00     0.016 A 
BRANCH   7  15
ATOM     15  C   UNL     1       1.781   2.659   4.064  1.00  0.00     0.075 C 
BRANCH  15  16
ATOM     16  C   UNL     1       1.732   1.900   5.392  1.00  0.00     0.005 C 
ATOM     17  C   UNL     1       0.484   1.055   5.582  1.00  0.00     0.004 C 
ENDBRANCH  15  16
ENDBRANCH   7  15
BRANCH   9  18
ATOM     18  C   UNL     1       1.471   4.719   1.593  1.00  0.00     0.117 C 
BRANCH  18  19
ATOM     19  C   UNL     1       2.994   4.403   1.716  1.00  0.00     0.008 C 
ATOM     20  C   UNL     1       3.776   4.643   0.414  1.00  0.00     0.009 C 
ATOM     21  C   UNL     1       3.667   5.269   2.800  1.00  0.00     0.009 C 
ENDBRANCH  18  19
BRANCH  18  22
ATOM     22  C   UNL     1       0.752   4.000   0.420  1.00  0.00     0.181 C 
BRANCH  22  23
ATOM     23  O   UNL     1       0.193   2.736   0.748  1.00  0.00    -0.394 OA
ATOM     24  H   UNL     1       0.901   2.127   1.011  1.00  0.00     0.210 HD
ENDBRANCH  22  23
ENDBRANCH  18  22
ENDBRANCH   9  18
ENDBRANCH   3   6
ENDBRANCH   1   2
BRANCH   1  25
ATOM     25  C   UNL     1      -5.516   8.565   1.692  1.00  0.00     0.042 C 
BRANCH  25  26
ATOM     26  C   UNL     1      -6.979   8.996   1.822  1.00  0.00     0.118 C 
BRANCH  26  27
ATOM     27  N   UNL     1      -7.143  10.427   2.007  1.00  0.00    -0.352 N 
ATOM     28  C   UNL     1      -7.254  11.528   1.211  1.00  0.00     0.251 C 
ATOM     29  H   UNL     1      -7.187  10.665   2.962  1.00  0.00     0.163 HD
ATOM     30  O   UNL     1      -7.421  12.594   1.812  1.00  0.00    -0.269 OA
BRANCH  28  31
ATOM     31  C   UNL     1      -7.123  11.572  -0.272  1.00  0.00     0.039 A 
ATOM     32  C   UNL     1      -6.992  10.482  -1.130  1.00  0.00     0.014 A 
ATOM     33  C   UNL     1      -7.098  12.868  -0.832  1.00  0.00     0.014 A 
ATOM     34  C   UNL     1      -6.721  10.696  -2.488  1.00  0.00     0.010 A 
ATOM     35  C   UNL     1      -6.845  13.084  -2.182  1.00  0.00     0.010 A 
ATOM     36  C   UNL     1      -6.593  11.998  -3.005  1.00  0.00    -0.014 A 
BRANCH  36  37
ATOM     37  C   UNL     1      -6.430  12.190  -4.454  1.00  0.00     0.031 A 
ATOM     38  C   UNL     1      -7.553  11.570  -5.214  1.00  0.00     0.074 A 
ATOM     39  C   UNL     1      -5.461  12.930  -5.050  1.00  0.00     0.049 A 
ATOM     40  N   UNL     1      -7.492  10.521  -5.966  1.00  0.00    -0.248 NA
ATOM     41  C   UNL     1      -8.929  12.024  -4.946  1.00  0.00     0.031 C 
ATOM     42  C   UNL     1      -4.449  13.776  -4.412  1.00  0.00     0.029 A 
ATOM     43  N   UNL     1      -5.203  13.134  -6.385  1.00  0.00    -0.354 N 
ATOM     44  C   UNL     1      -8.780  10.330  -6.461  1.00  0.00     0.074 A 
ATOM     45  C   UNL     1      -9.644  11.148  -5.656  1.00  0.00     0.031 C 
ATOM     46  C   UNL     1      -3.848  14.563  -5.339  1.00  0.00     0.029 A 
ATOM     47  C   UNL     1      -4.316  14.188  -6.661  1.00  0.00     0.049 A 
ATOM     48  H   UNL     1      -5.608  12.583  -7.093  1.00  0.00     0.167 HD
ATOM     49  C   UNL     1      -8.958   9.742  -7.676  1.00  0.00     0.037 A 
ATOM     50  C   UNL     1      -4.001  14.710  -7.883  1.00  0.00     0.037 A 
ATOM     51  C   UNL     1      -7.772   9.006  -8.052  1.00  0.00     0.049 A 
ATOM     52  C   UNL     1      -4.369  13.703  -8.902  1.00  0.00     0.074 A 
ATOM     53  C   UNL     1      -7.066   7.936  -7.541  1.00  0.00     0.029 A 
ATOM     54  N   UNL     1      -6.924   9.637  -8.923  1.00  0.00    -0.354 N 
ATOM     55  N   UNL     1      -3.739  12.576  -9.059  1.00  0.00    -0.248 NA
ATOM     56  C   UNL     1      -5.727  13.748  -9.413  1.00  0.00     0.031 C 
ATOM     57  C   UNL     1      -5.694   8.242  -7.790  1.00  0.00     0.029 A 
ATOM     58  C   UNL     1      -5.636   9.429  -8.519  1.00  0.00     0.049 A 
ATOM     59  H   UNL     1      -7.198  10.158  -9.713  1.00  0.00     0.167 HD
ATOM     60  C   UNL     1      -4.751  11.645  -9.220  1.00  0.00     0.074 A 
ATOM     61  C   UNL     1      -5.952  12.435  -9.500  1.00  0.00     0.031 C 
ATOM     62  C   UNL     1      -4.570  10.355  -8.811  1.00  0.00     0.037 A 
BRANCH  49  63
ATOM     63  C   UNL     1      -9.928  10.261  -8.727  1.00  0.00     0.057 A 
ATOM     64  C   UNL     1     -10.553  11.524  -8.693  1.00  0.00     0.134 A 
ATOM     65  C   UNL     1      -9.945   9.629  -9.988  1.00  0.00     0.134 A 
ATOM     66  F   UNL     1     -10.630  12.269  -7.587  1.00  0.00    -0.206 F 
ATOM     67  C   UNL     1     -11.061  12.150  -9.835  1.00  0.00     0.040 A 
ATOM     68  C   UNL     1     -10.412  10.266 -11.144  1.00  0.00     0.040 A 
ATOM     69  F   UNL     1      -9.402   8.414 -10.157  1.00  0.00    -0.206 F 
ATOM     70  C   UNL     1     -10.954  11.541 -11.073  1.00  0.00     0.006 A 
ENDBRANCH  49  63
BRANCH  50  71
ATOM     71  C   UNL     1      -3.670  16.099  -8.310  1.00  0.00     0.057 A 
ATOM     72  C   UNL     1      -4.190  17.206  -7.623  1.00  0.00     0.134 A 
ATOM     73  C   UNL     1      -3.125  16.374  -9.580  1.00  0.00     0.134 A 
ATOM     74  F   UNL     1      -4.802  17.053  -6.441  1.00  0.00    -0.206 F 
ATOM     75  C   UNL     1      -4.195  18.498  -8.170  1.00  0.00     0.040 A 
ATOM     76  C   UNL     1      -3.124  17.663 -10.140  1.00  0.00     0.040 A 
ATOM     77  F   UNL     1      -2.647  15.383 -10.347  1.00  0.00    -0.206 F 
ATOM     78  C   UNL     1      -3.674  18.729  -9.438  1.00  0.00     0.006 A 
ENDBRANCH  50  71
BRANCH  62  79
ATOM     79  C   UNL     1      -3.169   9.916  -8.489  1.00  0.00     0.057 A 
ATOM     80  C   UNL     1      -2.647   8.828  -9.197  1.00  0.00     0.134 A 
ATOM     81  C   UNL     1      -2.370  10.451  -7.466  1.00  0.00     0.134 A 
ATOM     82  F   UNL     1      -3.377   8.233 -10.154  1.00  0.00    -0.206 F 
ATOM     83  C   UNL     1      -1.386   8.302  -8.920  1.00  0.00     0.040 A 
ATOM     84  C   UNL     1      -1.087   9.956  -7.203  1.00  0.00     0.040 A 
ATOM     85  F   UNL     1      -2.820  11.431  -6.670  1.00  0.00    -0.206 F 
ATOM     86  C   UNL     1      -0.594   8.876  -7.930  1.00  0.00     0.006 A 
ENDBRANCH  62  79
ENDBRANCH  36  37
ENDBRANCH  28  31
ENDBRANCH  26  27
ENDBRANCH  25  26
ENDBRANCH   1  25
TORSDOF 16
