REMARK SMILES Cc1ccc2nc(C(=O)NCCCNC(=O)c3ccc(-c4c5nc(c(-c6c(F)cccc6F)c6ccc([nH]6)c(-c6c(F)cccc6F)c6nc(c(-c7c(F)cccc7F)c7ccc4[nH]7)C=C6)C=C5)cc3)cc(N3CCOCC3)c2c1
REMARK SMILES IDX 12 1 11 2 10 3 8 4 9 5 7 7 1 8 2 9 3 10 80 11 4 12 79 13
REMARK SMILES IDX 5 14 72 15 6 16 71 17 73 18 74 19 78 20 75 21 77 22 76 23
REMARK SMILES IDX 13 24 14 25 15 26 16 28 17 29 18 30 70 31 19 32 69 33 20 34
REMARK SMILES IDX 21 35 22 36 63 37 23 38 68 39 62 40 64 41 24 42 67 43 61 44
REMARK SMILES IDX 60 45 25 47 51 48 34 49 50 50 35 51 38 52 49 53 65 54 36 55
REMARK SMILES IDX 37 56 48 58 66 59 39 60 26 61 27 62 32 63 28 64 29 65 31 66
REMARK SMILES IDX 33 67 30 68 52 69 53 70 58 71 54 72 55 73 57 74 59 75 56 76
REMARK SMILES IDX 40 77 41 78 46 79 42 80 43 81 45 82 47 83 44 84
REMARK H PARENT 10 6 14 27 64 46 38 57
REMARK Flexibility Score: inf
ROOT
ATOM      1  C   UNL     1      -5.763  -2.094   0.494  1.00  0.00     0.042 C 
ENDROOT
BRANCH   1   2
ATOM      2  C   UNL     1      -5.321  -1.213  -0.675  1.00  0.00     0.118 C 
BRANCH   2   3
ATOM      3  N   UNL     1      -5.077   0.148  -0.240  1.00  0.00    -0.351 N 
ATOM      4  C   UNL     1      -3.936   0.831   0.118  1.00  0.00     0.269 C 
ATOM      5  O   UNL     1      -4.094   2.016   0.422  1.00  0.00    -0.268 OA
ATOM      6  H   UNL     1      -5.894   0.696  -0.189  1.00  0.00     0.163 HD
BRANCH   4   7
ATOM      7  C   UNL     1      -2.554   0.230   0.122  1.00  0.00     0.130 A 
ATOM      8  C   UNL     1       3.878  -0.441  -0.165  1.00  0.00     0.044 C 
ATOM      9  C   UNL     1       2.440  -0.023  -0.113  1.00  0.00    -0.050 A 
ATOM     10  C   UNL     1       2.069   1.317  -0.155  1.00  0.00     0.005 A 
ATOM     11  C   UNL     1       1.434  -0.991  -0.023  1.00  0.00     0.016 A 
ATOM     12  C   UNL     1       0.717   1.669  -0.117  1.00  0.00     0.029 A 
ATOM     13  C   UNL     1       0.065  -0.643   0.065  1.00  0.00     0.024 A 
ATOM     14  C   UNL     1      -0.289   0.718  -0.015  1.00  0.00     0.073 A 
ATOM     15  C   UNL     1      -0.980  -1.592   0.214  1.00  0.00     0.049 A 
ATOM     16  N   UNL     1      -1.558   1.140  -0.005  1.00  0.00    -0.242 NA
ATOM     17  C   UNL     1      -2.295  -1.121   0.276  1.00  0.00     0.060 A 
BRANCH  15  18
ATOM     18  N   UNL     1      -0.714  -2.958   0.295  1.00  0.00    -0.366 N 
ATOM     19  C   UNL     1      -0.129  -3.474   1.547  1.00  0.00     0.145 C 
ATOM     20  C   UNL     1      -1.576  -3.928  -0.400  1.00  0.00     0.145 C 
ATOM     21  C   UNL     1       0.589  -4.802   1.252  1.00  0.00     0.181 C 
ATOM     22  C   UNL     1      -0.801  -5.239  -0.606  1.00  0.00     0.181 C 
ATOM     23  O   UNL     1      -0.297  -5.755   0.638  1.00  0.00    -0.378 OA
ENDBRANCH  15  18
ENDBRANCH   4   7
ENDBRANCH   2   3
ENDBRANCH   1   2
BRANCH   1  24
ATOM     24  C   UNL     1      -7.209  -1.853   0.924  1.00  0.00     0.118 C 
BRANCH  24  25
ATOM     25  N   UNL     1      -8.154  -2.356  -0.059  1.00  0.00    -0.352 N 
ATOM     26  C   UNL     1      -9.190  -3.244   0.079  1.00  0.00     0.251 C 
ATOM     27  H   UNL     1      -8.032  -2.002  -0.970  1.00  0.00     0.163 HD
ATOM     28  O   UNL     1      -9.717  -3.706  -0.929  1.00  0.00    -0.269 OA
BRANCH  26  29
ATOM     29  C   UNL     1      -9.680  -3.657   1.414  1.00  0.00     0.039 A 
ATOM     30  C   UNL     1     -10.113  -4.977   1.583  1.00  0.00     0.014 A 
ATOM     31  C   UNL     1      -9.800  -2.748   2.469  1.00  0.00     0.014 A 
ATOM     32  C   UNL     1     -10.640  -5.390   2.809  1.00  0.00     0.010 A 
ATOM     33  C   UNL     1     -10.269  -3.176   3.712  1.00  0.00     0.010 A 
ATOM     34  C   UNL     1     -10.710  -4.496   3.888  1.00  0.00    -0.014 A 
BRANCH  34  35
ATOM     35  C   UNL     1     -11.274  -4.921   5.194  1.00  0.00     0.031 A 
ATOM     36  C   UNL     1     -12.566  -4.330   5.690  1.00  0.00     0.074 A 
ATOM     37  C   UNL     1     -10.606  -5.812   5.951  1.00  0.00     0.049 A 
ATOM     38  N   UNL     1     -13.193  -4.541   6.820  1.00  0.00    -0.248 NA
ATOM     39  C   UNL     1     -13.227  -3.353   4.811  1.00  0.00     0.031 C 
ATOM     40  C   UNL     1      -9.326  -6.428   5.600  1.00  0.00     0.029 A 
ATOM     41  N   UNL     1     -10.909  -6.348   7.176  1.00  0.00    -0.354 N 
ATOM     42  C   UNL     1     -14.308  -3.713   6.795  1.00  0.00     0.074 A 
ATOM     43  C   UNL     1     -14.250  -2.964   5.558  1.00  0.00     0.031 C 
ATOM     44  C   UNL     1      -8.963  -7.274   6.578  1.00  0.00     0.029 A 
ATOM     45  C   UNL     1      -9.970  -7.239   7.634  1.00  0.00     0.049 A 
ATOM     46  H   UNL     1     -11.723  -6.117   7.679  1.00  0.00     0.167 HD
ATOM     47  C   UNL     1     -15.301  -3.600   7.709  1.00  0.00     0.037 A 
ATOM     48  C   UNL     1      -9.926  -7.948   8.778  1.00  0.00     0.037 A 
ATOM     49  C   UNL     1     -15.375  -4.368   8.925  1.00  0.00     0.049 A 
ATOM     50  C   UNL     1     -11.052  -7.824   9.765  1.00  0.00     0.074 A 
ATOM     51  C   UNL     1     -16.366  -4.363   9.891  1.00  0.00     0.029 A 
ATOM     52  N   UNL     1     -14.419  -5.284   9.337  1.00  0.00    -0.354 N 
ATOM     53  N   UNL     1     -12.126  -7.076   9.703  1.00  0.00    -0.248 NA
ATOM     54  C   UNL     1     -10.963  -8.651  10.976  1.00  0.00     0.031 C 
ATOM     55  C   UNL     1     -15.995  -5.256  10.903  1.00  0.00     0.029 A 
ATOM     56  C   UNL     1     -14.792  -5.843  10.548  1.00  0.00     0.049 A 
ATOM     57  H   UNL     1     -13.597  -5.503   8.843  1.00  0.00     0.167 HD
ATOM     58  C   UNL     1     -12.855  -7.362  10.850  1.00  0.00     0.074 A 
ATOM     59  C   UNL     1     -12.105  -8.360  11.584  1.00  0.00     0.031 C 
ATOM     60  C   UNL     1     -14.038  -6.843  11.259  1.00  0.00     0.037 A 
BRANCH  47  61
ATOM     61  C   UNL     1     -16.393  -2.611   7.424  1.00  0.00     0.057 A 
ATOM     62  C   UNL     1     -17.348  -2.835   6.424  1.00  0.00     0.134 A 
ATOM     63  C   UNL     1     -16.506  -1.433   8.173  1.00  0.00     0.134 A 
ATOM     64  F   UNL     1     -17.288  -3.938   5.662  1.00  0.00    -0.206 F 
ATOM     65  C   UNL     1     -18.361  -1.911   6.161  1.00  0.00     0.040 A 
ATOM     66  C   UNL     1     -17.529  -0.513   7.936  1.00  0.00     0.040 A 
ATOM     67  F   UNL     1     -15.628  -1.159   9.149  1.00  0.00    -0.206 F 
ATOM     68  C   UNL     1     -18.457  -0.748   6.923  1.00  0.00     0.006 A 
ENDBRANCH  47  61
BRANCH  48  69
ATOM     69  C   UNL     1      -8.791  -8.868   9.034  1.00  0.00     0.057 A 
ATOM     70  C   UNL     1      -8.963 -10.256   8.972  1.00  0.00     0.134 A 
ATOM     71  C   UNL     1      -7.514  -8.388   9.345  1.00  0.00     0.134 A 
ATOM     72  F   UNL     1     -10.168 -10.775   8.696  1.00  0.00    -0.206 F 
ATOM     73  C   UNL     1      -7.909 -11.135   9.227  1.00  0.00     0.040 A 
ATOM     74  C   UNL     1      -6.446  -9.254   9.581  1.00  0.00     0.040 A 
ATOM     75  F   UNL     1      -7.285  -7.068   9.411  1.00  0.00    -0.206 F 
ATOM     76  C   UNL     1      -6.644 -10.633   9.528  1.00  0.00     0.006 A 
ENDBRANCH  48  69
BRANCH  60  77
ATOM     77  C   UNL     1     -14.609  -7.376  12.539  1.00  0.00     0.057 A 
ATOM     78  C   UNL     1     -14.077  -7.027  13.786  1.00  0.00     0.134 A 
ATOM     79  C   UNL     1     -15.721  -8.227  12.522  1.00  0.00     0.134 A 
ATOM     80  F   UNL     1     -13.004  -6.227  13.868  1.00  0.00    -0.206 F 
ATOM     81  C   UNL     1     -14.617  -7.526  14.973  1.00  0.00     0.040 A 
ATOM     82  C   UNL     1     -16.284  -8.714  13.702  1.00  0.00     0.040 A 
ATOM     83  F   UNL     1     -16.282  -8.592  11.360  1.00  0.00    -0.206 F 
ATOM     84  C   UNL     1     -15.727  -8.368  14.932  1.00  0.00     0.006 A 
ENDBRANCH  60  77
ENDBRANCH  34  35
ENDBRANCH  26  29
ENDBRANCH  24  25
ENDBRANCH   1  24
TORSDOF 11
