REMARK SMILES CCc1ccc(S(=O)(=O)c2nnn(-c3ccc(C(=O)NCCCNC(=O)c4ccc(-c5c6nc(c(-c7c(F)cccc7F)c7ccc([nH]7)c(-c7c(F)cccc7F)c7nc(c(-c8c(F)cccc8F)c8ccc5[nH]8)C=C7)C=C6)cc4)cc3)c2C)cc1
REMARK SMILES IDX 21 1 20 2 18 3 19 4 17 6 14 7 15 8 82 9 16 10 81 11 13 12
REMARK SMILES IDX 10 13 11 14 83 15 12 16 84 17 7 18 8 19 9 20 6 21 3 22 4 23
REMARK SMILES IDX 86 24 5 25 85 26 2 27 1 28 22 29 23 30 24 31 25 32 26 34
REMARK SMILES IDX 27 35 28 36 80 37 29 38 79 39 30 40 31 41 32 42 73 43 33 44
REMARK SMILES IDX 78 45 72 46 74 47 34 48 77 49 71 50 70 51 35 53 61 54 44 55
REMARK SMILES IDX 60 56 45 57 48 58 59 59 75 60 46 61 47 62 58 64 76 65 49 66
REMARK SMILES IDX 36 67 37 68 42 69 38 70 39 71 41 72 43 73 40 74 62 75 63 76
REMARK SMILES IDX 68 77 64 78 65 79 67 80 69 81 66 82 50 83 51 84 56 85 52 86
REMARK SMILES IDX 53 87 55 88 57 89 54 90
REMARK H PARENT 20 5 24 33 74 52 48 63
REMARK Flexibility Score: inf
ROOT
ATOM      1  C   UNL     1      -4.984   8.288   6.164  1.00  0.00     0.118 C 
ENDROOT
BRANCH   1   2
ATOM      2  N   UNL     1      -4.377   9.313   5.321  1.00  0.00    -0.352 N 
ATOM      3  C   UNL     1      -3.091   9.495   4.865  1.00  0.00     0.251 C 
ATOM      4  O   UNL     1      -2.885  10.412   4.070  1.00  0.00    -0.269 OA
ATOM      5  H   UNL     1      -5.008  10.007   5.021  1.00  0.00     0.163 HD
BRANCH   3   6
ATOM      6  C   UNL     1      -1.963   8.595   5.242  1.00  0.00     0.039 A 
ATOM      7  C   UNL     1       0.041   6.710   5.706  1.00  0.00     0.067 A 
ATOM      8  C   UNL     1       0.157   7.564   4.609  1.00  0.00     0.029 A 
ATOM      9  C   UNL     1      -0.982   6.878   6.636  1.00  0.00     0.029 A 
ATOM     10  C   UNL     1      -0.869   8.485   4.364  1.00  0.00     0.016 A 
ATOM     11  C   UNL     1      -1.945   7.851   6.421  1.00  0.00     0.016 A 
BRANCH   7  12
ATOM     12  N   UNL     1       0.901   5.613   5.863  1.00  0.00    -0.216 N 
ATOM     13  C   UNL     1       1.742   3.659   6.280  1.00  0.00     0.205 A 
ATOM     14  N   UNL     1       2.767   4.542   6.060  1.00  0.00    -0.117 NA
ATOM     15  C   UNL     1       0.530   4.298   6.081  1.00  0.00     0.081 A 
ATOM     16  N   UNL     1       2.236   5.710   5.719  1.00  0.00    -0.061 NA
ATOM     17  C   UNL     1      -0.852   3.780   5.902  1.00  0.00     0.070 C 
BRANCH  13  18
ATOM     18  S   UNL     1       2.013   1.964   6.483  1.00  0.00     0.227 S 
ATOM     19  O   UNL     1       0.984   1.554   7.428  1.00  0.00    -0.217 OA
ATOM     20  O   UNL     1       3.422   1.808   6.751  1.00  0.00    -0.217 OA
BRANCH  18  21
ATOM     21  C   UNL     1       1.647   1.203   4.924  1.00  0.00     0.073 A 
ATOM     22  C   UNL     1       0.935  -0.061   2.522  1.00  0.00    -0.048 A 
ATOM     23  C   UNL     1       1.203  -0.814   3.678  1.00  0.00     0.005 A 
ATOM     24  C   UNL     1       1.015   1.335   2.597  1.00  0.00     0.005 A 
ATOM     25  C   UNL     1       1.552  -0.189   4.877  1.00  0.00     0.021 A 
ATOM     26  C   UNL     1       1.395   1.964   3.780  1.00  0.00     0.021 A 
BRANCH  22  27
ATOM     27  C   UNL     1       0.510  -0.764   1.254  1.00  0.00     0.032 C 
ATOM     28  C   UNL     1       0.997  -0.111  -0.036  1.00  0.00     0.009 C 
ENDBRANCH  22  27
ENDBRANCH  18  21
ENDBRANCH  13  18
ENDBRANCH   7  12
ENDBRANCH   3   6
ENDBRANCH   1   2
BRANCH   1  29
ATOM     29  C   UNL     1      -5.024   8.701   7.644  1.00  0.00     0.042 C 
BRANCH  29  30
ATOM     30  C   UNL     1      -6.215   9.580   7.965  1.00  0.00     0.118 C 
BRANCH  30  31
ATOM     31  N   UNL     1      -7.482   8.841   7.950  1.00  0.00    -0.352 N 
ATOM     32  C   UNL     1      -8.760   9.328   8.163  1.00  0.00     0.251 C 
ATOM     33  H   UNL     1      -7.415   7.876   7.765  1.00  0.00     0.163 HD
ATOM     34  O   UNL     1      -9.676   8.580   8.480  1.00  0.00    -0.269 OA
BRANCH  32  35
ATOM     35  C   UNL     1      -8.995  10.770   7.989  1.00  0.00     0.039 A 
ATOM     36  C   UNL     1      -9.851  11.502   8.816  1.00  0.00     0.014 A 
ATOM     37  C   UNL     1      -8.276  11.398   6.980  1.00  0.00     0.014 A 
ATOM     38  C   UNL     1      -9.914  12.883   8.647  1.00  0.00     0.010 A 
ATOM     39  C   UNL     1      -8.134  12.752   7.002  1.00  0.00     0.010 A 
ATOM     40  C   UNL     1      -9.034  13.498   7.741  1.00  0.00    -0.014 A 
BRANCH  40  41
ATOM     41  C   UNL     1      -8.937  14.941   7.598  1.00  0.00     0.031 A 
ATOM     42  C   UNL     1      -8.629  15.637   8.870  1.00  0.00     0.074 A 
ATOM     43  C   UNL     1      -8.874  15.543   6.387  1.00  0.00     0.049 A 
ATOM     44  N   UNL     1      -9.419  16.389   9.559  1.00  0.00    -0.248 NA
ATOM     45  C   UNL     1      -7.367  15.311   9.558  1.00  0.00     0.031 C 
ATOM     46  C   UNL     1      -8.841  14.924   5.054  1.00  0.00     0.029 A 
ATOM     47  N   UNL     1      -8.724  16.863   6.095  1.00  0.00    -0.354 N 
ATOM     48  C   UNL     1      -8.664  16.835  10.638  1.00  0.00     0.074 A 
ATOM     49  C   UNL     1      -7.518  15.969  10.710  1.00  0.00     0.031 C 
ATOM     50  C   UNL     1      -8.449  15.834   4.133  1.00  0.00     0.029 A 
ATOM     51  C   UNL     1      -8.376  17.132   4.771  1.00  0.00     0.049 A 
ATOM     52  H   UNL     1      -8.850  17.573   6.765  1.00  0.00     0.167 HD
ATOM     53  C   UNL     1      -8.902  18.059  11.185  1.00  0.00     0.037 A 
ATOM     54  C   UNL     1      -8.036  18.343   4.259  1.00  0.00     0.037 A 
ATOM     55  C   UNL     1     -10.190  18.563  10.764  1.00  0.00     0.049 A 
ATOM     56  C   UNL     1      -8.541  19.370   5.206  1.00  0.00     0.074 A 
ATOM     57  C   UNL     1     -11.491  18.109  10.867  1.00  0.00     0.029 A 
ATOM     58  N   UNL     1     -10.202  19.503   9.762  1.00  0.00    -0.354 N 
ATOM     59  N   UNL     1      -9.809  19.597   5.410  1.00  0.00    -0.248 NA
ATOM     60  C   UNL     1      -7.649  19.778   6.280  1.00  0.00     0.031 C 
ATOM     61  C   UNL     1     -12.091  18.427   9.612  1.00  0.00     0.029 A 
ATOM     62  C   UNL     1     -11.160  19.137   8.853  1.00  0.00     0.049 A 
ATOM     63  H   UNL     1      -9.625  20.299   9.707  1.00  0.00     0.167 HD
ATOM     64  C   UNL     1      -9.920  19.752   6.784  1.00  0.00     0.074 A 
ATOM     65  C   UNL     1      -8.546  19.922   7.260  1.00  0.00     0.031 C 
ATOM     66  C   UNL     1     -11.073  19.422   7.439  1.00  0.00     0.037 A 
BRANCH  53  67
ATOM     67  C   UNL     1      -7.828  18.975  11.728  1.00  0.00     0.057 A 
ATOM     68  C   UNL     1      -8.218  20.186  12.330  1.00  0.00     0.134 A 
ATOM     69  C   UNL     1      -6.454  18.878  11.426  1.00  0.00     0.134 A 
ATOM     70  F   UNL     1      -9.497  20.407  12.669  1.00  0.00    -0.206 F 
ATOM     71  C   UNL     1      -7.330  21.252  12.521  1.00  0.00     0.040 A 
ATOM     72  C   UNL     1      -5.549  19.917  11.660  1.00  0.00     0.040 A 
ATOM     73  F   UNL     1      -5.920  17.824  10.800  1.00  0.00    -0.206 F 
ATOM     74  C   UNL     1      -5.992  21.123  12.174  1.00  0.00     0.006 A 
ENDBRANCH  53  67
BRANCH  54  75
ATOM     75  C   UNL     1      -7.052  18.671   3.199  1.00  0.00     0.057 A 
ATOM     76  C   UNL     1      -7.024  19.939   2.598  1.00  0.00     0.134 A 
ATOM     77  C   UNL     1      -5.931  17.855   2.963  1.00  0.00     0.134 A 
ATOM     78  F   UNL     1      -8.027  20.807   2.795  1.00  0.00    -0.206 F 
ATOM     79  C   UNL     1      -5.934  20.381   1.833  1.00  0.00     0.040 A 
ATOM     80  C   UNL     1      -4.838  18.283   2.200  1.00  0.00     0.040 A 
ATOM     81  F   UNL     1      -5.819  16.652   3.544  1.00  0.00    -0.206 F 
ATOM     82  C   UNL     1      -4.830  19.556   1.644  1.00  0.00     0.006 A 
ENDBRANCH  54  75
BRANCH  66  83
ATOM     83  C   UNL     1     -12.294  19.118   6.610  1.00  0.00     0.057 A 
ATOM     84  C   UNL     1     -12.404  18.037   5.720  1.00  0.00     0.134 A 
ATOM     85  C   UNL     1     -13.456  19.860   6.842  1.00  0.00     0.134 A 
ATOM     86  F   UNL     1     -11.377  17.209   5.502  1.00  0.00    -0.206 F 
ATOM     87  C   UNL     1     -13.603  17.737   5.064  1.00  0.00     0.040 A 
ATOM     88  C   UNL     1     -14.668  19.551   6.220  1.00  0.00     0.040 A 
ATOM     89  F   UNL     1     -13.444  20.874   7.721  1.00  0.00    -0.206 F 
ATOM     90  C   UNL     1     -14.743  18.492   5.320  1.00  0.00     0.006 A 
ENDBRANCH  66  83
ENDBRANCH  40  41
ENDBRANCH  32  35
ENDBRANCH  30  31
ENDBRANCH  29  30
ENDBRANCH   1  29
TORSDOF 14
