REMARK SMILES C=CCCCOc1ccc(C(=O)NCCCNC(=O)c2ccc(-c3c4nc(c(-c5c(F)cccc5F)c5ccc([nH]5)c(-c5c(F)cccc5F)c5nc(c(-c6c(F)cccc6F)c6ccc3[nH]6)C=C5)C=C4)cc2)cc1[N+](=O)[O-]
REMARK SMILES IDX 11 1 12 2 13 3 10 5 7 6 8 7 75 8 9 9 74 10 6 11 5 12 4 13
REMARK SMILES IDX 3 14 2 15 1 16 76 17 77 18 78 19 14 20 15 21 16 22 17 23
REMARK SMILES IDX 18 24 19 26 20 27 21 28 73 29 22 30 72 31 23 32 24 33 25 34
REMARK SMILES IDX 66 35 26 36 71 37 65 38 67 39 27 40 70 41 64 42 63 43 28 45
REMARK SMILES IDX 54 46 37 47 53 48 38 49 41 50 52 51 68 52 39 53 40 54 51 56
REMARK SMILES IDX 69 57 42 58 29 59 30 60 35 61 31 62 32 63 34 64 36 65 33 66
REMARK SMILES IDX 55 67 56 68 61 69 57 70 58 71 60 72 62 73 59 74 43 75 44 76
REMARK SMILES IDX 49 77 45 78 46 79 48 80 50 81 47 82
REMARK H PARENT 13 4 17 25 67 44 41 55
REMARK Flexibility Score: inf
ROOT
ATOM      1  C   UNL     1      -0.601   4.806   2.297  1.00  0.00     0.251 C 
ATOM      2  O   UNL     1      -0.329   5.661   3.138  1.00  0.00    -0.269 OA
ATOM      3  N   UNL     1      -0.395   5.067   0.965  1.00  0.00    -0.352 N 
ATOM      4  H   UNL     1      -0.168   6.003   0.757  1.00  0.00     0.163 HD
ENDROOT
BRANCH   1   5
ATOM      5  C   UNL     1      -1.092   3.485   2.742  1.00  0.00     0.046 A 
ATOM      6  C   UNL     1      -1.784   0.871   3.460  1.00  0.00     0.197 A 
ATOM      7  C   UNL     1      -0.776   1.541   4.158  1.00  0.00     0.055 A 
ATOM      8  C   UNL     1      -2.539   1.573   2.518  1.00  0.00     0.311 A 
ATOM      9  C   UNL     1      -0.426   2.845   3.795  1.00  0.00     0.018 A 
ATOM     10  C   UNL     1      -2.199   2.879   2.150  1.00  0.00     0.103 A 
BRANCH   6  11
ATOM     11  O   UNL     1      -2.025  -0.451   3.698  1.00  0.00    -0.487 OA
BRANCH  11  12
ATOM     12  C   UNL     1      -0.938  -1.313   3.319  1.00  0.00     0.230 C 
BRANCH  12  13
ATOM     13  C   UNL     1      -1.050  -1.779   1.860  1.00  0.00     0.046 C 
BRANCH  13  14
ATOM     14  C   UNL     1      -0.512  -0.805   0.800  1.00  0.00     0.030 C 
BRANCH  14  15
ATOM     15  C   UNL     1       0.969  -0.560   0.854  1.00  0.00    -0.035 C 
ATOM     16  C   UNL     1       1.695  -0.264  -0.233  1.00  0.00     0.004 C 
ENDBRANCH  14  15
ENDBRANCH  13  14
ENDBRANCH  12  13
ENDBRANCH  11  12
ENDBRANCH   6  11
BRANCH   8  17
ATOM     17  N   UNL     1      -3.619   0.919   1.792  1.00  0.00     0.066 N 
ATOM     18  O   UNL     1      -3.641   1.088   0.563  1.00  0.00    -0.258 OA
ATOM     19  O   UNL     1      -4.451   0.270   2.437  1.00  0.00    -0.258 OA
ENDBRANCH   8  17
ENDBRANCH   1   5
BRANCH   3  20
ATOM     20  C   UNL     1      -0.459   4.181  -0.191  1.00  0.00     0.118 C 
BRANCH  20  21
ATOM     21  C   UNL     1      -1.680   4.460  -1.064  1.00  0.00     0.042 C 
BRANCH  21  22
ATOM     22  C   UNL     1      -1.618   5.787  -1.814  1.00  0.00     0.118 C 
BRANCH  22  23
ATOM     23  N   UNL     1      -0.638   5.775  -2.890  1.00  0.00    -0.352 N 
ATOM     24  C   UNL     1      -0.801   5.985  -4.237  1.00  0.00     0.251 C 
ATOM     25  H   UNL     1       0.286   5.588  -2.608  1.00  0.00     0.163 HD
ATOM     26  O   UNL     1       0.133   5.741  -5.001  1.00  0.00    -0.269 OA
BRANCH  24  27
ATOM     27  C   UNL     1      -2.083   6.481  -4.786  1.00  0.00     0.039 A 
ATOM     28  C   UNL     1      -2.550   5.942  -5.990  1.00  0.00     0.014 A 
ATOM     29  C   UNL     1      -2.807   7.495  -4.154  1.00  0.00     0.014 A 
ATOM     30  C   UNL     1      -3.767   6.375  -6.524  1.00  0.00     0.010 A 
ATOM     31  C   UNL     1      -4.056   7.873  -4.647  1.00  0.00     0.010 A 
ATOM     32  C   UNL     1      -4.548   7.319  -5.838  1.00  0.00    -0.014 A 
BRANCH  32  33
ATOM     33  C   UNL     1      -5.884   7.728  -6.347  1.00  0.00     0.031 A 
ATOM     34  C   UNL     1      -6.140   9.152  -6.761  1.00  0.00     0.074 A 
ATOM     35  C   UNL     1      -6.888   6.830  -6.375  1.00  0.00     0.049 A 
ATOM     36  N   UNL     1      -7.255   9.710  -7.160  1.00  0.00    -0.248 NA
ATOM     37  C   UNL     1      -4.997  10.076  -6.694  1.00  0.00     0.031 C 
ATOM     38  C   UNL     1      -6.782   5.430  -5.960  1.00  0.00     0.029 A 
ATOM     39  N   UNL     1      -8.200   6.963  -6.759  1.00  0.00    -0.354 N 
ATOM     40  C   UNL     1      -6.953  11.049  -7.376  1.00  0.00     0.074 A 
ATOM     41  C   UNL     1      -5.563  11.230  -7.018  1.00  0.00     0.031 C 
ATOM     42  C   UNL     1      -7.971   4.830  -6.128  1.00  0.00     0.029 A 
ATOM     43  C   UNL     1      -8.933   5.809  -6.623  1.00  0.00     0.049 A 
ATOM     44  H   UNL     1      -8.578   7.806  -7.099  1.00  0.00     0.167 HD
ATOM     45  C   UNL     1      -7.755  12.033  -7.849  1.00  0.00     0.037 A 
ATOM     46  C   UNL     1     -10.237   5.569  -6.859  1.00  0.00     0.037 A 
ATOM     47  C   UNL     1      -9.133  11.845  -8.225  1.00  0.00     0.049 A 
ATOM     48  C   UNL     1     -11.110   6.681  -7.371  1.00  0.00     0.074 A 
ATOM     49  C   UNL     1     -10.009  12.764  -8.775  1.00  0.00     0.029 A 
ATOM     50  N   UNL     1      -9.836  10.657  -8.086  1.00  0.00    -0.354 N 
ATOM     51  N   UNL     1     -10.792   7.925  -7.638  1.00  0.00    -0.248 NA
ATOM     52  C   UNL     1     -12.521   6.356  -7.619  1.00  0.00     0.031 C 
ATOM     53  C   UNL     1     -11.256  12.148  -8.920  1.00  0.00     0.029 A 
ATOM     54  C   UNL     1     -11.143  10.829  -8.513  1.00  0.00     0.049 A 
ATOM     55  H   UNL     1      -9.462   9.817  -7.735  1.00  0.00     0.167 HD
ATOM     56  C   UNL     1     -11.954   8.521  -8.111  1.00  0.00     0.074 A 
ATOM     57  C   UNL     1     -12.979   7.499  -8.109  1.00  0.00     0.031 C 
ATOM     58  C   UNL     1     -12.153   9.801  -8.511  1.00  0.00     0.037 A 
BRANCH  45  59
ATOM     59  C   UNL     1      -7.164  13.406  -7.986  1.00  0.00     0.057 A 
ATOM     60  C   UNL     1      -6.199  13.703  -8.958  1.00  0.00     0.134 A 
ATOM     61  C   UNL     1      -7.594  14.456  -7.164  1.00  0.00     0.134 A 
ATOM     62  F   UNL     1      -5.735  12.743  -9.772  1.00  0.00    -0.206 F 
ATOM     63  C   UNL     1      -5.664  14.986  -9.089  1.00  0.00     0.040 A 
ATOM     64  C   UNL     1      -7.088  15.749  -7.305  1.00  0.00     0.040 A 
ATOM     65  F   UNL     1      -8.522  14.245  -6.219  1.00  0.00    -0.206 F 
ATOM     66  C   UNL     1      -6.114  16.016  -8.265  1.00  0.00     0.006 A 
ENDBRANCH  45  59
BRANCH  46  67
ATOM     67  C   UNL     1     -10.797   4.213  -6.625  1.00  0.00     0.057 A 
ATOM     68  C   UNL     1     -11.208   3.408  -7.694  1.00  0.00     0.134 A 
ATOM     69  C   UNL     1     -10.944   3.695  -5.333  1.00  0.00     0.134 A 
ATOM     70  F   UNL     1     -11.111   3.857  -8.954  1.00  0.00    -0.206 F 
ATOM     71  C   UNL     1     -11.762   2.144  -7.486  1.00  0.00     0.040 A 
ATOM     72  C   UNL     1     -11.472   2.422  -5.112  1.00  0.00     0.040 A 
ATOM     73  F   UNL     1     -10.564   4.414  -4.267  1.00  0.00    -0.206 F 
ATOM     74  C   UNL     1     -11.891   1.645  -6.191  1.00  0.00     0.006 A 
ENDBRANCH  46  67
BRANCH  58  75
ATOM     75  C   UNL     1     -13.522  10.160  -9.012  1.00  0.00     0.057 A 
ATOM     76  C   UNL     1     -14.620  10.273  -8.151  1.00  0.00     0.134 A 
ATOM     77  C   UNL     1     -13.734  10.433 -10.370  1.00  0.00     0.134 A 
ATOM     78  F   UNL     1     -14.488  10.012  -6.841  1.00  0.00    -0.206 F 
ATOM     79  C   UNL     1     -15.886  10.621  -8.626  1.00  0.00     0.040 A 
ATOM     80  C   UNL     1     -14.988  10.810 -10.852  1.00  0.00     0.040 A 
ATOM     81  F   UNL     1     -12.722  10.352 -11.247  1.00  0.00    -0.206 F 
ATOM     82  C   UNL     1     -16.070  10.899  -9.979  1.00  0.00     0.006 A 
ENDBRANCH  58  75
ENDBRANCH  32  33
ENDBRANCH  24  27
ENDBRANCH  22  23
ENDBRANCH  21  22
ENDBRANCH  20  21
ENDBRANCH   3  20
TORSDOF 16
