REMARK SMILES CC[C@@H](C)[C@@H](NC(=O)Cn1ncc2ccccc2c1=O)C(=O)NCCCNC(=O)c1ccc(-c2c3nc(c(-c4c(F)cccc4F)c4ccc([nH]4)c(-c4c(F)cccc4F)c4nc(c(-c5c(F)cccc5F)c5ccc2[nH]5)C=C4)C=C3)cc1
REMARK SMILES IDX 24 1 23 2 21 3 22 4 5 6 3 7 4 8 2 9 1 10 6 11 7 12 8 14 9 15
REMARK SMILES IDX 10 16 11 17 19 18 12 19 18 20 20 21 13 22 17 23 14 24 16 25
REMARK SMILES IDX 15 26 25 27 26 28 27 29 28 30 29 32 30 33 31 34 83 35 32 36
REMARK SMILES IDX 82 37 33 38 34 39 35 40 76 41 36 42 81 43 75 44 77 45 37 46
REMARK SMILES IDX 80 47 74 48 73 49 38 51 64 52 47 53 63 54 48 55 51 56 62 57
REMARK SMILES IDX 78 58 49 59 50 60 61 62 79 63 52 64 39 65 40 66 45 67 41 68
REMARK SMILES IDX 42 69 44 70 46 71 43 72 65 73 66 74 71 75 67 76 68 77 70 78
REMARK SMILES IDX 72 79 69 80 53 81 54 82 59 83 55 84 56 85 58 86 60 87 57 88
REMARK H PARENT 23 5 6 13 27 31 77 50 51 61
REMARK Flexibility Score: inf
ROOT
ATOM      1  C   UNL     1       4.077  -1.899   2.862  1.00  0.00     0.117 C 
ENDROOT
BRANCH   1   2
ATOM      2  N   UNL     1       3.309  -0.857   3.518  1.00  0.00    -0.354 N 
ATOM      3  C   UNL     1       1.972  -0.735   3.734  1.00  0.00     0.242 C 
ATOM      4  O   UNL     1       1.608   0.290   4.316  1.00  0.00    -0.273 OA
ATOM      5  H   UNL     1       3.848  -0.111   3.867  1.00  0.00     0.163 HD
BRANCH   3   6
ATOM      6  C   UNL     1       0.940  -1.627   3.043  1.00  0.00     0.174 C 
BRANCH   6   7
ATOM      7  C   UNL     1       0.792  -0.879   1.662  1.00  0.00     0.018 C 
ATOM      8  C   UNL     1      -0.132   0.352   1.845  1.00  0.00     0.010 C 
BRANCH   7   9
ATOM      9  C   UNL     1       0.346  -1.666   0.420  1.00  0.00     0.002 C 
ATOM     10  C   UNL     1       0.643  -0.864  -0.858  1.00  0.00     0.004 C 
ENDBRANCH   7   9
ENDBRANCH   6   7
BRANCH   6  11
ATOM     11  N   UNL     1       1.396  -3.015   3.041  1.00  0.00    -0.342 N 
ATOM     12  C   UNL     1       1.610  -3.881   4.086  1.00  0.00     0.242 C 
ATOM     13  H   UNL     1       1.579  -3.390   2.149  1.00  0.00     0.164 HD
ATOM     14  O   UNL     1       1.857  -5.049   3.752  1.00  0.00    -0.273 OA
BRANCH  12  15
ATOM     15  C   UNL     1       1.417  -3.542   5.588  1.00  0.00     0.248 C 
BRANCH  15  16
ATOM     16  N   UNL     1       2.128  -2.408   6.184  1.00  0.00    -0.220 N 
ATOM     17  N   UNL     1       3.513  -2.472   6.226  1.00  0.00    -0.177 NA
ATOM     18  C   UNL     1       1.407  -1.404   6.847  1.00  0.00     0.275 A 
ATOM     19  C   UNL     1       4.151  -1.392   6.563  1.00  0.00     0.142 A 
ATOM     20  C   UNL     1       2.132  -0.128   7.040  1.00  0.00     0.050 A 
ATOM     21  O   UNL     1       0.220  -1.486   7.146  1.00  0.00    -0.267 OA
ATOM     22  C   UNL     1       3.493  -0.107   6.784  1.00  0.00     0.007 A 
ATOM     23  C   UNL     1       1.419   1.076   7.117  1.00  0.00     0.014 A 
ATOM     24  C   UNL     1       4.147   1.098   6.513  1.00  0.00     0.010 A 
ATOM     25  C   UNL     1       2.062   2.280   6.812  1.00  0.00     0.001 A 
ATOM     26  C   UNL     1       3.420   2.288   6.490  1.00  0.00     0.001 A 
ENDBRANCH  15  16
ENDBRANCH  12  15
ENDBRANCH   6  11
ENDBRANCH   3   6
ENDBRANCH   1   2
BRANCH   1  27
ATOM     27  C   UNL     1       5.417  -1.375   2.359  1.00  0.00     0.042 C 
BRANCH  27  28
ATOM     28  C   UNL     1       6.354  -0.858   3.447  1.00  0.00     0.118 C 
BRANCH  28  29
ATOM     29  N   UNL     1       6.928  -1.886   4.301  1.00  0.00    -0.352 N 
ATOM     30  C   UNL     1       8.010  -1.730   5.144  1.00  0.00     0.251 C 
ATOM     31  H   UNL     1       6.506  -2.775   4.276  1.00  0.00     0.163 HD
ATOM     32  O   UNL     1       8.459  -2.652   5.812  1.00  0.00    -0.269 OA
BRANCH  30  33
ATOM     33  C   UNL     1       8.612  -0.385   5.226  1.00  0.00     0.039 A 
ATOM     34  C   UNL     1       7.918   0.621   5.898  1.00  0.00     0.014 A 
ATOM     35  C   UNL     1       9.761  -0.091   4.498  1.00  0.00     0.014 A 
ATOM     36  C   UNL     1       8.258   1.956   5.686  1.00  0.00     0.010 A 
ATOM     37  C   UNL     1      10.151   1.243   4.356  1.00  0.00     0.010 A 
ATOM     38  C   UNL     1       9.360   2.283   4.882  1.00  0.00    -0.014 A 
BRANCH  38  39
ATOM     39  C   UNL     1       9.633   3.694   4.488  1.00  0.00     0.031 A 
ATOM     40  C   UNL     1       9.577   4.081   3.029  1.00  0.00     0.074 A 
ATOM     41  C   UNL     1       9.918   4.637   5.406  1.00  0.00     0.049 A 
ATOM     42  N   UNL     1       9.956   5.191   2.445  1.00  0.00    -0.248 NA
ATOM     43  C   UNL     1       9.025   3.079   2.102  1.00  0.00     0.031 C 
ATOM     44  C   UNL     1       9.944   4.437   6.854  1.00  0.00     0.029 A 
ATOM     45  N   UNL     1      10.250   5.961   5.247  1.00  0.00    -0.354 N 
ATOM     46  C   UNL     1       9.738   5.000   1.085  1.00  0.00     0.074 A 
ATOM     47  C   UNL     1       9.198   3.667   0.927  1.00  0.00     0.031 C 
ATOM     48  C   UNL     1      10.266   5.596   7.452  1.00  0.00     0.029 A 
ATOM     49  C   UNL     1      10.539   6.601   6.428  1.00  0.00     0.049 A 
ATOM     50  H   UNL     1      10.278   6.408   4.370  1.00  0.00     0.167 HD
ATOM     51  C   UNL     1       9.963   5.856   0.060  1.00  0.00     0.037 A 
ATOM     52  C   UNL     1      11.015   7.839   6.658  1.00  0.00     0.037 A 
ATOM     53  C   UNL     1      10.455   7.200   0.213  1.00  0.00     0.049 A 
ATOM     54  C   UNL     1      11.323   8.747   5.499  1.00  0.00     0.074 A 
ATOM     55  C   UNL     1      10.700   8.146  -0.768  1.00  0.00     0.029 A 
ATOM     56  N   UNL     1      10.763   7.793   1.426  1.00  0.00    -0.354 N 
ATOM     57  N   UNL     1      11.150   8.542   4.216  1.00  0.00    -0.248 NA
ATOM     58  C   UNL     1      11.909  10.057   5.823  1.00  0.00     0.031 C 
ATOM     59  C   UNL     1      11.188   9.303  -0.150  1.00  0.00     0.029 A 
ATOM     60  C   UNL     1      11.208   9.088   1.218  1.00  0.00     0.049 A 
ATOM     61  H   UNL     1      10.679   7.359   2.305  1.00  0.00     0.167 HD
ATOM     62  C   UNL     1      11.578   9.704   3.586  1.00  0.00     0.074 A 
ATOM     63  C   UNL     1      12.010  10.614   4.625  1.00  0.00     0.031 C 
ATOM     64  C   UNL     1      11.612   9.992   2.262  1.00  0.00     0.037 A 
BRANCH  51  65
ATOM     65  C   UNL     1       9.703   5.359  -1.332  1.00  0.00     0.057 A 
ATOM     66  C   UNL     1      10.771   5.082  -2.195  1.00  0.00     0.134 A 
ATOM     67  C   UNL     1       8.406   5.202  -1.835  1.00  0.00     0.134 A 
ATOM     68  F   UNL     1      12.038   5.216  -1.776  1.00  0.00    -0.206 F 
ATOM     69  C   UNL     1      10.558   4.672  -3.512  1.00  0.00     0.040 A 
ATOM     70  C   UNL     1       8.180   4.772  -3.144  1.00  0.00     0.040 A 
ATOM     71  F   UNL     1       7.341   5.435  -1.053  1.00  0.00    -0.206 F 
ATOM     72  C   UNL     1       9.258   4.513  -3.989  1.00  0.00     0.006 A 
ENDBRANCH  51  65
BRANCH  52  73
ATOM     73  C   UNL     1      11.280   8.293   8.047  1.00  0.00     0.057 A 
ATOM     74  C   UNL     1      12.332   7.760   8.800  1.00  0.00     0.134 A 
ATOM     75  C   UNL     1      10.515   9.309   8.632  1.00  0.00     0.134 A 
ATOM     76  F   UNL     1      13.103   6.786   8.294  1.00  0.00    -0.206 F 
ATOM     77  C   UNL     1      12.613   8.217  10.088  1.00  0.00     0.040 A 
ATOM     78  C   UNL     1      10.801   9.794   9.908  1.00  0.00     0.040 A 
ATOM     79  F   UNL     1       9.512   9.877   7.947  1.00  0.00    -0.206 F 
ATOM     80  C   UNL     1      11.851   9.245  10.642  1.00  0.00     0.006 A 
ENDBRANCH  52  73
BRANCH  64  81
ATOM     81  C   UNL     1      12.076  11.362   1.868  1.00  0.00     0.057 A 
ATOM     82  C   UNL     1      11.160  12.316   1.406  1.00  0.00     0.134 A 
ATOM     83  C   UNL     1      13.426  11.730   1.921  1.00  0.00     0.134 A 
ATOM     84  F   UNL     1       9.854  12.023   1.326  1.00  0.00    -0.206 F 
ATOM     85  C   UNL     1      11.571  13.588   1.009  1.00  0.00     0.040 A 
ATOM     86  C   UNL     1      13.846  13.008   1.547  1.00  0.00     0.040 A 
ATOM     87  F   UNL     1      14.349  10.866   2.368  1.00  0.00    -0.206 F 
ATOM     88  C   UNL     1      12.918  13.939   1.084  1.00  0.00     0.006 A 
ENDBRANCH  64  81
ENDBRANCH  38  39
ENDBRANCH  30  33
ENDBRANCH  28  29
ENDBRANCH  27  28
ENDBRANCH   1  27
TORSDOF 15
