REMARK SMILES Cc1ccc(Cl)c(Nc2ccccc2C(=O)NCC(=O)NCCCNC(=O)c2ccc(-c3c4nc(c(-c5c(F)cccc5F)c5ccc([nH]5)c(-c5c(F)cccc5F)c5nc(c(-c6c(F)cccc6F)c6ccc3[nH]6)C=C5)C=C4)cc2)c1Cl
REMARK SMILES IDX 22 1 21 2 19 3 20 4 18 6 17 7 15 8 16 9 14 11 9 12 10 13
REMARK SMILES IDX 11 14 13 15 12 16 8 17 7 19 1 20 2 21 3 22 82 23 4 24 83 25
REMARK SMILES IDX 5 26 6 27 23 28 24 29 25 30 26 31 27 33 28 34 29 35 81 36
REMARK SMILES IDX 30 37 80 38 31 39 32 40 33 41 74 42 34 43 79 44 73 45 75 46
REMARK SMILES IDX 35 47 78 48 72 49 71 50 36 52 62 53 45 54 61 55 46 56 49 57
REMARK SMILES IDX 60 58 76 59 47 60 48 61 59 63 77 64 50 65 37 66 38 67 43 68
REMARK SMILES IDX 39 69 40 70 42 71 44 72 41 73 63 74 64 75 69 76 65 77 66 78
REMARK SMILES IDX 68 79 70 80 67 81 51 82 52 83 57 84 53 85 54 86 56 87 58 88
REMARK SMILES IDX 55 89
REMARK H PARENT 21 5 17 10 8 18 25 32 75 51 49 62
REMARK Flexibility Score: inf
ROOT
ATOM      1  C   UNL     1      -1.755  -3.593   2.280  1.00  0.00     0.117 C 
ENDROOT
BRANCH   1   2
ATOM      2  N   UNL     1      -2.614  -2.433   2.323  1.00  0.00    -0.355 N 
ATOM      3  C   UNL     1      -2.223  -1.128   2.348  1.00  0.00     0.239 C 
ATOM      4  O   UNL     1      -3.074  -0.263   2.555  1.00  0.00    -0.273 OA
ATOM      5  H   UNL     1      -3.584  -2.603   2.336  1.00  0.00     0.163 HD
BRANCH   3   6
ATOM      6  C   UNL     1      -0.823  -0.773   1.857  1.00  0.00     0.216 C 
BRANCH   6   7
ATOM      7  N   UNL     1       0.403  -1.280   2.429  1.00  0.00    -0.343 N 
ATOM      8  C   UNL     1       1.494  -1.906   1.871  1.00  0.00     0.253 C 
ATOM      9  O   UNL     1       2.547  -1.752   2.503  1.00  0.00    -0.269 OA
ATOM     10  H   UNL     1       0.471  -1.154   3.403  1.00  0.00     0.164 HD
BRANCH   8  11
ATOM     11  C   UNL     1       1.495  -2.902   0.734  1.00  0.00     0.063 A 
ATOM     12  C   UNL     1       0.796  -2.935  -0.497  1.00  0.00     0.051 A 
ATOM     13  C   UNL     1       0.922  -4.097  -1.307  1.00  0.00     0.027 A 
ATOM     14  C   UNL     1       1.762  -5.159  -0.980  1.00  0.00     0.002 A 
ATOM     15  C   UNL     1       2.355  -3.997   1.028  1.00  0.00     0.016 A 
ATOM     16  C   UNL     1       2.502  -5.098   0.184  1.00  0.00     0.001 A 
BRANCH  12  17
ATOM     17  N   UNL     1       0.071  -1.902  -1.130  1.00  0.00    -0.352 N 
ATOM     18  H   UNL     1      -0.694  -2.230  -1.655  1.00  0.00     0.167 HD
BRANCH  17  19
ATOM     19  C   UNL     1       0.213  -0.492  -1.169  1.00  0.00     0.077 A 
ATOM     20  C   UNL     1       2.683   2.237  -0.130  1.00  0.00     0.046 C 
ATOM     21  C   UNL     1       1.420   1.546  -0.564  1.00  0.00    -0.030 A 
ATOM     22  C   UNL     1       0.212   2.260  -0.566  1.00  0.00     0.006 A 
ATOM     23  C   UNL     1       1.420   0.181  -0.910  1.00  0.00     0.069 A 
ATOM     24  C   UNL     1      -0.974   1.643  -0.952  1.00  0.00     0.023 A 
ATOM     25  Cl  UNL     1       2.945  -0.630  -1.113  1.00  0.00    -0.082 Cl
ATOM     26  C   UNL     1      -0.970   0.286  -1.263  1.00  0.00     0.066 A 
ATOM     27  Cl  UNL     1      -2.495  -0.464  -1.622  1.00  0.00    -0.082 Cl
ENDBRANCH  17  19
ENDBRANCH  12  17
ENDBRANCH   8  11
ENDBRANCH   6   7
ENDBRANCH   3   6
ENDBRANCH   1   2
BRANCH   1  28
ATOM     28  C   UNL     1      -1.248  -3.922   3.675  1.00  0.00     0.042 C 
BRANCH  28  29
ATOM     29  C   UNL     1      -2.392  -4.241   4.624  1.00  0.00     0.118 C 
BRANCH  29  30
ATOM     30  N   UNL     1      -3.103  -5.447   4.228  1.00  0.00    -0.352 N 
ATOM     31  C   UNL     1      -3.409  -6.545   4.989  1.00  0.00     0.251 C 
ATOM     32  H   UNL     1      -3.404  -5.478   3.291  1.00  0.00     0.163 HD
ATOM     33  O   UNL     1      -3.813  -7.573   4.463  1.00  0.00    -0.269 OA
BRANCH  31  34
ATOM     34  C   UNL     1      -3.224  -6.468   6.449  1.00  0.00     0.039 A 
ATOM     35  C   UNL     1      -2.599  -7.528   7.105  1.00  0.00     0.014 A 
ATOM     36  C   UNL     1      -3.644  -5.337   7.156  1.00  0.00     0.014 A 
ATOM     37  C   UNL     1      -2.358  -7.434   8.474  1.00  0.00     0.010 A 
ATOM     38  C   UNL     1      -3.317  -5.206   8.498  1.00  0.00     0.010 A 
ATOM     39  C   UNL     1      -2.689  -6.261   9.174  1.00  0.00    -0.014 A 
BRANCH  39  40
ATOM     40  C   UNL     1      -2.410  -6.132  10.622  1.00  0.00     0.031 A 
ATOM     41  C   UNL     1      -3.546  -5.968  11.592  1.00  0.00     0.074 A 
ATOM     42  C   UNL     1      -1.135  -6.114  11.054  1.00  0.00     0.049 A 
ATOM     43  N   UNL     1      -3.508  -5.800  12.889  1.00  0.00    -0.248 NA
ATOM     44  C   UNL     1      -4.906  -5.960  11.027  1.00  0.00     0.031 C 
ATOM     45  C   UNL     1       0.051  -6.211  10.199  1.00  0.00     0.029 A 
ATOM     46  N   UNL     1      -0.623  -6.004  12.321  1.00  0.00    -0.354 N 
ATOM     47  C   UNL     1      -4.830  -5.655  13.288  1.00  0.00     0.074 A 
ATOM     48  C   UNL     1      -5.643  -5.689  12.093  1.00  0.00     0.031 C 
ATOM     49  C   UNL     1       1.150  -6.188  10.969  1.00  0.00     0.029 A 
ATOM     50  C   UNL     1       0.750  -6.035  12.364  1.00  0.00     0.049 A 
ATOM     51  H   UNL     1      -1.185  -5.911  13.123  1.00  0.00     0.167 HD
ATOM     52  C   UNL     1      -5.325  -5.535  14.542  1.00  0.00     0.037 A 
ATOM     53  C   UNL     1       1.589  -5.946  13.412  1.00  0.00     0.037 A 
ATOM     54  C   UNL     1      -4.511  -5.524  15.728  1.00  0.00     0.049 A 
ATOM     55  C   UNL     1       1.014  -5.805  14.795  1.00  0.00     0.074 A 
ATOM     56  C   UNL     1      -4.915  -5.465  17.050  1.00  0.00     0.029 A 
ATOM     57  N   UNL     1      -3.125  -5.571  15.733  1.00  0.00    -0.354 N 
ATOM     58  N   UNL     1      -0.242  -5.745  15.167  1.00  0.00    -0.248 NA
ATOM     59  C   UNL     1       1.973  -5.727  15.904  1.00  0.00     0.031 C 
ATOM     60  C   UNL     1      -3.771  -5.425  17.853  1.00  0.00     0.029 A 
ATOM     61  C   UNL     1      -2.656  -5.517  17.035  1.00  0.00     0.049 A 
ATOM     62  H   UNL     1      -2.558  -5.633  14.931  1.00  0.00     0.167 HD
ATOM     63  C   UNL     1      -0.225  -5.653  16.552  1.00  0.00     0.074 A 
ATOM     64  C   UNL     1       1.166  -5.681  16.954  1.00  0.00     0.031 C 
ATOM     65  C   UNL     1      -1.266  -5.554  17.415  1.00  0.00     0.037 A 
BRANCH  52  66
ATOM     66  C   UNL     1      -6.814  -5.408  14.690  1.00  0.00     0.057 A 
ATOM     67  C   UNL     1      -7.680  -6.473  14.408  1.00  0.00     0.134 A 
ATOM     68  C   UNL     1      -7.389  -4.214  15.146  1.00  0.00     0.134 A 
ATOM     69  F   UNL     1      -7.198  -7.640  13.954  1.00  0.00    -0.206 F 
ATOM     70  C   UNL     1      -9.064  -6.348  14.546  1.00  0.00     0.040 A 
ATOM     71  C   UNL     1      -8.768  -4.087  15.316  1.00  0.00     0.040 A 
ATOM     72  F   UNL     1      -6.619  -3.155  15.438  1.00  0.00    -0.206 F 
ATOM     73  C   UNL     1      -9.611  -5.153  15.009  1.00  0.00     0.006 A 
ENDBRANCH  52  66
BRANCH  53  74
ATOM     74  C   UNL     1       3.057  -6.013  13.200  1.00  0.00     0.057 A 
ATOM     75  C   UNL     1       3.801  -7.113  13.640  1.00  0.00     0.134 A 
ATOM     76  C   UNL     1       3.751  -4.979  12.560  1.00  0.00     0.134 A 
ATOM     77  F   UNL     1       3.196  -8.128  14.274  1.00  0.00    -0.206 F 
ATOM     78  C   UNL     1       5.186  -7.173  13.474  1.00  0.00     0.040 A 
ATOM     79  C   UNL     1       5.131  -5.039  12.362  1.00  0.00     0.040 A 
ATOM     80  F   UNL     1       3.095  -3.902  12.105  1.00  0.00    -0.206 F 
ATOM     81  C   UNL     1       5.854  -6.135  12.828  1.00  0.00     0.006 A 
ENDBRANCH  53  74
BRANCH  65  82
ATOM     82  C   UNL     1      -0.941  -5.508  18.880  1.00  0.00     0.057 A 
ATOM     83  C   UNL     1      -0.345  -4.388  19.473  1.00  0.00     0.134 A 
ATOM     84  C   UNL     1      -1.264  -6.587  19.713  1.00  0.00     0.134 A 
ATOM     85  F   UNL     1       0.000  -3.326  18.729  1.00  0.00    -0.206 F 
ATOM     86  C   UNL     1      -0.058  -4.353  20.838  1.00  0.00     0.040 A 
ATOM     87  C   UNL     1      -1.010  -6.551  21.084  1.00  0.00     0.040 A 
ATOM     88  F   UNL     1      -1.846  -7.686  19.211  1.00  0.00    -0.206 F 
ATOM     89  C   UNL     1      -0.398  -5.435  21.649  1.00  0.00     0.006 A 
ENDBRANCH  65  82
ENDBRANCH  39  40
ENDBRANCH  31  34
ENDBRANCH  29  30
ENDBRANCH  28  29
ENDBRANCH   1  28
TORSDOF 14
