REMARK SMILES CCC[C@](C)(CC(F)(F)F)C(=O)NCCCNC(=O)c1ccc(-c2c3nc(c(-c4c(F)cccc4F)c4ccc([nH]4)c(-c4c(F)cccc4F)c4nc(c(-c5c(F)cccc5F)c5ccc2[nH]5)C=C4)C=C3)cc1
REMARK SMILES IDX 15 1 14 2 13 3 11 4 12 5 4 7 5 8 3 9 2 10 1 11 6 12 7 13
REMARK SMILES IDX 8 14 9 15 10 16 16 17 17 18 18 19 19 21 20 22 21 23 73 24
REMARK SMILES IDX 22 25 72 26 23 27 24 28 25 29 66 30 26 31 71 32 65 33 67 34
REMARK SMILES IDX 27 35 70 36 64 37 63 38 28 40 54 41 37 42 53 43 38 44 41 45
REMARK SMILES IDX 52 46 68 47 39 48 40 49 51 51 69 52 42 53 29 54 30 55 35 56
REMARK SMILES IDX 31 57 32 58 34 59 36 60 33 61 55 62 56 63 61 64 57 65 58 66
REMARK SMILES IDX 60 67 62 68 59 69 43 70 44 71 49 72 45 73 46 74 48 75 50 76
REMARK SMILES IDX 47 77
REMARK H PARENT 13 6 17 20 67 39 41 50
REMARK Flexibility Score: inf
ROOT
ATOM      1  C   UNL     1       0.471  -1.254   5.767  1.00  0.00     0.042 C 
ENDROOT
BRANCH   1   2
ATOM      2  C   UNL     1      -0.338  -0.982   4.506  1.00  0.00     0.117 C 
BRANCH   2   3
ATOM      3  N   UNL     1       0.462  -0.399   3.443  1.00  0.00    -0.356 N 
ATOM      4  C   UNL     1       0.886  -0.841   2.231  1.00  0.00     0.226 C 
ATOM      5  O   UNL     1       1.546  -0.034   1.570  1.00  0.00    -0.274 OA
ATOM      6  H   UNL     1       0.763   0.516   3.645  1.00  0.00     0.163 HD
BRANCH   4   7
ATOM      7  C   UNL     1       0.573  -2.258   1.687  1.00  0.00     0.055 C 
ATOM      8  C   UNL     1       1.210  -2.367   0.279  1.00  0.00     0.022 C 
BRANCH   7   9
ATOM      9  C   UNL     1      -0.978  -2.389   1.540  1.00  0.00     0.017 C 
BRANCH   9  10
ATOM     10  C   UNL     1      -1.569  -3.451   0.602  1.00  0.00    -0.002 C 
ATOM     11  C   UNL     1      -1.338  -4.886   1.041  1.00  0.00     0.004 C 
ENDBRANCH   9  10
ENDBRANCH   7   9
BRANCH   7  12
ATOM     12  C   UNL     1       1.185  -3.336   2.616  1.00  0.00     0.132 C 
BRANCH  12  13
ATOM     13  C   UNL     1       2.677  -3.219   2.892  1.00  0.00     0.390 C 
ATOM     14  F   UNL     1       3.009  -2.040   3.451  1.00  0.00    -0.171 F 
ATOM     15  F   UNL     1       3.045  -4.187   3.767  1.00  0.00    -0.171 F 
ATOM     16  F   UNL     1       3.416  -3.392   1.780  1.00  0.00    -0.171 F 
ENDBRANCH  12  13
ENDBRANCH   7  12
ENDBRANCH   4   7
ENDBRANCH   2   3
ENDBRANCH   1   2
BRANCH   1  17
ATOM     17  C   UNL     1       1.014  -0.002   6.443  1.00  0.00     0.118 C 
BRANCH  17  18
ATOM     18  N   UNL     1      -0.042   0.877   6.929  1.00  0.00    -0.352 N 
ATOM     19  C   UNL     1      -0.385   1.242   8.204  1.00  0.00     0.251 C 
ATOM     20  H   UNL     1      -0.601   1.274   6.223  1.00  0.00     0.163 HD
ATOM     21  O   UNL     1      -1.444   1.846   8.392  1.00  0.00    -0.269 OA
BRANCH  19  22
ATOM     22  C   UNL     1       0.478   0.910   9.358  1.00  0.00     0.039 A 
ATOM     23  C   UNL     1      -0.123   0.538  10.565  1.00  0.00     0.014 A 
ATOM     24  C   UNL     1       1.870   1.004   9.278  1.00  0.00     0.014 A 
ATOM     25  C   UNL     1       0.669   0.199  11.664  1.00  0.00     0.010 A 
ATOM     26  C   UNL     1       2.660   0.582  10.345  1.00  0.00     0.010 A 
ATOM     27  C   UNL     1       2.069   0.184  11.552  1.00  0.00    -0.014 A 
BRANCH  27  28
ATOM     28  C   UNL     1       2.928  -0.236  12.688  1.00  0.00     0.031 A 
ATOM     29  C   UNL     1       3.887   0.739  13.314  1.00  0.00     0.074 A 
ATOM     30  C   UNL     1       2.889  -1.512  13.117  1.00  0.00     0.049 A 
ATOM     31  N   UNL     1       4.762   0.542  14.268  1.00  0.00    -0.248 NA
ATOM     32  C   UNL     1       3.884   2.110  12.778  1.00  0.00     0.031 C 
ATOM     33  C   UNL     1       2.040  -2.568  12.560  1.00  0.00     0.029 A 
ATOM     34  N   UNL     1       3.587  -2.141  14.117  1.00  0.00    -0.354 N 
ATOM     35  C   UNL     1       5.421   1.754  14.433  1.00  0.00     0.074 A 
ATOM     36  C   UNL     1       4.883   2.666  13.447  1.00  0.00     0.031 C 
ATOM     37  C   UNL     1       2.248  -3.704  13.244  1.00  0.00     0.029 A 
ATOM     38  C   UNL     1       3.267  -3.469  14.261  1.00  0.00     0.049 A 
ATOM     39  H   UNL     1       4.255  -1.683  14.677  1.00  0.00     0.167 HD
ATOM     40  C   UNL     1       6.372   2.086  15.339  1.00  0.00     0.037 A 
ATOM     41  C   UNL     1       3.743  -4.393  15.117  1.00  0.00     0.037 A 
ATOM     42  C   UNL     1       6.885   1.188  16.341  1.00  0.00     0.049 A 
ATOM     43  C   UNL     1       4.789  -3.997  16.120  1.00  0.00     0.074 A 
ATOM     44  C   UNL     1       7.806   1.447  17.341  1.00  0.00     0.029 A 
ATOM     45  N   UNL     1       6.517  -0.143  16.469  1.00  0.00    -0.354 N 
ATOM     46  N   UNL     1       5.359  -2.831  16.304  1.00  0.00    -0.248 NA
ATOM     47  C   UNL     1       5.253  -5.045  17.040  1.00  0.00     0.031 C 
ATOM     48  C   UNL     1       8.021   0.262  18.054  1.00  0.00     0.029 A 
ATOM     49  C   UNL     1       7.203  -0.722  17.524  1.00  0.00     0.049 A 
ATOM     50  H   UNL     1       5.865  -0.607  15.896  1.00  0.00     0.167 HD
ATOM     51  C   UNL     1       6.228  -2.997  17.374  1.00  0.00     0.074 A 
ATOM     52  C   UNL     1       6.099  -4.373  17.808  1.00  0.00     0.031 C 
ATOM     53  C   UNL     1       7.058  -2.092  17.946  1.00  0.00     0.037 A 
BRANCH  40  54
ATOM     54  C   UNL     1       6.911   3.486  15.293  1.00  0.00     0.057 A 
ATOM     55  C   UNL     1       6.140   4.586  15.690  1.00  0.00     0.134 A 
ATOM     56  C   UNL     1       8.224   3.735  14.874  1.00  0.00     0.134 A 
ATOM     57  F   UNL     1       4.870   4.417  16.089  1.00  0.00    -0.206 F 
ATOM     58  C   UNL     1       6.645   5.886  15.646  1.00  0.00     0.040 A 
ATOM     59  C   UNL     1       8.749   5.028  14.851  1.00  0.00     0.040 A 
ATOM     60  F   UNL     1       9.019   2.726  14.486  1.00  0.00    -0.206 F 
ATOM     61  C   UNL     1       7.957   6.109  15.232  1.00  0.00     0.006 A 
ENDBRANCH  40  54
BRANCH  41  62
ATOM     62  C   UNL     1       3.209  -5.777  15.086  1.00  0.00     0.057 A 
ATOM     63  C   UNL     1       2.385  -6.253  16.112  1.00  0.00     0.134 A 
ATOM     64  C   UNL     1       3.511  -6.656  14.039  1.00  0.00     0.134 A 
ATOM     65  F   UNL     1       2.076  -5.462  17.150  1.00  0.00    -0.206 F 
ATOM     66  C   UNL     1       1.893  -7.559  16.109  1.00  0.00     0.040 A 
ATOM     67  C   UNL     1       3.008  -7.957  14.012  1.00  0.00     0.040 A 
ATOM     68  F   UNL     1       4.289  -6.257  13.023  1.00  0.00    -0.206 F 
ATOM     69  C   UNL     1       2.202  -8.414  15.053  1.00  0.00     0.006 A 
ENDBRANCH  41  62
BRANCH  53  70
ATOM     70  C   UNL     1       7.866  -2.554  19.122  1.00  0.00     0.057 A 
ATOM     71  C   UNL     1       8.960  -3.415  18.974  1.00  0.00     0.134 A 
ATOM     72  C   UNL     1       7.561  -2.109  20.414  1.00  0.00     0.134 A 
ATOM     73  F   UNL     1       9.295  -3.887  17.763  1.00  0.00    -0.206 F 
ATOM     74  C   UNL     1       9.709  -3.837  20.073  1.00  0.00     0.040 A 
ATOM     75  C   UNL     1       8.317  -2.504  21.518  1.00  0.00     0.040 A 
ATOM     76  F   UNL     1       6.529  -1.277  20.623  1.00  0.00    -0.206 F 
ATOM     77  C   UNL     1       9.391  -3.376  21.350  1.00  0.00     0.006 A 
ENDBRANCH  53  70
ENDBRANCH  27  28
ENDBRANCH  19  22
ENDBRANCH  17  18
ENDBRANCH   1  17
TORSDOF 14
