REMARK SMILES CC1=C(C)C(=O)N(C[C@H](CC(C)C)C(=O)NCCCNC(=O)c2ccc(-c3c4nc(c(-c5c(F)cccc5F)c5ccc([nH]5)c(-c5c(F)cccc5F)c5nc(c(-c6c(F)cccc6F)c6ccc3[nH]6)C=C5)C=C4)cc2)C1=O
REMARK SMILES IDX 18 1 17 2 16 3 14 4 15 5 9 7 8 8 7 9 1 10 2 11 3 12 77 13
REMARK SMILES IDX 4 14 5 15 78 16 6 17 10 18 11 19 12 20 13 21 19 22 20 23
REMARK SMILES IDX 21 24 22 26 23 27 24 28 76 29 25 30 75 31 26 32 27 33 28 34
REMARK SMILES IDX 69 35 29 36 74 37 68 38 70 39 30 40 73 41 67 42 66 43 31 45
REMARK SMILES IDX 57 46 40 47 56 48 41 49 44 50 55 51 71 52 42 53 43 54 54 56
REMARK SMILES IDX 72 57 45 58 32 59 33 60 38 61 34 62 35 63 37 64 39 65 36 66
REMARK SMILES IDX 58 67 59 68 64 69 60 70 61 71 63 72 65 73 62 74 46 75 47 76
REMARK SMILES IDX 52 77 48 78 49 79 51 80 53 81 50 82
REMARK H PARENT 16 6 20 25 70 44 44 55
REMARK Flexibility Score: inf
ROOT
ATOM      1  C   UNL     1      -1.214  -3.653   6.910  1.00  0.00     0.042 C 
ENDROOT
BRANCH   1   2
ATOM      2  C   UNL     1      -1.901  -3.789   5.566  1.00  0.00     0.117 C 
BRANCH   2   3
ATOM      3  N   UNL     1      -3.247  -3.239   5.592  1.00  0.00    -0.356 N 
ATOM      4  C   UNL     1      -3.865  -2.329   4.803  1.00  0.00     0.224 C 
ATOM      5  O   UNL     1      -5.085  -2.195   4.932  1.00  0.00    -0.275 OA
ATOM      6  H   UNL     1      -3.813  -3.594   6.315  1.00  0.00     0.163 HD
BRANCH   4   7
ATOM      7  C   UNL     1      -3.117  -1.542   3.745  1.00  0.00     0.099 C 
BRANCH   7   8
ATOM      8  C   UNL     1      -2.735  -2.496   2.570  1.00  0.00     0.142 C 
BRANCH   8   9
ATOM      9  N   UNL     1      -3.846  -3.364   2.175  1.00  0.00    -0.274 N 
ATOM     10  C   UNL     1      -6.448  -5.701   3.196  1.00  0.00     0.051 C 
ATOM     11  C   UNL     1      -5.573  -4.825   2.384  1.00  0.00     0.023 C 
ATOM     12  C   UNL     1      -5.809  -4.106   1.283  1.00  0.00     0.023 C 
ATOM     13  C   UNL     1      -4.210  -4.506   2.809  1.00  0.00     0.256 C 
ATOM     14  C   UNL     1      -6.989  -4.105   0.395  1.00  0.00     0.051 C 
ATOM     15  C   UNL     1      -4.685  -3.155   1.128  1.00  0.00     0.256 C 
ATOM     16  O   UNL     1      -3.566  -5.203   3.575  1.00  0.00    -0.269 OA
ATOM     17  O   UNL     1      -4.585  -2.341   0.234  1.00  0.00    -0.269 OA
ENDBRANCH   8   9
ENDBRANCH   7   8
BRANCH   7  18
ATOM     18  C   UNL     1      -1.934  -0.720   4.307  1.00  0.00     0.018 C 
BRANCH  18  19
ATOM     19  C   UNL     1      -2.223   0.349   5.403  1.00  0.00    -0.017 C 
ATOM     20  C   UNL     1      -3.128  -0.066   6.565  1.00  0.00     0.007 C 
ATOM     21  C   UNL     1      -0.888   0.824   5.999  1.00  0.00     0.007 C 
ENDBRANCH  18  19
ENDBRANCH   7  18
ENDBRANCH   4   7
ENDBRANCH   2   3
ENDBRANCH   1   2
BRANCH   1  22
ATOM     22  C   UNL     1      -2.034  -4.247   8.043  1.00  0.00     0.118 C 
BRANCH  22  23
ATOM     23  N   UNL     1      -2.371  -5.650   7.820  1.00  0.00    -0.352 N 
ATOM     24  C   UNL     1      -2.142  -6.728   8.634  1.00  0.00     0.251 C 
ATOM     25  H   UNL     1      -2.824  -5.848   6.968  1.00  0.00     0.163 HD
ATOM     26  O   UNL     1      -2.320  -7.872   8.235  1.00  0.00    -0.269 OA
BRANCH  24  27
ATOM     27  C   UNL     1      -1.651  -6.484  10.001  1.00  0.00     0.039 A 
ATOM     28  C   UNL     1      -0.557  -7.211  10.470  1.00  0.00     0.014 A 
ATOM     29  C   UNL     1      -2.248  -5.496  10.789  1.00  0.00     0.014 A 
ATOM     30  C   UNL     1      -0.027  -6.908  11.722  1.00  0.00     0.010 A 
ATOM     31  C   UNL     1      -1.657  -5.129  11.988  1.00  0.00     0.010 A 
ATOM     32  C   UNL     1      -0.555  -5.846  12.475  1.00  0.00    -0.014 A 
BRANCH  32  33
ATOM     33  C   UNL     1      -0.001  -5.498  13.803  1.00  0.00     0.031 A 
ATOM     34  C   UNL     1      -0.866  -5.632  15.025  1.00  0.00     0.074 A 
ATOM     35  C   UNL     1       1.249  -5.009  13.899  1.00  0.00     0.049 A 
ATOM     36  N   UNL     1      -0.594  -5.330  16.267  1.00  0.00    -0.248 NA
ATOM     37  C   UNL     1      -2.234  -6.139  14.817  1.00  0.00     0.031 C 
ATOM     38  C   UNL     1       2.159  -4.773  12.775  1.00  0.00     0.029 A 
ATOM     39  N   UNL     1       1.969  -4.616  14.998  1.00  0.00    -0.354 N 
ATOM     40  C   UNL     1      -1.758  -5.588  16.979  1.00  0.00     0.074 A 
ATOM     41  C   UNL     1      -2.758  -6.008  16.025  1.00  0.00     0.031 C 
ATOM     42  C   UNL     1       3.327  -4.308  13.247  1.00  0.00     0.029 A 
ATOM     43  C   UNL     1       3.237  -4.184  14.698  1.00  0.00     0.049 A 
ATOM     44  H   UNL     1       1.610  -4.641  15.914  1.00  0.00     0.167 HD
ATOM     45  C   UNL     1      -1.966  -5.512  18.314  1.00  0.00     0.037 A 
ATOM     46  C   UNL     1       4.218  -3.745  15.509  1.00  0.00     0.037 A 
ATOM     47  C   UNL     1      -0.954  -5.136  19.263  1.00  0.00     0.049 A 
ATOM     48  C   UNL     1       3.974  -3.702  16.992  1.00  0.00     0.074 A 
ATOM     49  C   UNL     1      -1.038  -5.095  20.643  1.00  0.00     0.029 A 
ATOM     50  N   UNL     1       0.332  -4.742  18.925  1.00  0.00    -0.354 N 
ATOM     51  N   UNL     1       2.892  -4.019  17.661  1.00  0.00    -0.248 NA
ATOM     52  C   UNL     1       5.091  -3.253  17.833  1.00  0.00     0.031 C 
ATOM     53  C   UNL     1       0.190  -4.644  21.140  1.00  0.00     0.029 A 
ATOM     54  C   UNL     1       1.049  -4.443  20.071  1.00  0.00     0.049 A 
ATOM     55  H   UNL     1       0.683  -4.684  18.007  1.00  0.00     0.167 HD
ATOM     56  C   UNL     1       3.205  -3.833  19.001  1.00  0.00     0.074 A 
ATOM     57  C   UNL     1       4.583  -3.390  19.049  1.00  0.00     0.031 C 
ATOM     58  C   UNL     1       2.423  -4.012  20.094  1.00  0.00     0.037 A 
BRANCH  45  59
ATOM     59  C   UNL     1      -3.337  -5.856  18.817  1.00  0.00     0.057 A 
ATOM     60  C   UNL     1      -3.825  -7.170  18.791  1.00  0.00     0.134 A 
ATOM     61  C   UNL     1      -4.175  -4.867  19.345  1.00  0.00     0.134 A 
ATOM     62  F   UNL     1      -3.079  -8.162  18.281  1.00  0.00    -0.206 F 
ATOM     63  C   UNL     1      -5.108  -7.482  19.243  1.00  0.00     0.040 A 
ATOM     64  C   UNL     1      -5.449  -5.171  19.827  1.00  0.00     0.040 A 
ATOM     65  F   UNL     1      -3.769  -3.589  19.402  1.00  0.00    -0.206 F 
ATOM     66  C   UNL     1      -5.921  -6.481  19.770  1.00  0.00     0.006 A 
ENDBRANCH  45  59
BRANCH  46  67
ATOM     67  C   UNL     1       5.531  -3.353  14.941  1.00  0.00     0.057 A 
ATOM     68  C   UNL     1       6.665  -4.149  15.136  1.00  0.00     0.134 A 
ATOM     69  C   UNL     1       5.686  -2.180  14.194  1.00  0.00     0.134 A 
ATOM     70  F   UNL     1       6.582  -5.277  15.857  1.00  0.00    -0.206 F 
ATOM     71  C   UNL     1       7.912  -3.784  14.626  1.00  0.00     0.040 A 
ATOM     72  C   UNL     1       6.922  -1.813  13.658  1.00  0.00     0.040 A 
ATOM     73  F   UNL     1       4.635  -1.380  13.963  1.00  0.00    -0.206 F 
ATOM     74  C   UNL     1       8.041  -2.614  13.880  1.00  0.00     0.006 A 
ENDBRANCH  46  67
BRANCH  58  75
ATOM     75  C   UNL     1       3.052  -3.761  21.431  1.00  0.00     0.057 A 
ATOM     76  C   UNL     1       3.330  -2.466  21.884  1.00  0.00     0.134 A 
ATOM     77  C   UNL     1       3.349  -4.828  22.289  1.00  0.00     0.134 A 
ATOM     78  F   UNL     1       3.080  -1.404  21.103  1.00  0.00    -0.206 F 
ATOM     79  C   UNL     1       3.902  -2.241  23.137  1.00  0.00     0.040 A 
ATOM     80  C   UNL     1       3.897  -4.614  23.553  1.00  0.00     0.040 A 
ATOM     81  F   UNL     1       3.098  -6.092  21.917  1.00  0.00    -0.206 F 
ATOM     82  C   UNL     1       4.181  -3.317  23.978  1.00  0.00     0.006 A 
ENDBRANCH  58  75
ENDBRANCH  32  33
ENDBRANCH  24  27
ENDBRANCH  22  23
ENDBRANCH   1  22
TORSDOF 14
