REMARK SMILES Cc1cccc(-c2ccccc2C(=O)N2CC[C@H](O)C[C@@H]2C(=O)NCCCNC(=O)c2ccc(-c3c4nc(c(-c5c(F)cccc5F)c5ccc([nH]5)c(-c5c(F)cccc5F)c5nc(c(-c6c(F)cccc6F)c6ccc3[nH]6)C=C5)C=C4)cc2)c1
REMARK SMILES IDX 25 1 24 2 22 3 23 4 21 6 15 7 16 8 17 9 20 10 18 11 13 12
REMARK SMILES IDX 14 13 12 14 7 15 8 16 9 17 11 18 10 19 6 20 1 21 2 22 3 23
REMARK SMILES IDX 85 24 4 25 5 26 19 27 26 29 27 30 28 31 29 32 30 34 31 35
REMARK SMILES IDX 32 36 84 37 33 38 83 39 34 40 35 41 36 42 77 43 37 44 82 45
REMARK SMILES IDX 76 46 78 47 38 48 81 49 75 50 74 51 39 53 65 54 48 55 64 56
REMARK SMILES IDX 49 57 52 58 63 59 79 60 50 61 51 62 62 64 80 65 53 66 40 67
REMARK SMILES IDX 41 68 46 69 42 70 43 71 45 72 47 73 44 74 66 75 67 76 72 77
REMARK SMILES IDX 68 78 69 79 71 80 73 81 70 82 54 83 55 84 60 85 56 86 57 87
REMARK SMILES IDX 59 88 61 89 58 90
REMARK H PARENT 24 5 19 28 28 33 78 52 52 63
REMARK Flexibility Score: inf
ROOT
ATOM      1  C   UNL     1      -3.600   2.895  -5.124  1.00  0.00     0.117 C 
ENDROOT
BRANCH   1   2
ATOM      2  N   UNL     1      -3.057   4.211  -5.440  1.00  0.00    -0.354 N 
ATOM      3  C   UNL     1      -1.788   4.705  -5.319  1.00  0.00     0.242 C 
ATOM      4  O   UNL     1      -1.622   5.895  -5.612  1.00  0.00    -0.273 OA
ATOM      5  H   UNL     1      -3.714   4.850  -5.801  1.00  0.00     0.163 HD
BRANCH   3   6
ATOM      6  C   UNL     1      -0.634   3.862  -4.721  1.00  0.00     0.177 C 
ATOM      7  N   UNL     1      -0.555   4.109  -3.268  1.00  0.00    -0.326 N 
ATOM      8  C   UNL     1       0.057   5.370  -2.841  1.00  0.00     0.123 C 
ATOM      9  C   UNL     1       1.445   5.542  -3.443  1.00  0.00     0.053 C 
ATOM     10  C   UNL     1       0.705   4.137  -5.425  1.00  0.00     0.067 C 
ATOM     11  C   UNL     1       1.438   5.397  -4.960  1.00  0.00     0.118 C 
BRANCH   7  12
ATOM     12  C   UNL     1      -1.138   3.160  -2.426  1.00  0.00     0.255 C 
ATOM     13  O   UNL     1      -1.379   2.022  -2.830  1.00  0.00    -0.269 OA
BRANCH  12  14
ATOM     14  C   UNL     1      -1.665   3.545  -1.078  1.00  0.00     0.047 A 
ATOM     15  C   UNL     1      -1.698   2.614  -0.015  1.00  0.00    -0.006 A 
ATOM     16  C   UNL     1      -2.452   2.942   1.133  1.00  0.00     0.009 A 
ATOM     17  C   UNL     1      -3.147   4.147   1.234  1.00  0.00     0.001 A 
ATOM     18  C   UNL     1      -2.376   4.757  -0.963  1.00  0.00     0.014 A 
ATOM     19  C   UNL     1      -3.100   5.061   0.190  1.00  0.00     0.001 A 
BRANCH  15  20
ATOM     20  C   UNL     1      -1.003   1.315  -0.036  1.00  0.00    -0.017 A 
ATOM     21  C   UNL     1       2.564  -0.055   0.028  1.00  0.00     0.044 C 
ATOM     22  C   UNL     1       1.066   0.012   0.009  1.00  0.00    -0.051 A 
ATOM     23  C   UNL     1       0.317  -1.169   0.006  1.00  0.00     0.003 A 
ATOM     24  C   UNL     1       0.400   1.246  -0.015  1.00  0.00     0.012 A 
ATOM     25  C   UNL     1      -1.075  -1.120  -0.018  1.00  0.00     0.001 A 
ATOM     26  C   UNL     1      -1.729   0.112  -0.038  1.00  0.00     0.009 A 
ENDBRANCH  15  20
ENDBRANCH  12  14
ENDBRANCH   7  12
BRANCH  11  27
ATOM     27  O   UNL     1       0.929   6.580  -5.565  1.00  0.00    -0.393 OA
ATOM     28  H   UNL     1       0.010   6.716  -5.286  1.00  0.00     0.210 HD
ENDBRANCH  11  27
ENDBRANCH   3   6
ENDBRANCH   1   2
BRANCH   1  29
ATOM     29  C   UNL     1      -4.265   2.850  -3.753  1.00  0.00     0.042 C 
BRANCH  29  30
ATOM     30  C   UNL     1      -5.592   3.583  -3.654  1.00  0.00     0.118 C 
BRANCH  30  31
ATOM     31  N   UNL     1      -6.768   2.759  -3.894  1.00  0.00    -0.352 N 
ATOM     32  C   UNL     1      -8.110   3.115  -3.916  1.00  0.00     0.251 C 
ATOM     33  H   UNL     1      -6.584   1.807  -4.066  1.00  0.00     0.163 HD
ATOM     34  O   UNL     1      -8.959   2.265  -4.100  1.00  0.00    -0.269 OA
BRANCH  32  35
ATOM     35  C   UNL     1      -8.494   4.553  -3.865  1.00  0.00     0.039 A 
ATOM     36  C   UNL     1      -9.484   4.989  -4.756  1.00  0.00     0.014 A 
ATOM     37  C   UNL     1      -7.763   5.485  -3.137  1.00  0.00     0.014 A 
ATOM     38  C   UNL     1      -9.530   6.331  -5.126  1.00  0.00     0.010 A 
ATOM     39  C   UNL     1      -7.728   6.791  -3.577  1.00  0.00     0.010 A 
ATOM     40  C   UNL     1      -8.555   7.193  -4.630  1.00  0.00    -0.014 A 
BRANCH  40  41
ATOM     41  C   UNL     1      -8.224   8.475  -5.240  1.00  0.00     0.031 A 
ATOM     42  C   UNL     1      -8.548   9.742  -4.559  1.00  0.00     0.074 A 
ATOM     43  C   UNL     1      -7.477   8.481  -6.366  1.00  0.00     0.049 A 
ATOM     44  N   UNL     1      -8.546  10.898  -5.129  1.00  0.00    -0.248 NA
ATOM     45  C   UNL     1      -8.938   9.794  -3.157  1.00  0.00     0.031 C 
ATOM     46  C   UNL     1      -6.768   9.609  -6.962  1.00  0.00     0.029 A 
ATOM     47  N   UNL     1      -7.382   7.466  -7.329  1.00  0.00    -0.354 N 
ATOM     48  C   UNL     1      -8.669  11.858  -4.150  1.00  0.00     0.074 A 
ATOM     49  C   UNL     1      -8.965  11.114  -2.947  1.00  0.00     0.031 C 
ATOM     50  C   UNL     1      -6.578   9.357  -8.266  1.00  0.00     0.029 A 
ATOM     51  C   UNL     1      -7.287   8.129  -8.576  1.00  0.00     0.049 A 
ATOM     52  H   UNL     1      -7.382   6.494  -7.171  1.00  0.00     0.167 HD
ATOM     53  C   UNL     1      -8.397  13.159  -4.463  1.00  0.00     0.037 A 
ATOM     54  C   UNL     1      -8.290   8.010  -9.495  1.00  0.00     0.037 A 
ATOM     55  C   UNL     1      -8.164  13.318  -5.900  1.00  0.00     0.049 A 
ATOM     56  C   UNL     1      -9.022   9.302  -9.800  1.00  0.00     0.074 A 
ATOM     57  C   UNL     1      -7.036  13.407  -6.701  1.00  0.00     0.029 A 
ATOM     58  N   UNL     1      -9.224  13.107  -6.762  1.00  0.00    -0.354 N 
ATOM     59  N   UNL     1      -8.772  10.444  -9.221  1.00  0.00    -0.248 NA
ATOM     60  C   UNL     1     -10.156   9.387 -10.723  1.00  0.00     0.031 C 
ATOM     61  C   UNL     1      -7.434  13.185  -8.052  1.00  0.00     0.029 A 
ATOM     62  C   UNL     1      -8.800  12.975  -8.069  1.00  0.00     0.049 A 
ATOM     63  H   UNL     1     -10.165  13.056  -6.478  1.00  0.00     0.167 HD
ATOM     64  C   UNL     1      -9.708  11.363  -9.609  1.00  0.00     0.074 A 
ATOM     65  C   UNL     1     -10.543  10.665 -10.566  1.00  0.00     0.031 C 
ATOM     66  C   UNL     1      -9.773  12.619  -9.087  1.00  0.00     0.037 A 
BRANCH  53  67
ATOM     67  C   UNL     1      -8.132  14.257  -3.453  1.00  0.00     0.057 A 
ATOM     68  C   UNL     1      -7.349  15.377  -3.803  1.00  0.00     0.134 A 
ATOM     69  C   UNL     1      -8.566  14.262  -2.116  1.00  0.00     0.134 A 
ATOM     70  F   UNL     1      -6.940  15.587  -5.061  1.00  0.00    -0.206 F 
ATOM     71  C   UNL     1      -6.941  16.347  -2.877  1.00  0.00     0.040 A 
ATOM     72  C   UNL     1      -8.123  15.195  -1.166  1.00  0.00     0.040 A 
ATOM     73  F   UNL     1      -9.497  13.413  -1.671  1.00  0.00    -0.206 F 
ATOM     74  C   UNL     1      -7.295  16.238  -1.542  1.00  0.00     0.006 A 
ENDBRANCH  53  67
BRANCH  54  75
ATOM     75  C   UNL     1      -8.902   6.654  -9.493  1.00  0.00     0.057 A 
ATOM     76  C   UNL     1      -8.095   5.558  -9.851  1.00  0.00     0.134 A 
ATOM     77  C   UNL     1     -10.077   6.379  -8.791  1.00  0.00     0.134 A 
ATOM     78  F   UNL     1      -6.952   5.755 -10.527  1.00  0.00    -0.206 F 
ATOM     79  C   UNL     1      -8.379   4.261  -9.419  1.00  0.00     0.040 A 
ATOM     80  C   UNL     1     -10.380   5.080  -8.367  1.00  0.00     0.040 A 
ATOM     81  F   UNL     1     -10.886   7.372  -8.396  1.00  0.00    -0.206 F 
ATOM     82  C   UNL     1      -9.509   4.026  -8.642  1.00  0.00     0.006 A 
ENDBRANCH  54  75
BRANCH  66  83
ATOM     83  C   UNL     1     -10.790  13.622  -9.523  1.00  0.00     0.057 A 
ATOM     84  C   UNL     1     -10.938  13.985 -10.866  1.00  0.00     0.134 A 
ATOM     85  C   UNL     1     -11.544  14.355  -8.590  1.00  0.00     0.134 A 
ATOM     86  F   UNL     1     -10.248  13.352 -11.827  1.00  0.00    -0.206 F 
ATOM     87  C   UNL     1     -11.787  15.024 -11.261  1.00  0.00     0.040 A 
ATOM     88  C   UNL     1     -12.363  15.422  -8.966  1.00  0.00     0.040 A 
ATOM     89  F   UNL     1     -11.520  14.053  -7.283  1.00  0.00    -0.206 F 
ATOM     90  C   UNL     1     -12.487  15.759 -10.308  1.00  0.00     0.006 A 
ENDBRANCH  66  83
ENDBRANCH  40  41
ENDBRANCH  32  35
ENDBRANCH  30  31
ENDBRANCH  29  30
ENDBRANCH   1  29
TORSDOF 14
