REMARK SMILES CCc1ccc(S(=O)(=O)Cc2noc(C(=O)NCCCNC(=O)c3ccc(-c4c5nc(c(-c6c(F)cccc6F)c6ccc([nH]6)c(-c6c(F)cccc6F)c6nc(c(-c7c(F)cccc7F)c7ccc4[nH]7)C=C6)C=C5)cc3)n2)cc1
REMARK SMILES IDX 18 1 17 2 15 3 16 4 14 6 11 7 12 8 78 9 13 10 10 11 7 12
REMARK SMILES IDX 8 13 9 14 6 15 3 16 4 17 80 18 5 19 79 20 2 21 1 22 19 23
REMARK SMILES IDX 20 24 21 25 22 26 23 28 24 29 25 30 77 31 26 32 76 33 27 34
REMARK SMILES IDX 28 35 29 36 70 37 30 38 75 39 69 40 71 41 31 42 74 43 68 44
REMARK SMILES IDX 67 45 32 47 58 48 41 49 57 50 42 51 45 52 56 53 72 54 43 55
REMARK SMILES IDX 44 56 55 58 73 59 46 60 33 61 34 62 39 63 35 64 36 65 38 66
REMARK SMILES IDX 40 67 37 68 59 69 60 70 65 71 61 72 62 73 64 74 66 75 63 76
REMARK SMILES IDX 47 77 48 78 53 79 49 80 50 81 52 82 54 83 51 84
REMARK H PARENT 17 5 21 27 71 46 45 57
REMARK Flexibility Score: inf
ROOT
ATOM      1  C   UNL     1       2.949   2.884   5.925  1.00  0.00     0.118 C 
ENDROOT
BRANCH   1   2
ATOM      2  N   UNL     1       4.279   2.779   5.347  1.00  0.00    -0.348 N 
ATOM      3  C   UNL     1       5.101   1.680   5.179  1.00  0.00     0.309 C 
ATOM      4  O   UNL     1       6.195   1.901   4.651  1.00  0.00    -0.264 OA
ATOM      5  H   UNL     1       4.656   3.629   5.023  1.00  0.00     0.163 HD
BRANCH   3   6
ATOM      6  C   UNL     1       4.668   0.357   5.591  1.00  0.00     0.315 A 
ATOM      7  C   UNL     1       3.642  -1.356   6.251  1.00  0.00     0.187 A 
ATOM      8  N   UNL     1       4.782  -1.854   5.763  1.00  0.00    -0.061 NA
ATOM      9  N   UNL     1       3.552   0.012   6.201  1.00  0.00    -0.186 NA
ATOM     10  O   UNL     1       5.464  -0.719   5.308  1.00  0.00    -0.329 OA
BRANCH   7  11
ATOM     11  C   UNL     1       2.564  -2.153   6.855  1.00  0.00     0.223 C 
BRANCH  11  12
ATOM     12  S   UNL     1       1.849  -3.384   5.813  1.00  0.00     0.185 S 
ATOM     13  O   UNL     1       0.565  -3.733   6.400  1.00  0.00    -0.223 OA
ATOM     14  O   UNL     1       2.841  -4.421   5.590  1.00  0.00    -0.223 OA
BRANCH  12  15
ATOM     15  C   UNL     1       1.457  -2.702   4.217  1.00  0.00     0.067 A 
ATOM     16  C   UNL     1       0.830  -1.772   1.635  1.00  0.00    -0.048 A 
ATOM     17  C   UNL     1       0.918  -3.147   1.901  1.00  0.00     0.005 A 
ATOM     18  C   UNL     1       1.030  -0.874   2.695  1.00  0.00     0.005 A 
ATOM     19  C   UNL     1       1.242  -3.610   3.177  1.00  0.00     0.020 A 
ATOM     20  C   UNL     1       1.331  -1.333   3.984  1.00  0.00     0.020 A 
BRANCH  16  21
ATOM     21  C   UNL     1       0.445  -1.330   0.240  1.00  0.00     0.032 C 
ATOM     22  C   UNL     1       0.921   0.054  -0.182  1.00  0.00     0.009 C 
ENDBRANCH  16  21
ENDBRANCH  12  15
ENDBRANCH  11  12
ENDBRANCH   7  11
ENDBRANCH   3   6
ENDBRANCH   1   2
BRANCH   1  23
ATOM     23  C   UNL     1       2.982   3.482   7.328  1.00  0.00     0.042 C 
BRANCH  23  24
ATOM     24  C   UNL     1       3.334   4.968   7.350  1.00  0.00     0.118 C 
BRANCH  24  25
ATOM     25  N   UNL     1       2.357   5.779   6.636  1.00  0.00    -0.352 N 
ATOM     26  C   UNL     1       1.572   6.820   7.056  1.00  0.00     0.251 C 
ATOM     27  H   UNL     1       2.240   5.537   5.688  1.00  0.00     0.163 HD
ATOM     28  O   UNL     1       0.661   7.210   6.329  1.00  0.00    -0.269 OA
BRANCH  26  29
ATOM     29  C   UNL     1       1.798   7.477   8.362  1.00  0.00     0.039 A 
ATOM     30  C   UNL     1       0.688   7.945   9.072  1.00  0.00     0.014 A 
ATOM     31  C   UNL     1       3.083   7.701   8.861  1.00  0.00     0.014 A 
ATOM     32  C   UNL     1       0.866   8.601  10.292  1.00  0.00     0.010 A 
ATOM     33  C   UNL     1       3.256   8.277  10.118  1.00  0.00     0.010 A 
ATOM     34  C   UNL     1       2.151   8.751  10.839  1.00  0.00    -0.014 A 
BRANCH  34  35
ATOM     35  C   UNL     1       2.342   9.422  12.151  1.00  0.00     0.031 A 
ATOM     36  C   UNL     1       3.130  10.701  12.249  1.00  0.00     0.074 A 
ATOM     37  C   UNL     1       1.831   8.859  13.264  1.00  0.00     0.049 A 
ATOM     38  N   UNL     1       3.402  11.425  13.306  1.00  0.00    -0.248 NA
ATOM     39  C   UNL     1       3.712  11.225  11.002  1.00  0.00     0.031 C 
ATOM     40  C   UNL     1       1.102   7.589  13.312  1.00  0.00     0.029 A 
ATOM     41  N   UNL     1       1.848   9.280  14.570  1.00  0.00    -0.354 N 
ATOM     42  C   UNL     1       4.196  12.473  12.855  1.00  0.00     0.074 A 
ATOM     43  C   UNL     1       4.407  12.265  11.440  1.00  0.00     0.031 C 
ATOM     44  C   UNL     1       0.720   7.349  14.577  1.00  0.00     0.029 A 
ATOM     45  C   UNL     1       1.205   8.425  15.434  1.00  0.00     0.049 A 
ATOM     46  H   UNL     1       2.281  10.115  14.862  1.00  0.00     0.167 HD
ATOM     47  C   UNL     1       4.686  13.525  13.553  1.00  0.00     0.037 A 
ATOM     48  C   UNL     1       1.030   8.499  16.767  1.00  0.00     0.037 A 
ATOM     49  C   UNL     1       4.445  13.749  14.955  1.00  0.00     0.049 A 
ATOM     50  C   UNL     1       1.566   9.691  17.511  1.00  0.00     0.074 A 
ATOM     51  C   UNL     1       4.826  14.829  15.732  1.00  0.00     0.029 A 
ATOM     52  N   UNL     1       3.767  12.875  15.790  1.00  0.00    -0.354 N 
ATOM     53  N   UNL     1       2.231  10.724  17.052  1.00  0.00    -0.248 NA
ATOM     54  C   UNL     1       1.313   9.736  18.958  1.00  0.00     0.031 C 
ATOM     55  C   UNL     1       4.430  14.581  17.050  1.00  0.00     0.029 A 
ATOM     56  C   UNL     1       3.747  13.376  17.081  1.00  0.00     0.049 A 
ATOM     57  H   UNL     1       3.360  12.024  15.508  1.00  0.00     0.167 HD
ATOM     58  C   UNL     1       2.454  11.550  18.146  1.00  0.00     0.074 A 
ATOM     59  C   UNL     1       1.828  10.912  19.285  1.00  0.00     0.031 C 
ATOM     60  C   UNL     1       3.120  12.729  18.206  1.00  0.00     0.037 A 
BRANCH  47  61
ATOM     61  C   UNL     1       5.532  14.524  12.816  1.00  0.00     0.057 A 
ATOM     62  C   UNL     1       4.992  15.398  11.864  1.00  0.00     0.134 A 
ATOM     63  C   UNL     1       6.896  14.654  13.109  1.00  0.00     0.134 A 
ATOM     64  F   UNL     1       3.696  15.320  11.527  1.00  0.00    -0.206 F 
ATOM     65  C   UNL     1       5.780  16.352  11.217  1.00  0.00     0.040 A 
ATOM     66  C   UNL     1       7.689  15.622  12.490  1.00  0.00     0.040 A 
ATOM     67  F   UNL     1       7.478  13.853  14.015  1.00  0.00    -0.206 F 
ATOM     68  C   UNL     1       7.131  16.472  11.537  1.00  0.00     0.006 A 
ENDBRANCH  47  61
BRANCH  48  69
ATOM     69  C   UNL     1       0.309   7.418  17.488  1.00  0.00     0.057 A 
ATOM     70  C   UNL     1      -0.934   7.647  18.090  1.00  0.00     0.134 A 
ATOM     71  C   UNL     1       0.862   6.139  17.623  1.00  0.00     0.134 A 
ATOM     72  F   UNL     1      -1.510   8.857  18.012  1.00  0.00    -0.206 F 
ATOM     73  C   UNL     1      -1.585   6.657  18.828  1.00  0.00     0.040 A 
ATOM     74  C   UNL     1       0.208   5.130  18.331  1.00  0.00     0.040 A 
ATOM     75  F   UNL     1       2.045   5.850  17.061  1.00  0.00    -0.206 F 
ATOM     76  C   UNL     1      -1.013   5.391  18.948  1.00  0.00     0.006 A 
ENDBRANCH  48  69
BRANCH  60  77
ATOM     77  C   UNL     1       3.176  13.417  19.540  1.00  0.00     0.057 A 
ATOM     78  C   UNL     1       3.925  12.906  20.608  1.00  0.00     0.134 A 
ATOM     79  C   UNL     1       2.484  14.616  19.754  1.00  0.00     0.134 A 
ATOM     80  F   UNL     1       4.604  11.755  20.474  1.00  0.00    -0.206 F 
ATOM     81  C   UNL     1       3.953  13.541  21.851  1.00  0.00     0.040 A 
ATOM     82  C   UNL     1       2.530  15.278  20.981  1.00  0.00     0.040 A 
ATOM     83  F   UNL     1       1.757  15.169  18.771  1.00  0.00    -0.206 F 
ATOM     84  C   UNL     1       3.258  14.734  22.038  1.00  0.00     0.006 A 
ENDBRANCH  60  77
ENDBRANCH  34  35
ENDBRANCH  26  29
ENDBRANCH  24  25
ENDBRANCH  23  24
ENDBRANCH   1  23
TORSDOF 14
