REMARK SMILES CCCCCCCCNC(=O)Oc1cccc(-c2ccc([C@@H](C)C(=O)NCCCNC(=O)c3ccc(-c4c5nc(c(-c6c(F)cccc6F)c6ccc([nH]6)c(-c6c(F)cccc6F)c6nc(c(-c7c(F)cccc7F)c7ccc4[nH]7)C=C6)C=C5)cc3)cc2F)c1
REMARK SMILES IDX 13 1 14 2 15 3 16 4 17 5 90 6 12 7 10 8 9 9 11 11 8 12 7 13
REMARK SMILES IDX 6 14 5 15 4 16 3 17 2 18 1 19 18 20 19 21 88 22 20 23 87 24
REMARK SMILES IDX 89 25 21 26 22 27 23 28 24 29 25 30 26 31 27 33 28 34 29 35
REMARK SMILES IDX 30 36 31 37 32 39 33 40 34 41 86 42 35 43 85 44 36 45 37 46
REMARK SMILES IDX 38 47 79 48 39 49 84 50 78 51 80 52 40 53 83 54 77 55 76 56
REMARK SMILES IDX 41 58 67 59 50 60 66 61 51 62 54 63 65 64 81 65 52 66 53 67
REMARK SMILES IDX 64 69 82 70 55 71 42 72 43 73 48 74 44 75 45 76 47 77 49 78
REMARK SMILES IDX 46 79 68 80 69 81 74 82 70 83 71 84 73 85 75 86 72 87 56 88
REMARK SMILES IDX 57 89 62 90 58 91 59 92 61 93 63 94 60 95
REMARK H PARENT 9 10 26 32 30 38 80 57 54 68
REMARK Flexibility Score: inf
ROOT
ATOM      1  C   UNL     1      -3.566  -6.268   6.945  1.00  0.00     0.133 A 
ATOM      2  C   UNL     1      -3.115  -6.429   8.250  1.00  0.00     0.047 A 
ATOM      3  C   UNL     1      -3.627  -7.469   9.016  1.00  0.00     0.004 A 
ATOM      4  C   UNL     1      -4.568  -8.347   8.465  1.00  0.00     0.009 A 
ATOM      5  C   UNL     1      -5.036  -8.200   7.143  1.00  0.00    -0.012 A 
ATOM      6  C   UNL     1      -4.511  -7.134   6.393  1.00  0.00     0.056 A 
ENDROOT
BRANCH   1   7
ATOM      7  O   UNL     1      -2.915  -5.303   6.161  1.00  0.00    -0.410 OA
BRANCH   7   8
ATOM      8  C   UNL     1      -3.677  -4.444   5.385  1.00  0.00     0.412 C 
ATOM      9  N   UNL     1      -2.923  -3.736   4.490  1.00  0.00    -0.321 N 
ATOM     10  H   UNL     1      -3.394  -3.063   3.947  1.00  0.00     0.167 HD
ATOM     11  O   UNL     1      -4.890  -4.292   5.455  1.00  0.00    -0.224 OA
BRANCH   9  12
ATOM     12  C   UNL     1      -1.499  -3.880   4.262  1.00  0.00     0.119 C 
BRANCH  12  13
ATOM     13  C   UNL     1      -1.188  -4.259   2.814  1.00  0.00     0.021 C 
BRANCH  13  14
ATOM     14  C   UNL     1      -1.593  -3.207   1.774  1.00  0.00     0.002 C 
BRANCH  14  15
ATOM     15  C   UNL     1      -1.004  -1.810   1.996  1.00  0.00     0.000 C 
BRANCH  15  16
ATOM     16  C   UNL     1       0.527  -1.744   1.985  1.00  0.00    -0.000 C 
BRANCH  16  17
ATOM     17  C   UNL     1       1.182  -2.118   0.651  1.00  0.00    -0.000 C 
BRANCH  17  18
ATOM     18  C   UNL     1       0.760  -1.262  -0.546  1.00  0.00    -0.003 C 
ATOM     19  C   UNL     1       1.081   0.215  -0.376  1.00  0.00     0.004 C 
ENDBRANCH  17  18
ENDBRANCH  16  17
ENDBRANCH  15  16
ENDBRANCH  14  15
ENDBRANCH  13  14
ENDBRANCH  12  13
ENDBRANCH   9  12
ENDBRANCH   7   8
ENDBRANCH   1   7
BRANCH   5  20
ATOM     20  C   UNL     1      -6.048  -9.117   6.568  1.00  0.00     0.018 A 
ATOM     21  C   UNL     1      -7.070  -9.659   7.366  1.00  0.00     0.012 A 
ATOM     22  C   UNL     1      -6.066  -9.473   5.210  1.00  0.00     0.131 A 
ATOM     23  C   UNL     1      -8.062 -10.492   6.830  1.00  0.00     0.005 A 
ATOM     24  C   UNL     1      -7.083 -10.257   4.660  1.00  0.00     0.044 A 
ATOM     25  F   UNL     1      -5.091  -9.063   4.382  1.00  0.00    -0.206 F 
ATOM     26  C   UNL     1      -8.114 -10.765   5.461  1.00  0.00    -0.033 A 
BRANCH  26  27
ATOM     27  C   UNL     1      -9.248 -11.538   4.809  1.00  0.00     0.105 C 
ATOM     28  C   UNL     1      -9.671 -12.823   5.519  1.00  0.00     0.023 C 
BRANCH  27  29
ATOM     29  C   UNL     1     -10.411 -10.643   4.354  1.00  0.00     0.227 C 
ATOM     30  O   UNL     1     -10.529 -10.347   3.159  1.00  0.00    -0.274 OA
ATOM     31  N   UNL     1     -11.353 -10.131   5.192  1.00  0.00    -0.356 N 
ATOM     32  H   UNL     1     -12.064  -9.626   4.736  1.00  0.00     0.163 HD
BRANCH  31  33
ATOM     33  C   UNL     1     -11.504 -10.190   6.632  1.00  0.00     0.117 C 
BRANCH  33  34
ATOM     34  C   UNL     1     -10.985  -8.932   7.322  1.00  0.00     0.042 C 
BRANCH  34  35
ATOM     35  C   UNL     1     -11.967  -7.768   7.305  1.00  0.00     0.118 C 
BRANCH  35  36
ATOM     36  N   UNL     1     -13.115  -8.006   8.169  1.00  0.00    -0.352 N 
ATOM     37  C   UNL     1     -13.558  -7.328   9.277  1.00  0.00     0.251 C 
ATOM     38  H   UNL     1     -13.665  -8.783   7.916  1.00  0.00     0.163 HD
ATOM     39  O   UNL     1     -14.432  -7.838   9.975  1.00  0.00    -0.269 OA
BRANCH  37  40
ATOM     40  C   UNL     1     -13.005  -6.005   9.650  1.00  0.00     0.039 A 
ATOM     41  C   UNL     1     -12.895  -5.684  11.008  1.00  0.00     0.014 A 
ATOM     42  C   UNL     1     -12.668  -5.050   8.688  1.00  0.00     0.014 A 
ATOM     43  C   UNL     1     -12.416  -4.429  11.397  1.00  0.00     0.010 A 
ATOM     44  C   UNL     1     -12.112  -3.832   9.074  1.00  0.00     0.010 A 
ATOM     45  C   UNL     1     -12.002  -3.499  10.432  1.00  0.00    -0.014 A 
BRANCH  45  46
ATOM     46  C   UNL     1     -11.505  -2.153  10.816  1.00  0.00     0.031 A 
ATOM     47  C   UNL     1     -12.273  -0.925  10.405  1.00  0.00     0.074 A 
ATOM     48  C   UNL     1     -10.344  -2.029  11.487  1.00  0.00     0.049 A 
ATOM     49  N   UNL     1     -11.967   0.338  10.565  1.00  0.00    -0.248 NA
ATOM     50  C   UNL     1     -13.543  -1.146   9.695  1.00  0.00     0.031 C 
ATOM     51  C   UNL     1      -9.487  -3.137  11.911  1.00  0.00     0.029 A 
ATOM     52  N   UNL     1      -9.678  -0.909  11.920  1.00  0.00    -0.354 N 
ATOM     53  C   UNL     1     -12.989   1.056   9.956  1.00  0.00     0.074 A 
ATOM     54  C   UNL     1     -13.899   0.090   9.380  1.00  0.00     0.031 C 
ATOM     55  C   UNL     1      -8.420  -2.643  12.561  1.00  0.00     0.029 A 
ATOM     56  C   UNL     1      -8.500  -1.186  12.569  1.00  0.00     0.049 A 
ATOM     57  H   UNL     1     -10.014   0.005  11.779  1.00  0.00     0.167 HD
ATOM     58  C   UNL     1     -13.168   2.397   9.901  1.00  0.00     0.037 A 
ATOM     59  C   UNL     1      -7.584  -0.356  13.103  1.00  0.00     0.037 A 
ATOM     60  C   UNL     1     -12.281   3.356  10.503  1.00  0.00     0.049 A 
ATOM     61  C   UNL     1      -7.810   1.129  13.036  1.00  0.00     0.074 A 
ATOM     62  C   UNL     1     -12.397   4.735  10.542  1.00  0.00     0.029 A 
ATOM     63  N   UNL     1     -11.114   3.033  11.179  1.00  0.00    -0.354 N 
ATOM     64  N   UNL     1      -8.806   1.792  12.499  1.00  0.00    -0.248 NA
ATOM     65  C   UNL     1      -6.788   1.982  13.659  1.00  0.00     0.031 C 
ATOM     66  C   UNL     1     -11.285   5.248  11.217  1.00  0.00     0.029 A 
ATOM     67  C   UNL     1     -10.498   4.186  11.634  1.00  0.00     0.049 A 
ATOM     68  H   UNL     1     -10.775   2.119  11.316  1.00  0.00     0.167 HD
ATOM     69  C   UNL     1      -8.549   3.134  12.748  1.00  0.00     0.074 A 
ATOM     70  C   UNL     1      -7.308   3.190  13.494  1.00  0.00     0.031 C 
ATOM     71  C   UNL     1      -9.274   4.222  12.393  1.00  0.00     0.037 A 
BRANCH  58  72
ATOM     72  C   UNL     1     -14.378   2.903   9.170  1.00  0.00     0.057 A 
ATOM     73  C   UNL     1     -15.672   2.741   9.684  1.00  0.00     0.134 A 
ATOM     74  C   UNL     1     -14.249   3.584   7.953  1.00  0.00     0.134 A 
ATOM     75  F   UNL     1     -15.867   2.086  10.839  1.00  0.00    -0.206 F 
ATOM     76  C   UNL     1     -16.794   3.212   9.001  1.00  0.00     0.040 A 
ATOM     77  C   UNL     1     -15.362   4.084   7.274  1.00  0.00     0.040 A 
ATOM     78  F   UNL     1     -13.040   3.781   7.407  1.00  0.00    -0.206 F 
ATOM     79  C   UNL     1     -16.640   3.892   7.795  1.00  0.00     0.006 A 
ENDBRANCH  58  72
BRANCH  59  80
ATOM     80  C   UNL     1      -6.382  -0.907  13.778  1.00  0.00     0.057 A 
ATOM     81  C   UNL     1      -6.235  -0.821  15.167  1.00  0.00     0.134 A 
ATOM     82  C   UNL     1      -5.349  -1.515  13.056  1.00  0.00     0.134 A 
ATOM     83  F   UNL     1      -7.183  -0.232  15.911  1.00  0.00    -0.206 F 
ATOM     84  C   UNL     1      -5.094  -1.300  15.813  1.00  0.00     0.040 A 
ATOM     85  C   UNL     1      -4.213  -2.020  13.691  1.00  0.00     0.040 A 
ATOM     86  F   UNL     1      -5.432  -1.633  11.723  1.00  0.00    -0.206 F 
ATOM     87  C   UNL     1      -4.080  -1.905  15.074  1.00  0.00     0.006 A 
ENDBRANCH  59  80
BRANCH  71  88
ATOM     88  C   UNL     1      -8.773   5.559  12.851  1.00  0.00     0.057 A 
ATOM     89  C   UNL     1      -7.650   6.166  12.277  1.00  0.00     0.134 A 
ATOM     90  C   UNL     1      -9.447   6.261  13.858  1.00  0.00     0.134 A 
ATOM     91  F   UNL     1      -6.954   5.540  11.316  1.00  0.00    -0.206 F 
ATOM     92  C   UNL     1      -7.200   7.416  12.706  1.00  0.00     0.040 A 
ATOM     93  C   UNL     1      -9.021   7.521  14.278  1.00  0.00     0.040 A 
ATOM     94  F   UNL     1     -10.535   5.738  14.443  1.00  0.00    -0.206 F 
ATOM     95  C   UNL     1      -7.890   8.100  13.705  1.00  0.00     0.006 A 
ENDBRANCH  71  88
ENDBRANCH  45  46
ENDBRANCH  37  40
ENDBRANCH  35  36
ENDBRANCH  34  35
ENDBRANCH  33  34
ENDBRANCH  31  33
ENDBRANCH  27  29
ENDBRANCH  26  27
ENDBRANCH   5  20
TORSDOF 21
