REMARK SMILES N#C/C(=C\c1ccc(-c2ccc(C(=O)NCCCNC(=O)c3ccc(-c4c5nc(c(-c6c(F)cccc6F)c6ccc([nH]6)c(-c6c(F)cccc6F)c6nc(c(-c7c(F)cccc7F)c7ccc4[nH]7)C=C6)C=C5)cc3)cc2)o1)[C@@H]1N=c2cc(Br)cnc2=N1
REMARK SMILES IDX 16 1 15 2 13 3 14 4 12 6 9 7 10 8 77 9 11 10 76 11 8 12 5 13
REMARK SMILES IDX 6 14 78 15 7 16 4 17 3 18 2 19 1 20 79 21 80 22 88 23 81 24
REMARK SMILES IDX 87 25 82 26 86 27 83 28 85 29 84 30 17 31 18 32 19 33 20 34
REMARK SMILES IDX 21 36 22 37 23 38 75 39 24 40 74 41 25 42 26 43 27 44 68 45
REMARK SMILES IDX 28 46 73 47 67 48 69 49 29 50 72 51 66 52 65 53 30 55 56 56
REMARK SMILES IDX 39 57 55 58 40 59 43 60 54 61 70 62 41 63 42 64 53 66 71 67
REMARK SMILES IDX 44 68 31 69 32 70 37 71 33 72 34 73 36 74 38 75 35 76 57 77
REMARK SMILES IDX 58 78 63 79 59 80 60 81 62 82 64 83 61 84 45 85 46 86 51 87
REMARK SMILES IDX 47 88 48 89 50 90 52 91 49 92
REMARK H PARENT 15 5 19 35 69 54 43 65
REMARK Flexibility Score: inf
ROOT
ATOM      1  C   UNL     1      -1.565   5.155 -10.098  1.00  0.00     0.118 C 
ENDROOT
BRANCH   1   2
ATOM      2  N   UNL     1      -0.776   6.269  -9.603  1.00  0.00    -0.352 N 
ATOM      3  C   UNL     1       0.148   6.372  -8.594  1.00  0.00     0.251 C 
ATOM      4  O   UNL     1       0.683   7.467  -8.423  1.00  0.00    -0.269 OA
ATOM      5  H   UNL     1      -0.935   7.113 -10.084  1.00  0.00     0.163 HD
BRANCH   3   6
ATOM      6  C   UNL     1       0.569   5.215  -7.756  1.00  0.00     0.039 A 
ATOM      7  C   UNL     1       1.593   3.004  -6.351  1.00  0.00     0.017 A 
ATOM      8  C   UNL     1       2.369   4.155  -6.497  1.00  0.00     0.013 A 
ATOM      9  C   UNL     1       0.282   2.996  -6.832  1.00  0.00     0.013 A 
ATOM     10  C   UNL     1       1.862   5.250  -7.207  1.00  0.00     0.014 A 
ATOM     11  C   UNL     1      -0.237   4.108  -7.490  1.00  0.00     0.014 A 
BRANCH   7  12
ATOM     12  C   UNL     1       2.117   1.789  -5.772  1.00  0.00     0.134 A 
ATOM     13  C   UNL     1       2.800   0.547  -4.074  1.00  0.00     0.128 A 
ATOM     14  C   UNL     1       2.707  -0.271  -5.197  1.00  0.00     0.051 A 
ATOM     15  O   UNL     1       2.416   1.816  -4.449  1.00  0.00    -0.457 OA
ATOM     16  C   UNL     1       2.295   0.526  -6.282  1.00  0.00     0.051 A 
BRANCH  13  17
ATOM     17  C   UNL     1       3.162   0.220  -2.739  1.00  0.00     0.066 C 
ATOM     18  C   UNL     1       4.216  -0.558  -2.424  1.00  0.00     0.080 C 
BRANCH  18  19
ATOM     19  C   UNL     1       5.122  -1.052  -3.417  1.00  0.00     0.099 C 
ATOM     20  N   UNL     1       5.869  -1.467  -4.199  1.00  0.00    -0.193 NA
ENDBRANCH  18  19
BRANCH  18  21
ATOM     21  C   UNL     1       4.513  -0.930  -0.990  1.00  0.00     0.265 C 
ATOM     22  N   UNL     1       5.914  -0.555  -0.645  1.00  0.00    -0.249 NA
ATOM     23  N   UNL     1       4.298  -2.390  -0.807  1.00  0.00    -0.232 NA
ATOM     24  C   UNL     1       6.441  -1.698  -0.380  1.00  0.00     0.106 A 
ATOM     25  C   UNL     1       5.467  -2.809  -0.462  1.00  0.00     0.175 A 
ATOM     26  C   UNL     1       7.821  -2.031  -0.038  1.00  0.00     0.049 A 
ATOM     27  N   UNL     1       5.755  -4.117  -0.212  1.00  0.00    -0.234 NA
ATOM     28  C   UNL     1       8.098  -3.325   0.175  1.00  0.00     0.038 A 
ATOM     29  C   UNL     1       6.999  -4.340   0.078  1.00  0.00     0.129 A 
ATOM     30  Br  UNL     1       9.803  -3.933   0.599  1.00  0.00    -0.049 Br
ENDBRANCH  18  21
ENDBRANCH  13  17
ENDBRANCH   7  12
ENDBRANCH   3   6
ENDBRANCH   1   2
BRANCH   1  31
ATOM     31  C   UNL     1      -2.983   5.205  -9.531  1.00  0.00     0.042 C 
BRANCH  31  32
ATOM     32  C   UNL     1      -3.850   6.259 -10.211  1.00  0.00     0.118 C 
BRANCH  32  33
ATOM     33  N   UNL     1      -4.084   5.934 -11.612  1.00  0.00    -0.352 N 
ATOM     34  C   UNL     1      -5.255   5.742 -12.293  1.00  0.00     0.251 C 
ATOM     35  H   UNL     1      -3.269   5.839 -12.155  1.00  0.00     0.163 HD
ATOM     36  O   UNL     1      -5.227   5.209 -13.399  1.00  0.00    -0.269 OA
BRANCH  34  37
ATOM     37  C   UNL     1      -6.544   6.173 -11.715  1.00  0.00     0.039 A 
ATOM     38  C   UNL     1      -7.683   5.409 -11.980  1.00  0.00     0.014 A 
ATOM     39  C   UNL     1      -6.648   7.351 -10.971  1.00  0.00     0.014 A 
ATOM     40  C   UNL     1      -8.918   5.814 -11.475  1.00  0.00     0.010 A 
ATOM     41  C   UNL     1      -7.861   7.700 -10.387  1.00  0.00     0.010 A 
ATOM     42  C   UNL     1      -9.013   6.949 -10.653  1.00  0.00    -0.014 A 
BRANCH  42  43
ATOM     43  C   UNL     1     -10.317   7.364 -10.081  1.00  0.00     0.031 A 
ATOM     44  C   UNL     1     -10.920   8.693 -10.445  1.00  0.00     0.074 A 
ATOM     45  C   UNL     1     -10.944   6.550  -9.212  1.00  0.00     0.049 A 
ATOM     46  N   UNL     1     -12.050   9.223 -10.049  1.00  0.00    -0.248 NA
ATOM     47  C   UNL     1     -10.141   9.552 -11.351  1.00  0.00     0.031 C 
ATOM     48  C   UNL     1     -10.436   5.256  -8.750  1.00  0.00     0.029 A 
ATOM     49  N   UNL     1     -12.146   6.684  -8.567  1.00  0.00    -0.354 N 
ATOM     50  C   UNL     1     -12.113  10.472 -10.654  1.00  0.00     0.074 A 
ATOM     51  C   UNL     1     -10.877  10.652 -11.381  1.00  0.00     0.031 C 
ATOM     52  C   UNL     1     -11.341   4.695  -7.934  1.00  0.00     0.029 A 
ATOM     53  C   UNL     1     -12.468   5.609  -7.775  1.00  0.00     0.049 A 
ATOM     54  H   UNL     1     -12.724   7.476  -8.662  1.00  0.00     0.167 HD
ATOM     55  C   UNL     1     -13.123  11.375 -10.630  1.00  0.00     0.037 A 
ATOM     56  C   UNL     1     -13.549   5.386  -7.006  1.00  0.00     0.037 A 
ATOM     57  C   UNL     1     -14.350  11.187  -9.901  1.00  0.00     0.049 A 
ATOM     58  C   UNL     1     -14.637   6.422  -6.960  1.00  0.00     0.074 A 
ATOM     59  C   UNL     1     -15.453  12.021  -9.839  1.00  0.00     0.029 A 
ATOM     60  N   UNL     1     -14.630  10.094  -9.093  1.00  0.00    -0.354 N 
ATOM     61  N   UNL     1     -14.717   7.568  -7.592  1.00  0.00    -0.248 NA
ATOM     62  C   UNL     1     -15.790   6.129  -6.098  1.00  0.00     0.031 C 
ATOM     63  C   UNL     1     -16.369  11.466  -8.940  1.00  0.00     0.029 A 
ATOM     64  C   UNL     1     -15.874  10.247  -8.504  1.00  0.00     0.049 A 
ATOM     65  H   UNL     1     -14.032   9.323  -8.959  1.00  0.00     0.167 HD
ATOM     66  C   UNL     1     -15.942   8.116  -7.235  1.00  0.00     0.074 A 
ATOM     67  C   UNL     1     -16.576   7.169  -6.340  1.00  0.00     0.031 C 
ATOM     68  C   UNL     1     -16.495   9.294  -7.617  1.00  0.00     0.037 A 
BRANCH  55  69
ATOM     69  C   UNL     1     -12.931  12.649 -11.406  1.00  0.00     0.057 A 
ATOM     70  C   UNL     1     -12.846  12.662 -12.807  1.00  0.00     0.134 A 
ATOM     71  C   UNL     1     -12.843  13.883 -10.749  1.00  0.00     0.134 A 
ATOM     72  F   UNL     1     -12.913  11.516 -13.503  1.00  0.00    -0.206 F 
ATOM     73  C   UNL     1     -12.639  13.845 -13.518  1.00  0.00     0.040 A 
ATOM     74  C   UNL     1     -12.674  15.077 -11.452  1.00  0.00     0.040 A 
ATOM     75  F   UNL     1     -12.926  13.951  -9.412  1.00  0.00    -0.206 F 
ATOM     76  C   UNL     1     -12.558  15.059 -12.840  1.00  0.00     0.006 A 
ENDBRANCH  55  69
BRANCH  56  77
ATOM     77  C   UNL     1     -13.667   4.117  -6.241  1.00  0.00     0.057 A 
ATOM     78  C   UNL     1     -14.639   3.165  -6.567  1.00  0.00     0.134 A 
ATOM     79  C   UNL     1     -12.813   3.825  -5.171  1.00  0.00     0.134 A 
ATOM     80  F   UNL     1     -15.496   3.391  -7.573  1.00  0.00    -0.206 F 
ATOM     81  C   UNL     1     -14.775   1.980  -5.842  1.00  0.00     0.040 A 
ATOM     82  C   UNL     1     -12.916   2.630  -4.458  1.00  0.00     0.040 A 
ATOM     83  F   UNL     1     -11.851   4.689  -4.815  1.00  0.00    -0.206 F 
ATOM     84  C   UNL     1     -13.906   1.707  -4.787  1.00  0.00     0.006 A 
ENDBRANCH  56  77
BRANCH  68  85
ATOM     85  C   UNL     1     -17.876   9.604  -7.111  1.00  0.00     0.057 A 
ATOM     86  C   UNL     1     -18.132   9.892  -5.764  1.00  0.00     0.134 A 
ATOM     87  C   UNL     1     -18.960   9.653  -7.997  1.00  0.00     0.134 A 
ATOM     88  F   UNL     1     -17.142   9.853  -4.859  1.00  0.00    -0.206 F 
ATOM     89  C   UNL     1     -19.420  10.186  -5.313  1.00  0.00     0.040 A 
ATOM     90  C   UNL     1     -20.245   9.981  -7.564  1.00  0.00     0.040 A 
ATOM     91  F   UNL     1     -18.786   9.399  -9.303  1.00  0.00    -0.206 F 
ATOM     92  C   UNL     1     -20.480  10.239  -6.216  1.00  0.00     0.006 A 
ENDBRANCH  68  85
ENDBRANCH  42  43
ENDBRANCH  34  37
ENDBRANCH  32  33
ENDBRANCH  31  32
ENDBRANCH   1  31
TORSDOF 14
