REMARK SMILES O=C(NCCCNC(=O)[C@@H]1CC[C@@H](CNC(=O)c2cccc(O)c2)O1)c1ccc(-c2c3nc(c(-c4c(F)cccc4F)c4ccc([nH]4)c(-c4c(F)cccc4F)c4nc(c(-c5c(F)cccc5F)c5ccc2[nH]5)C=C4)C=C3)cc1
REMARK SMILES IDX 6 1 5 2 4 3 3 4 1 5 2 6 26 8 27 9 79 10 28 11 78 12 29 13
REMARK SMILES IDX 30 14 31 15 72 16 32 17 77 18 71 19 73 20 33 21 76 22 70 23
REMARK SMILES IDX 69 24 34 26 60 27 43 28 59 29 44 30 47 31 58 32 74 33 45 34
REMARK SMILES IDX 46 35 57 37 75 38 48 39 35 40 36 41 41 42 37 43 38 44 40 45
REMARK SMILES IDX 42 46 39 47 61 48 62 49 67 50 63 51 64 52 66 53 68 54 65 55
REMARK SMILES IDX 49 56 50 57 55 58 51 59 52 60 54 61 56 62 53 63 7 64 8 65
REMARK SMILES IDX 9 67 10 68 11 69 25 70 12 71 13 72 14 73 15 74 16 75 17 77
REMARK SMILES IDX 18 78 19 79 24 80 20 81 22 82 21 83 23 84
REMARK H PARENT 3 7 73 25 47 36 7 66 15 76 23 85
REMARK Flexibility Score: inf
ROOT
ATOM      1  C   UNL     1       4.008  -2.123   3.260  1.00  0.00     0.117 C 
ENDROOT
BRANCH   1   2
ATOM      2  C   UNL     1       4.409  -0.922   2.400  1.00  0.00     0.042 C 
BRANCH   2   3
ATOM      3  C   UNL     1       4.314  -1.188   0.900  1.00  0.00     0.118 C 
BRANCH   3   4
ATOM      4  N   UNL     1       2.933  -1.189   0.448  1.00  0.00    -0.352 N 
ATOM      5  O   UNL     1       1.031  -0.307  -0.350  1.00  0.00    -0.269 OA
ATOM      6  C   UNL     1       2.259  -0.275  -0.320  1.00  0.00     0.251 C 
ATOM      7  H   UNL     1       2.400  -1.965   0.736  1.00  0.00     0.163 HD
BRANCH   6   8
ATOM      8  C   UNL     1       2.981   0.744  -1.116  1.00  0.00     0.039 A 
ATOM      9  C   UNL     1       4.135   0.425  -1.840  1.00  0.00     0.014 A 
ATOM     10  C   UNL     1       2.424   2.023  -1.226  1.00  0.00     0.014 A 
ATOM     11  C   UNL     1       4.771   1.400  -2.609  1.00  0.00     0.010 A 
ATOM     12  C   UNL     1       3.028   2.981  -2.042  1.00  0.00     0.010 A 
ATOM     13  C   UNL     1       4.211   2.679  -2.735  1.00  0.00    -0.014 A 
BRANCH  13  14
ATOM     14  C   UNL     1       4.812   3.680  -3.651  1.00  0.00     0.031 A 
ATOM     15  C   UNL     1       5.427   4.938  -3.114  1.00  0.00     0.074 A 
ATOM     16  C   UNL     1       4.751   3.471  -4.979  1.00  0.00     0.049 A 
ATOM     17  N   UNL     1       5.910   5.965  -3.767  1.00  0.00    -0.248 NA
ATOM     18  C   UNL     1       5.500   5.064  -1.651  1.00  0.00     0.031 C 
ATOM     19  C   UNL     1       4.162   2.294  -5.620  1.00  0.00     0.029 A 
ATOM     20  N   UNL     1       5.171   4.248  -6.029  1.00  0.00    -0.354 N 
ATOM     21  C   UNL     1       6.321   6.870  -2.798  1.00  0.00     0.074 A 
ATOM     22  C   UNL     1       6.016   6.278  -1.512  1.00  0.00     0.031 C 
ATOM     23  C   UNL     1       4.260   2.425  -6.952  1.00  0.00     0.029 A 
ATOM     24  C   UNL     1       4.871   3.714  -7.258  1.00  0.00     0.049 A 
ATOM     25  H   UNL     1       5.643   5.104  -5.912  1.00  0.00     0.167 HD
ATOM     26  C   UNL     1       6.901   8.083  -2.968  1.00  0.00     0.037 A 
ATOM     27  C   UNL     1       5.038   4.218  -8.495  1.00  0.00     0.037 A 
ATOM     28  C   UNL     1       7.211   8.661  -4.249  1.00  0.00     0.049 A 
ATOM     29  C   UNL     1       5.666   5.570  -8.660  1.00  0.00     0.074 A 
ATOM     30  C   UNL     1       7.844   9.861  -4.524  1.00  0.00     0.029 A 
ATOM     31  N   UNL     1       6.903   8.083  -5.472  1.00  0.00    -0.354 N 
ATOM     32  N   UNL     1       6.089   6.398  -7.736  1.00  0.00    -0.248 NA
ATOM     33  C   UNL     1       5.839   6.059 -10.034  1.00  0.00     0.031 C 
ATOM     34  C   UNL     1       7.884  10.027  -5.913  1.00  0.00     0.029 A 
ATOM     35  C   UNL     1       7.312   8.911  -6.504  1.00  0.00     0.049 A 
ATOM     36  H   UNL     1       6.459   7.212  -5.589  1.00  0.00     0.167 HD
ATOM     37  C   UNL     1       6.593   7.498  -8.414  1.00  0.00     0.074 A 
ATOM     38  C   UNL     1       6.430   7.229  -9.829  1.00  0.00     0.031 C 
ATOM     39  C   UNL     1       7.146   8.627  -7.907  1.00  0.00     0.037 A 
BRANCH  26  40
ATOM     40  C   UNL     1       7.213   8.875  -1.733  1.00  0.00     0.057 A 
ATOM     41  C   UNL     1       8.262   8.525  -0.873  1.00  0.00     0.134 A 
ATOM     42  C   UNL     1       6.463  10.013  -1.409  1.00  0.00     0.134 A 
ATOM     43  F   UNL     1       9.010   7.439  -1.120  1.00  0.00    -0.206 F 
ATOM     44  C   UNL     1       8.537   9.264   0.279  1.00  0.00     0.040 A 
ATOM     45  C   UNL     1       6.743  10.772  -0.271  1.00  0.00     0.040 A 
ATOM     46  F   UNL     1       5.448  10.406  -2.193  1.00  0.00    -0.206 F 
ATOM     47  C   UNL     1       7.778  10.393   0.581  1.00  0.00     0.006 A 
ENDBRANCH  26  40
BRANCH  27  48
ATOM     48  C   UNL     1       4.589   3.426  -9.664  1.00  0.00     0.057 A 
ATOM     49  C   UNL     1       5.508   2.777 -10.494  1.00  0.00     0.134 A 
ATOM     50  C   UNL     1       3.227   3.253  -9.943  1.00  0.00     0.134 A 
ATOM     51  F   UNL     1       6.824   2.918 -10.284  1.00  0.00    -0.206 F 
ATOM     52  C   UNL     1       5.089   1.980 -11.561  1.00  0.00     0.040 A 
ATOM     53  C   UNL     1       2.794   2.443 -10.993  1.00  0.00     0.040 A 
ATOM     54  F   UNL     1       2.299   3.844  -9.175  1.00  0.00    -0.206 F 
ATOM     55  C   UNL     1       3.728   1.804 -11.806  1.00  0.00     0.006 A 
ENDBRANCH  27  48
BRANCH  39  56
ATOM     56  C   UNL     1       7.642   9.647  -8.886  1.00  0.00     0.057 A 
ATOM     57  C   UNL     1       6.766  10.502  -9.565  1.00  0.00     0.134 A 
ATOM     58  C   UNL     1       9.015   9.813  -9.105  1.00  0.00     0.134 A 
ATOM     59  F   UNL     1       5.440  10.383  -9.406  1.00  0.00    -0.206 F 
ATOM     60  C   UNL     1       7.240  11.486 -10.434  1.00  0.00     0.040 A 
ATOM     61  C   UNL     1       9.502  10.804  -9.957  1.00  0.00     0.040 A 
ATOM     62  F   UNL     1       9.904   9.027  -8.479  1.00  0.00    -0.206 F 
ATOM     63  C   UNL     1       8.612  11.644 -10.626  1.00  0.00     0.006 A 
ENDBRANCH  39  56
ENDBRANCH  13  14
ENDBRANCH   6   8
ENDBRANCH   3   4
ENDBRANCH   2   3
ENDBRANCH   1   2
BRANCH   1  64
ATOM     64  N   UNL     1       5.047  -3.136   3.263  1.00  0.00    -0.354 N 
ATOM     65  C   UNL     1       6.055  -3.374   4.155  1.00  0.00     0.249 C 
ATOM     66  H   UNL     1       5.021  -3.754   2.497  1.00  0.00     0.163 HD
ATOM     67  O   UNL     1       6.887  -4.224   3.827  1.00  0.00    -0.272 OA
BRANCH  65  68
ATOM     68  C   UNL     1       6.105  -2.648   5.524  1.00  0.00     0.207 C 
ATOM     69  C   UNL     1       6.068  -1.123   5.442  1.00  0.00     0.045 C 
ATOM     70  O   UNL     1       7.324  -2.968   6.240  1.00  0.00    -0.363 OA
ATOM     71  C   UNL     1       7.119  -0.674   6.425  1.00  0.00     0.037 C 
ATOM     72  C   UNL     1       8.135  -1.782   6.260  1.00  0.00     0.138 C 
BRANCH  72  73
ATOM     73  C   UNL     1       9.244  -1.837   7.316  1.00  0.00     0.148 C 
BRANCH  73  74
ATOM     74  N   UNL     1       8.805  -1.441   8.649  1.00  0.00    -0.349 N 
ATOM     75  C   UNL     1       8.266  -2.200   9.652  1.00  0.00     0.251 C 
ATOM     76  H   UNL     1       8.913  -0.485   8.858  1.00  0.00     0.163 HD
ATOM     77  O   UNL     1       7.652  -1.645  10.560  1.00  0.00    -0.269 OA
BRANCH  75  78
ATOM     78  C   UNL     1       8.435  -3.666   9.672  1.00  0.00     0.043 A 
ATOM     79  C   UNL     1       9.699  -4.246   9.507  1.00  0.00     0.014 A 
ATOM     80  C   UNL     1       7.333  -4.463   9.990  1.00  0.00     0.060 A 
ATOM     81  C   UNL     1       9.847  -5.630   9.606  1.00  0.00     0.005 A 
ATOM     82  C   UNL     1       7.497  -5.838  10.099  1.00  0.00     0.116 A 
ATOM     83  C   UNL     1       8.742  -6.430   9.901  1.00  0.00     0.046 A 
BRANCH  82  84
ATOM     84  O   UNL     1       6.402  -6.585  10.421  1.00  0.00    -0.508 OA
ATOM     85  H   UNL     1       6.477  -7.516  10.502  1.00  0.00     0.293 HD
ENDBRANCH  82  84
ENDBRANCH  75  78
ENDBRANCH  73  74
ENDBRANCH  72  73
ENDBRANCH  65  68
ENDBRANCH   1  64
TORSDOF 14
