REMARK SMILES COc1ccccc1[C@@H]1C[N@@H+](Cc2cn3cc(C)ccc3n2)C[C@H]1C(=O)NCCCNC(=O)c1ccc(-c2c3nc(c(-c4c(F)cccc4F)c4ccc([nH]4)c(-c4c(F)cccc4F)c4nc(c(-c5c(F)cccc5F)c5ccc2[nH]5)C=C4)C=C3)cc1
REMARK SMILES IDX 29 1 28 2 27 3 25 4 26 5 24 7 9 8 10 9 11 10 23 11 8 13 3 14
REMARK SMILES IDX 4 15 5 16 7 17 6 18 2 19 1 20 12 21 13 22 14 23 22 24 15 25
REMARK SMILES IDX 21 26 16 27 20 28 17 29 19 30 18 31 30 32 31 33 32 34 33 36
REMARK SMILES IDX 34 37 35 38 87 39 36 40 86 41 37 42 38 43 39 44 80 45 40 46
REMARK SMILES IDX 85 47 79 48 81 49 41 50 84 51 78 52 77 53 42 55 68 56 51 57
REMARK SMILES IDX 67 58 52 59 55 60 66 61 82 62 53 63 54 64 65 66 83 67 56 68
REMARK SMILES IDX 43 69 44 70 49 71 45 72 46 73 48 74 50 75 47 76 69 77 70 78
REMARK SMILES IDX 75 79 71 80 72 81 74 82 76 83 73 84 57 85 58 86 63 87 59 88
REMARK SMILES IDX 60 89 62 90 64 91 61 92
REMARK H PARENT 27 6 11 12 31 35 81 54 55 65
REMARK Flexibility Score: inf
ROOT
ATOM      1  C   UNL     1       6.861   1.159   1.997  1.00  0.00     0.042 C 
ENDROOT
BRANCH   1   2
ATOM      2  C   UNL     1       5.406   0.912   2.453  1.00  0.00     0.117 C 
BRANCH   2   3
ATOM      3  N   UNL     1       4.375   1.811   1.932  1.00  0.00    -0.356 N 
ATOM      4  C   UNL     1       3.300   1.763   1.101  1.00  0.00     0.229 C 
ATOM      5  O   UNL     1       2.701   2.852   1.019  1.00  0.00    -0.275 OA
ATOM      6  H   UNL     1       4.496   2.721   2.290  1.00  0.00     0.163 HD
BRANCH   4   7
ATOM      7  C   UNL     1       2.709   0.568   0.329  1.00  0.00     0.146 C 
ATOM      8  C   UNL     1       2.563   0.837  -1.200  1.00  0.00     0.096 C 
ATOM      9  C   UNL     1       2.904  -0.503  -1.874  1.00  0.00     0.272 C 
ATOM     10  N   UNL     1       3.854  -1.161  -0.974  1.00  0.00    -0.329 N 
ATOM     11  C   UNL     1       3.387  -0.799   0.370  1.00  0.00     0.276 C 
ATOM     12  H   UNL     1       3.851  -2.173  -1.106  1.00  0.00     0.348 HD
BRANCH   8  13
ATOM     13  C   UNL     1       1.396   1.576  -1.829  1.00  0.00     0.004 A 
ATOM     14  C   UNL     1       0.121   1.050  -2.066  1.00  0.00     0.122 A 
ATOM     15  C   UNL     1      -0.802   1.744  -2.865  1.00  0.00     0.047 A 
ATOM     16  C   UNL     1      -0.475   2.978  -3.427  1.00  0.00     0.004 A 
ATOM     17  C   UNL     1       1.685   2.847  -2.383  1.00  0.00     0.008 A 
ATOM     18  C   UNL     1       0.772   3.534  -3.182  1.00  0.00     0.001 A 
BRANCH  14  19
ATOM     19  O   UNL     1      -0.238  -0.212  -1.683  1.00  0.00    -0.496 OA
ATOM     20  C   UNL     1      -0.636  -0.262  -0.317  1.00  0.00     0.278 C 
ENDBRANCH  14  19
ENDBRANCH   8  13
BRANCH  10  21
ATOM     21  C   UNL     1       5.290  -0.929  -1.254  1.00  0.00     0.321 C 
BRANCH  21  22
ATOM     22  C   UNL     1       5.733   0.486  -1.524  1.00  0.00     0.114 A 
ATOM     23  C   UNL     1       6.514   1.014  -2.540  1.00  0.00     0.122 A 
ATOM     24  N   UNL     1       5.382   1.497  -0.669  1.00  0.00    -0.228 NA
ATOM     25  N   UNL     1       6.538   2.380  -2.340  1.00  0.00    -0.306 N 
ATOM     26  C   UNL     1       5.744   2.621  -1.235  1.00  0.00     0.137 A 
ATOM     27  C   UNL     1       7.191   3.400  -3.030  1.00  0.00     0.096 A 
ATOM     28  C   UNL     1       5.447   3.968  -0.904  1.00  0.00     0.048 A 
ATOM     29  C   UNL     1       7.007   4.683  -2.648  1.00  0.00    -0.034 A 
ATOM     30  C   UNL     1       6.046   4.960  -1.582  1.00  0.00     0.009 A 
ATOM     31  C   UNL     1       7.726   5.841  -3.261  1.00  0.00     0.046 C 
ENDBRANCH  21  22
ENDBRANCH  10  21
ENDBRANCH   4   7
ENDBRANCH   2   3
ENDBRANCH   1   2
BRANCH   1  32
ATOM     32  C   UNL     1       7.308   2.595   2.216  1.00  0.00     0.118 C 
BRANCH  32  33
ATOM     33  N   UNL     1       8.743   2.759   2.399  1.00  0.00    -0.352 N 
ATOM     34  C   UNL     1       9.505   3.901   2.441  1.00  0.00     0.251 C 
ATOM     35  H   UNL     1       9.246   1.920   2.511  1.00  0.00     0.163 HD
ATOM     36  O   UNL     1      10.729   3.782   2.623  1.00  0.00    -0.269 OA
BRANCH  34  37
ATOM     37  C   UNL     1       8.938   5.262   2.247  1.00  0.00     0.039 A 
ATOM     38  C   UNL     1       9.787   6.289   1.808  1.00  0.00     0.014 A 
ATOM     39  C   UNL     1       7.602   5.570   2.501  1.00  0.00     0.014 A 
ATOM     40  C   UNL     1       9.292   7.581   1.605  1.00  0.00     0.010 A 
ATOM     41  C   UNL     1       7.090   6.825   2.216  1.00  0.00     0.010 A 
ATOM     42  C   UNL     1       7.935   7.853   1.813  1.00  0.00    -0.014 A 
BRANCH  42  43
ATOM     43  C   UNL     1       7.397   9.193   1.567  1.00  0.00     0.031 A 
ATOM     44  C   UNL     1       7.613   9.783   0.215  1.00  0.00     0.074 A 
ATOM     45  C   UNL     1       6.530   9.834   2.381  1.00  0.00     0.049 A 
ATOM     46  N   UNL     1       8.248  10.864  -0.102  1.00  0.00    -0.248 NA
ATOM     47  C   UNL     1       7.042   9.069  -0.933  1.00  0.00     0.031 C 
ATOM     48  C   UNL     1       5.869   9.342   3.593  1.00  0.00     0.029 A 
ATOM     49  N   UNL     1       5.971  11.066   2.205  1.00  0.00    -0.354 N 
ATOM     50  C   UNL     1       8.040  11.057  -1.468  1.00  0.00     0.074 A 
ATOM     51  C   UNL     1       7.376   9.870  -1.946  1.00  0.00     0.031 C 
ATOM     52  C   UNL     1       4.849  10.168   3.912  1.00  0.00     0.029 A 
ATOM     53  C   UNL     1       4.895  11.325   3.035  1.00  0.00     0.049 A 
ATOM     54  H   UNL     1       6.305  11.716   1.544  1.00  0.00     0.167 HD
ATOM     55  C   UNL     1       8.279  12.248  -2.085  1.00  0.00     0.037 A 
ATOM     56  C   UNL     1       4.080  12.403   3.002  1.00  0.00     0.037 A 
ATOM     57  C   UNL     1       9.063  13.135  -1.270  1.00  0.00     0.049 A 
ATOM     58  C   UNL     1       4.783  13.488   2.279  1.00  0.00     0.074 A 
ATOM     59  C   UNL     1      10.303  13.072  -0.662  1.00  0.00     0.029 A 
ATOM     60  N   UNL     1       8.442  14.221  -0.704  1.00  0.00    -0.354 N 
ATOM     61  N   UNL     1       5.815  14.135   2.742  1.00  0.00    -0.248 NA
ATOM     62  C   UNL     1       4.546  13.634   0.851  1.00  0.00     0.031 C 
ATOM     63  C   UNL     1      10.149  13.782   0.566  1.00  0.00     0.029 A 
ATOM     64  C   UNL     1       8.833  14.243   0.609  1.00  0.00     0.049 A 
ATOM     65  H   UNL     1       7.837  14.856  -1.152  1.00  0.00     0.167 HD
ATOM     66  C   UNL     1       6.584  14.422   1.626  1.00  0.00     0.074 A 
ATOM     67  C   UNL     1       5.693  14.213   0.490  1.00  0.00     0.031 C 
ATOM     68  C   UNL     1       7.943  14.529   1.709  1.00  0.00     0.037 A 
BRANCH  55  69
ATOM     69  C   UNL     1       7.574  12.737  -3.324  1.00  0.00     0.057 A 
ATOM     70  C   UNL     1       8.095  13.831  -4.041  1.00  0.00     0.134 A 
ATOM     71  C   UNL     1       6.268  12.351  -3.684  1.00  0.00     0.134 A 
ATOM     72  F   UNL     1       9.316  14.314  -3.766  1.00  0.00    -0.206 F 
ATOM     73  C   UNL     1       7.356  14.516  -5.013  1.00  0.00     0.040 A 
ATOM     74  C   UNL     1       5.540  12.995  -4.690  1.00  0.00     0.040 A 
ATOM     75  F   UNL     1       5.603  11.400  -3.016  1.00  0.00    -0.206 F 
ATOM     76  C   UNL     1       6.072  14.098  -5.341  1.00  0.00     0.006 A 
ENDBRANCH  55  69
BRANCH  56  77
ATOM     77  C   UNL     1       2.674  12.514   3.434  1.00  0.00     0.057 A 
ATOM     78  C   UNL     1       2.101  13.753   3.745  1.00  0.00     0.134 A 
ATOM     79  C   UNL     1       1.787  11.428   3.328  1.00  0.00     0.134 A 
ATOM     80  F   UNL     1       2.860  14.855   3.824  1.00  0.00    -0.206 F 
ATOM     81  C   UNL     1       0.722  13.907   3.932  1.00  0.00     0.040 A 
ATOM     82  C   UNL     1       0.410  11.565   3.522  1.00  0.00     0.040 A 
ATOM     83  F   UNL     1       2.221  10.215   2.954  1.00  0.00    -0.206 F 
ATOM     84  C   UNL     1      -0.129  12.811   3.815  1.00  0.00     0.006 A 
ENDBRANCH  56  77
BRANCH  68  85
ATOM     85  C   UNL     1       8.564  14.636   3.072  1.00  0.00     0.057 A 
ATOM     86  C   UNL     1       8.477  13.636   4.051  1.00  0.00     0.134 A 
ATOM     87  C   UNL     1       9.402  15.722   3.350  1.00  0.00     0.134 A 
ATOM     88  F   UNL     1       7.789  12.508   3.831  1.00  0.00    -0.206 F 
ATOM     89  C   UNL     1       9.149  13.738   5.272  1.00  0.00     0.040 A 
ATOM     90  C   UNL     1      10.107  15.820   4.553  1.00  0.00     0.040 A 
ATOM     91  F   UNL     1       9.586  16.688   2.435  1.00  0.00    -0.206 F 
ATOM     92  C   UNL     1       9.972  14.832   5.524  1.00  0.00     0.006 A 
ENDBRANCH  68  85
ENDBRANCH  42  43
ENDBRANCH  34  37
ENDBRANCH  32  33
ENDBRANCH   1  32
TORSDOF 14
