REMARK SMILES COc1ccc2[nH]c(C(=O)c3cc(C)ccn3)c(CC(=O)NCCCNC(=O)c3ccc(-c4c5nc(c(-c6c(F)cccc6F)c6ccc([nH]6)c(-c6c(F)cccc6F)c6nc(c(-c7c(F)cccc7F)c7ccc4[nH]7)C=C6)C=C5)cc3)c2c1
REMARK SMILES IDX 23 1 22 2 20 3 21 4 19 6 18 7 3 8 4 9 84 10 5 11 83 12 6 13
REMARK SMILES IDX 7 14 8 15 2 17 1 18 9 19 10 20 11 21 12 22 17 23 13 24 16 25
REMARK SMILES IDX 14 26 15 27 24 28 25 29 26 30 27 31 28 33 29 34 30 35 82 36
REMARK SMILES IDX 31 37 81 38 32 39 33 40 34 41 75 42 35 43 80 44 74 45 76 46
REMARK SMILES IDX 36 47 79 48 73 49 72 50 37 52 63 53 46 54 62 55 47 56 50 57
REMARK SMILES IDX 61 58 77 59 48 60 49 61 60 63 78 64 51 65 38 66 39 67 44 68
REMARK SMILES IDX 40 69 41 70 43 71 45 72 42 73 64 74 65 75 70 76 66 77 67 78
REMARK SMILES IDX 69 79 71 80 68 81 52 82 53 83 58 84 54 85 55 86 57 87 59 88
REMARK SMILES IDX 56 89
REMARK H PARENT 22 5 7 16 26 32 76 51 50 62
REMARK Flexibility Score: inf
ROOT
ATOM      1  C   UNL     1      -2.503   1.146  -4.758  1.00  0.00     0.117 C 
ENDROOT
BRANCH   1   2
ATOM      2  N   UNL     1      -3.069   0.573  -5.960  1.00  0.00    -0.356 N 
ATOM      3  C   UNL     1      -2.965  -0.693  -6.461  1.00  0.00     0.224 C 
ATOM      4  O   UNL     1      -3.721  -0.982  -7.393  1.00  0.00    -0.275 OA
ATOM      5  H   UNL     1      -3.614   1.191  -6.500  1.00  0.00     0.163 HD
BRANCH   3   6
ATOM      6  C   UNL     1      -2.055  -1.734  -5.817  1.00  0.00     0.138 C 
BRANCH   6   7
ATOM      7  C   UNL     1      -0.593  -1.368  -5.777  1.00  0.00    -0.002 A 
ATOM      8  C   UNL     1       0.875  -0.909  -2.264  1.00  0.00     0.119 A 
ATOM      9  C   UNL     1       2.142  -0.514  -2.685  1.00  0.00     0.048 A 
ATOM     10  C   UNL     1      -0.100  -1.265  -3.203  1.00  0.00     0.057 A 
ATOM     11  C   UNL     1       2.455  -0.436  -4.048  1.00  0.00     0.030 A 
ATOM     12  C   UNL     1       0.179  -1.168  -4.582  1.00  0.00     0.008 A 
ATOM     13  C   UNL     1       1.452  -0.764  -4.968  1.00  0.00     0.046 A 
ATOM     14  N   UNL     1       1.475  -0.768  -6.341  1.00  0.00    -0.352 N 
ATOM     15  C   UNL     1       0.275  -1.209  -6.860  1.00  0.00     0.093 A 
ATOM     16  H   UNL     1       2.247  -0.491  -6.885  1.00  0.00     0.167 HD
BRANCH   8  17
ATOM     17  O   UNL     1       0.490  -1.025  -0.955  1.00  0.00    -0.497 OA
ATOM     18  C   UNL     1       1.030  -0.034  -0.085  1.00  0.00     0.278 C 
ENDBRANCH   8  17
BRANCH  15  19
ATOM     19  C   UNL     1       0.008  -1.435  -8.277  1.00  0.00     0.227 C 
ATOM     20  O   UNL     1      -1.063  -1.863  -8.705  1.00  0.00    -0.285 OA
BRANCH  19  21
ATOM     21  C   UNL     1       1.096  -1.205  -9.264  1.00  0.00     0.113 A 
ATOM     22  C   UNL     1       2.210  -2.039  -9.267  1.00  0.00     0.036 A 
ATOM     23  N   UNL     1       0.917  -0.174 -10.127  1.00  0.00    -0.253 NA
ATOM     24  C   UNL     1       3.207  -1.807 -10.217  1.00  0.00    -0.047 A 
ATOM     25  C   UNL     1       1.875   0.003 -11.058  1.00  0.00     0.112 A 
ATOM     26  C   UNL     1       4.437  -2.661 -10.280  1.00  0.00     0.044 C 
ATOM     27  C   UNL     1       3.023  -0.772 -11.138  1.00  0.00     0.023 A 
ENDBRANCH  19  21
ENDBRANCH  15  19
ENDBRANCH   6   7
ENDBRANCH   3   6
ENDBRANCH   1   2
BRANCH   1  28
ATOM     28  C   UNL     1      -1.330   2.080  -5.038  1.00  0.00     0.042 C 
BRANCH  28  29
ATOM     29  C   UNL     1      -1.699   3.345  -5.808  1.00  0.00     0.118 C 
BRANCH  29  30
ATOM     30  N   UNL     1      -2.587   4.225  -5.061  1.00  0.00    -0.352 N 
ATOM     31  C   UNL     1      -2.442   5.539  -4.693  1.00  0.00     0.251 C 
ATOM     32  H   UNL     1      -3.431   3.808  -4.771  1.00  0.00     0.163 HD
ATOM     33  O   UNL     1      -3.251   6.040  -3.916  1.00  0.00    -0.269 OA
BRANCH  31  34
ATOM     34  C   UNL     1      -1.319   6.359  -5.201  1.00  0.00     0.039 A 
ATOM     35  C   UNL     1      -0.688   7.246  -4.321  1.00  0.00     0.014 A 
ATOM     36  C   UNL     1      -0.919   6.308  -6.539  1.00  0.00     0.014 A 
ATOM     37  C   UNL     1       0.377   8.034  -4.765  1.00  0.00     0.010 A 
ATOM     38  C   UNL     1       0.182   7.049  -6.966  1.00  0.00     0.010 A 
ATOM     39  C   UNL     1       0.841   7.920  -6.084  1.00  0.00    -0.014 A 
BRANCH  39  40
ATOM     40  C   UNL     1       2.005   8.706  -6.566  1.00  0.00     0.031 A 
ATOM     41  C   UNL     1       1.821   9.754  -7.629  1.00  0.00     0.074 A 
ATOM     42  C   UNL     1       3.237   8.434  -6.095  1.00  0.00     0.049 A 
ATOM     43  N   UNL     1       2.724  10.457  -8.263  1.00  0.00    -0.248 NA
ATOM     44  C   UNL     1       0.438  10.032  -8.048  1.00  0.00     0.031 C 
ATOM     45  C   UNL     1       3.555   7.430  -5.078  1.00  0.00     0.029 A 
ATOM     46  N   UNL     1       4.457   8.973  -6.421  1.00  0.00    -0.354 N 
ATOM     47  C   UNL     1       2.023  11.246  -9.166  1.00  0.00     0.074 A 
ATOM     48  C   UNL     1       0.623  10.909  -9.024  1.00  0.00     0.031 C 
ATOM     49  C   UNL     1       4.879   7.434  -4.855  1.00  0.00     0.029 A 
ATOM     50  C   UNL     1       5.508   8.412  -5.738  1.00  0.00     0.049 A 
ATOM     51  H   UNL     1       4.568   9.694  -7.083  1.00  0.00     0.167 HD
ATOM     52  C   UNL     1       2.501  12.179 -10.024  1.00  0.00     0.037 A 
ATOM     53  C   UNL     1       6.831   8.649  -5.823  1.00  0.00     0.037 A 
ATOM     54  C   UNL     1       3.890  12.536 -10.147  1.00  0.00     0.049 A 
ATOM     55  C   UNL     1       7.335   9.683  -6.791  1.00  0.00     0.074 A 
ATOM     56  C   UNL     1       4.467  13.488 -10.970  1.00  0.00     0.029 A 
ATOM     57  N   UNL     1       4.919  11.960  -9.419  1.00  0.00    -0.354 N 
ATOM     58  N   UNL     1       6.658  10.437  -7.622  1.00  0.00    -0.248 NA
ATOM     59  C   UNL     1       8.789   9.899  -6.832  1.00  0.00     0.031 C 
ATOM     60  C   UNL     1       5.849  13.473 -10.755  1.00  0.00     0.029 A 
ATOM     61  C   UNL     1       6.128  12.534  -9.776  1.00  0.00     0.049 A 
ATOM     62  H   UNL     1       4.807  11.249  -8.747  1.00  0.00     0.167 HD
ATOM     63  C   UNL     1       7.596  11.238  -8.259  1.00  0.00     0.074 A 
ATOM     64  C   UNL     1       8.891  10.882  -7.715  1.00  0.00     0.031 C 
ATOM     65  C   UNL     1       7.403  12.184  -9.209  1.00  0.00     0.037 A 
BRANCH  52  66
ATOM     66  C   UNL     1       1.508  12.890 -10.894  1.00  0.00     0.057 A 
ATOM     67  C   UNL     1       0.641  13.860 -10.376  1.00  0.00     0.134 A 
ATOM     68  C   UNL     1       1.446  12.632 -12.269  1.00  0.00     0.134 A 
ATOM     69  F   UNL     1       0.644  14.143  -9.065  1.00  0.00    -0.206 F 
ATOM     70  C   UNL     1      -0.268  14.536 -11.192  1.00  0.00     0.040 A 
ATOM     71  C   UNL     1       0.557  13.318 -13.099  1.00  0.00     0.040 A 
ATOM     72  F   UNL     1       2.254  11.719 -12.829  1.00  0.00    -0.206 F 
ATOM     73  C   UNL     1      -0.306  14.270 -12.560  1.00  0.00     0.006 A 
ENDBRANCH  52  66
BRANCH  53  74
ATOM     74  C   UNL     1       7.779   7.907  -4.956  1.00  0.00     0.057 A 
ATOM     75  C   UNL     1       8.439   8.549  -3.901  1.00  0.00     0.134 A 
ATOM     76  C   UNL     1       8.065   6.555  -5.170  1.00  0.00     0.134 A 
ATOM     77  F   UNL     1       8.220   9.850  -3.661  1.00  0.00    -0.206 F 
ATOM     78  C   UNL     1       9.366   7.878  -3.104  1.00  0.00     0.040 A 
ATOM     79  C   UNL     1       8.974   5.865  -4.366  1.00  0.00     0.040 A 
ATOM     80  F   UNL     1       7.460   5.883  -6.161  1.00  0.00    -0.206 F 
ATOM     81  C   UNL     1       9.633   6.530  -3.334  1.00  0.00     0.006 A 
ENDBRANCH  53  74
BRANCH  65  82
ATOM     82  C   UNL     1       8.609  12.934  -9.684  1.00  0.00     0.057 A 
ATOM     83  C   UNL     1       9.540  12.360 -10.558  1.00  0.00     0.134 A 
ATOM     84  C   UNL     1       8.818  14.263  -9.294  1.00  0.00     0.134 A 
ATOM     85  F   UNL     1       9.401  11.086 -10.956  1.00  0.00    -0.206 F 
ATOM     86  C   UNL     1      10.646  13.076 -11.015  1.00  0.00     0.040 A 
ATOM     87  C   UNL     1       9.909  14.996  -9.760  1.00  0.00     0.040 A 
ATOM     88  F   UNL     1       7.959  14.871  -8.462  1.00  0.00    -0.206 F 
ATOM     89  C   UNL     1      10.830  14.401 -10.621  1.00  0.00     0.006 A 
ENDBRANCH  65  82
ENDBRANCH  39  40
ENDBRANCH  31  34
ENDBRANCH  29  30
ENDBRANCH  28  29
ENDBRANCH   1  28
TORSDOF 14
