REMARK SMILES Cc1nsc(NC(=O)N2CCC[C@@H](C)C2)c1C(=O)NCCCNC(=O)c1ccc(-c2c3nc(c(-c4c(F)cccc4F)c4ccc([nH]4)c(-c4c(F)cccc4F)c4nc(c(-c5c(F)cccc5F)c5ccc2[nH]5)C=C4)C=C3)cc1
REMARK SMILES IDX 21 1 20 2 19 3 17 4 18 5 16 7 1 8 2 9 3 10 4 11 5 12 6 13
REMARK SMILES IDX 7 14 8 16 9 17 10 18 15 19 11 20 13 21 12 22 14 23 22 24
REMARK SMILES IDX 23 25 24 26 25 28 26 29 27 30 79 31 28 32 78 33 29 34 30 35
REMARK SMILES IDX 31 36 72 37 32 38 77 39 71 40 73 41 33 42 76 43 70 44 69 45
REMARK SMILES IDX 34 47 60 48 43 49 59 50 44 51 47 52 58 53 74 54 45 55 46 56
REMARK SMILES IDX 57 58 75 59 48 60 35 61 36 62 41 63 37 64 38 65 40 66 42 67
REMARK SMILES IDX 39 68 61 69 62 70 67 71 63 72 64 73 66 74 68 75 65 76 49 77
REMARK SMILES IDX 50 78 55 79 51 80 52 81 54 82 56 83 53 84
REMARK H PARENT 19 6 6 15 23 27 73 46 47 57
REMARK Flexibility Score: inf
ROOT
ATOM      1  C   UNL     1      -0.944   2.073  -0.439  1.00  0.00     0.042 C 
ENDROOT
BRANCH   1   2
ATOM      2  C   UNL     1      -0.062   1.440   0.622  1.00  0.00     0.118 C 
BRANCH   2   3
ATOM      3  N   UNL     1      -0.682   0.877   1.803  1.00  0.00    -0.352 N 
ATOM      4  C   UNL     1      -0.580  -0.401   2.322  1.00  0.00     0.256 C 
ATOM      5  O   UNL     1      -1.027  -0.588   3.455  1.00  0.00    -0.269 OA
ATOM      6  H   UNL     1      -1.258   1.493   2.311  1.00  0.00     0.163 HD
BRANCH   4   7
ATOM      7  C   UNL     1      -0.140  -1.515   1.487  1.00  0.00     0.097 A 
ATOM      8  C   UNL     1       2.094  -0.822   0.199  1.00  0.00     0.069 C 
ATOM      9  C   UNL     1       0.875  -1.650   0.454  1.00  0.00     0.066 A 
ATOM     10  N   UNL     1       0.675  -2.653  -0.407  1.00  0.00    -0.195 NA
ATOM     11  S   UNL     1      -0.601  -3.545   0.152  1.00  0.00    -0.017 S 
ATOM     12  C   UNL     1      -0.620  -2.806   1.688  1.00  0.00     0.130 A 
BRANCH  12  13
ATOM     13  N   UNL     1      -1.225  -3.384   2.784  1.00  0.00    -0.297 N 
ATOM     14  C   UNL     1      -1.529  -4.697   3.003  1.00  0.00     0.322 C 
ATOM     15  H   UNL     1      -1.472  -2.765   3.508  1.00  0.00     0.172 HD
ATOM     16  O   UNL     1      -2.455  -4.963   3.773  1.00  0.00    -0.248 OA
BRANCH  14  17
ATOM     17  N   UNL     1      -0.803  -5.689   2.379  1.00  0.00    -0.324 N 
ATOM     18  C   UNL     1       0.662  -5.737   2.312  1.00  0.00     0.121 C 
ATOM     19  C   UNL     1      -1.461  -6.954   2.097  1.00  0.00     0.124 C 
ATOM     20  C   UNL     1       1.182  -6.330   0.995  1.00  0.00     0.022 C 
ATOM     21  C   UNL     1      -1.142  -7.348   0.654  1.00  0.00     0.005 C 
ATOM     22  C   UNL     1       0.375  -7.530   0.486  1.00  0.00     0.007 C 
ATOM     23  C   UNL     1      -1.903  -8.602   0.239  1.00  0.00     0.009 C 
ENDBRANCH  14  17
ENDBRANCH  12  13
ENDBRANCH   4   7
ENDBRANCH   2   3
ENDBRANCH   1   2
BRANCH   1  24
ATOM     24  C   UNL     1      -1.396   3.464  -0.082  1.00  0.00     0.118 C 
BRANCH  24  25
ATOM     25  N   UNL     1      -0.300   4.422   0.099  1.00  0.00    -0.352 N 
ATOM     26  C   UNL     1      -0.420   5.776   0.360  1.00  0.00     0.251 C 
ATOM     27  H   UNL     1       0.615   4.065   0.028  1.00  0.00     0.163 HD
ATOM     28  O   UNL     1       0.526   6.545   0.235  1.00  0.00    -0.269 OA
BRANCH  26  29
ATOM     29  C   UNL     1      -1.745   6.261   0.775  1.00  0.00     0.039 A 
ATOM     30  C   UNL     1      -2.382   7.299   0.097  1.00  0.00     0.014 A 
ATOM     31  C   UNL     1      -2.412   5.501   1.730  1.00  0.00     0.014 A 
ATOM     32  C   UNL     1      -3.746   7.480   0.304  1.00  0.00     0.010 A 
ATOM     33  C   UNL     1      -3.780   5.548   1.770  1.00  0.00     0.010 A 
ATOM     34  C   UNL     1      -4.455   6.563   1.103  1.00  0.00    -0.014 A 
BRANCH  34  35
ATOM     35  C   UNL     1      -5.917   6.563   1.126  1.00  0.00     0.031 A 
ATOM     36  C   UNL     1      -6.542   6.614  -0.224  1.00  0.00     0.074 A 
ATOM     37  C   UNL     1      -6.649   6.345   2.243  1.00  0.00     0.049 A 
ATOM     38  N   UNL     1      -7.138   7.622  -0.767  1.00  0.00    -0.248 NA
ATOM     39  C   UNL     1      -6.345   5.482  -1.145  1.00  0.00     0.031 C 
ATOM     40  C   UNL     1      -6.166   5.977   3.582  1.00  0.00     0.029 A 
ATOM     41  N   UNL     1      -8.005   6.321   2.403  1.00  0.00    -0.354 N 
ATOM     42  C   UNL     1      -7.616   7.169  -1.994  1.00  0.00     0.074 A 
ATOM     43  C   UNL     1      -6.924   5.938  -2.260  1.00  0.00     0.031 C 
ATOM     44  C   UNL     1      -7.195   5.543   4.341  1.00  0.00     0.029 A 
ATOM     45  C   UNL     1      -8.428   5.796   3.623  1.00  0.00     0.049 A 
ATOM     46  H   UNL     1      -8.630   6.646   1.716  1.00  0.00     0.167 HD
ATOM     47  C   UNL     1      -8.761   7.694  -2.514  1.00  0.00     0.037 A 
ATOM     48  C   UNL     1      -9.703   5.614   4.041  1.00  0.00     0.037 A 
ATOM     49  C   UNL     1      -9.131   8.890  -1.796  1.00  0.00     0.049 A 
ATOM     50  C   UNL     1     -10.557   6.514   3.242  1.00  0.00     0.074 A 
ATOM     51  C   UNL     1      -8.681  10.188  -1.698  1.00  0.00     0.029 A 
ATOM     52  N   UNL     1      -9.905   8.642  -0.694  1.00  0.00    -0.354 N 
ATOM     53  N   UNL     1     -10.535   7.810   3.359  1.00  0.00    -0.248 NA
ATOM     54  C   UNL     1     -11.213   6.003   2.046  1.00  0.00     0.031 C 
ATOM     55  C   UNL     1      -9.052  10.637  -0.394  1.00  0.00     0.029 A 
ATOM     56  C   UNL     1      -9.762   9.624   0.246  1.00  0.00     0.049 A 
ATOM     57  H   UNL     1     -10.490   7.857  -0.592  1.00  0.00     0.167 HD
ATOM     58  C   UNL     1     -10.750   8.267   2.076  1.00  0.00     0.074 A 
ATOM     59  C   UNL     1     -11.352   7.144   1.366  1.00  0.00     0.031 C 
ATOM     60  C   UNL     1     -10.114   9.387   1.628  1.00  0.00     0.037 A 
BRANCH  47  61
ATOM     61  C   UNL     1      -9.820   6.907  -3.269  1.00  0.00     0.057 A 
ATOM     62  C   UNL     1     -10.947   7.595  -3.766  1.00  0.00     0.134 A 
ATOM     63  C   UNL     1      -9.951   5.504  -3.244  1.00  0.00     0.134 A 
ATOM     64  F   UNL     1     -10.960   8.935  -3.839  1.00  0.00    -0.206 F 
ATOM     65  C   UNL     1     -12.135   6.942  -4.125  1.00  0.00     0.040 A 
ATOM     66  C   UNL     1     -11.117   4.840  -3.644  1.00  0.00     0.040 A 
ATOM     67  F   UNL     1      -9.010   4.700  -2.740  1.00  0.00    -0.206 F 
ATOM     68  C   UNL     1     -12.226   5.560  -4.055  1.00  0.00     0.006 A 
ENDBRANCH  47  61
BRANCH  48  69
ATOM     69  C   UNL     1     -10.285   4.643   4.989  1.00  0.00     0.057 A 
ATOM     70  C   UNL     1     -11.531   4.875   5.589  1.00  0.00     0.134 A 
ATOM     71  C   UNL     1      -9.785   3.334   5.075  1.00  0.00     0.134 A 
ATOM     72  F   UNL     1     -12.095   6.090   5.543  1.00  0.00    -0.206 F 
ATOM     73  C   UNL     1     -12.270   3.849   6.189  1.00  0.00     0.040 A 
ATOM     74  C   UNL     1     -10.513   2.300   5.674  1.00  0.00     0.040 A 
ATOM     75  F   UNL     1      -8.623   3.002   4.494  1.00  0.00    -0.206 F 
ATOM     76  C   UNL     1     -11.770   2.551   6.213  1.00  0.00     0.006 A 
ENDBRANCH  48  69
BRANCH  60  77
ATOM     77  C   UNL     1      -9.621  10.346   2.669  1.00  0.00     0.057 A 
ATOM     78  C   UNL     1      -8.602  10.074   3.593  1.00  0.00     0.134 A 
ATOM     79  C   UNL     1     -10.191  11.622   2.711  1.00  0.00     0.134 A 
ATOM     80  F   UNL     1      -7.944   8.908   3.579  1.00  0.00    -0.206 F 
ATOM     81  C   UNL     1      -8.210  11.013   4.552  1.00  0.00     0.040 A 
ATOM     82  C   UNL     1      -9.785  12.581   3.639  1.00  0.00     0.040 A 
ATOM     83  F   UNL     1     -11.143  11.966   1.829  1.00  0.00    -0.206 F 
ATOM     84  C   UNL     1      -8.802  12.272   4.575  1.00  0.00     0.006 A 
ENDBRANCH  60  77
ENDBRANCH  34  35
ENDBRANCH  26  29
ENDBRANCH  24  25
ENDBRANCH   1  24
TORSDOF 12
