REMARK SMILES O=C(CSc1nnc(Cc2ccncc2)n1-c1ccccc1Cl)NCCCNC(=O)c1ccc(-c2c3nc(c(-c4c(F)cccc4F)c4ccc([nH]4)c(-c4c(F)cccc4F)c4nc(c(-c5c(F)cccc5F)c5ccc2[nH]5)C=C4)C=C3)cc1
REMARK SMILES IDX 25 1 24 2 1 3 2 4 3 6 4 7 5 8 6 9 16 10 7 11 8 12 17 13
REMARK SMILES IDX 18 14 22 15 19 16 21 17 23 18 20 19 9 20 10 21 11 22 15 23
REMARK SMILES IDX 12 24 14 25 13 26 26 27 27 28 28 29 29 30 30 32 31 33 32 34
REMARK SMILES IDX 84 35 33 36 83 37 34 38 35 39 36 40 77 41 37 42 82 43 76 44
REMARK SMILES IDX 78 45 38 46 81 47 75 48 74 49 39 51 65 52 48 53 64 54 49 55
REMARK SMILES IDX 52 56 63 57 79 58 50 59 51 60 62 62 80 63 53 64 40 65 41 66
REMARK SMILES IDX 46 67 42 68 43 69 45 70 47 71 44 72 66 73 67 74 72 75 68 76
REMARK SMILES IDX 69 77 71 78 73 79 70 80 54 81 55 82 60 83 56 84 57 85 59 86
REMARK SMILES IDX 61 87 58 88
REMARK H PARENT 24 5 28 31 78 50 52 61
REMARK Flexibility Score: inf
ROOT
ATOM      1  C   UNL     1       2.140   1.802  -1.302  1.00  0.00     0.117 C 
ENDROOT
BRANCH   1   2
ATOM      2  N   UNL     1       2.875   1.069  -0.287  1.00  0.00    -0.355 N 
ATOM      3  O   UNL     1       1.017   0.220   0.781  1.00  0.00    -0.274 OA
ATOM      4  C   UNL     1       2.210   0.133   0.498  1.00  0.00     0.230 C 
ATOM      5  H   UNL     1       3.837   1.233  -0.156  1.00  0.00     0.163 HD
BRANCH   4   6
ATOM      6  C   UNL     1       3.048  -1.045   0.973  1.00  0.00     0.178 C 
BRANCH   6   7
ATOM      7  S   UNL     1       3.898  -1.820  -0.437  1.00  0.00    -0.076 SA
BRANCH   7   8
ATOM      8  C   UNL     1       2.768  -3.006  -1.010  1.00  0.00     0.196 A 
ATOM      9  N   UNL     1       2.869  -4.296  -0.773  1.00  0.00    -0.123 NA
ATOM     10  N   UNL     1       1.748  -2.788  -1.911  1.00  0.00    -0.272 N 
ATOM     11  N   UNL     1       1.939  -4.949  -1.554  1.00  0.00    -0.134 NA
ATOM     12  C   UNL     1       1.296  -4.046  -2.269  1.00  0.00     0.142 A 
BRANCH  10  13
ATOM     13  C   UNL     1       1.159  -1.589  -2.335  1.00  0.00     0.068 A 
ATOM     14  C   UNL     1      -0.079  -1.244  -1.772  1.00  0.00     0.028 A 
ATOM     15  C   UNL     1       1.668  -0.893  -3.433  1.00  0.00     0.065 A 
ATOM     16  C   UNL     1      -0.801  -0.176  -2.300  1.00  0.00     0.002 A 
ATOM     17  C   UNL     1       0.925   0.163  -3.967  1.00  0.00     0.023 A 
ATOM     18  Cl  UNL     1       3.181  -1.279  -4.161  1.00  0.00    -0.082 Cl
ATOM     19  C   UNL     1      -0.302   0.524  -3.399  1.00  0.00     0.002 A 
ENDBRANCH  10  13
BRANCH  12  20
ATOM     20  C   UNL     1       0.231  -4.297  -3.292  1.00  0.00     0.113 C 
BRANCH  20  21
ATOM     21  C   UNL     1       0.756  -4.666  -4.660  1.00  0.00    -0.037 A 
ATOM     22  C   UNL     1       1.238  -5.956  -4.902  1.00  0.00     0.024 A 
ATOM     23  C   UNL     1       0.739  -3.758  -5.726  1.00  0.00     0.024 A 
ATOM     24  C   UNL     1       1.649  -6.287  -6.185  1.00  0.00     0.111 A 
ATOM     25  C   UNL     1       1.178  -4.183  -6.973  1.00  0.00     0.111 A 
ATOM     26  N   UNL     1       1.623  -5.430  -7.227  1.00  0.00    -0.265 NA
ENDBRANCH  20  21
ENDBRANCH  12  20
ENDBRANCH   7   8
ENDBRANCH   6   7
ENDBRANCH   4   6
ENDBRANCH   1   2
BRANCH   1  27
ATOM     27  C   UNL     1       2.348   3.304  -1.429  1.00  0.00     0.042 C 
BRANCH  27  28
ATOM     28  C   UNL     1       3.683   3.683  -2.048  1.00  0.00     0.118 C 
BRANCH  28  29
ATOM     29  N   UNL     1       3.829   3.362  -3.480  1.00  0.00    -0.352 N 
ATOM     30  C   UNL     1       4.956   3.572  -4.282  1.00  0.00     0.251 C 
ATOM     31  H   UNL     1       3.047   2.955  -3.920  1.00  0.00     0.163 HD
ATOM     32  O   UNL     1       4.895   3.602  -5.489  1.00  0.00    -0.269 OA
BRANCH  30  33
ATOM     33  C   UNL     1       6.243   3.744  -3.576  1.00  0.00     0.039 A 
ATOM     34  C   UNL     1       7.095   4.830  -3.799  1.00  0.00     0.014 A 
ATOM     35  C   UNL     1       6.453   2.868  -2.525  1.00  0.00     0.014 A 
ATOM     36  C   UNL     1       8.076   5.106  -2.845  1.00  0.00     0.010 A 
ATOM     37  C   UNL     1       7.228   3.292  -1.485  1.00  0.00     0.010 A 
ATOM     38  C   UNL     1       8.098   4.363  -1.653  1.00  0.00    -0.014 A 
BRANCH  38  39
ATOM     39  C   UNL     1       8.901   4.756  -0.494  1.00  0.00     0.031 A 
ATOM     40  C   UNL     1       8.749   6.183  -0.099  1.00  0.00     0.074 A 
ATOM     41  C   UNL     1       9.512   3.851   0.309  1.00  0.00     0.049 A 
ATOM     42  N   UNL     1       9.623   7.125  -0.220  1.00  0.00    -0.248 NA
ATOM     43  C   UNL     1       7.429   6.661   0.347  1.00  0.00     0.031 C 
ATOM     44  C   UNL     1       9.467   2.382   0.205  1.00  0.00     0.029 A 
ATOM     45  N   UNL     1      10.222   4.037   1.460  1.00  0.00    -0.354 N 
ATOM     46  C   UNL     1       9.057   8.246   0.385  1.00  0.00     0.074 A 
ATOM     47  C   UNL     1       7.652   7.970   0.501  1.00  0.00     0.031 C 
ATOM     48  C   UNL     1       9.891   1.821   1.357  1.00  0.00     0.029 A 
ATOM     49  C   UNL     1      10.446   2.869   2.189  1.00  0.00     0.049 A 
ATOM     50  H   UNL     1      10.547   4.919   1.751  1.00  0.00     0.167 HD
ATOM     51  C   UNL     1       9.850   9.147   1.032  1.00  0.00     0.037 A 
ATOM     52  C   UNL     1      11.088   2.747   3.374  1.00  0.00     0.037 A 
ATOM     53  C   UNL     1      11.238   8.896   0.733  1.00  0.00     0.049 A 
ATOM     54  C   UNL     1      11.956   3.931   3.520  1.00  0.00     0.074 A 
ATOM     55  C   UNL     1      12.093   9.091  -0.328  1.00  0.00     0.029 A 
ATOM     56  N   UNL     1      11.803   7.953   1.549  1.00  0.00    -0.354 N 
ATOM     57  N   UNL     1      12.990   4.156   2.758  1.00  0.00    -0.248 NA
ATOM     58  C   UNL     1      11.482   5.073   4.291  1.00  0.00     0.031 C 
ATOM     59  C   UNL     1      13.116   8.102  -0.201  1.00  0.00     0.029 A 
ATOM     60  C   UNL     1      12.886   7.364   0.958  1.00  0.00     0.049 A 
ATOM     61  H   UNL     1      11.472   7.728   2.448  1.00  0.00     0.167 HD
ATOM     62  C   UNL     1      13.008   5.527   2.616  1.00  0.00     0.074 A 
ATOM     63  C   UNL     1      12.199   6.042   3.714  1.00  0.00     0.031 C 
ATOM     64  C   UNL     1      13.385   6.096   1.436  1.00  0.00     0.037 A 
BRANCH  51  65
ATOM     65  C   UNL     1       9.479   9.895   2.300  1.00  0.00     0.057 A 
ATOM     66  C   UNL     1      10.377  10.858   2.806  1.00  0.00     0.134 A 
ATOM     67  C   UNL     1       8.471   9.498   3.201  1.00  0.00     0.134 A 
ATOM     68  F   UNL     1      11.392  11.313   2.056  1.00  0.00    -0.206 F 
ATOM     69  C   UNL     1      10.317  11.329   4.125  1.00  0.00     0.040 A 
ATOM     70  C   UNL     1       8.374   9.998   4.504  1.00  0.00     0.040 A 
ATOM     71  F   UNL     1       7.591   8.532   2.916  1.00  0.00    -0.206 F 
ATOM     72  C   UNL     1       9.316  10.892   4.982  1.00  0.00     0.006 A 
ENDBRANCH  51  65
BRANCH  52  73
ATOM     73  C   UNL     1      10.921   1.767   4.464  1.00  0.00     0.057 A 
ATOM     74  C   UNL     1      11.944   1.532   5.394  1.00  0.00     0.134 A 
ATOM     75  C   UNL     1       9.649   1.277   4.800  1.00  0.00     0.134 A 
ATOM     76  F   UNL     1      13.186   1.981   5.167  1.00  0.00    -0.206 F 
ATOM     77  C   UNL     1      11.704   0.895   6.617  1.00  0.00     0.040 A 
ATOM     78  C   UNL     1       9.396   0.638   6.019  1.00  0.00     0.040 A 
ATOM     79  F   UNL     1       8.595   1.492   3.997  1.00  0.00    -0.206 F 
ATOM     80  C   UNL     1      10.422   0.464   6.942  1.00  0.00     0.006 A 
ENDBRANCH  52  73
BRANCH  64  81
ATOM     81  C   UNL     1      14.239   5.274   0.522  1.00  0.00     0.057 A 
ATOM     82  C   UNL     1      13.804   4.140  -0.177  1.00  0.00     0.134 A 
ATOM     83  C   UNL     1      15.553   5.695   0.296  1.00  0.00     0.134 A 
ATOM     84  F   UNL     1      12.543   3.703  -0.075  1.00  0.00    -0.206 F 
ATOM     85  C   UNL     1      14.653   3.436  -1.036  1.00  0.00     0.040 A 
ATOM     86  C   UNL     1      16.402   5.020  -0.581  1.00  0.00     0.040 A 
ATOM     87  F   UNL     1      16.022   6.795   0.905  1.00  0.00    -0.206 F 
ATOM     88  C   UNL     1      15.957   3.880  -1.243  1.00  0.00     0.006 A 
ENDBRANCH  64  81
ENDBRANCH  38  39
ENDBRANCH  30  33
ENDBRANCH  28  29
ENDBRANCH  27  28
ENDBRANCH   1  27
TORSDOF 15
