REMARK SMILES Cc1cc(C(F)(F)CC(C)(C)CC(=O)NCCCNC(=O)c2ccc(-c3c4nc(c(-c5c(F)cccc5F)c5ccc([nH]5)c(-c5c(F)cccc5F)c5nc(c(-c6c(F)cccc6F)c6ccc3[nH]6)C=C5)C=C4)cc2)sc1Br
REMARK SMILES IDX 16 1 15 2 13 3 14 4 12 6 9 7 10 8 11 9 8 10 5 11 6 12 7 13
REMARK SMILES IDX 4 14 1 15 2 16 3 17 77 18 76 19 78 20 17 21 18 22 19 23
REMARK SMILES IDX 20 24 21 26 22 27 23 28 75 29 24 30 74 31 25 32 26 33 27 34
REMARK SMILES IDX 68 35 28 36 73 37 67 38 69 39 29 40 72 41 66 42 65 43 30 45
REMARK SMILES IDX 56 46 39 47 55 48 40 49 43 50 54 51 70 52 41 53 42 54 53 56
REMARK SMILES IDX 71 57 44 58 31 59 32 60 37 61 33 62 34 63 36 64 38 65 35 66
REMARK SMILES IDX 57 67 58 68 63 69 59 70 60 71 62 72 64 73 61 74 45 75 46 76
REMARK SMILES IDX 51 77 47 78 48 79 50 80 52 81 49 82
REMARK H PARENT 15 5 19 25 69 44 43 55
REMARK Flexibility Score: inf
ROOT
ATOM      1  C   UNL     1      -0.320  -7.751  -2.235  1.00  0.00     0.117 C 
ENDROOT
BRANCH   1   2
ATOM      2  N   UNL     1      -0.424  -7.960  -0.795  1.00  0.00    -0.356 N 
ATOM      3  C   UNL     1      -0.711  -7.096   0.216  1.00  0.00     0.220 C 
ATOM      4  O   UNL     1      -0.778  -7.543   1.362  1.00  0.00    -0.275 OA
ATOM      5  H   UNL     1      -0.258  -8.886  -0.505  1.00  0.00     0.163 HD
BRANCH   3   6
ATOM      6  C   UNL     1      -0.952  -5.627  -0.062  1.00  0.00     0.106 C 
BRANCH   6   7
ATOM      7  C   UNL     1       0.280  -4.684  -0.020  1.00  0.00    -0.021 C 
ATOM      8  C   UNL     1      -0.257  -3.303  -0.448  1.00  0.00     0.012 C 
ATOM      9  C   UNL     1       1.339  -5.037  -1.073  1.00  0.00     0.012 C 
BRANCH   7  10
ATOM     10  C   UNL     1       1.044  -4.761   1.348  1.00  0.00     0.090 C 
BRANCH  10  11
ATOM     11  C   UNL     1       0.511  -4.042   2.589  1.00  0.00     0.282 C 
ATOM     12  F   UNL     1       1.275  -4.441   3.648  1.00  0.00    -0.200 F 
ATOM     13  F   UNL     1      -0.747  -4.490   2.841  1.00  0.00    -0.200 F 
BRANCH  11  14
ATOM     14  C   UNL     1       0.565  -2.546   2.473  1.00  0.00     0.075 A 
ATOM     15  C   UNL     1       1.311   0.434   0.366  1.00  0.00     0.046 C 
ATOM     16  C   UNL     1       0.857  -0.446   1.484  1.00  0.00    -0.025 A 
ATOM     17  C   UNL     1       1.395  -1.761   1.690  1.00  0.00     0.026 A 
ATOM     18  C   UNL     1      -0.143  -0.208   2.401  1.00  0.00     0.073 A 
ATOM     19  S   UNL     1      -0.533  -1.564   3.345  1.00  0.00    -0.127 S 
ATOM     20  Br  UNL     1      -1.078   1.409   2.582  1.00  0.00    -0.039 Br
ENDBRANCH  11  14
ENDBRANCH  10  11
ENDBRANCH   7  10
ENDBRANCH   6   7
ENDBRANCH   3   6
ENDBRANCH   1   2
BRANCH   1  21
ATOM     21  C   UNL     1       1.118  -7.842  -2.762  1.00  0.00     0.042 C 
BRANCH  21  22
ATOM     22  C   UNL     1       1.709  -9.226  -2.666  1.00  0.00     0.118 C 
BRANCH  22  23
ATOM     23  N   UNL     1       1.303 -10.096  -3.761  1.00  0.00    -0.352 N 
ATOM     24  C   UNL     1       1.777 -11.373  -4.021  1.00  0.00     0.251 C 
ATOM     25  H   UNL     1       0.623  -9.742  -4.379  1.00  0.00     0.163 HD
ATOM     26  O   UNL     1       1.695 -11.864  -5.129  1.00  0.00    -0.269 OA
BRANCH  24  27
ATOM     27  C   UNL     1       2.397 -12.111  -2.903  1.00  0.00     0.039 A 
ATOM     28  C   UNL     1       3.534 -12.899  -3.083  1.00  0.00     0.014 A 
ATOM     29  C   UNL     1       1.842 -11.941  -1.639  1.00  0.00     0.014 A 
ATOM     30  C   UNL     1       4.133 -13.462  -1.960  1.00  0.00     0.010 A 
ATOM     31  C   UNL     1       2.564 -12.285  -0.533  1.00  0.00     0.010 A 
ATOM     32  C   UNL     1       3.646 -13.134  -0.682  1.00  0.00    -0.014 A 
BRANCH  32  33
ATOM     33  C   UNL     1       4.298 -13.618   0.527  1.00  0.00     0.031 A 
ATOM     34  C   UNL     1       5.745 -13.312   0.582  1.00  0.00     0.074 A 
ATOM     35  C   UNL     1       3.617 -14.112   1.587  1.00  0.00     0.049 A 
ATOM     36  N   UNL     1       6.724 -14.125   0.371  1.00  0.00    -0.248 NA
ATOM     37  C   UNL     1       6.160 -11.903   0.703  1.00  0.00     0.031 C 
ATOM     38  C   UNL     1       2.160 -14.126   1.796  1.00  0.00     0.029 A 
ATOM     39  N   UNL     1       4.087 -14.622   2.761  1.00  0.00    -0.354 N 
ATOM     40  C   UNL     1       7.877 -13.387   0.623  1.00  0.00     0.074 A 
ATOM     41  C   UNL     1       7.486 -12.005   0.569  1.00  0.00     0.031 C 
ATOM     42  C   UNL     1       1.885 -14.373   3.094  1.00  0.00     0.029 A 
ATOM     43  C   UNL     1       3.119 -14.747   3.754  1.00  0.00     0.049 A 
ATOM     44  H   UNL     1       5.028 -14.879   2.895  1.00  0.00     0.167 HD
ATOM     45  C   UNL     1       8.951 -13.989   1.206  1.00  0.00     0.037 A 
ATOM     46  C   UNL     1       3.312 -15.144   5.033  1.00  0.00     0.037 A 
ATOM     47  C   UNL     1       8.777 -15.421   1.210  1.00  0.00     0.049 A 
ATOM     48  C   UNL     1       4.579 -15.904   5.073  1.00  0.00     0.074 A 
ATOM     49  C   UNL     1       8.848 -16.451   0.299  1.00  0.00     0.029 A 
ATOM     50  N   UNL     1       8.062 -15.873   2.287  1.00  0.00    -0.354 N 
ATOM     51  N   UNL     1       4.749 -17.051   4.476  1.00  0.00    -0.248 NA
ATOM     52  C   UNL     1       5.803 -15.225   5.485  1.00  0.00     0.031 C 
ATOM     53  C   UNL     1       8.025 -17.497   0.816  1.00  0.00     0.029 A 
ATOM     54  C   UNL     1       7.510 -17.100   2.047  1.00  0.00     0.049 A 
ATOM     55  H   UNL     1       7.960 -15.376   3.130  1.00  0.00     0.167 HD
ATOM     56  C   UNL     1       6.064 -17.024   4.058  1.00  0.00     0.074 A 
ATOM     57  C   UNL     1       6.702 -15.984   4.853  1.00  0.00     0.031 C 
ATOM     58  C   UNL     1       6.431 -17.594   2.874  1.00  0.00     0.037 A 
BRANCH  45  59
ATOM     59  C   UNL     1       9.868 -13.345   2.231  1.00  0.00     0.057 A 
ATOM     60  C   UNL     1      10.968 -14.088   2.705  1.00  0.00     0.134 A 
ATOM     61  C   UNL     1       9.553 -12.204   2.996  1.00  0.00     0.134 A 
ATOM     62  F   UNL     1      11.372 -15.200   2.073  1.00  0.00    -0.206 F 
ATOM     63  C   UNL     1      11.642 -13.767   3.892  1.00  0.00     0.040 A 
ATOM     64  C   UNL     1      10.250 -11.848   4.155  1.00  0.00     0.040 A 
ATOM     65  F   UNL     1       8.499 -11.424   2.733  1.00  0.00    -0.206 F 
ATOM     66  C   UNL     1      11.276 -12.648   4.627  1.00  0.00     0.006 A 
ENDBRANCH  45  59
BRANCH  46  67
ATOM     67  C   UNL     1       2.604 -14.723   6.260  1.00  0.00     0.057 A 
ATOM     68  C   UNL     1       2.681 -15.479   7.437  1.00  0.00     0.134 A 
ATOM     69  C   UNL     1       2.089 -13.421   6.390  1.00  0.00     0.134 A 
ATOM     70  F   UNL     1       3.183 -16.723   7.413  1.00  0.00    -0.206 F 
ATOM     71  C   UNL     1       2.314 -14.956   8.683  1.00  0.00     0.040 A 
ATOM     72  C   UNL     1       1.716 -12.887   7.628  1.00  0.00     0.040 A 
ATOM     73  F   UNL     1       2.023 -12.597   5.335  1.00  0.00    -0.206 F 
ATOM     74  C   UNL     1       1.847 -13.649   8.783  1.00  0.00     0.006 A 
ENDBRANCH  46  67
BRANCH  58  75
ATOM     75  C   UNL     1       5.569 -18.688   2.329  1.00  0.00     0.057 A 
ATOM     76  C   UNL     1       4.272 -18.514   1.830  1.00  0.00     0.134 A 
ATOM     77  C   UNL     1       6.127 -19.966   2.227  1.00  0.00     0.134 A 
ATOM     78  F   UNL     1       3.684 -17.311   1.827  1.00  0.00    -0.206 F 
ATOM     79  C   UNL     1       3.555 -19.579   1.275  1.00  0.00     0.040 A 
ATOM     80  C   UNL     1       5.435 -21.029   1.647  1.00  0.00     0.040 A 
ATOM     81  F   UNL     1       7.380 -20.192   2.655  1.00  0.00    -0.206 F 
ATOM     82  C   UNL     1       4.140 -20.839   1.176  1.00  0.00     0.006 A 
ENDBRANCH  58  75
ENDBRANCH  32  33
ENDBRANCH  24  27
ENDBRANCH  22  23
ENDBRANCH  21  22
ENDBRANCH   1  21
TORSDOF 14
