REMARK SMILES O=C(NCCCNC(=O)[C@@H]1CC=CC[C@@H]1C(=O)Nc1sc2c(c1C(=O)N1CCCCC1)CCCC2)c1ccc(-c2c3nc(c(-c4c(F)cccc4F)c4ccc([nH]4)c(-c4c(F)cccc4F)c4nc(c(-c5c(F)cccc5F)c5ccc2[nH]5)C=C4)C=C3)cc1
REMARK SMILES IDX 5 1 4 2 3 3 1 4 2 5 36 7 37 8 89 9 38 10 88 11 39 12 40 13
REMARK SMILES IDX 41 14 82 15 42 16 87 17 81 18 83 19 43 20 86 21 80 22 79 23
REMARK SMILES IDX 44 25 70 26 53 27 69 28 54 29 57 30 68 31 84 32 55 33 56 34
REMARK SMILES IDX 67 36 85 37 58 38 45 39 46 40 51 41 47 42 48 43 50 44 52 45
REMARK SMILES IDX 49 46 71 47 72 48 77 49 73 50 74 51 76 52 78 53 75 54 59 55
REMARK SMILES IDX 60 56 65 57 61 58 62 59 64 60 66 61 63 62 6 63 7 64 8 65
REMARK SMILES IDX 9 67 10 68 11 69 15 70 12 71 14 72 13 73 16 74 17 75 18 76
REMARK SMILES IDX 19 78 20 79 23 80 21 81 22 82 35 83 32 84 34 85 33 86 24 87
REMARK SMILES IDX 25 88 26 89 27 90 31 91 28 92 30 93 29 94
REMARK H PARENT 3 6 83 24 57 35 7 66 18 77
REMARK Flexibility Score: inf
ROOT
ATOM      1  C   UNL     1       7.806   4.174  -2.455  1.00  0.00     0.042 C 
ENDROOT
BRANCH   1   2
ATOM      2  C   UNL     1       9.268   4.062  -2.056  1.00  0.00     0.118 C 
BRANCH   2   3
ATOM      3  N   UNL     1      10.118   5.050  -2.713  1.00  0.00    -0.352 N 
ATOM      4  O   UNL     1      11.521   6.826  -2.837  1.00  0.00    -0.269 OA
ATOM      5  C   UNL     1      10.993   5.952  -2.158  1.00  0.00     0.251 C 
ATOM      6  H   UNL     1      10.054   5.074  -3.696  1.00  0.00     0.163 HD
BRANCH   5   7
ATOM      7  C   UNL     1      11.276   5.844  -0.716  1.00  0.00     0.039 A 
ATOM      8  C   UNL     1      11.544   4.584  -0.183  1.00  0.00     0.014 A 
ATOM      9  C   UNL     1      11.189   6.968   0.110  1.00  0.00     0.014 A 
ATOM     10  C   UNL     1      11.518   4.413   1.188  1.00  0.00     0.010 A 
ATOM     11  C   UNL     1      11.286   6.807   1.495  1.00  0.00     0.010 A 
ATOM     12  C   UNL     1      11.406   5.522   2.045  1.00  0.00    -0.014 A 
BRANCH  12  13
ATOM     13  C   UNL     1      11.476   5.270   3.504  1.00  0.00     0.031 A 
ATOM     14  C   UNL     1      10.302   5.519   4.405  1.00  0.00     0.074 A 
ATOM     15  C   UNL     1      12.594   4.686   3.979  1.00  0.00     0.049 A 
ATOM     16  N   UNL     1      10.168   5.224   5.673  1.00  0.00    -0.248 NA
ATOM     17  C   UNL     1       9.131   6.190   3.819  1.00  0.00     0.031 C 
ATOM     18  C   UNL     1      13.797   4.412   3.186  1.00  0.00     0.029 A 
ATOM     19  N   UNL     1      12.882   4.162   5.210  1.00  0.00    -0.354 N 
ATOM     20  C   UNL     1       8.911   5.686   6.043  1.00  0.00     0.074 A 
ATOM     21  C   UNL     1       8.328   6.301   4.870  1.00  0.00     0.031 C 
ATOM     22  C   UNL     1      14.653   3.690   3.921  1.00  0.00     0.029 A 
ATOM     23  C   UNL     1      14.093   3.514   5.254  1.00  0.00     0.049 A 
ATOM     24  H   UNL     1      12.282   4.242   5.986  1.00  0.00     0.167 HD
ATOM     25  C   UNL     1       8.304   5.599   7.250  1.00  0.00     0.037 A 
ATOM     26  C   UNL     1      14.689   2.849   6.258  1.00  0.00     0.037 A 
ATOM     27  C   UNL     1       8.889   4.970   8.407  1.00  0.00     0.049 A 
ATOM     28  C   UNL     1      13.979   2.743   7.572  1.00  0.00     0.074 A 
ATOM     29  C   UNL     1       8.362   4.838   9.680  1.00  0.00     0.029 A 
ATOM     30  N   UNL     1      10.134   4.357   8.427  1.00  0.00    -0.354 N 
ATOM     31  N   UNL     1      12.795   3.196   7.907  1.00  0.00    -0.248 NA
ATOM     32  C   UNL     1      14.689   2.046   8.651  1.00  0.00     0.031 C 
ATOM     33  C   UNL     1       9.298   4.168  10.476  1.00  0.00     0.029 A 
ATOM     34  C   UNL     1      10.394   3.851   9.690  1.00  0.00     0.049 A 
ATOM     35  H   UNL     1      10.743   4.291   7.656  1.00  0.00     0.167 HD
ATOM     36  C   UNL     1      12.621   2.850   9.237  1.00  0.00     0.074 A 
ATOM     37  C   UNL     1      13.803   2.111   9.635  1.00  0.00     0.031 C 
ATOM     38  C   UNL     1      11.585   3.134  10.063  1.00  0.00     0.037 A 
BRANCH  25  39
ATOM     39  C   UNL     1       6.940   6.210   7.391  1.00  0.00     0.057 A 
ATOM     40  C   UNL     1       5.801   5.604   6.847  1.00  0.00     0.134 A 
ATOM     41  C   UNL     1       6.757   7.389   8.124  1.00  0.00     0.134 A 
ATOM     42  F   UNL     1       5.908   4.481   6.122  1.00  0.00    -0.206 F 
ATOM     43  C   UNL     1       4.529   6.155   7.019  1.00  0.00     0.040 A 
ATOM     44  C   UNL     1       5.489   7.940   8.318  1.00  0.00     0.040 A 
ATOM     45  F   UNL     1       7.807   8.019   8.674  1.00  0.00    -0.206 F 
ATOM     46  C   UNL     1       4.370   7.323   7.763  1.00  0.00     0.006 A 
ENDBRANCH  25  39
BRANCH  26  47
ATOM     47  C   UNL     1      16.029   2.249   6.048  1.00  0.00     0.057 A 
ATOM     48  C   UNL     1      16.209   0.863   6.005  1.00  0.00     0.134 A 
ATOM     49  C   UNL     1      17.159   3.054   5.855  1.00  0.00     0.134 A 
ATOM     50  F   UNL     1      15.167   0.040   6.196  1.00  0.00    -0.206 F 
ATOM     51  C   UNL     1      17.466   0.297   5.787  1.00  0.00     0.040 A 
ATOM     52  C   UNL     1      18.416   2.503   5.608  1.00  0.00     0.040 A 
ATOM     53  F   UNL     1      17.048   4.391   5.872  1.00  0.00    -0.206 F 
ATOM     54  C   UNL     1      18.573   1.120   5.580  1.00  0.00     0.006 A 
ENDBRANCH  26  47
BRANCH  38  55
ATOM     55  C   UNL     1      11.706   2.645  11.474  1.00  0.00     0.057 A 
ATOM     56  C   UNL     1      12.571   3.261  12.388  1.00  0.00     0.134 A 
ATOM     57  C   UNL     1      10.958   1.550  11.920  1.00  0.00     0.134 A 
ATOM     58  F   UNL     1      13.326   4.304  12.012  1.00  0.00    -0.206 F 
ATOM     59  C   UNL     1      12.709   2.785  13.691  1.00  0.00     0.040 A 
ATOM     60  C   UNL     1      11.071   1.079  13.228  1.00  0.00     0.040 A 
ATOM     61  F   UNL     1      10.110   0.921  11.093  1.00  0.00    -0.206 F 
ATOM     62  C   UNL     1      11.955   1.692  14.115  1.00  0.00     0.006 A 
ENDBRANCH  38  55
ENDBRANCH  12  13
ENDBRANCH   5   7
ENDBRANCH   2   3
ENDBRANCH   1   2
BRANCH   1  63
ATOM     63  C   UNL     1       7.557   3.959  -3.936  1.00  0.00     0.117 C 
BRANCH  63  64
ATOM     64  N   UNL     1       7.966   2.635  -4.381  1.00  0.00    -0.356 N 
ATOM     65  C   UNL     1       7.330   1.765  -5.223  1.00  0.00     0.224 C 
ATOM     66  H   UNL     1       8.828   2.319  -4.024  1.00  0.00     0.163 HD
ATOM     67  O   UNL     1       7.895   0.715  -5.518  1.00  0.00    -0.275 OA
BRANCH  65  68
ATOM     68  C   UNL     1       5.970   2.151  -5.750  1.00  0.00     0.095 C 
ATOM     69  C   UNL     1       5.082   0.936  -6.026  1.00  0.00     0.041 C 
ATOM     70  C   UNL     1       6.053   3.138  -6.933  1.00  0.00     0.095 C 
ATOM     71  C   UNL     1       3.741   1.379  -6.539  1.00  0.00    -0.030 C 
ATOM     72  C   UNL     1       4.616   3.630  -7.250  1.00  0.00     0.041 C 
ATOM     73  C   UNL     1       3.530   2.597  -7.063  1.00  0.00    -0.030 C 
BRANCH  70  74
ATOM     74  C   UNL     1       6.664   2.564  -8.229  1.00  0.00     0.229 C 
ATOM     75  O   UNL     1       6.178   1.561  -8.764  1.00  0.00    -0.274 OA
ATOM     76  N   UNL     1       7.588   3.269  -8.962  1.00  0.00    -0.317 N 
ATOM     77  H   UNL     1       7.501   3.144  -9.935  1.00  0.00     0.170 HD
BRANCH  76  78
ATOM     78  C   UNL     1       8.620   4.121  -8.599  1.00  0.00     0.108 A 
ATOM     79  S   UNL     1       9.253   4.028  -7.039  1.00  0.00    -0.122 S 
ATOM     80  C   UNL     1       9.352   4.992  -9.419  1.00  0.00     0.078 A 
ATOM     81  C   UNL     1      10.257   5.357  -7.278  1.00  0.00     0.011 A 
ATOM     82  C   UNL     1      10.351   5.707  -8.612  1.00  0.00    -0.019 A 
ATOM     83  C   UNL     1      10.975   6.003  -6.136  1.00  0.00     0.047 C 
ATOM     84  C   UNL     1      11.328   6.775  -9.020  1.00  0.00     0.037 C 
ATOM     85  C   UNL     1      11.619   7.322  -6.559  1.00  0.00     0.006 C 
ATOM     86  C   UNL     1      12.311   7.176  -7.907  1.00  0.00     0.005 C 
BRANCH  80  87
ATOM     87  C   UNL     1       8.967   5.180 -10.839  1.00  0.00     0.257 C 
ATOM     88  O   UNL     1       7.957   4.644 -11.299  1.00  0.00    -0.269 OA
ATOM     89  N   UNL     1       9.685   6.089 -11.606  1.00  0.00    -0.339 N 
ATOM     90  C   UNL     1       8.943   7.083 -12.371  1.00  0.00     0.120 C 
ATOM     91  C   UNL     1      11.056   5.826 -12.029  1.00  0.00     0.120 C 
ATOM     92  C   UNL     1       9.050   6.866 -13.878  1.00  0.00     0.022 C 
ATOM     93  C   UNL     1      11.163   5.579 -13.532  1.00  0.00     0.022 C 
ATOM     94  C   UNL     1      10.507   6.719 -14.306  1.00  0.00     0.004 C 
ENDBRANCH  80  87
ENDBRANCH  76  78
ENDBRANCH  70  74
ENDBRANCH  65  68
ENDBRANCH  63  64
ENDBRANCH   1  63
TORSDOF 13
