REMARK SMILES C[C@@H](C(=O)NCCCNC(=O)c1ccc(-c2c3nc(c(-c4c(F)cccc4F)c4ccc([nH]4)c(-c4c(F)cccc4F)c4nc(c(-c5c(F)cccc5F)c5ccc2[nH]5)C=C4)C=C3)cc1)c1cccc(C(=O)c2ccccc2)c1
REMARK SMILES IDX 6 1 5 2 3 3 4 4 2 6 1 7 66 8 67 9 79 10 68 11 70 12 69 13
REMARK SMILES IDX 71 14 72 15 73 16 74 17 78 18 75 19 77 20 76 21 7 22 8 23
REMARK SMILES IDX 9 24 10 25 11 27 12 28 13 29 65 30 14 31 64 32 15 33 16 34
REMARK SMILES IDX 17 35 58 36 18 37 63 38 57 39 59 40 19 41 62 42 56 43 55 44
REMARK SMILES IDX 20 46 46 47 29 48 45 49 30 50 33 51 44 52 60 53 31 54 32 55
REMARK SMILES IDX 43 57 61 58 34 59 21 60 22 61 27 62 23 63 24 64 26 65 28 66
REMARK SMILES IDX 25 67 47 68 48 69 53 70 49 71 50 72 52 73 54 74 51 75 35 76
REMARK SMILES IDX 36 77 41 78 37 79 38 80 40 81 42 82 39 83
REMARK H PARENT 5 5 9 26 59 45 33 56
REMARK Flexibility Score: inf
ROOT
ATOM      1  C   UNL     1       3.408  -2.005   0.032  1.00  0.00     0.117 C 
ENDROOT
BRANCH   1   2
ATOM      2  N   UNL     1       2.359  -2.341   0.975  1.00  0.00    -0.356 N 
ATOM      3  C   UNL     1       1.061  -1.928   1.050  1.00  0.00     0.227 C 
ATOM      4  O   UNL     1       0.431  -2.288   2.048  1.00  0.00    -0.274 OA
ATOM      5  H   UNL     1       2.628  -2.973   1.680  1.00  0.00     0.163 HD
BRANCH   3   6
ATOM      6  C   UNL     1       0.431  -1.098  -0.089  1.00  0.00     0.105 C 
ATOM      7  C   UNL     1       0.954   0.341  -0.043  1.00  0.00     0.023 C 
BRANCH   6   8
ATOM      8  C   UNL     1      -1.099  -1.202  -0.069  1.00  0.00    -0.035 A 
ATOM      9  C   UNL     1      -1.946  -0.094   0.094  1.00  0.00     0.004 A 
ATOM     10  C   UNL     1      -1.692  -2.475  -0.189  1.00  0.00     0.016 A 
ATOM     11  C   UNL     1      -3.332  -0.252   0.157  1.00  0.00     0.001 A 
ATOM     12  C   UNL     1      -3.077  -2.648  -0.066  1.00  0.00     0.023 A 
ATOM     13  C   UNL     1      -3.895  -1.524   0.088  1.00  0.00     0.012 A 
BRANCH  12  14
ATOM     14  C   UNL     1      -3.727  -3.987  -0.124  1.00  0.00     0.193 C 
ATOM     15  O   UNL     1      -4.930  -4.069  -0.366  1.00  0.00    -0.289 OA
BRANCH  14  16
ATOM     16  C   UNL     1      -2.965  -5.244   0.068  1.00  0.00     0.022 A 
ATOM     17  C   UNL     1      -3.223  -6.306  -0.806  1.00  0.00     0.012 A 
ATOM     18  C   UNL     1      -2.033  -5.399   1.101  1.00  0.00     0.012 A 
ATOM     19  C   UNL     1      -2.519  -7.503  -0.678  1.00  0.00     0.001 A 
ATOM     20  C   UNL     1      -1.329  -6.599   1.224  1.00  0.00     0.001 A 
ATOM     21  C   UNL     1      -1.567  -7.646   0.331  1.00  0.00     0.000 A 
ENDBRANCH  14  16
ENDBRANCH  12  14
ENDBRANCH   6   8
ENDBRANCH   3   6
ENDBRANCH   1   2
BRANCH   1  22
ATOM     22  C   UNL     1       4.375  -0.972   0.612  1.00  0.00     0.042 C 
BRANCH  22  23
ATOM     23  C   UNL     1       5.135  -1.435   1.852  1.00  0.00     0.118 C 
BRANCH  23  24
ATOM     24  N   UNL     1       6.090  -2.490   1.565  1.00  0.00    -0.352 N 
ATOM     25  C   UNL     1       7.422  -2.582   1.878  1.00  0.00     0.251 C 
ATOM     26  H   UNL     1       5.726  -3.258   1.068  1.00  0.00     0.163 HD
ATOM     27  O   UNL     1       8.087  -3.498   1.393  1.00  0.00    -0.269 OA
BRANCH  25  28
ATOM     28  C   UNL     1       8.078  -1.601   2.773  1.00  0.00     0.039 A 
ATOM     29  C   UNL     1       9.392  -1.215   2.485  1.00  0.00     0.014 A 
ATOM     30  C   UNL     1       7.454  -1.116   3.927  1.00  0.00     0.014 A 
ATOM     31  C   UNL     1      10.068  -0.333   3.332  1.00  0.00     0.010 A 
ATOM     32  C   UNL     1       8.105  -0.183   4.737  1.00  0.00     0.010 A 
ATOM     33  C   UNL     1       9.427   0.198   4.461  1.00  0.00    -0.014 A 
BRANCH  33  34
ATOM     34  C   UNL     1      10.151   1.102   5.391  1.00  0.00     0.031 A 
ATOM     35  C   UNL     1      10.466   0.648   6.791  1.00  0.00     0.074 A 
ATOM     36  C   UNL     1      10.502   2.339   4.994  1.00  0.00     0.049 A 
ATOM     37  N   UNL     1      11.062   1.298   7.759  1.00  0.00    -0.248 NA
ATOM     38  C   UNL     1      10.031  -0.709   7.160  1.00  0.00     0.031 C 
ATOM     39  C   UNL     1      10.216   2.919   3.681  1.00  0.00     0.029 A 
ATOM     40  N   UNL     1      11.173   3.334   5.660  1.00  0.00    -0.354 N 
ATOM     41  C   UNL     1      11.058   0.439   8.851  1.00  0.00     0.074 A 
ATOM     42  C   UNL     1      10.357  -0.759   8.442  1.00  0.00     0.031 C 
ATOM     43  C   UNL     1      10.723   4.162   3.632  1.00  0.00     0.029 A 
ATOM     44  C   UNL     1      11.352   4.472   4.913  1.00  0.00     0.049 A 
ATOM     45  H   UNL     1      11.495   3.240   6.585  1.00  0.00     0.167 HD
ATOM     46  C   UNL     1      11.607   0.618  10.076  1.00  0.00     0.037 A 
ATOM     47  C   UNL     1      11.961   5.632   5.224  1.00  0.00     0.037 A 
ATOM     48  C   UNL     1      12.332   1.795  10.477  1.00  0.00     0.049 A 
ATOM     49  C   UNL     1      12.604   5.791   6.573  1.00  0.00     0.074 A 
ATOM     50  C   UNL     1      12.954   2.058  11.685  1.00  0.00     0.029 A 
ATOM     51  N   UNL     1      12.539   2.903   9.671  1.00  0.00    -0.354 N 
ATOM     52  N   UNL     1      12.633   4.952   7.579  1.00  0.00    -0.248 NA
ATOM     53  C   UNL     1      13.317   7.053   6.822  1.00  0.00     0.031 C 
ATOM     54  C   UNL     1      13.522   3.336  11.616  1.00  0.00     0.029 A 
ATOM     55  C   UNL     1      13.281   3.853  10.353  1.00  0.00     0.049 A 
ATOM     56  H   UNL     1      12.208   3.001   8.749  1.00  0.00     0.167 HD
ATOM     57  C   UNL     1      13.386   5.569   8.568  1.00  0.00     0.074 A 
ATOM     58  C   UNL     1      13.806   6.850   8.037  1.00  0.00     0.031 C 
ATOM     59  C   UNL     1      13.703   5.115   9.805  1.00  0.00     0.037 A 
BRANCH  46  60
ATOM     60  C   UNL     1      11.448  -0.497  11.067  1.00  0.00     0.057 A 
ATOM     61  C   UNL     1      12.143  -1.706  10.931  1.00  0.00     0.134 A 
ATOM     62  C   UNL     1      10.598  -0.362  12.171  1.00  0.00     0.134 A 
ATOM     63  F   UNL     1      12.962  -1.905   9.886  1.00  0.00    -0.206 F 
ATOM     64  C   UNL     1      11.976  -2.752  11.840  1.00  0.00     0.040 A 
ATOM     65  C   UNL     1      10.441  -1.391  13.101  1.00  0.00     0.040 A 
ATOM     66  F   UNL     1       9.906   0.771  12.364  1.00  0.00    -0.206 F 
ATOM     67  C   UNL     1      11.126  -2.593  12.932  1.00  0.00     0.006 A 
ENDBRANCH  46  60
BRANCH  47  68
ATOM     68  C   UNL     1      12.029   6.720   4.219  1.00  0.00     0.057 A 
ATOM     69  C   UNL     1      13.226   7.017   3.558  1.00  0.00     0.134 A 
ATOM     70  C   UNL     1      10.902   7.481   3.891  1.00  0.00     0.134 A 
ATOM     71  F   UNL     1      14.342   6.331   3.844  1.00  0.00    -0.206 F 
ATOM     72  C   UNL     1      13.305   8.044   2.617  1.00  0.00     0.040 A 
ATOM     73  C   UNL     1      10.961   8.498   2.937  1.00  0.00     0.040 A 
ATOM     74  F   UNL     1       9.724   7.238   4.485  1.00  0.00    -0.206 F 
ATOM     75  C   UNL     1      12.168   8.785   2.301  1.00  0.00     0.006 A 
ENDBRANCH  47  68
BRANCH  59  76
ATOM     76  C   UNL     1      14.576   5.991  10.652  1.00  0.00     0.057 A 
ATOM     77  C   UNL     1      14.087   7.151  11.266  1.00  0.00     0.134 A 
ATOM     78  C   UNL     1      15.916   5.652  10.879  1.00  0.00     0.134 A 
ATOM     79  F   UNL     1      12.816   7.536  11.076  1.00  0.00    -0.206 F 
ATOM     80  C   UNL     1      14.907   7.955  12.059  1.00  0.00     0.040 A 
ATOM     81  C   UNL     1      16.739   6.436  11.687  1.00  0.00     0.040 A 
ATOM     82  F   UNL     1      16.443   4.549  10.325  1.00  0.00    -0.206 F 
ATOM     83  C   UNL     1      16.236   7.595  12.275  1.00  0.00     0.006 A 
ENDBRANCH  59  76
ENDBRANCH  33  34
ENDBRANCH  25  28
ENDBRANCH  23  24
ENDBRANCH  22  23
ENDBRANCH   1  22
TORSDOF 13
