REMARK SMILES O=C(NCCCNC(=O)[C@H]1Cc2ccc(Cl)cc2C[N@@H+]1Cc1ccc(Cl)cc1)c1ccc(-c2c3nc(c(-c4c(F)cccc4F)c4ccc([nH]4)c(-c4c(F)cccc4F)c4nc(c(-c5c(F)cccc5F)c5ccc2[nH]5)C=C4)C=C3)cc1
REMARK SMILES IDX 5 1 4 2 3 3 1 4 2 5 29 7 30 8 82 9 31 10 81 11 32 12 33 13
REMARK SMILES IDX 34 14 75 15 35 16 80 17 74 18 76 19 36 20 79 21 73 22 72 23
REMARK SMILES IDX 37 25 63 26 46 27 62 28 47 29 50 30 61 31 77 32 48 33 49 34
REMARK SMILES IDX 60 36 78 37 51 38 38 39 39 40 44 41 40 42 41 43 43 44 45 45
REMARK SMILES IDX 42 46 64 47 65 48 70 49 66 50 67 51 69 52 71 53 68 54 52 55
REMARK SMILES IDX 53 56 58 57 54 58 55 59 57 60 59 61 56 62 6 63 7 64 8 65
REMARK SMILES IDX 9 67 10 68 11 69 20 70 12 71 19 72 13 74 18 75 14 76 17 77
REMARK SMILES IDX 15 78 16 79 21 80 22 81 23 82 28 83 24 84 27 85 25 86 26 87
REMARK H PARENT 3 6 76 24 50 35 7 66 20 73
REMARK Flexibility Score: inf
ROOT
ATOM      1  C   UNL     1       4.505  -2.216  -0.880  1.00  0.00     0.042 C 
ENDROOT
BRANCH   1   2
ATOM      2  C   UNL     1       4.494  -0.719  -1.186  1.00  0.00     0.118 C 
BRANCH   2   3
ATOM      3  N   UNL     1       3.137  -0.191  -1.187  1.00  0.00    -0.352 N 
ATOM      4  O   UNL     1       1.194   0.440  -0.278  1.00  0.00    -0.269 OA
ATOM      5  C   UNL     1       2.420   0.436  -0.203  1.00  0.00     0.251 C 
ATOM      6  H   UNL     1       2.655  -0.303  -2.038  1.00  0.00     0.163 HD
BRANCH   5   7
ATOM      7  C   UNL     1       3.086   1.143   0.915  1.00  0.00     0.039 A 
ATOM      8  C   UNL     1       2.391   1.283   2.123  1.00  0.00     0.014 A 
ATOM      9  C   UNL     1       4.303   1.806   0.741  1.00  0.00     0.014 A 
ATOM     10  C   UNL     1       2.898   2.106   3.131  1.00  0.00     0.010 A 
ATOM     11  C   UNL     1       4.857   2.547   1.782  1.00  0.00     0.010 A 
ATOM     12  C   UNL     1       4.128   2.758   2.959  1.00  0.00    -0.014 A 
BRANCH  12  13
ATOM     13  C   UNL     1       4.589   3.786   3.925  1.00  0.00     0.031 A 
ATOM     14  C   UNL     1       4.686   5.225   3.481  1.00  0.00     0.074 A 
ATOM     15  C   UNL     1       4.926   3.441   5.181  1.00  0.00     0.049 A 
ATOM     16  N   UNL     1       5.123   6.271   4.136  1.00  0.00    -0.248 NA
ATOM     17  C   UNL     1       4.266   5.520   2.100  1.00  0.00     0.031 C 
ATOM     18  C   UNL     1       4.907   2.082   5.723  1.00  0.00     0.029 A 
ATOM     19  N   UNL     1       5.351   4.214   6.230  1.00  0.00    -0.354 N 
ATOM     20  C   UNL     1       5.050   7.333   3.242  1.00  0.00     0.074 A 
ATOM     21  C   UNL     1       4.595   6.796   1.980  1.00  0.00     0.031 C 
ATOM     22  C   UNL     1       5.277   2.121   7.014  1.00  0.00     0.029 A 
ATOM     23  C   UNL     1       5.581   3.501   7.380  1.00  0.00     0.049 A 
ATOM     24  H   UNL     1       5.480   5.188   6.165  1.00  0.00     0.167 HD
ATOM     25  C   UNL     1       5.301   8.647   3.457  1.00  0.00     0.037 A 
ATOM     26  C   UNL     1       5.985   3.921   8.593  1.00  0.00     0.037 A 
ATOM     27  C   UNL     1       5.711   9.191   4.723  1.00  0.00     0.049 A 
ATOM     28  C   UNL     1       6.226   5.388   8.817  1.00  0.00     0.074 A 
ATOM     29  C   UNL     1       5.977  10.507   5.058  1.00  0.00     0.029 A 
ATOM     30  N   UNL     1       5.894   8.439   5.873  1.00  0.00    -0.354 N 
ATOM     31  N   UNL     1       6.135   6.383   7.967  1.00  0.00    -0.248 NA
ATOM     32  C   UNL     1       6.613   5.791  10.176  1.00  0.00     0.031 C 
ATOM     33  C   UNL     1       6.334  10.548   6.411  1.00  0.00     0.029 A 
ATOM     34  C   UNL     1       6.260   9.263   6.923  1.00  0.00     0.049 A 
ATOM     35  H   UNL     1       5.779   7.463   5.935  1.00  0.00     0.167 HD
ATOM     36  C   UNL     1       6.431   7.530   8.692  1.00  0.00     0.074 A 
ATOM     37  C   UNL     1       6.681   7.109  10.056  1.00  0.00     0.031 C 
ATOM     38  C   UNL     1       6.497   8.817   8.271  1.00  0.00     0.037 A 
BRANCH  25  39
ATOM     39  C   UNL     1       5.113   9.576   2.292  1.00  0.00     0.057 A 
ATOM     40  C   UNL     1       6.211  10.168   1.657  1.00  0.00     0.134 A 
ATOM     41  C   UNL     1       3.839   9.871   1.787  1.00  0.00     0.134 A 
ATOM     42  F   UNL     1       7.459   9.932   2.090  1.00  0.00    -0.206 F 
ATOM     43  C   UNL     1       6.049  11.012   0.556  1.00  0.00     0.040 A 
ATOM     44  C   UNL     1       3.666  10.691   0.670  1.00  0.00     0.040 A 
ATOM     45  F   UNL     1       2.746   9.321   2.337  1.00  0.00    -0.206 F 
ATOM     46  C   UNL     1       4.775  11.267   0.053  1.00  0.00     0.006 A 
ENDBRANCH  25  39
BRANCH  26  47
ATOM     47  C   UNL     1       6.149   2.950   9.702  1.00  0.00     0.057 A 
ATOM     48  C   UNL     1       7.216   2.045   9.729  1.00  0.00     0.134 A 
ATOM     49  C   UNL     1       5.252   2.925  10.776  1.00  0.00     0.134 A 
ATOM     50  F   UNL     1       8.104   2.014   8.725  1.00  0.00    -0.206 F 
ATOM     51  C   UNL     1       7.388   1.153  10.789  1.00  0.00     0.040 A 
ATOM     52  C   UNL     1       5.424   2.054  11.853  1.00  0.00     0.040 A 
ATOM     53  F   UNL     1       4.220   3.781  10.813  1.00  0.00    -0.206 F 
ATOM     54  C   UNL     1       6.495   1.162  11.859  1.00  0.00     0.006 A 
ENDBRANCH  26  47
BRANCH  38  55
ATOM     55  C   UNL     1       6.824   9.849   9.309  1.00  0.00     0.057 A 
ATOM     56  C   UNL     1       5.835  10.719   9.783  1.00  0.00     0.134 A 
ATOM     57  C   UNL     1       8.114   9.978   9.838  1.00  0.00     0.134 A 
ATOM     58  F   UNL     1       4.582  10.650   9.310  1.00  0.00    -0.206 F 
ATOM     59  C   UNL     1       6.117  11.678  10.757  1.00  0.00     0.040 A 
ATOM     60  C   UNL     1       8.402  10.917  10.829  1.00  0.00     0.040 A 
ATOM     61  F   UNL     1       9.100   9.163   9.434  1.00  0.00    -0.206 F 
ATOM     62  C   UNL     1       7.402  11.772  11.289  1.00  0.00     0.006 A 
ENDBRANCH  38  55
ENDBRANCH  12  13
ENDBRANCH   5   7
ENDBRANCH   2   3
ENDBRANCH   1   2
BRANCH   1  63
ATOM     63  C   UNL     1       3.814  -3.036  -1.969  1.00  0.00     0.118 C 
BRANCH  63  64
ATOM     64  N   UNL     1       4.644  -3.132  -3.156  1.00  0.00    -0.351 N 
ATOM     65  C   UNL     1       5.686  -3.897  -3.560  1.00  0.00     0.278 C 
ATOM     66  H   UNL     1       4.384  -2.474  -3.841  1.00  0.00     0.163 HD
ATOM     67  O   UNL     1       6.306  -3.375  -4.498  1.00  0.00    -0.268 OA
BRANCH  65  68
ATOM     68  C   UNL     1       6.115  -5.302  -3.021  1.00  0.00     0.279 C 
ATOM     69  C   UNL     1       5.684  -5.526  -1.567  1.00  0.00     0.111 C 
ATOM     70  N   UNL     1       5.630  -6.409  -3.903  1.00  0.00    -0.317 N 
ATOM     71  C   UNL     1       5.884  -6.908  -1.022  1.00  0.00    -0.033 A 
ATOM     72  C   UNL     1       6.021  -7.741  -3.397  1.00  0.00     0.300 C 
ATOM     73  H   UNL     1       4.615  -6.313  -3.860  1.00  0.00     0.349 HD
ATOM     74  C   UNL     1       5.874  -7.136   0.361  1.00  0.00     0.006 A 
ATOM     75  C   UNL     1       5.882  -7.981  -1.915  1.00  0.00     0.011 A 
ATOM     76  C   UNL     1       5.872  -8.438   0.856  1.00  0.00     0.021 A 
ATOM     77  C   UNL     1       5.880  -9.290  -1.409  1.00  0.00     0.030 A 
ATOM     78  C   UNL     1       5.865  -9.511  -0.032  1.00  0.00     0.041 A 
ATOM     79  Cl  UNL     1       5.838 -11.120   0.576  1.00  0.00    -0.084 Cl
BRANCH  70  80
ATOM     80  C   UNL     1       5.989  -6.285  -5.346  1.00  0.00     0.299 C 
BRANCH  80  81
ATOM     81  C   UNL     1       7.468  -6.299  -5.728  1.00  0.00     0.006 A 
ATOM     82  C   UNL     1       8.210  -7.491  -5.767  1.00  0.00     0.011 A 
ATOM     83  C   UNL     1       8.133  -5.112  -6.073  1.00  0.00     0.011 A 
ATOM     84  C   UNL     1       9.589  -7.478  -6.006  1.00  0.00     0.021 A 
ATOM     85  C   UNL     1       9.508  -5.093  -6.324  1.00  0.00     0.021 A 
ATOM     86  C   UNL     1      10.236  -6.274  -6.264  1.00  0.00     0.041 A 
ATOM     87  Cl  UNL     1      11.936  -6.248  -6.518  1.00  0.00    -0.084 Cl
ENDBRANCH  80  81
ENDBRANCH  70  80
ENDBRANCH  65  68
ENDBRANCH  63  64
ENDBRANCH   1  63
TORSDOF 12
