REMARK SMILES Cc1cc2c(c(C)c1Cl)C=C(C(=O)NCCCNC(=O)c1ccc(-c3c4nc(c(-c5c(F)cccc5F)c5ccc([nH]5)c(-c5c(F)cccc5F)c5nc(c(-c6c(F)cccc6F)c6ccc3[nH]6)C=C5)C=C4)cc1)[C@H](C(F)(F)F)O2
REMARK SMILES IDX 16 1 15 2 14 3 12 4 13 5 11 7 1 8 2 9 3 10 8 11 4 12 6 13
REMARK SMILES IDX 9 14 5 15 80 16 7 17 10 18 75 19 76 20 77 21 78 22 79 23
REMARK SMILES IDX 17 24 18 25 19 26 20 28 21 29 22 30 74 31 23 32 73 33 24 34
REMARK SMILES IDX 25 35 26 36 67 37 27 38 72 39 66 40 68 41 28 42 71 43 65 44
REMARK SMILES IDX 64 45 29 47 55 48 38 49 54 50 39 51 42 52 53 53 69 54 40 55
REMARK SMILES IDX 41 56 52 58 70 59 43 60 30 61 31 62 36 63 32 64 33 65 35 66
REMARK SMILES IDX 37 67 34 68 56 69 57 70 62 71 58 72 59 73 61 74 63 75 60 76
REMARK SMILES IDX 44 77 45 78 50 79 46 80 47 81 49 82 51 83 48 84
REMARK H PARENT 14 6 18 27 68 46 42 57
REMARK Flexibility Score: inf
ROOT
ATOM      1  C   UNL     1       2.038  -9.590   1.125  1.00  0.00     0.042 C 
ENDROOT
BRANCH   1   2
ATOM      2  C   UNL     1       1.887  -9.033  -0.287  1.00  0.00     0.118 C 
BRANCH   2   3
ATOM      3  N   UNL     1       0.498  -8.727  -0.596  1.00  0.00    -0.352 N 
ATOM      4  C   UNL     1      -0.276  -7.624  -0.705  1.00  0.00     0.251 C 
ATOM      5  O   UNL     1      -1.440  -7.837  -1.060  1.00  0.00    -0.270 OA
ATOM      6  H   UNL     1      -0.018  -9.546  -0.774  1.00  0.00     0.163 HD
BRANCH   4   7
ATOM      7  C   UNL     1       0.165  -6.226  -0.432  1.00  0.00     0.067 C 
ATOM      8  C   UNL     1       0.946   0.221   0.032  1.00  0.00     0.046 C 
ATOM      9  C   UNL     1       0.470  -1.181  -0.236  1.00  0.00    -0.028 A 
ATOM     10  C   UNL     1       1.322  -2.243   0.083  1.00  0.00     0.052 A 
ATOM     11  C   UNL     1      -0.811  -1.466  -0.752  1.00  0.00     0.047 A 
ATOM     12  C   UNL     1       0.921  -3.559  -0.122  1.00  0.00     0.128 A 
ATOM     13  C   UNL     1      -1.223  -2.801  -0.990  1.00  0.00    -0.021 A 
ATOM     14  Cl  UNL     1      -1.879  -0.137  -1.089  1.00  0.00    -0.084 Cl
ATOM     15  C   UNL     1      -0.329  -3.854  -0.676  1.00  0.00     0.022 A 
ATOM     16  O   UNL     1       1.841  -4.511   0.215  1.00  0.00    -0.475 OA
ATOM     17  C   UNL     1      -2.585  -3.125  -1.561  1.00  0.00     0.047 C 
ATOM     18  C   UNL     1      -0.630  -5.265  -0.939  1.00  0.00     0.026 C 
ATOM     19  C   UNL     1       1.339  -5.857   0.424  1.00  0.00     0.314 C 
BRANCH  19  20
ATOM     20  C   UNL     1       1.115  -6.119   1.922  1.00  0.00     0.429 C 
ATOM     21  F   UNL     1       0.207  -7.096   2.149  1.00  0.00    -0.167 F 
ATOM     22  F   UNL     1       2.274  -6.527   2.502  1.00  0.00    -0.167 F 
ATOM     23  F   UNL     1       0.694  -5.024   2.592  1.00  0.00    -0.167 F 
ENDBRANCH  19  20
ENDBRANCH   4   7
ENDBRANCH   2   3
ENDBRANCH   1   2
BRANCH   1  24
ATOM     24  C   UNL     1       1.546 -11.030   1.241  1.00  0.00     0.118 C 
BRANCH  24  25
ATOM     25  N   UNL     1       2.462 -11.963   0.597  1.00  0.00    -0.352 N 
ATOM     26  C   UNL     1       3.382 -12.814   1.153  1.00  0.00     0.251 C 
ATOM     27  H   UNL     1       2.412 -11.986  -0.386  1.00  0.00     0.163 HD
ATOM     28  O   UNL     1       4.259 -13.309   0.445  1.00  0.00    -0.269 OA
BRANCH  26  29
ATOM     29  C   UNL     1       3.333 -13.136   2.594  1.00  0.00     0.039 A 
ATOM     30  C   UNL     1       4.527 -13.230   3.313  1.00  0.00     0.014 A 
ATOM     31  C   UNL     1       2.114 -13.394   3.227  1.00  0.00     0.014 A 
ATOM     32  C   UNL     1       4.493 -13.531   4.676  1.00  0.00     0.010 A 
ATOM     33  C   UNL     1       2.075 -13.606   4.602  1.00  0.00     0.010 A 
ATOM     34  C   UNL     1       3.264 -13.694   5.337  1.00  0.00    -0.014 A 
BRANCH  34  35
ATOM     35  C   UNL     1       3.208 -13.996   6.789  1.00  0.00     0.031 A 
ATOM     36  C   UNL     1       2.654 -15.311   7.264  1.00  0.00     0.074 A 
ATOM     37  C   UNL     1       3.628 -13.076   7.679  1.00  0.00     0.049 A 
ATOM     38  N   UNL     1       2.503 -15.750   8.488  1.00  0.00    -0.248 NA
ATOM     39  C   UNL     1       2.188 -16.249   6.229  1.00  0.00     0.031 C 
ATOM     40  C   UNL     1       4.152 -11.752   7.342  1.00  0.00     0.029 A 
ATOM     41  N   UNL     1       3.686 -13.119   9.049  1.00  0.00    -0.354 N 
ATOM     42  C   UNL     1       1.929 -17.009   8.368  1.00  0.00     0.074 A 
ATOM     43  C   UNL     1       1.691 -17.235   6.960  1.00  0.00     0.031 C 
ATOM     44  C   UNL     1       4.522 -11.127   8.471  1.00  0.00     0.029 A 
ATOM     45  C   UNL     1       4.228 -11.989   9.612  1.00  0.00     0.049 A 
ATOM     46  H   UNL     1       3.369 -13.886   9.579  1.00  0.00     0.167 HD
ATOM     47  C   UNL     1       1.659 -17.912   9.339  1.00  0.00     0.037 A 
ATOM     48  C   UNL     1       4.468 -11.687  10.902  1.00  0.00     0.037 A 
ATOM     49  C   UNL     1       1.912 -17.692  10.737  1.00  0.00     0.049 A 
ATOM     50  C   UNL     1       4.122 -12.690  11.967  1.00  0.00     0.074 A 
ATOM     51  C   UNL     1       1.700 -18.556  11.797  1.00  0.00     0.029 A 
ATOM     52  N   UNL     1       2.438 -16.524  11.269  1.00  0.00    -0.354 N 
ATOM     53  N   UNL     1       3.621 -13.895  11.835  1.00  0.00    -0.248 NA
ATOM     54  C   UNL     1       4.373 -12.293  13.360  1.00  0.00     0.031 C 
ATOM     55  C   UNL     1       2.061 -17.895  12.976  1.00  0.00     0.029 A 
ATOM     56  C   UNL     1       2.541 -16.638  12.645  1.00  0.00     0.049 A 
ATOM     57  H   UNL     1       2.699 -15.732  10.745  1.00  0.00     0.167 HD
ATOM     58  C   UNL     1       3.519 -14.408  13.122  1.00  0.00     0.074 A 
ATOM     59  C   UNL     1       4.023 -13.389  14.020  1.00  0.00     0.031 C 
ATOM     60  C   UNL     1       3.049 -15.614  13.523  1.00  0.00     0.037 A 
BRANCH  47  61
ATOM     61  C   UNL     1       1.080 -19.231   8.915  1.00  0.00     0.057 A 
ATOM     62  C   UNL     1       1.846 -20.175   8.218  1.00  0.00     0.134 A 
ATOM     63  C   UNL     1      -0.237 -19.579   9.238  1.00  0.00     0.134 A 
ATOM     64  F   UNL     1       3.111 -19.899   7.866  1.00  0.00    -0.206 F 
ATOM     65  C   UNL     1       1.315 -21.409   7.836  1.00  0.00     0.040 A 
ATOM     66  C   UNL     1      -0.770 -20.821   8.886  1.00  0.00     0.040 A 
ATOM     67  F   UNL     1      -1.024 -18.725   9.909  1.00  0.00    -0.206 F 
ATOM     68  C   UNL     1       0.005 -21.737   8.178  1.00  0.00     0.006 A 
ENDBRANCH  47  61
BRANCH  48  69
ATOM     69  C   UNL     1       5.117 -10.399  11.250  1.00  0.00     0.057 A 
ATOM     70  C   UNL     1       6.438 -10.366  11.713  1.00  0.00     0.134 A 
ATOM     71  C   UNL     1       4.452  -9.175  11.111  1.00  0.00     0.134 A 
ATOM     72  F   UNL     1       7.122 -11.508  11.882  1.00  0.00    -0.206 F 
ATOM     73  C   UNL     1       7.073  -9.165  12.031  1.00  0.00     0.040 A 
ATOM     74  C   UNL     1       5.082  -7.964  11.405  1.00  0.00     0.040 A 
ATOM     75  F   UNL     1       3.188  -9.138  10.667  1.00  0.00    -0.206 F 
ATOM     76  C   UNL     1       6.396  -7.958  11.870  1.00  0.00     0.006 A 
ENDBRANCH  48  69
BRANCH  60  77
ATOM     77  C   UNL     1       3.068 -15.913  14.992  1.00  0.00     0.057 A 
ATOM     78  C   UNL     1       2.158 -15.319  15.874  1.00  0.00     0.134 A 
ATOM     79  C   UNL     1       3.953 -16.865  15.516  1.00  0.00     0.134 A 
ATOM     80  F   UNL     1       1.293 -14.392  15.436  1.00  0.00    -0.206 F 
ATOM     81  C   UNL     1       2.133 -15.654  17.229  1.00  0.00     0.040 A 
ATOM     82  C   UNL     1       3.920 -17.227  16.863  1.00  0.00     0.040 A 
ATOM     83  F   UNL     1       4.843 -17.478  14.721  1.00  0.00    -0.206 F 
ATOM     84  C   UNL     1       3.009 -16.619  17.724  1.00  0.00     0.006 A 
ENDBRANCH  60  77
ENDBRANCH  34  35
ENDBRANCH  26  29
ENDBRANCH  24  25
ENDBRANCH   1  24
TORSDOF 11
