REMARK SMILES Cc1coc2c(C)c3oc(=O)c(CCC(=O)N[C@H](CC(C)C)C(=O)NCCCNC(=O)c4ccc(-c5c6nc(c(-c7c(F)cccc7F)c7ccc([nH]7)c(-c7c(F)cccc7F)c7nc(c(-c8c(F)cccc8F)c8ccc5[nH]8)C=C7)C=C6)cc4)c(C)c3cc12
REMARK SMILES IDX 26 1 25 2 23 3 24 4 18 6 17 7 15 8 16 9 14 11 13 12 12 13
REMARK SMILES IDX 1 14 2 15 3 16 90 17 4 18 5 19 89 20 6 21 88 22 7 23 8 24
REMARK SMILES IDX 86 25 9 26 87 27 10 28 11 29 19 30 20 31 21 32 22 33 27 34
REMARK SMILES IDX 28 35 29 36 30 37 31 39 32 40 33 41 85 42 34 43 84 44 35 45
REMARK SMILES IDX 36 46 37 47 78 48 38 49 83 50 77 51 79 52 39 53 82 54 76 55
REMARK SMILES IDX 75 56 40 58 66 59 49 60 65 61 50 62 53 63 64 64 80 65 51 66
REMARK SMILES IDX 52 67 63 69 81 70 54 71 41 72 42 73 47 74 43 75 44 76 46 77
REMARK SMILES IDX 48 78 45 79 67 80 68 81 73 82 69 83 70 84 72 85 74 86 71 87
REMARK SMILES IDX 55 88 56 89 61 90 57 91 58 92 60 93 62 94 59 95
REMARK H PARENT 25 5 17 10 29 38 79 57 53 68
REMARK Flexibility Score: inf
ROOT
ATOM      1  C   UNL     1       3.280   1.882   3.163  1.00  0.00     0.117 C 
ENDROOT
BRANCH   1   2
ATOM      2  N   UNL     1       3.486   3.320   2.819  1.00  0.00    -0.354 N 
ATOM      3  C   UNL     1       2.734   4.481   2.718  1.00  0.00     0.242 C 
ATOM      4  O   UNL     1       3.403   5.526   2.741  1.00  0.00    -0.273 OA
ATOM      5  H   UNL     1       4.430   3.495   2.601  1.00  0.00     0.163 HD
BRANCH   3   6
ATOM      6  C   UNL     1       1.152   4.625   2.607  1.00  0.00     0.171 C 
BRANCH   6   7
ATOM      7  N   UNL     1       0.519   3.313   2.683  1.00  0.00    -0.344 N 
ATOM      8  C   UNL     1       0.201   2.509   1.636  1.00  0.00     0.220 C 
ATOM      9  O   UNL     1      -0.981   2.131   1.649  1.00  0.00    -0.275 OA
ATOM     10  H   UNL     1       0.300   2.978   3.583  1.00  0.00     0.164 HD
BRANCH   8  11
ATOM     11  C   UNL     1       1.163   1.843   0.633  1.00  0.00     0.105 C 
BRANCH  11  12
ATOM     12  C   UNL     1       2.346   2.227  -0.345  1.00  0.00     0.053 C 
BRANCH  12  13
ATOM     13  C   UNL     1       3.292   3.443  -0.292  1.00  0.00     0.042 A 
ATOM     14  C   UNL     1       2.102  10.223   0.045  1.00  0.00     0.048 C 
ATOM     15  C   UNL     1       3.443   9.584   0.006  1.00  0.00    -0.005 A 
ATOM     16  C   UNL     1       4.654  10.238  -0.094  1.00  0.00     0.199 A 
ATOM     17  C   UNL     1       3.786   8.202  -0.061  1.00  0.00     0.024 A 
ATOM     18  O   UNL     1       5.694   9.362  -0.115  1.00  0.00    -0.464 OA
ATOM     19  C   UNL     1       5.161   8.108  -0.132  1.00  0.00     0.140 A 
ATOM     20  C   UNL     1       3.105   6.990  -0.027  1.00  0.00     0.024 A 
ATOM     21  C   UNL     1       5.843   6.881  -0.132  1.00  0.00     0.036 A 
ATOM     22  C   UNL     1       3.660   5.813  -0.493  1.00  0.00     0.022 A 
ATOM     23  C   UNL     1       7.281   6.811   0.241  1.00  0.00     0.052 C 
ATOM     24  C   UNL     1       5.029   5.750  -0.399  1.00  0.00     0.145 A 
ATOM     25  C   UNL     1       2.880   4.609  -0.812  1.00  0.00    -0.030 A 
ATOM     26  O   UNL     1       5.585   4.468  -0.441  1.00  0.00    -0.422 OA
ATOM     27  C   UNL     1       1.652   4.662  -1.689  1.00  0.00     0.046 C 
ATOM     28  C   UNL     1       4.787   3.407   0.014  1.00  0.00     0.339 A 
ATOM     29  O   UNL     1       5.362   2.464   0.541  1.00  0.00    -0.246 OA
ENDBRANCH  12  13
ENDBRANCH  11  12
ENDBRANCH   8  11
ENDBRANCH   6   7
BRANCH   6  30
ATOM     30  C   UNL     1       0.476   5.363   1.380  1.00  0.00     0.038 C 
BRANCH  30  31
ATOM     31  C   UNL     1      -0.111   6.802   1.133  1.00  0.00    -0.015 C 
ATOM     32  C   UNL     1       0.328   7.945   2.038  1.00  0.00     0.007 C 
ATOM     33  C   UNL     1      -0.068   7.191  -0.390  1.00  0.00     0.007 C 
ENDBRANCH  30  31
ENDBRANCH   6  30
ENDBRANCH   3   6
ENDBRANCH   1   2
BRANCH   1  34
ATOM     34  C   UNL     1       3.670   0.801   2.111  1.00  0.00     0.042 C 
BRANCH  34  35
ATOM     35  C   UNL     1       4.941  -0.025   2.161  1.00  0.00     0.118 C 
BRANCH  35  36
ATOM     36  N   UNL     1       4.697  -1.424   1.669  1.00  0.00    -0.352 N 
ATOM     37  C   UNL     1       5.582  -2.419   1.238  1.00  0.00     0.251 C 
ATOM     38  H   UNL     1       3.749  -1.687   1.646  1.00  0.00     0.163 HD
ATOM     39  O   UNL     1       5.191  -3.397   0.638  1.00  0.00    -0.269 OA
BRANCH  37  40
ATOM     40  C   UNL     1       7.016  -2.238   1.533  1.00  0.00     0.039 A 
ATOM     41  C   UNL     1       8.062  -2.668   0.718  1.00  0.00     0.014 A 
ATOM     42  C   UNL     1       7.282  -1.466   2.638  1.00  0.00     0.014 A 
ATOM     43  C   UNL     1       9.336  -2.188   1.017  1.00  0.00     0.010 A 
ATOM     44  C   UNL     1       8.339  -0.632   2.556  1.00  0.00     0.010 A 
ATOM     45  C   UNL     1       9.451  -1.125   1.934  1.00  0.00    -0.014 A 
BRANCH  45  46
ATOM     46  C   UNL     1      10.689  -0.436   2.249  1.00  0.00     0.031 A 
ATOM     47  C   UNL     1      11.486  -0.154   1.048  1.00  0.00     0.074 A 
ATOM     48  C   UNL     1      11.033   0.006   3.483  1.00  0.00     0.049 A 
ATOM     49  N   UNL     1      12.433  -0.898   0.595  1.00  0.00    -0.248 NA
ATOM     50  C   UNL     1      11.038   0.890   0.117  1.00  0.00     0.031 C 
ATOM     51  C   UNL     1      10.245   0.064   4.727  1.00  0.00     0.029 A 
ATOM     52  N   UNL     1      12.220   0.540   3.878  1.00  0.00    -0.354 N 
ATOM     53  C   UNL     1      12.886  -0.267  -0.549  1.00  0.00     0.074 A 
ATOM     54  C   UNL     1      11.862   0.678  -0.913  1.00  0.00     0.031 C 
ATOM     55  C   UNL     1      10.901   0.785   5.665  1.00  0.00     0.029 A 
ATOM     56  C   UNL     1      12.231   1.065   5.168  1.00  0.00     0.049 A 
ATOM     57  H   UNL     1      13.013   0.555   3.294  1.00  0.00     0.167 HD
ATOM     58  C   UNL     1      14.194  -0.390  -0.898  1.00  0.00     0.037 A 
ATOM     59  C   UNL     1      13.287   1.638   5.800  1.00  0.00     0.037 A 
ATOM     60  C   UNL     1      14.813  -1.476  -0.164  1.00  0.00     0.049 A 
ATOM     61  C   UNL     1      14.503   1.131   5.120  1.00  0.00     0.074 A 
ATOM     62  C   UNL     1      14.601  -2.838  -0.076  1.00  0.00     0.029 A 
ATOM     63  N   UNL     1      15.517  -1.127   0.964  1.00  0.00    -0.354 N 
ATOM     64  N   UNL     1      14.893  -0.112   5.169  1.00  0.00    -0.248 NA
ATOM     65  C   UNL     1      15.013   1.906   4.000  1.00  0.00     0.031 C 
ATOM     66  C   UNL     1      14.804  -3.160   1.300  1.00  0.00     0.029 A 
ATOM     67  C   UNL     1      15.211  -2.005   1.970  1.00  0.00     0.049 A 
ATOM     68  H   UNL     1      16.141  -0.369   1.036  1.00  0.00     0.167 HD
ATOM     69  C   UNL     1      15.321  -0.397   3.880  1.00  0.00     0.074 A 
ATOM     70  C   UNL     1      15.457   0.908   3.232  1.00  0.00     0.031 C 
ATOM     71  C   UNL     1      15.238  -1.664   3.379  1.00  0.00     0.037 A 
BRANCH  58  72
ATOM     72  C   UNL     1      15.006   0.717  -1.519  1.00  0.00     0.057 A 
ATOM     73  C   UNL     1      16.334   0.447  -1.892  1.00  0.00     0.134 A 
ATOM     74  C   UNL     1      14.658   2.083  -1.492  1.00  0.00     0.134 A 
ATOM     75  F   UNL     1      16.793  -0.813  -1.942  1.00  0.00    -0.206 F 
ATOM     76  C   UNL     1      17.265   1.462  -2.137  1.00  0.00     0.040 A 
ATOM     77  C   UNL     1      15.567   3.102  -1.783  1.00  0.00     0.040 A 
ATOM     78  F   UNL     1      13.462   2.521  -1.085  1.00  0.00    -0.206 F 
ATOM     79  C   UNL     1      16.884   2.796  -2.075  1.00  0.00     0.006 A 
ENDBRANCH  58  72
BRANCH  59  80
ATOM     80  C   UNL     1      13.317   2.849   6.657  1.00  0.00     0.057 A 
ATOM     81  C   UNL     1      14.496   3.218   7.326  1.00  0.00     0.134 A 
ATOM     82  C   UNL     1      12.320   3.836   6.580  1.00  0.00     0.134 A 
ATOM     83  F   UNL     1      15.517   2.354   7.433  1.00  0.00    -0.206 F 
ATOM     84  C   UNL     1      14.698   4.510   7.830  1.00  0.00     0.040 A 
ATOM     85  C   UNL     1      12.508   5.129   7.083  1.00  0.00     0.040 A 
ATOM     86  F   UNL     1      11.169   3.608   5.931  1.00  0.00    -0.206 F 
ATOM     87  C   UNL     1      13.709   5.478   7.691  1.00  0.00     0.006 A 
ENDBRANCH  59  80
BRANCH  71  88
ATOM     88  C   UNL     1      14.957  -2.789   4.343  1.00  0.00     0.057 A 
ATOM     89  C   UNL     1      13.750  -2.967   5.037  1.00  0.00     0.134 A 
ATOM     90  C   UNL     1      15.890  -3.829   4.428  1.00  0.00     0.134 A 
ATOM     91  F   UNL     1      12.767  -2.061   4.966  1.00  0.00    -0.206 F 
ATOM     92  C   UNL     1      13.491  -4.123   5.784  1.00  0.00     0.040 A 
ATOM     93  C   UNL     1      15.632  -5.000   5.144  1.00  0.00     0.040 A 
ATOM     94  F   UNL     1      17.053  -3.747   3.761  1.00  0.00    -0.206 F 
ATOM     95  C   UNL     1      14.429  -5.151   5.827  1.00  0.00     0.006 A 
ENDBRANCH  71  88
ENDBRANCH  45  46
ENDBRANCH  37  40
ENDBRANCH  35  36
ENDBRANCH  34  35
ENDBRANCH   1  34
TORSDOF 16
