REMARK SMILES COc1ccc(OC)c(-c2cc(-c3ccccc3)nc(S[C@H](C)C(=O)NCCCNC(=O)c3ccc(-c4c5nc(c(-c6c(F)cccc6F)c6ccc([nH]6)c(-c6c(F)cccc6F)c6nc(c(-c7c(F)cccc7F)c7ccc4[nH]7)C=C6)C=C5)cc3)c2C#N)c1
REMARK SMILES IDX 27 1 26 2 24 3 25 4 22 6 23 7 21 8 20 9 10 10 11 11 87 12
REMARK SMILES IDX 12 13 19 14 9 15 3 16 4 17 90 18 5 19 6 20 2 21 1 22 7 23
REMARK SMILES IDX 8 24 88 25 89 26 13 27 14 28 18 29 15 30 17 31 16 32 28 33
REMARK SMILES IDX 29 34 30 35 31 36 32 38 33 39 34 40 86 41 35 42 85 43 36 44
REMARK SMILES IDX 37 45 38 46 79 47 39 48 84 49 78 50 80 51 40 52 83 53 77 54
REMARK SMILES IDX 76 55 41 57 67 58 50 59 66 60 51 61 54 62 65 63 81 64 52 65
REMARK SMILES IDX 53 66 64 68 82 69 55 70 42 71 43 72 48 73 44 74 45 75 47 76
REMARK SMILES IDX 49 77 46 78 68 79 69 80 74 81 70 82 71 83 73 84 75 85 72 86
REMARK SMILES IDX 56 87 57 88 62 89 58 90 59 91 61 92 63 93 60 94
REMARK H PARENT 26 5 30 37 80 56 54 67
REMARK Flexibility Score: inf
ROOT
ATOM      1  C   UNL     1       3.977  -1.666  -4.089  1.00  0.00     0.117 C 
ENDROOT
BRANCH   1   2
ATOM      2  N   UNL     1       4.582  -2.887  -4.564  1.00  0.00    -0.355 N 
ATOM      3  C   UNL     1       5.763  -3.487  -4.258  1.00  0.00     0.233 C 
ATOM      4  O   UNL     1       5.954  -4.589  -4.790  1.00  0.00    -0.274 OA
ATOM      5  H   UNL     1       4.043  -3.373  -5.229  1.00  0.00     0.163 HD
BRANCH   3   6
ATOM      6  C   UNL     1       6.868  -2.856  -3.402  1.00  0.00     0.139 C 
ATOM      7  C   UNL     1       7.682  -1.822  -4.155  1.00  0.00     0.030 C 
BRANCH   6   8
ATOM      8  S   UNL     1       6.380  -2.560  -1.655  1.00  0.00    -0.092 SA
BRANCH   8   9
ATOM      9  C   UNL     1       6.066  -0.799  -1.443  1.00  0.00     0.116 A 
ATOM     10  C   UNL     1       5.145   1.038  -0.158  1.00  0.00     0.008 A 
ATOM     11  C   UNL     1       5.774   1.906  -1.059  1.00  0.00     0.039 A 
ATOM     12  C   UNL     1       5.318  -0.350  -0.344  1.00  0.00     0.092 A 
ATOM     13  C   UNL     1       6.445   1.393  -2.161  1.00  0.00     0.072 A 
ATOM     14  N   UNL     1       6.583   0.058  -2.357  1.00  0.00    -0.240 NA
BRANCH  10  15
ATOM     15  C   UNL     1       4.390   1.600   0.982  1.00  0.00     0.029 A 
ATOM     16  C   UNL     1       4.382   1.911   3.430  1.00  0.00     0.119 A 
ATOM     17  C   UNL     1       3.118   2.474   3.348  1.00  0.00     0.050 A 
ATOM     18  C   UNL     1       5.009   1.487   2.258  1.00  0.00     0.059 A 
ATOM     19  C   UNL     1       2.501   2.624   2.108  1.00  0.00     0.051 A 
ATOM     20  C   UNL     1       3.112   2.193   0.917  1.00  0.00     0.127 A 
BRANCH  16  21
ATOM     21  O   UNL     1       4.875   1.773   4.696  1.00  0.00    -0.497 OA
ATOM     22  C   UNL     1       6.289   1.694   4.821  1.00  0.00     0.278 C 
ENDBRANCH  16  21
BRANCH  20  23
ATOM     23  O   UNL     1       2.270   2.396  -0.139  1.00  0.00    -0.496 OA
ATOM     24  C   UNL     1       2.681   2.258  -1.483  1.00  0.00     0.278 C 
ENDBRANCH  20  23
ENDBRANCH  10  15
BRANCH  12  25
ATOM     25  C   UNL     1       4.730  -1.284   0.577  1.00  0.00     0.103 C 
ATOM     26  N   UNL     1       4.259  -2.029   1.331  1.00  0.00    -0.192 NA
ENDBRANCH  12  25
BRANCH  13  27
ATOM     27  C   UNL     1       6.984   2.288  -3.198  1.00  0.00     0.000 A 
ATOM     28  C   UNL     1       6.521   2.225  -4.522  1.00  0.00     0.010 A 
ATOM     29  C   UNL     1       7.924   3.283  -2.890  1.00  0.00     0.010 A 
ATOM     30  C   UNL     1       6.955   3.126  -5.499  1.00  0.00     0.001 A 
ATOM     31  C   UNL     1       8.371   4.182  -3.865  1.00  0.00     0.001 A 
ATOM     32  C   UNL     1       7.882   4.106  -5.168  1.00  0.00     0.000 A 
ENDBRANCH  13  27
ENDBRANCH   8   9
ENDBRANCH   6   8
ENDBRANCH   3   6
ENDBRANCH   1   2
BRANCH   1  33
ATOM     33  C   UNL     1       4.064  -0.537  -5.097  1.00  0.00     0.042 C 
BRANCH  33  34
ATOM     34  C   UNL     1       3.036  -0.643  -6.209  1.00  0.00     0.118 C 
BRANCH  34  35
ATOM     35  N   UNL     1       1.694  -0.340  -5.724  1.00  0.00    -0.352 N 
ATOM     36  C   UNL     1       0.897   0.754  -5.963  1.00  0.00     0.251 C 
ATOM     37  H   UNL     1       1.299  -1.023  -5.136  1.00  0.00     0.163 HD
ATOM     38  O   UNL     1      -0.072   0.972  -5.243  1.00  0.00    -0.269 OA
BRANCH  36  39
ATOM     39  C   UNL     1       1.216   1.677  -7.074  1.00  0.00     0.039 A 
ATOM     40  C   UNL     1       1.032   3.053  -6.901  1.00  0.00     0.014 A 
ATOM     41  C   UNL     1       1.679   1.184  -8.294  1.00  0.00     0.014 A 
ATOM     42  C   UNL     1       1.390   3.935  -7.925  1.00  0.00     0.010 A 
ATOM     43  C   UNL     1       2.128   2.063  -9.270  1.00  0.00     0.010 A 
ATOM     44  C   UNL     1       1.980   3.448  -9.101  1.00  0.00    -0.014 A 
BRANCH  44  45
ATOM     45  C   UNL     1       2.436   4.341 -10.196  1.00  0.00     0.031 A 
ATOM     46  C   UNL     1       1.837   4.188 -11.569  1.00  0.00     0.074 A 
ATOM     47  C   UNL     1       3.458   5.195  -9.993  1.00  0.00     0.049 A 
ATOM     48  N   UNL     1       2.225   4.706 -12.705  1.00  0.00    -0.248 NA
ATOM     49  C   UNL     1       0.667   3.300 -11.682  1.00  0.00     0.031 C 
ATOM     50  C   UNL     1       4.138   5.418  -8.716  1.00  0.00     0.029 A 
ATOM     51  N   UNL     1       4.126   6.013 -10.871  1.00  0.00    -0.354 N 
ATOM     52  C   UNL     1       1.370   4.183 -13.668  1.00  0.00     0.074 A 
ATOM     53  C   UNL     1       0.473   3.273 -12.992  1.00  0.00     0.031 C 
ATOM     54  C   UNL     1       5.124   6.313  -8.893  1.00  0.00     0.029 A 
ATOM     55  C   UNL     1       5.184   6.683 -10.304  1.00  0.00     0.049 A 
ATOM     56  H   UNL     1       3.872   6.109 -11.817  1.00  0.00     0.167 HD
ATOM     57  C   UNL     1       1.329   4.450 -14.994  1.00  0.00     0.037 A 
ATOM     58  C   UNL     1       6.115   7.480 -10.864  1.00  0.00     0.037 A 
ATOM     59  C   UNL     1       2.203   5.382 -15.653  1.00  0.00     0.049 A 
ATOM     60  C   UNL     1       6.061   7.743 -12.347  1.00  0.00     0.074 A 
ATOM     61  C   UNL     1       2.200   5.772 -16.980  1.00  0.00     0.029 A 
ATOM     62  N   UNL     1       3.237   6.068 -15.034  1.00  0.00    -0.354 N 
ATOM     63  N   UNL     1       5.214   7.286 -13.237  1.00  0.00    -0.248 NA
ATOM     64  C   UNL     1       7.092   8.630 -12.905  1.00  0.00     0.031 C 
ATOM     65  C   UNL     1       3.270   6.647 -17.178  1.00  0.00     0.029 A 
ATOM     66  C   UNL     1       3.896   6.857 -15.960  1.00  0.00     0.049 A 
ATOM     67  H   UNL     1       3.468   6.003 -14.079  1.00  0.00     0.167 HD
ATOM     68  C   UNL     1       5.582   7.863 -14.446  1.00  0.00     0.074 A 
ATOM     69  C   UNL     1       6.728   8.704 -14.178  1.00  0.00     0.031 C 
ATOM     70  C   UNL     1       5.017   7.714 -15.668  1.00  0.00     0.037 A 
BRANCH  57  71
ATOM     71  C   UNL     1       0.311   3.725 -15.826  1.00  0.00     0.057 A 
ATOM     72  C   UNL     1      -1.061   3.983 -15.714  1.00  0.00     0.134 A 
ATOM     73  C   UNL     1       0.716   2.797 -16.794  1.00  0.00     0.134 A 
ATOM     74  F   UNL     1      -1.517   4.853 -14.800  1.00  0.00    -0.206 F 
ATOM     75  C   UNL     1      -1.995   3.330 -16.520  1.00  0.00     0.040 A 
ATOM     76  C   UNL     1      -0.205   2.160 -17.627  1.00  0.00     0.040 A 
ATOM     77  F   UNL     1       2.016   2.507 -16.960  1.00  0.00    -0.206 F 
ATOM     78  C   UNL     1      -1.566   2.423 -17.487  1.00  0.00     0.006 A 
ENDBRANCH  57  71
BRANCH  58  79
ATOM     79  C   UNL     1       7.188   8.082 -10.028  1.00  0.00     0.057 A 
ATOM     80  C   UNL     1       7.252   9.465  -9.822  1.00  0.00     0.134 A 
ATOM     81  C   UNL     1       8.189   7.298  -9.441  1.00  0.00     0.134 A 
ATOM     82  F   UNL     1       6.332  10.273 -10.369  1.00  0.00    -0.206 F 
ATOM     83  C   UNL     1       8.288  10.050  -9.091  1.00  0.00     0.040 A 
ATOM     84  C   UNL     1       9.214   7.867  -8.683  1.00  0.00     0.040 A 
ATOM     85  F   UNL     1       8.180   5.965  -9.586  1.00  0.00    -0.206 F 
ATOM     86  C   UNL     1       9.273   9.249  -8.517  1.00  0.00     0.006 A 
ENDBRANCH  58  79
BRANCH  70  87
ATOM     87  C   UNL     1       5.574   8.521 -16.804  1.00  0.00     0.057 A 
ATOM     88  C   UNL     1       6.804   8.220 -17.399  1.00  0.00     0.134 A 
ATOM     89  C   UNL     1       4.816   9.556 -17.370  1.00  0.00     0.134 A 
ATOM     90  F   UNL     1       7.583   7.249 -16.899  1.00  0.00    -0.206 F 
ATOM     91  C   UNL     1       7.264   8.925 -18.514  1.00  0.00     0.040 A 
ATOM     92  C   UNL     1       5.252  10.247 -18.500  1.00  0.00     0.040 A 
ATOM     93  F   UNL     1       3.623   9.887 -16.853  1.00  0.00    -0.206 F 
ATOM     94  C   UNL     1       6.481   9.932 -19.075  1.00  0.00     0.006 A 
ENDBRANCH  70  87
ENDBRANCH  44  45
ENDBRANCH  36  39
ENDBRANCH  34  35
ENDBRANCH  33  34
ENDBRANCH   1  33
TORSDOF 17
