REMARK SMILES CCc1c(C(=O)NCC(=O)NCCCNC(=O)c2ccc(-c3c4nc(c(-c5c(F)cccc5F)c5ccc([nH]5)c(-c5c(F)cccc5F)c5nc(c(-c6c(F)cccc6F)c6ccc3[nH]6)C=C5)C=C4)cc2)nnn1-c1ccc(C)cc1
REMARK SMILES IDX 12 1 11 2 9 3 10 4 8 6 7 7 5 8 6 9 4 11 3 12 74 13 72 14
REMARK SMILES IDX 73 15 2 16 1 17 75 18 76 19 81 20 77 21 80 22 78 23 79 24
REMARK SMILES IDX 13 25 14 26 15 27 16 28 17 30 18 31 19 32 71 33 20 34 70 35
REMARK SMILES IDX 21 36 22 37 23 38 64 39 24 40 69 41 63 42 65 43 25 44 68 45
REMARK SMILES IDX 62 46 61 47 26 49 52 50 35 51 51 52 36 53 39 54 50 55 66 56
REMARK SMILES IDX 37 57 38 58 49 60 67 61 40 62 27 63 28 64 33 65 29 66 30 67
REMARK SMILES IDX 32 68 34 69 31 70 53 71 54 72 59 73 55 74 56 75 58 76 60 77
REMARK SMILES IDX 57 78 41 79 42 80 47 81 43 82 44 83 46 84 48 85 45 86
REMARK H PARENT 11 5 7 10 15 29 65 48 39 59
REMARK Flexibility Score: inf
ROOT
ATOM      1  C   UNL     1       4.032   1.812  -1.645  1.00  0.00     0.117 C 
ENDROOT
BRANCH   1   2
ATOM      2  N   UNL     1       3.622   2.923  -0.809  1.00  0.00    -0.355 N 
ATOM      3  C   UNL     1       2.525   3.722  -0.836  1.00  0.00     0.239 C 
ATOM      4  O   UNL     1       2.329   4.415   0.170  1.00  0.00    -0.273 OA
ATOM      5  H   UNL     1       4.257   3.137  -0.088  1.00  0.00     0.163 HD
BRANCH   3   6
ATOM      6  C   UNL     1       1.489   3.756  -1.973  1.00  0.00     0.216 C 
BRANCH   6   7
ATOM      7  N   UNL     1       1.803   3.316  -3.308  1.00  0.00    -0.342 N 
ATOM      8  C   UNL     1       1.634   2.189  -4.058  1.00  0.00     0.274 C 
ATOM      9  O   UNL     1       1.881   2.382  -5.255  1.00  0.00    -0.267 OA
ATOM     10  H   UNL     1       2.265   4.019  -3.818  1.00  0.00     0.164 HD
BRANCH   8  11
ATOM     11  C   UNL     1       1.320   0.830  -3.590  1.00  0.00     0.174 A 
ATOM     12  C   UNL     1       0.781   0.196  -2.462  1.00  0.00     0.077 A 
ATOM     13  N   UNL     1       0.799  -1.159  -2.818  1.00  0.00    -0.217 N 
ATOM     14  N   UNL     1       1.777  -0.166  -4.442  1.00  0.00    -0.124 NA
ATOM     15  N   UNL     1       1.575  -1.344  -3.896  1.00  0.00    -0.061 NA
BRANCH  12  16
ATOM     16  C   UNL     1       0.338   0.616  -1.095  1.00  0.00     0.055 C 
ATOM     17  C   UNL     1       1.149  -0.011   0.040  1.00  0.00     0.011 C 
ENDBRANCH  12  16
BRANCH  13  18
ATOM     18  C   UNL     1       0.224  -2.272  -2.165  1.00  0.00     0.067 A 
ATOM     19  C   UNL     1       0.966  -3.453  -2.050  1.00  0.00     0.029 A 
ATOM     20  C   UNL     1      -1.057  -2.188  -1.612  1.00  0.00     0.029 A 
ATOM     21  C   UNL     1       0.459  -4.512  -1.296  1.00  0.00     0.005 A 
ATOM     22  C   UNL     1      -1.566  -3.258  -0.879  1.00  0.00     0.005 A 
ATOM     23  C   UNL     1      -0.802  -4.416  -0.693  1.00  0.00    -0.051 A 
ATOM     24  C   UNL     1      -1.323  -5.550   0.138  1.00  0.00     0.044 C 
ENDBRANCH  13  18
ENDBRANCH   8  11
ENDBRANCH   6   7
ENDBRANCH   3   6
ENDBRANCH   1   2
BRANCH   1  25
ATOM     25  C   UNL     1       4.980   2.184  -2.781  1.00  0.00     0.042 C 
BRANCH  25  26
ATOM     26  C   UNL     1       6.412   2.364  -2.299  1.00  0.00     0.118 C 
BRANCH  26  27
ATOM     27  N   UNL     1       7.019   1.108  -1.852  1.00  0.00    -0.352 N 
ATOM     28  C   UNL     1       8.226   0.921  -1.202  1.00  0.00     0.251 C 
ATOM     29  H   UNL     1       6.501   0.292  -2.037  1.00  0.00     0.163 HD
ATOM     30  O   UNL     1       8.772  -0.166  -1.180  1.00  0.00    -0.269 OA
BRANCH  28  31
ATOM     31  C   UNL     1       8.847   2.081  -0.539  1.00  0.00     0.039 A 
ATOM     32  C   UNL     1      10.203   2.362  -0.719  1.00  0.00     0.014 A 
ATOM     33  C   UNL     1       8.032   2.922   0.212  1.00  0.00     0.014 A 
ATOM     34  C   UNL     1      10.710   3.559  -0.223  1.00  0.00     0.010 A 
ATOM     35  C   UNL     1       8.499   4.160   0.581  1.00  0.00     0.010 A 
ATOM     36  C   UNL     1       9.844   4.474   0.398  1.00  0.00    -0.014 A 
BRANCH  36  37
ATOM     37  C   UNL     1      10.306   5.825   0.714  1.00  0.00     0.031 A 
ATOM     38  C   UNL     1      10.912   6.557  -0.436  1.00  0.00     0.074 A 
ATOM     39  C   UNL     1      10.003   6.462   1.867  1.00  0.00     0.049 A 
ATOM     40  N   UNL     1      12.133   6.957  -0.565  1.00  0.00    -0.248 NA
ATOM     41  C   UNL     1      10.093   6.758  -1.645  1.00  0.00     0.031 C 
ATOM     42  C   UNL     1       9.136   5.989   2.953  1.00  0.00     0.029 A 
ATOM     43  N   UNL     1      10.310   7.729   2.262  1.00  0.00    -0.354 N 
ATOM     44  C   UNL     1      12.184   7.654  -1.771  1.00  0.00     0.074 A 
ATOM     45  C   UNL     1      10.967   7.338  -2.470  1.00  0.00     0.031 C 
ATOM     46  C   UNL     1       8.791   7.029   3.743  1.00  0.00     0.029 A 
ATOM     47  C   UNL     1       9.550   8.194   3.331  1.00  0.00     0.049 A 
ATOM     48  H   UNL     1      11.009   8.270   1.829  1.00  0.00     0.167 HD
ATOM     49  C   UNL     1      13.097   8.646  -1.966  1.00  0.00     0.037 A 
ATOM     50  C   UNL     1       9.525   9.452   3.833  1.00  0.00     0.037 A 
ATOM     51  C   UNL     1      14.157   8.570  -0.991  1.00  0.00     0.049 A 
ATOM     52  C   UNL     1      10.759  10.132   3.381  1.00  0.00     0.074 A 
ATOM     53  C   UNL     1      15.103   7.632  -0.630  1.00  0.00     0.029 A 
ATOM     54  N   UNL     1      14.107   9.470   0.043  1.00  0.00    -0.354 N 
ATOM     55  N   UNL     1      11.957   9.820   3.789  1.00  0.00    -0.248 NA
ATOM     56  C   UNL     1      10.701  10.911   2.156  1.00  0.00     0.031 C 
ATOM     57  C   UNL     1      15.235   7.763   0.786  1.00  0.00     0.029 A 
ATOM     58  C   UNL     1      14.414   8.812   1.202  1.00  0.00     0.049 A 
ATOM     59  H   UNL     1      13.887  10.426  -0.036  1.00  0.00     0.167 HD
ATOM     60  C   UNL     1      12.752   9.953   2.663  1.00  0.00     0.074 A 
ATOM     61  C   UNL     1      11.959  10.755   1.735  1.00  0.00     0.031 C 
ATOM     62  C   UNL     1      13.846   9.154   2.486  1.00  0.00     0.037 A 
BRANCH  49  63
ATOM     63  C   UNL     1      12.818   9.933  -2.720  1.00  0.00     0.057 A 
ATOM     64  C   UNL     1      13.867  10.858  -2.894  1.00  0.00     0.134 A 
ATOM     65  C   UNL     1      11.530  10.444  -2.979  1.00  0.00     0.134 A 
ATOM     66  F   UNL     1      15.142  10.502  -2.677  1.00  0.00    -0.206 F 
ATOM     67  C   UNL     1      13.641  12.208  -3.193  1.00  0.00     0.040 A 
ATOM     68  C   UNL     1      11.298  11.778  -3.330  1.00  0.00     0.040 A 
ATOM     69  F   UNL     1      10.417   9.722  -2.810  1.00  0.00    -0.206 F 
ATOM     70  C   UNL     1      12.350  12.675  -3.400  1.00  0.00     0.006 A 
ENDBRANCH  49  63
BRANCH  50  71
ATOM     71  C   UNL     1       8.409  10.192   4.463  1.00  0.00     0.057 A 
ATOM     72  C   UNL     1       8.642  11.362   5.200  1.00  0.00     0.134 A 
ATOM     73  C   UNL     1       7.071   9.935   4.120  1.00  0.00     0.134 A 
ATOM     74  F   UNL     1       9.889  11.712   5.547  1.00  0.00    -0.206 F 
ATOM     75  C   UNL     1       7.611  12.247   5.542  1.00  0.00     0.040 A 
ATOM     76  C   UNL     1       6.030  10.806   4.461  1.00  0.00     0.040 A 
ATOM     77  F   UNL     1       6.740   8.880   3.361  1.00  0.00    -0.206 F 
ATOM     78  C   UNL     1       6.301  11.976   5.159  1.00  0.00     0.006 A 
ENDBRANCH  50  71
BRANCH  62  79
ATOM     79  C   UNL     1      14.361   8.401   3.682  1.00  0.00     0.057 A 
ATOM     80  C   UNL     1      13.642   7.421   4.383  1.00  0.00     0.134 A 
ATOM     81  C   UNL     1      15.692   8.603   4.067  1.00  0.00     0.134 A 
ATOM     82  F   UNL     1      12.395   7.085   4.030  1.00  0.00    -0.206 F 
ATOM     83  C   UNL     1      14.207   6.714   5.449  1.00  0.00     0.040 A 
ATOM     84  C   UNL     1      16.279   7.877   5.105  1.00  0.00     0.040 A 
ATOM     85  F   UNL     1      16.459   9.486   3.409  1.00  0.00    -0.206 F 
ATOM     86  C   UNL     1      15.532   6.938   5.809  1.00  0.00     0.006 A 
ENDBRANCH  62  79
ENDBRANCH  36  37
ENDBRANCH  28  31
ENDBRANCH  26  27
ENDBRANCH  25  26
ENDBRANCH   1  25
TORSDOF 14
