REMARK SMILES Cc1c(CC(=O)NCCCNC(=O)c2ccc(-c3c4nc(c(-c5c(F)cccc5F)c5ccc([nH]5)c(-c5c(F)cccc5F)c5nc(c(-c6c(F)cccc6F)c6ccc3[nH]6)C=C5)C=C4)cc2)c2cc(O)ccc2n1C(=O)c1ccc(Cl)cc1
REMARK SMILES IDX 8 1 7 2 5 3 6 4 4 6 3 7 1 8 2 9 75 10 68 11 74 12 69 13
REMARK SMILES IDX 73 14 70 15 72 16 76 17 77 18 78 19 79 20 84 21 80 22 83 23
REMARK SMILES IDX 81 24 82 25 71 26 9 28 10 29 11 30 12 31 13 33 14 34 15 35
REMARK SMILES IDX 67 36 16 37 66 38 17 39 18 40 19 41 60 42 20 43 65 44 59 45
REMARK SMILES IDX 61 46 21 47 64 48 58 49 57 50 22 52 48 53 31 54 47 55 32 56
REMARK SMILES IDX 35 57 46 58 62 59 33 60 34 61 45 63 63 64 36 65 23 66 24 67
REMARK SMILES IDX 29 68 25 69 26 70 28 71 30 72 27 73 49 74 50 75 55 76 51 77
REMARK SMILES IDX 52 78 54 79 56 80 53 81 37 82 38 83 43 84 39 85 40 86 42 87
REMARK SMILES IDX 44 88 41 89
REMARK H PARENT 7 5 71 27 11 32 61 51 35 62
REMARK Flexibility Score: inf
ROOT
ATOM      1  C   UNL     1      -1.821  -2.250   0.207  1.00  0.00     0.117 C 
ENDROOT
BRANCH   1   2
ATOM      2  N   UNL     1      -1.505  -3.440  -0.559  1.00  0.00    -0.356 N 
ATOM      3  C   UNL     1      -0.410  -3.723  -1.319  1.00  0.00     0.224 C 
ATOM      4  O   UNL     1      -0.385  -4.803  -1.913  1.00  0.00    -0.275 OA
ATOM      5  H   UNL     1      -2.184  -4.152  -0.524  1.00  0.00     0.163 HD
BRANCH   3   6
ATOM      6  C   UNL     1       0.765  -2.763  -1.370  1.00  0.00     0.138 C 
BRANCH   6   7
ATOM      7  C   UNL     1       0.456  -1.457  -2.044  1.00  0.00    -0.009 A 
ATOM      8  C   UNL     1       1.166   0.213  -0.183  1.00  0.00     0.065 C 
ATOM      9  C   UNL     1       0.626  -0.179  -1.526  1.00  0.00     0.028 A 
ATOM     10  N   UNL     1       0.194   0.759  -2.475  1.00  0.00    -0.280 N 
ATOM     11  C   UNL     1      -0.013  -1.311  -3.381  1.00  0.00     0.008 A 
ATOM     12  C   UNL     1      -0.102   0.058  -3.658  1.00  0.00     0.057 A 
ATOM     13  C   UNL     1      -0.337  -2.245  -4.392  1.00  0.00     0.056 A 
ATOM     14  C   UNL     1      -0.435   0.486  -4.963  1.00  0.00     0.031 A 
ATOM     15  C   UNL     1      -0.735  -1.800  -5.648  1.00  0.00     0.116 A 
ATOM     16  C   UNL     1      -0.775  -0.452  -5.941  1.00  0.00     0.048 A 
BRANCH  10  17
ATOM     17  C   UNL     1       0.092   2.168  -2.268  1.00  0.00     0.262 C 
ATOM     18  O   UNL     1       0.494   2.648  -1.206  1.00  0.00    -0.268 OA
BRANCH  17  19
ATOM     19  C   UNL     1      -0.432   3.129  -3.249  1.00  0.00     0.040 A 
ATOM     20  C   UNL     1      -1.772   3.094  -3.654  1.00  0.00     0.015 A 
ATOM     21  C   UNL     1       0.471   4.027  -3.829  1.00  0.00     0.015 A 
ATOM     22  C   UNL     1      -2.180   3.895  -4.723  1.00  0.00     0.021 A 
ATOM     23  C   UNL     1       0.055   4.829  -4.890  1.00  0.00     0.021 A 
ATOM     24  C   UNL     1      -1.260   4.740  -5.350  1.00  0.00     0.041 A 
ATOM     25  Cl  UNL     1      -1.740   5.650  -6.729  1.00  0.00    -0.084 Cl
ENDBRANCH  17  19
ENDBRANCH  10  17
BRANCH  15  26
ATOM     26  O   UNL     1      -1.062  -2.738  -6.582  1.00  0.00    -0.508 OA
ATOM     27  H   UNL     1      -1.028  -3.649  -6.363  1.00  0.00     0.293 HD
ENDBRANCH  15  26
ENDBRANCH   6   7
ENDBRANCH   3   6
ENDBRANCH   1   2
BRANCH   1  28
ATOM     28  C   UNL     1      -2.897  -1.401  -0.470  1.00  0.00     0.042 C 
BRANCH  28  29
ATOM     29  C   UNL     1      -4.221  -2.143  -0.668  1.00  0.00     0.118 C 
BRANCH  29  30
ATOM     30  N   UNL     1      -4.803  -2.670   0.553  1.00  0.00    -0.352 N 
ATOM     31  C   UNL     1      -5.611  -2.169   1.533  1.00  0.00     0.251 C 
ATOM     32  H   UNL     1      -4.558  -3.611   0.711  1.00  0.00     0.163 HD
ATOM     33  O   UNL     1      -6.022  -2.976   2.370  1.00  0.00    -0.269 OA
BRANCH  31  34
ATOM     34  C   UNL     1      -5.931  -0.730   1.714  1.00  0.00     0.039 A 
ATOM     35  C   UNL     1      -5.590   0.288   0.825  1.00  0.00     0.014 A 
ATOM     36  C   UNL     1      -6.529  -0.387   2.942  1.00  0.00     0.014 A 
ATOM     37  C   UNL     1      -5.663   1.613   1.225  1.00  0.00     0.010 A 
ATOM     38  C   UNL     1      -6.640   0.938   3.334  1.00  0.00     0.010 A 
ATOM     39  C   UNL     1      -6.126   1.925   2.503  1.00  0.00    -0.014 A 
BRANCH  39  40
ATOM     40  C   UNL     1      -6.104   3.324   2.902  1.00  0.00     0.031 A 
ATOM     41  C   UNL     1      -6.970   4.209   2.078  1.00  0.00     0.074 A 
ATOM     42  C   UNL     1      -5.413   3.754   3.976  1.00  0.00     0.049 A 
ATOM     43  N   UNL     1      -6.617   5.191   1.314  1.00  0.00    -0.248 NA
ATOM     44  C   UNL     1      -8.396   3.860   1.982  1.00  0.00     0.031 C 
ATOM     45  C   UNL     1      -4.739   2.953   5.001  1.00  0.00     0.029 A 
ATOM     46  N   UNL     1      -5.247   5.026   4.430  1.00  0.00    -0.354 N 
ATOM     47  C   UNL     1      -7.801   5.712   0.793  1.00  0.00     0.074 A 
ATOM     48  C   UNL     1      -8.833   4.759   1.101  1.00  0.00     0.031 C 
ATOM     49  C   UNL     1      -4.452   3.737   6.064  1.00  0.00     0.029 A 
ATOM     50  C   UNL     1      -4.796   5.110   5.741  1.00  0.00     0.049 A 
ATOM     51  H   UNL     1      -5.431   5.819   3.877  1.00  0.00     0.167 HD
ATOM     52  C   UNL     1      -7.878   7.002   0.362  1.00  0.00     0.037 A 
ATOM     53  C   UNL     1      -4.787   6.223   6.516  1.00  0.00     0.037 A 
ATOM     54  C   UNL     1      -6.571   7.537   0.078  1.00  0.00     0.049 A 
ATOM     55  C   UNL     1      -4.901   7.399   5.617  1.00  0.00     0.074 A 
ATOM     56  C   UNL     1      -5.553   7.221  -0.801  1.00  0.00     0.029 A 
ATOM     57  N   UNL     1      -6.009   8.380   1.004  1.00  0.00    -0.354 N 
ATOM     58  N   UNL     1      -3.956   7.782   4.805  1.00  0.00    -0.248 NA
ATOM     59  C   UNL     1      -6.239   7.864   5.279  1.00  0.00     0.031 C 
ATOM     60  C   UNL     1      -4.350   7.484  -0.083  1.00  0.00     0.029 A 
ATOM     61  C   UNL     1      -4.706   7.994   1.166  1.00  0.00     0.049 A 
ATOM     62  H   UNL     1      -6.459   9.124   1.465  1.00  0.00     0.167 HD
ATOM     63  C   UNL     1      -4.616   8.158   3.644  1.00  0.00     0.074 A 
ATOM     64  C   UNL     1      -6.024   8.262   4.022  1.00  0.00     0.031 C 
ATOM     65  C   UNL     1      -4.007   8.067   2.425  1.00  0.00     0.037 A 
BRANCH  52  66
ATOM     66  C   UNL     1      -9.073   7.900   0.603  1.00  0.00     0.057 A 
ATOM     67  C   UNL     1     -10.070   7.659   1.570  1.00  0.00     0.134 A 
ATOM     68  C   UNL     1      -9.046   9.213   0.095  1.00  0.00     0.134 A 
ATOM     69  F   UNL     1     -10.223   6.477   2.176  1.00  0.00    -0.206 F 
ATOM     70  C   UNL     1     -10.918   8.660   2.051  1.00  0.00     0.040 A 
ATOM     71  C   UNL     1      -9.858  10.234   0.605  1.00  0.00     0.040 A 
ATOM     72  F   UNL     1      -8.158   9.571  -0.846  1.00  0.00    -0.206 F 
ATOM     73  C   UNL     1     -10.784   9.962   1.601  1.00  0.00     0.006 A 
ENDBRANCH  52  66
BRANCH  53  74
ATOM     74  C   UNL     1      -5.012   6.318   7.977  1.00  0.00     0.057 A 
ATOM     75  C   UNL     1      -5.824   5.390   8.654  1.00  0.00     0.134 A 
ATOM     76  C   UNL     1      -4.654   7.464   8.700  1.00  0.00     0.134 A 
ATOM     77  F   UNL     1      -6.298   4.301   8.033  1.00  0.00    -0.206 F 
ATOM     78  C   UNL     1      -6.256   5.589   9.969  1.00  0.00     0.040 A 
ATOM     79  C   UNL     1      -5.087   7.679  10.017  1.00  0.00     0.040 A 
ATOM     80  F   UNL     1      -3.924   8.431   8.126  1.00  0.00    -0.206 F 
ATOM     81  C   UNL     1      -5.898   6.743  10.652  1.00  0.00     0.006 A 
ENDBRANCH  53  74
BRANCH  65  82
ATOM     82  C   UNL     1      -2.535   7.771   2.403  1.00  0.00     0.057 A 
ATOM     83  C   UNL     1      -1.675   8.666   1.760  1.00  0.00     0.134 A 
ATOM     84  C   UNL     1      -1.972   6.573   2.870  1.00  0.00     0.134 A 
ATOM     85  F   UNL     1      -2.155   9.803   1.232  1.00  0.00    -0.206 F 
ATOM     86  C   UNL     1      -0.314   8.395   1.602  1.00  0.00     0.040 A 
ATOM     87  C   UNL     1      -0.606   6.303   2.747  1.00  0.00     0.040 A 
ATOM     88  F   UNL     1      -2.736   5.611   3.403  1.00  0.00    -0.206 F 
ATOM     89  C   UNL     1       0.227   7.215   2.107  1.00  0.00     0.006 A 
ENDBRANCH  65  82
ENDBRANCH  39  40
ENDBRANCH  31  34
ENDBRANCH  29  30
ENDBRANCH  28  29
ENDBRANCH   1  28
TORSDOF 14
