REMARK SMILES Cc1cc(C(=O)NCCCNC(=O)c2ccc(-c3c4nc(c(-c5c(F)cccc5F)c5ccc([nH]5)c(-c5c(F)cccc5F)c5nc(c(-c6c(F)cccc6F)c6ccc3[nH]6)C=C5)C=C4)cc2)ccc1NS(=O)(=O)c1ccc(C#N)cc1C
REMARK SMILES IDX 8 1 7 2 5 3 6 4 4 6 1 7 2 8 3 9 70 10 69 11 68 12 71 13
REMARK SMILES IDX 72 15 73 16 74 17 75 18 76 19 82 20 77 21 81 22 83 23 78 24
REMARK SMILES IDX 79 25 80 26 9 27 10 28 11 29 12 30 13 32 14 33 15 34 67 35
REMARK SMILES IDX 16 36 66 37 17 38 18 39 19 40 60 41 20 42 65 43 59 44 61 45
REMARK SMILES IDX 21 46 64 47 58 48 57 49 22 51 48 52 31 53 47 54 32 55 35 56
REMARK SMILES IDX 46 57 62 58 33 59 34 60 45 62 63 63 36 64 23 65 24 66 29 67
REMARK SMILES IDX 25 68 26 69 28 70 30 71 27 72 49 73 50 74 55 75 51 76 52 77
REMARK SMILES IDX 54 78 56 79 53 80 37 81 38 82 43 83 39 84 40 85 42 86 44 87
REMARK SMILES IDX 41 88
REMARK H PARENT 7 5 71 14 11 31 61 50 35 61
REMARK Flexibility Score: inf
ROOT
ATOM      1  C   UNL     1      -4.002  -1.304   0.142  1.00  0.00     0.118 C 
ENDROOT
BRANCH   1   2
ATOM      2  N   UNL     1      -3.094  -2.421  -0.107  1.00  0.00    -0.352 N 
ATOM      3  C   UNL     1      -1.721  -2.455  -0.265  1.00  0.00     0.251 C 
ATOM      4  O   UNL     1      -1.151  -3.541  -0.190  1.00  0.00    -0.269 OA
ATOM      5  H   UNL     1      -3.535  -3.299  -0.174  1.00  0.00     0.163 HD
BRANCH   3   6
ATOM      6  C   UNL     1      -0.906  -1.222  -0.462  1.00  0.00     0.040 A 
ATOM      7  C   UNL     1       2.609  -0.015   0.292  1.00  0.00     0.046 C 
ATOM      8  C   UNL     1       1.131   0.034   0.010  1.00  0.00    -0.026 A 
ATOM      9  C   UNL     1       0.406  -1.175   0.022  1.00  0.00     0.019 A 
ATOM     10  C   UNL     1       0.481   1.212  -0.397  1.00  0.00     0.052 A 
ATOM     11  C   UNL     1      -0.673   1.091  -1.154  1.00  0.00     0.028 A 
ATOM     12  C   UNL     1      -1.361  -0.121  -1.179  1.00  0.00     0.016 A 
BRANCH  10  13
ATOM     13  N   UNL     1       0.760   2.416   0.320  1.00  0.00    -0.279 N 
ATOM     14  H   UNL     1       1.440   2.351   1.029  1.00  0.00     0.180 HD
BRANCH  13  15
ATOM     15  S   UNL     1       0.068   3.926   0.098  1.00  0.00     0.262 S 
ATOM     16  O   UNL     1       0.624   4.748   1.153  1.00  0.00    -0.201 OA
ATOM     17  O   UNL     1       0.231   4.275  -1.298  1.00  0.00    -0.201 OA
BRANCH  15  18
ATOM     18  C   UNL     1      -1.709   3.866   0.407  1.00  0.00     0.090 A 
ATOM     19  C   UNL     1      -2.330   2.687   0.834  1.00  0.00     0.024 A 
ATOM     20  C   UNL     1      -2.509   4.971   0.035  1.00  0.00    -0.029 A 
ATOM     21  C   UNL     1      -3.720   2.541   0.714  1.00  0.00     0.021 A 
ATOM     22  C   UNL     1      -3.904   4.803  -0.082  1.00  0.00     0.024 A 
ATOM     23  C   UNL     1      -1.980   6.368  -0.153  1.00  0.00     0.046 C 
ATOM     24  C   UNL     1      -4.502   3.577   0.204  1.00  0.00     0.052 A 
BRANCH  24  25
ATOM     25  C   UNL     1      -5.906   3.373  -0.036  1.00  0.00     0.099 C 
ATOM     26  N   UNL     1      -7.017   3.161  -0.253  1.00  0.00    -0.192 NA
ENDBRANCH  24  25
ENDBRANCH  15  18
ENDBRANCH  13  15
ENDBRANCH  10  13
ENDBRANCH   3   6
ENDBRANCH   1   2
BRANCH   1  27
ATOM     27  C   UNL     1      -4.650  -0.752  -1.126  1.00  0.00     0.042 C 
BRANCH  27  28
ATOM     28  C   UNL     1      -5.980  -1.370  -1.512  1.00  0.00     0.118 C 
BRANCH  28  29
ATOM     29  N   UNL     1      -7.182  -0.679  -1.051  1.00  0.00    -0.352 N 
ATOM     30  C   UNL     1      -8.519  -0.937  -1.352  1.00  0.00     0.251 C 
ATOM     31  H   UNL     1      -7.025   0.076  -0.440  1.00  0.00     0.163 HD
ATOM     32  O   UNL     1      -9.400  -0.298  -0.784  1.00  0.00    -0.269 OA
BRANCH  30  33
ATOM     33  C   UNL     1      -8.897  -2.112  -2.189  1.00  0.00     0.039 A 
ATOM     34  C   UNL     1      -9.870  -2.957  -1.642  1.00  0.00     0.014 A 
ATOM     35  C   UNL     1      -7.977  -2.616  -3.089  1.00  0.00     0.014 A 
ATOM     36  C   UNL     1      -9.616  -4.318  -1.611  1.00  0.00     0.010 A 
ATOM     37  C   UNL     1      -7.607  -3.922  -2.913  1.00  0.00     0.010 A 
ATOM     38  C   UNL     1      -8.384  -4.741  -2.092  1.00  0.00    -0.014 A 
BRANCH  38  39
ATOM     39  C   UNL     1      -7.884  -6.086  -1.958  1.00  0.00     0.031 A 
ATOM     40  C   UNL     1      -8.309  -6.987  -3.032  1.00  0.00     0.074 A 
ATOM     41  C   UNL     1      -7.013  -6.383  -0.968  1.00  0.00     0.049 A 
ATOM     42  N   UNL     1      -8.448  -8.251  -2.902  1.00  0.00    -0.248 NA
ATOM     43  C   UNL     1      -8.749  -6.496  -4.341  1.00  0.00     0.031 C 
ATOM     44  C   UNL     1      -6.181  -7.565  -0.787  1.00  0.00     0.029 A 
ATOM     45  N   UNL     1      -6.832  -5.670   0.224  1.00  0.00    -0.354 N 
ATOM     46  C   UNL     1      -8.608  -8.762  -4.172  1.00  0.00     0.074 A 
ATOM     47  C   UNL     1      -8.990  -7.639  -4.983  1.00  0.00     0.031 C 
ATOM     48  C   UNL     1      -5.837  -7.664   0.512  1.00  0.00     0.029 A 
ATOM     49  C   UNL     1      -6.538  -6.617   1.235  1.00  0.00     0.049 A 
ATOM     50  H   UNL     1      -6.897  -4.694   0.337  1.00  0.00     0.167 HD
ATOM     51  C   UNL     1      -8.189 -10.039  -4.391  1.00  0.00     0.037 A 
ATOM     52  C   UNL     1      -7.431  -6.817   2.258  1.00  0.00     0.037 A 
ATOM     53  C   UNL     1      -7.741 -10.616  -3.114  1.00  0.00     0.049 A 
ATOM     54  C   UNL     1      -8.200  -8.107   2.095  1.00  0.00     0.074 A 
ATOM     55  C   UNL     1      -6.499 -10.755  -2.514  1.00  0.00     0.029 A 
ATOM     56  N   UNL     1      -8.664 -10.724  -2.086  1.00  0.00    -0.354 N 
ATOM     57  N   UNL     1      -8.065  -8.911   1.077  1.00  0.00    -0.248 NA
ATOM     58  C   UNL     1      -9.232  -8.551   3.026  1.00  0.00     0.031 C 
ATOM     59  C   UNL     1      -6.702 -10.917  -1.107  1.00  0.00     0.029 A 
ATOM     60  C   UNL     1      -8.063 -10.909  -0.856  1.00  0.00     0.049 A 
ATOM     61  H   UNL     1      -9.638 -10.674  -2.218  1.00  0.00     0.167 HD
ATOM     62  C   UNL     1      -8.919  -9.967   1.201  1.00  0.00     0.074 A 
ATOM     63  C   UNL     1      -9.680  -9.654   2.404  1.00  0.00     0.031 C 
ATOM     64  C   UNL     1      -8.923 -11.015   0.318  1.00  0.00     0.037 A 
BRANCH  51  65
ATOM     65  C   UNL     1      -7.914 -10.662  -5.744  1.00  0.00     0.057 A 
ATOM     66  C   UNL     1      -7.136 -11.835  -5.822  1.00  0.00     0.134 A 
ATOM     67  C   UNL     1      -8.325 -10.173  -7.000  1.00  0.00     0.134 A 
ATOM     68  F   UNL     1      -6.712 -12.470  -4.721  1.00  0.00    -0.206 F 
ATOM     69  C   UNL     1      -6.749 -12.425  -7.034  1.00  0.00     0.040 A 
ATOM     70  C   UNL     1      -7.929 -10.740  -8.222  1.00  0.00     0.040 A 
ATOM     71  F   UNL     1      -9.165  -9.145  -7.134  1.00  0.00    -0.206 F 
ATOM     72  C   UNL     1      -7.131 -11.869  -8.243  1.00  0.00     0.006 A 
ENDBRANCH  51  65
BRANCH  52  73
ATOM     73  C   UNL     1      -8.005  -5.525   2.763  1.00  0.00     0.057 A 
ATOM     74  C   UNL     1      -7.040  -4.576   3.148  1.00  0.00     0.134 A 
ATOM     75  C   UNL     1      -9.172  -5.047   2.167  1.00  0.00     0.134 A 
ATOM     76  F   UNL     1      -5.970  -4.952   3.866  1.00  0.00    -0.206 F 
ATOM     77  C   UNL     1      -7.019  -3.318   2.554  1.00  0.00     0.040 A 
ATOM     78  C   UNL     1      -9.197  -3.760   1.638  1.00  0.00     0.040 A 
ATOM     79  F   UNL     1     -10.206  -5.862   1.918  1.00  0.00    -0.206 F 
ATOM     80  C   UNL     1      -8.070  -2.943   1.727  1.00  0.00     0.006 A 
ENDBRANCH  52  73
BRANCH  64  81
ATOM     81  C   UNL     1      -9.803 -12.231   0.474  1.00  0.00     0.057 A 
ATOM     82  C   UNL     1     -10.213 -12.721   1.718  1.00  0.00     0.134 A 
ATOM     83  C   UNL     1     -10.220 -13.008  -0.629  1.00  0.00     0.134 A 
ATOM     84  F   UNL     1      -9.694 -12.251   2.862  1.00  0.00    -0.206 F 
ATOM     85  C   UNL     1     -11.137 -13.762   1.846  1.00  0.00     0.040 A 
ATOM     86  C   UNL     1     -11.098 -14.083  -0.515  1.00  0.00     0.040 A 
ATOM     87  F   UNL     1      -9.801 -12.786  -1.880  1.00  0.00    -0.206 F 
ATOM     88  C   UNL     1     -11.601 -14.432   0.723  1.00  0.00     0.006 A 
ENDBRANCH  64  81
ENDBRANCH  38  39
ENDBRANCH  30  33
ENDBRANCH  28  29
ENDBRANCH  27  28
ENDBRANCH   1  27
TORSDOF 14
