REMARK SMILES O=C(CCCc1nc(-c2ccc(Cl)c(Cl)c2)c(-c2ccccc2)o1)NCCCNC(=O)c1ccc(-c2c3nc(c(-c4c(F)cccc4F)c4ccc([nH]4)c(-c4c(F)cccc4F)c4nc(c(-c5c(F)cccc5F)c5ccc2[nH]5)C=C4)C=C3)cc1
REMARK SMILES IDX 26 1 25 2 1 3 2 4 3 6 4 7 5 8 6 9 7 10 24 11 8 12 17 13 9 14
REMARK SMILES IDX 10 15 16 16 11 17 14 18 12 19 15 20 13 21 18 22 19 23 23 24
REMARK SMILES IDX 20 25 22 26 21 27 27 28 28 29 29 30 30 31 31 33 32 34 33 35
REMARK SMILES IDX 85 36 34 37 84 38 35 39 36 40 37 41 78 42 38 43 83 44 77 45
REMARK SMILES IDX 79 46 39 47 82 48 76 49 75 50 40 52 66 53 49 54 65 55 50 56
REMARK SMILES IDX 53 57 64 58 80 59 51 60 52 61 63 63 81 64 54 65 41 66 42 67
REMARK SMILES IDX 47 68 43 69 44 70 46 71 48 72 45 73 67 74 68 75 73 76 69 77
REMARK SMILES IDX 70 78 72 79 74 80 71 81 55 82 56 83 61 84 57 85 58 86 60 87
REMARK SMILES IDX 62 88 59 89
REMARK H PARENT 25 5 29 32 79 51 53 62
REMARK Flexibility Score: inf
ROOT
ATOM      1  C   UNL     1       2.189  -2.411  -0.042  1.00  0.00     0.117 C 
ENDROOT
BRANCH   1   2
ATOM      2  N   UNL     1       2.822  -1.111  -0.142  1.00  0.00    -0.356 N 
ATOM      3  O   UNL     1       1.039   0.084   0.678  1.00  0.00    -0.275 OA
ATOM      4  C   UNL     1       2.189   0.044   0.256  1.00  0.00     0.220 C 
ATOM      5  H   UNL     1       3.734  -1.052  -0.507  1.00  0.00     0.163 HD
BRANCH   4   6
ATOM      6  C   UNL     1       3.049   1.284   0.146  1.00  0.00     0.100 C 
BRANCH   6   7
ATOM      7  C   UNL     1       3.996   1.453   1.337  1.00  0.00     0.020 C 
BRANCH   7   8
ATOM      8  C   UNL     1       5.172   0.472   1.404  1.00  0.00     0.098 C 
BRANCH   8   9
ATOM      9  C   UNL     1       5.979   0.408   0.154  1.00  0.00     0.195 A 
ATOM     10  N   UNL     1       6.363  -0.664  -0.515  1.00  0.00    -0.213 NA
ATOM     11  O   UNL     1       6.342   1.602  -0.414  1.00  0.00    -0.440 OA
ATOM     12  C   UNL     1       7.100  -0.142  -1.550  1.00  0.00     0.117 A 
ATOM     13  C   UNL     1       7.029   1.235  -1.538  1.00  0.00     0.162 A 
BRANCH  12  14
ATOM     14  C   UNL     1       7.869  -0.910  -2.501  1.00  0.00     0.006 A 
ATOM     15  C   UNL     1       7.235  -1.723  -3.442  1.00  0.00     0.012 A 
ATOM     16  C   UNL     1       9.267  -0.783  -2.525  1.00  0.00     0.032 A 
ATOM     17  C   UNL     1       7.994  -2.395  -4.406  1.00  0.00     0.023 A 
ATOM     18  C   UNL     1      10.025  -1.462  -3.483  1.00  0.00     0.060 A 
ATOM     19  C   UNL     1       9.387  -2.274  -4.425  1.00  0.00     0.059 A 
ATOM     20  Cl  UNL     1      11.738  -1.239  -3.458  1.00  0.00    -0.083 Cl
ATOM     21  Cl  UNL     1      10.253  -3.152  -5.635  1.00  0.00    -0.083 Cl
ENDBRANCH  12  14
BRANCH  13  22
ATOM     22  C   UNL     1       7.487   2.285  -2.425  1.00  0.00     0.020 A 
ATOM     23  C   UNL     1       8.324   3.305  -1.966  1.00  0.00     0.012 A 
ATOM     24  C   UNL     1       7.144   2.239  -3.785  1.00  0.00     0.012 A 
ATOM     25  C   UNL     1       8.832   4.250  -2.861  1.00  0.00     0.001 A 
ATOM     26  C   UNL     1       7.644   3.188  -4.676  1.00  0.00     0.001 A 
ATOM     27  C   UNL     1       8.495   4.189  -4.214  1.00  0.00     0.000 A 
ENDBRANCH  13  22
ENDBRANCH   8   9
ENDBRANCH   7   8
ENDBRANCH   6   7
ENDBRANCH   4   6
ENDBRANCH   1   2
BRANCH   1  28
ATOM     28  C   UNL     1       2.470  -3.283  -1.258  1.00  0.00     0.042 C 
BRANCH  28  29
ATOM     29  C   UNL     1       3.941  -3.632  -1.464  1.00  0.00     0.118 C 
BRANCH  29  30
ATOM     30  N   UNL     1       4.489  -4.483  -0.418  1.00  0.00    -0.352 N 
ATOM     31  C   UNL     1       5.161  -5.678  -0.522  1.00  0.00     0.251 C 
ATOM     32  H   UNL     1       4.360  -4.153   0.501  1.00  0.00     0.163 HD
ATOM     33  O   UNL     1       5.447  -6.317   0.487  1.00  0.00    -0.269 OA
BRANCH  31  34
ATOM     34  C   UNL     1       5.509  -6.217  -1.855  1.00  0.00     0.039 A 
ATOM     35  C   UNL     1       5.229  -7.555  -2.143  1.00  0.00     0.014 A 
ATOM     36  C   UNL     1       6.093  -5.401  -2.825  1.00  0.00     0.014 A 
ATOM     37  C   UNL     1       5.445  -8.047  -3.434  1.00  0.00     0.010 A 
ATOM     38  C   UNL     1       6.237  -5.870  -4.128  1.00  0.00     0.010 A 
ATOM     39  C   UNL     1       5.903  -7.193  -4.450  1.00  0.00    -0.014 A 
BRANCH  39  40
ATOM     40  C   UNL     1       5.993  -7.640  -5.865  1.00  0.00     0.031 A 
ATOM     41  C   UNL     1       7.317  -7.661  -6.578  1.00  0.00     0.074 A 
ATOM     42  C   UNL     1       4.863  -7.929  -6.541  1.00  0.00     0.049 A 
ATOM     43  N   UNL     1       7.573  -7.923  -7.835  1.00  0.00    -0.248 NA
ATOM     44  C   UNL     1       8.505  -7.315  -5.782  1.00  0.00     0.031 C 
ATOM     45  C   UNL     1       3.509  -7.889  -5.984  1.00  0.00     0.029 A 
ATOM     46  N   UNL     1       4.671  -8.293  -7.851  1.00  0.00    -0.354 N 
ATOM     47  C   UNL     1       8.945  -7.766  -7.983  1.00  0.00     0.074 A 
ATOM     48  C   UNL     1       9.460  -7.332  -6.702  1.00  0.00     0.031 C 
ATOM     49  C   UNL     1       2.630  -8.232  -6.939  1.00  0.00     0.029 A 
ATOM     50  C   UNL     1       3.350  -8.475  -8.185  1.00  0.00     0.049 A 
ATOM     51  H   UNL     1       5.410  -8.413  -8.491  1.00  0.00     0.167 HD
ATOM     52  C   UNL     1       9.710  -7.984  -9.079  1.00  0.00     0.037 A 
ATOM     53  C   UNL     1       2.779  -8.789  -9.364  1.00  0.00     0.037 A 
ATOM     54  C   UNL     1       9.201  -8.432 -10.350  1.00  0.00     0.049 A 
ATOM     55  C   UNL     1       3.648  -9.004 -10.571  1.00  0.00     0.074 A 
ATOM     56  C   UNL     1       9.908  -8.748 -11.498  1.00  0.00     0.029 A 
ATOM     57  N   UNL     1       7.859  -8.619 -10.643  1.00  0.00    -0.354 N 
ATOM     58  N   UNL     1       4.952  -8.930 -10.674  1.00  0.00    -0.248 NA
ATOM     59  C   UNL     1       2.965  -9.347 -11.827  1.00  0.00     0.031 C 
ATOM     60  C   UNL     1       8.990  -9.081 -12.500  1.00  0.00     0.029 A 
ATOM     61  C   UNL     1       7.715  -9.017 -11.963  1.00  0.00     0.049 A 
ATOM     62  H   UNL     1       7.118  -8.489 -10.008  1.00  0.00     0.167 HD
ATOM     63  C   UNL     1       5.248  -9.241 -11.995  1.00  0.00     0.074 A 
ATOM     64  C   UNL     1       3.988  -9.517 -12.653  1.00  0.00     0.031 C 
ATOM     65  C   UNL     1       6.456  -9.293 -12.607  1.00  0.00     0.037 A 
BRANCH  52  66
ATOM     66  C   UNL     1      11.187  -7.749  -8.951  1.00  0.00     0.057 A 
ATOM     67  C   UNL     1      12.006  -8.603  -8.201  1.00  0.00     0.134 A 
ATOM     68  C   UNL     1      11.804  -6.685  -9.621  1.00  0.00     0.134 A 
ATOM     69  F   UNL     1      11.476  -9.637  -7.529  1.00  0.00    -0.206 F 
ATOM     70  C   UNL     1      13.382  -8.393  -8.101  1.00  0.00     0.040 A 
ATOM     71  C   UNL     1      13.182  -6.480  -9.549  1.00  0.00     0.040 A 
ATOM     72  F   UNL     1      11.079  -5.837 -10.366  1.00  0.00    -0.206 F 
ATOM     73  C   UNL     1      13.975  -7.332  -8.782  1.00  0.00     0.006 A 
ENDBRANCH  52  66
BRANCH  53  74
ATOM     74  C   UNL     1       1.304  -8.930  -9.459  1.00  0.00     0.057 A 
ATOM     75  C   UNL     1       0.712 -10.184  -9.651  1.00  0.00     0.134 A 
ATOM     76  C   UNL     1       0.454  -7.822  -9.370  1.00  0.00     0.134 A 
ATOM     77  F   UNL     1       1.476 -11.280  -9.765  1.00  0.00    -0.206 F 
ATOM     78  C   UNL     1      -0.671 -10.329  -9.769  1.00  0.00     0.040 A 
ATOM     79  C   UNL     1      -0.932  -7.955  -9.461  1.00  0.00     0.040 A 
ATOM     80  F   UNL     1       0.960  -6.594  -9.180  1.00  0.00    -0.206 F 
ATOM     81  C   UNL     1      -1.498  -9.212  -9.669  1.00  0.00     0.006 A 
ENDBRANCH  53  74
BRANCH  65  82
ATOM     82  C   UNL     1       6.478  -9.687 -14.054  1.00  0.00     0.057 A 
ATOM     83  C   UNL     1       6.043  -8.819 -15.063  1.00  0.00     0.134 A 
ATOM     84  C   UNL     1       6.983 -10.934 -14.446  1.00  0.00     0.134 A 
ATOM     85  F   UNL     1       5.535  -7.617 -14.753  1.00  0.00    -0.206 F 
ATOM     86  C   UNL     1       6.093  -9.184 -16.410  1.00  0.00     0.040 A 
ATOM     87  C   UNL     1       7.062 -11.300 -15.790  1.00  0.00     0.040 A 
ATOM     88  F   UNL     1       7.422 -11.810 -13.530  1.00  0.00    -0.206 F 
ATOM     89  C   UNL     1       6.612 -10.424 -16.776  1.00  0.00     0.006 A 
ENDBRANCH  65  82
ENDBRANCH  39  40
ENDBRANCH  31  34
ENDBRANCH  29  30
ENDBRANCH  28  29
ENDBRANCH   1  28
TORSDOF 15
