REMARK SMILES O=C(COc1ccc(N2C[C@@H](C(=O)NCCCNC(=O)c3ccc(-c4c5nc(c(-c6c(F)cccc6F)c6ccc([nH]6)c(-c6c(F)cccc6F)c6nc(c(-c7c(F)cccc7F)c7ccc4[nH]7)C=C6)C=C5)cc3)CC2=O)cc1)Nc1ccc(Cl)cc1Cl
REMARK SMILES IDX 12 1 13 2 14 3 11 5 9 6 10 7 76 8 75 9 77 10 8 11 5 12 6 13
REMARK SMILES IDX 79 14 7 15 78 16 4 17 3 18 2 19 1 20 80 21 81 23 82 24 87 25
REMARK SMILES IDX 83 26 86 27 88 28 84 29 85 30 15 31 16 32 17 33 18 34 19 35
REMARK SMILES IDX 20 37 21 38 22 39 74 40 23 41 73 42 24 43 25 44 26 45 67 46
REMARK SMILES IDX 27 47 72 48 66 49 68 50 28 51 71 52 65 53 64 54 29 56 55 57
REMARK SMILES IDX 38 58 54 59 39 60 42 61 53 62 69 63 40 64 41 65 52 67 70 68
REMARK SMILES IDX 43 69 30 70 31 71 36 72 32 73 33 74 35 75 37 76 34 77 56 78
REMARK SMILES IDX 57 79 62 80 58 81 59 82 61 83 63 84 60 85 44 86 45 87 50 88
REMARK SMILES IDX 46 89 47 90 49 91 51 92 48 93
REMARK H PARENT 14 4 80 22 18 36 68 55 42 66
REMARK Flexibility Score: inf
ROOT
ATOM      1  C   UNL     1      -0.271  -1.331  -9.171  1.00  0.00     0.225 C 
ATOM      2  O   UNL     1      -0.249  -1.948 -10.239  1.00  0.00    -0.275 OA
ATOM      3  N   UNL     1      -1.472  -1.218  -8.550  1.00  0.00    -0.356 N 
ATOM      4  H   UNL     1      -2.214  -1.641  -9.039  1.00  0.00     0.163 HD
ENDROOT
BRANCH   1   5
ATOM      5  C   UNL     1       1.014  -0.757  -8.612  1.00  0.00     0.107 C 
ATOM      6  N   UNL     1       1.798  -0.314  -6.435  1.00  0.00    -0.312 N 
ATOM      7  C   UNL     1       1.443  -1.405  -7.308  1.00  0.00     0.139 C 
ATOM      8  C   UNL     1       1.522   0.934  -6.993  1.00  0.00     0.227 C 
ATOM      9  C   UNL     1       0.977   0.742  -8.377  1.00  0.00     0.116 C 
ATOM     10  O   UNL     1       1.695   2.043  -6.503  1.00  0.00    -0.274 OA
BRANCH   6  11
ATOM     11  C   UNL     1       2.294  -0.514  -5.125  1.00  0.00     0.044 A 
ATOM     12  C   UNL     1       3.338  -0.806  -2.524  1.00  0.00     0.120 A 
ATOM     13  C   UNL     1       3.666  -1.727  -3.515  1.00  0.00     0.048 A 
ATOM     14  C   UNL     1       2.493   0.255  -2.829  1.00  0.00     0.048 A 
ATOM     15  C   UNL     1       3.121  -1.600  -4.804  1.00  0.00     0.030 A 
ATOM     16  C   UNL     1       1.980   0.399  -4.116  1.00  0.00     0.030 A 
BRANCH  12  17
ATOM     17  O   UNL     1       3.971  -0.889  -1.311  1.00  0.00    -0.484 OA
BRANCH  17  18
ATOM     18  C   UNL     1       3.089  -1.228  -0.239  1.00  0.00     0.329 C 
BRANCH  18  19
ATOM     19  C   UNL     1       2.189  -0.088   0.251  1.00  0.00     0.262 C 
ATOM     20  O   UNL     1       0.980  -0.249   0.378  1.00  0.00    -0.271 OA
ATOM     21  N   UNL     1       2.881   1.108   0.405  1.00  0.00    -0.322 N 
ATOM     22  H   UNL     1       3.861   1.084   0.305  1.00  0.00     0.170 HD
BRANCH  21  23
ATOM     23  C   UNL     1       2.284   2.358   0.694  1.00  0.00     0.060 A 
ATOM     24  C   UNL     1       2.800   3.455  -0.017  1.00  0.00     0.029 A 
ATOM     25  C   UNL     1       1.225   2.578   1.595  1.00  0.00     0.066 A 
ATOM     26  C   UNL     1       2.215   4.719   0.094  1.00  0.00     0.023 A 
ATOM     27  C   UNL     1       0.637   3.845   1.697  1.00  0.00     0.043 A 
ATOM     28  Cl  UNL     1       0.714   1.408   2.764  1.00  0.00    -0.082 Cl
ATOM     29  C   UNL     1       1.123   4.903   0.936  1.00  0.00     0.042 A 
ATOM     30  Cl  UNL     1       0.392   6.455   1.059  1.00  0.00    -0.084 Cl
ENDBRANCH  21  23
ENDBRANCH  18  19
ENDBRANCH  17  18
ENDBRANCH  12  17
ENDBRANCH   6  11
ENDBRANCH   1   5
BRANCH   3  31
ATOM     31  C   UNL     1      -1.873  -0.592  -7.300  1.00  0.00     0.117 C 
BRANCH  31  32
ATOM     32  C   UNL     1      -2.784   0.614  -7.517  1.00  0.00     0.042 C 
BRANCH  32  33
ATOM     33  C   UNL     1      -4.112   0.294  -8.198  1.00  0.00     0.118 C 
BRANCH  33  34
ATOM     34  N   UNL     1      -4.960  -0.584  -7.406  1.00  0.00    -0.352 N 
ATOM     35  C   UNL     1      -6.204  -0.372  -6.862  1.00  0.00     0.251 C 
ATOM     36  H   UNL     1      -4.581  -1.476  -7.231  1.00  0.00     0.163 HD
ATOM     37  O   UNL     1      -6.667  -1.197  -6.079  1.00  0.00    -0.269 OA
BRANCH  35  38
ATOM     38  C   UNL     1      -6.981   0.845  -7.188  1.00  0.00     0.039 A 
ATOM     39  C   UNL     1      -7.672   1.493  -6.160  1.00  0.00     0.014 A 
ATOM     40  C   UNL     1      -7.056   1.337  -8.493  1.00  0.00     0.014 A 
ATOM     41  C   UNL     1      -8.368   2.675  -6.426  1.00  0.00     0.010 A 
ATOM     42  C   UNL     1      -7.682   2.558  -8.742  1.00  0.00     0.010 A 
ATOM     43  C   UNL     1      -8.338   3.245  -7.710  1.00  0.00    -0.014 A 
BRANCH  43  44
ATOM     44  C   UNL     1      -8.957   4.570  -7.975  1.00  0.00     0.031 A 
ATOM     45  C   UNL     1     -10.092   4.707  -8.953  1.00  0.00     0.074 A 
ATOM     46  C   UNL     1      -8.447   5.668  -7.381  1.00  0.00     0.049 A 
ATOM     47  N   UNL     1     -10.710   5.789  -9.356  1.00  0.00    -0.248 NA
ATOM     48  C   UNL     1     -10.584   3.469  -9.579  1.00  0.00     0.031 C 
ATOM     49  C   UNL     1      -7.314   5.678  -6.452  1.00  0.00     0.029 A 
ATOM     50  N   UNL     1      -8.805   6.990  -7.478  1.00  0.00    -0.354 N 
ATOM     51  C   UNL     1     -11.650   5.366 -10.287  1.00  0.00     0.074 A 
ATOM     52  C   UNL     1     -11.491   3.935 -10.426  1.00  0.00     0.031 C 
ATOM     53  C   UNL     1      -7.084   6.938  -6.051  1.00  0.00     0.029 A 
ATOM     54  C   UNL     1      -8.019   7.831  -6.726  1.00  0.00     0.049 A 
ATOM     55  H   UNL     1      -9.554   7.306  -8.033  1.00  0.00     0.167 HD
ATOM     56  C   UNL     1     -12.573   6.102 -10.952  1.00  0.00     0.037 A 
ATOM     57  C   UNL     1      -8.036   9.172  -6.606  1.00  0.00     0.037 A 
ATOM     58  C   UNL     1     -12.743   7.523 -10.796  1.00  0.00     0.049 A 
ATOM     59  C   UNL     1      -9.064   9.964  -7.366  1.00  0.00     0.074 A 
ATOM     60  C   UNL     1     -13.698   8.344 -11.372  1.00  0.00     0.029 A 
ATOM     61  N   UNL     1     -11.937   8.337 -10.015  1.00  0.00    -0.354 N 
ATOM     62  N   UNL     1     -10.000   9.539  -8.180  1.00  0.00    -0.248 NA
ATOM     63  C   UNL     1      -9.042  11.423  -7.188  1.00  0.00     0.031 C 
ATOM     64  C   UNL     1     -13.433   9.662 -10.987  1.00  0.00     0.029 A 
ATOM     65  C   UNL     1     -12.351   9.655 -10.122  1.00  0.00     0.049 A 
ATOM     66  H   UNL     1     -11.181   8.025  -9.466  1.00  0.00     0.167 HD
ATOM     67  C   UNL     1     -10.693  10.672  -8.588  1.00  0.00     0.074 A 
ATOM     68  C   UNL     1     -10.083  11.800  -7.916  1.00  0.00     0.031 C 
ATOM     69  C   UNL     1     -11.738  10.769  -9.445  1.00  0.00     0.037 A 
BRANCH  56  70
ATOM     70  C   UNL     1     -13.479   5.388 -11.914  1.00  0.00     0.057 A 
ATOM     71  C   UNL     1     -14.485   4.516 -11.477  1.00  0.00     0.134 A 
ATOM     72  C   UNL     1     -13.389   5.628 -13.291  1.00  0.00     0.134 A 
ATOM     73  F   UNL     1     -14.621   4.234 -10.172  1.00  0.00    -0.206 F 
ATOM     74  C   UNL     1     -15.355   3.895 -12.375  1.00  0.00     0.040 A 
ATOM     75  C   UNL     1     -14.272   5.037 -14.196  1.00  0.00     0.040 A 
ATOM     76  F   UNL     1     -12.455   6.459 -13.778  1.00  0.00    -0.206 F 
ATOM     77  C   UNL     1     -15.256   4.163 -13.739  1.00  0.00     0.006 A 
ENDBRANCH  56  70
BRANCH  57  78
ATOM     78  C   UNL     1      -7.047   9.858  -5.734  1.00  0.00     0.057 A 
ATOM     79  C   UNL     1      -7.444  10.520  -4.566  1.00  0.00     0.134 A 
ATOM     80  C   UNL     1      -5.686   9.893  -6.061  1.00  0.00     0.134 A 
ATOM     81  F   UNL     1      -8.737  10.541  -4.208  1.00  0.00    -0.206 F 
ATOM     82  C   UNL     1      -6.531  11.215  -3.771  1.00  0.00     0.040 A 
ATOM     83  C   UNL     1      -4.757  10.557  -5.259  1.00  0.00     0.040 A 
ATOM     84  F   UNL     1      -5.238   9.272  -7.162  1.00  0.00    -0.206 F 
ATOM     85  C   UNL     1      -5.181  11.231  -4.116  1.00  0.00     0.006 A 
ENDBRANCH  57  78
BRANCH  69  86
ATOM     86  C   UNL     1     -12.310  12.138  -9.680  1.00  0.00     0.057 A 
ATOM     87  C   UNL     1     -11.617  13.117 -10.403  1.00  0.00     0.134 A 
ATOM     88  C   UNL     1     -13.586  12.469  -9.204  1.00  0.00     0.134 A 
ATOM     89  F   UNL     1     -10.386  12.870 -10.875  1.00  0.00    -0.206 F 
ATOM     90  C   UNL     1     -12.161  14.384 -10.621  1.00  0.00     0.040 A 
ATOM     91  C   UNL     1     -14.153  13.721  -9.443  1.00  0.00     0.040 A 
ATOM     92  F   UNL     1     -14.309  11.575  -8.513  1.00  0.00    -0.206 F 
ATOM     93  C   UNL     1     -13.436  14.686 -10.147  1.00  0.00     0.006 A 
ENDBRANCH  69  86
ENDBRANCH  43  44
ENDBRANCH  35  38
ENDBRANCH  33  34
ENDBRANCH  32  33
ENDBRANCH  31  32
ENDBRANCH   3  31
TORSDOF 15
