REMARK SMILES C[C@H](C(=O)NCCCNC(=O)c1ccc(-c2c3nc(c(-c4c(F)cccc4F)c4ccc([nH]4)c(-c4c(F)cccc4F)c4nc(c(-c5c(F)cccc5F)c5ccc2[nH]5)C=C4)C=C3)cc1)c1ccc2c3cc(Cl)ccc3n(C(=O)c3ccc(Cl)cc3)c2c1
REMARK SMILES IDX 6 1 5 2 3 3 4 4 2 6 1 7 66 8 67 9 88 10 68 11 87 12 69 13
REMARK SMILES IDX 77 14 70 15 76 16 71 17 75 18 72 19 74 20 73 21 78 22 79 23
REMARK SMILES IDX 80 24 81 25 86 26 82 27 85 28 83 29 84 30 7 31 8 32 9 33
REMARK SMILES IDX 10 34 11 36 12 37 13 38 65 39 14 40 64 41 15 42 16 43 17 44
REMARK SMILES IDX 58 45 18 46 63 47 57 48 59 49 19 50 62 51 56 52 55 53 20 55
REMARK SMILES IDX 46 56 29 57 45 58 30 59 33 60 44 61 60 62 31 63 32 64 43 66
REMARK SMILES IDX 61 67 34 68 21 69 22 70 27 71 23 72 24 73 26 74 28 75 25 76
REMARK SMILES IDX 47 77 48 78 53 79 49 80 50 81 52 82 54 83 51 84 35 85 36 86
REMARK SMILES IDX 41 87 37 88 38 89 40 90 42 91 39 92
REMARK H PARENT 5 5 9 35 59 54 33 65
REMARK Flexibility Score: inf
ROOT
ATOM      1  C   UNL     1      -0.203  -1.807  -1.205  1.00  0.00     0.117 C 
ENDROOT
BRANCH   1   2
ATOM      2  N   UNL     1       0.724  -0.691  -1.091  1.00  0.00    -0.356 N 
ATOM      3  C   UNL     1       1.136   0.020   0.005  1.00  0.00     0.227 C 
ATOM      4  O   UNL     1       1.914   0.954  -0.202  1.00  0.00    -0.274 OA
ATOM      5  H   UNL     1       1.120  -0.398  -1.943  1.00  0.00     0.163 HD
BRANCH   3   6
ATOM      6  C   UNL     1       0.666  -0.373   1.420  1.00  0.00     0.105 C 
ATOM      7  C   UNL     1       1.365   0.415   2.536  1.00  0.00     0.023 C 
BRANCH   6   8
ATOM      8  C   UNL     1      -0.845  -0.276   1.561  1.00  0.00    -0.034 A 
ATOM      9  C   UNL     1      -1.539   0.888   1.239  1.00  0.00     0.005 A 
ATOM     10  C   UNL     1      -1.553  -1.431   1.927  1.00  0.00     0.032 A 
ATOM     11  C   UNL     1      -2.933   0.871   1.152  1.00  0.00     0.011 A 
ATOM     12  C   UNL     1      -2.953  -1.468   1.784  1.00  0.00     0.057 A 
ATOM     13  C   UNL     1      -3.642  -0.331   1.380  1.00  0.00     0.008 A 
ATOM     14  N   UNL     1      -3.869  -2.534   1.902  1.00  0.00    -0.276 N 
ATOM     15  C   UNL     1      -5.014  -0.676   1.313  1.00  0.00     0.009 A 
ATOM     16  C   UNL     1      -5.158  -1.990   1.787  1.00  0.00     0.057 A 
ATOM     17  C   UNL     1      -6.149   0.072   0.939  1.00  0.00     0.031 A 
ATOM     18  C   UNL     1      -6.442  -2.499   2.060  1.00  0.00     0.029 A 
ATOM     19  C   UNL     1      -7.411  -0.464   1.154  1.00  0.00     0.041 A 
ATOM     20  C   UNL     1      -7.560  -1.715   1.738  1.00  0.00     0.023 A 
ATOM     21  Cl  UNL     1      -8.796   0.459   0.736  1.00  0.00    -0.084 Cl
BRANCH  14  22
ATOM     22  C   UNL     1      -3.464  -3.890   2.086  1.00  0.00     0.262 C 
ATOM     23  O   UNL     1      -2.258  -4.080   2.277  1.00  0.00    -0.268 OA
BRANCH  22  24
ATOM     24  C   UNL     1      -4.229  -5.163   2.026  1.00  0.00     0.040 A 
ATOM     25  C   UNL     1      -3.695  -6.238   2.771  1.00  0.00     0.015 A 
ATOM     26  C   UNL     1      -5.273  -5.420   1.134  1.00  0.00     0.015 A 
ATOM     27  C   UNL     1      -4.179  -7.538   2.626  1.00  0.00     0.021 A 
ATOM     28  C   UNL     1      -5.781  -6.725   1.012  1.00  0.00     0.021 A 
ATOM     29  C   UNL     1      -5.223  -7.777   1.744  1.00  0.00     0.041 A 
ATOM     30  Cl  UNL     1      -5.794  -9.384   1.523  1.00  0.00    -0.084 Cl
ENDBRANCH  22  24
ENDBRANCH  14  22
ENDBRANCH   6   8
ENDBRANCH   3   6
ENDBRANCH   1   2
BRANCH   1  31
ATOM     31  C   UNL     1      -1.575  -1.374  -1.719  1.00  0.00     0.042 C 
BRANCH  31  32
ATOM     32  C   UNL     1      -1.583  -0.922  -3.174  1.00  0.00     0.118 C 
BRANCH  32  33
ATOM     33  N   UNL     1      -1.363  -2.021  -4.103  1.00  0.00    -0.352 N 
ATOM     34  C   UNL     1      -2.129  -2.435  -5.168  1.00  0.00     0.251 C 
ATOM     35  H   UNL     1      -0.545  -2.545  -3.946  1.00  0.00     0.163 HD
ATOM     36  O   UNL     1      -1.876  -3.489  -5.734  1.00  0.00    -0.269 OA
BRANCH  34  37
ATOM     37  C   UNL     1      -3.276  -1.614  -5.616  1.00  0.00     0.039 A 
ATOM     38  C   UNL     1      -4.487  -2.245  -5.916  1.00  0.00     0.014 A 
ATOM     39  C   UNL     1      -3.155  -0.229  -5.749  1.00  0.00     0.014 A 
ATOM     40  C   UNL     1      -5.599  -1.480  -6.280  1.00  0.00     0.010 A 
ATOM     41  C   UNL     1      -4.279   0.536  -6.038  1.00  0.00     0.010 A 
ATOM     42  C   UNL     1      -5.511  -0.080  -6.309  1.00  0.00    -0.014 A 
BRANCH  42  43
ATOM     43  C   UNL     1      -6.676   0.779  -6.642  1.00  0.00     0.031 A 
ATOM     44  C   UNL     1      -6.619   1.666  -7.854  1.00  0.00     0.074 A 
ATOM     45  C   UNL     1      -7.726   0.851  -5.802  1.00  0.00     0.049 A 
ATOM     46  N   UNL     1      -7.426   2.629  -8.218  1.00  0.00    -0.248 NA
ATOM     47  C   UNL     1      -5.473   1.466  -8.756  1.00  0.00     0.031 C 
ATOM     48  C   UNL     1      -7.890   0.069  -4.575  1.00  0.00     0.029 A 
ATOM     49  N   UNL     1      -8.841   1.649  -5.840  1.00  0.00    -0.354 N 
ATOM     50  C   UNL     1      -6.868   3.172  -9.370  1.00  0.00     0.074 A 
ATOM     51  C   UNL     1      -5.631   2.461  -9.614  1.00  0.00     0.031 C 
ATOM     52  C   UNL     1      -9.038   0.428  -3.976  1.00  0.00     0.029 A 
ATOM     53  C   UNL     1      -9.666   1.492  -4.753  1.00  0.00     0.049 A 
ATOM     54  H   UNL     1      -9.032   2.275  -6.576  1.00  0.00     0.167 HD
ATOM     55  C   UNL     1      -7.349   4.163 -10.158  1.00  0.00     0.037 A 
ATOM     56  C   UNL     1     -10.787   2.153  -4.407  1.00  0.00     0.037 A 
ATOM     57  C   UNL     1      -8.588   4.854  -9.916  1.00  0.00     0.049 A 
ATOM     58  C   UNL     1     -11.293   3.264  -5.280  1.00  0.00     0.074 A 
ATOM     59  C   UNL     1      -9.193   5.834 -10.684  1.00  0.00     0.029 A 
ATOM     60  N   UNL     1      -9.408   4.643  -8.817  1.00  0.00    -0.354 N 
ATOM     61  N   UNL     1     -10.780   3.745  -6.386  1.00  0.00    -0.248 NA
ATOM     62  C   UNL     1     -12.534   3.928  -4.854  1.00  0.00     0.031 C 
ATOM     63  C   UNL     1     -10.351   6.254 -10.021  1.00  0.00     0.029 A 
ATOM     64  C   UNL     1     -10.501   5.491  -8.874  1.00  0.00     0.049 A 
ATOM     65  H   UNL     1      -9.238   3.987  -8.103  1.00  0.00     0.167 HD
ATOM     66  C   UNL     1     -11.648   4.745  -6.804  1.00  0.00     0.074 A 
ATOM     67  C   UNL     1     -12.719   4.805  -5.831  1.00  0.00     0.031 C 
ATOM     68  C   UNL     1     -11.566   5.535  -7.903  1.00  0.00     0.037 A 
BRANCH  55  69
ATOM     69  C   UNL     1      -6.514   4.568 -11.341  1.00  0.00     0.057 A 
ATOM     70  C   UNL     1      -6.301   3.712 -12.431  1.00  0.00     0.134 A 
ATOM     71  C   UNL     1      -5.910   5.831 -11.389  1.00  0.00     0.134 A 
ATOM     72  F   UNL     1      -6.841   2.484 -12.447  1.00  0.00    -0.206 F 
ATOM     73  C   UNL     1      -5.479   4.078 -13.499  1.00  0.00     0.040 A 
ATOM     74  C   UNL     1      -5.117   6.223 -12.468  1.00  0.00     0.040 A 
ATOM     75  F   UNL     1      -6.080   6.707 -10.387  1.00  0.00    -0.206 F 
ATOM     76  C   UNL     1      -4.888   5.339 -13.521  1.00  0.00     0.006 A 
ENDBRANCH  55  69
BRANCH  56  77
ATOM     77  C   UNL     1     -11.505   1.784  -3.165  1.00  0.00     0.057 A 
ATOM     78  C   UNL     1     -12.694   1.048  -3.212  1.00  0.00     0.134 A 
ATOM     79  C   UNL     1     -11.023   2.159  -1.907  1.00  0.00     0.134 A 
ATOM     80  F   UNL     1     -13.219   0.689  -4.392  1.00  0.00    -0.206 F 
ATOM     81  C   UNL     1     -13.380   0.694  -2.049  1.00  0.00     0.040 A 
ATOM     82  C   UNL     1     -11.697   1.808  -0.737  1.00  0.00     0.040 A 
ATOM     83  F   UNL     1      -9.886   2.862  -1.801  1.00  0.00    -0.206 F 
ATOM     84  C   UNL     1     -12.876   1.068  -0.805  1.00  0.00     0.006 A 
ENDBRANCH  56  77
BRANCH  68  85
ATOM     85  C   UNL     1     -12.691   6.496  -8.153  1.00  0.00     0.057 A 
ATOM     86  C   UNL     1     -12.854   7.666  -7.402  1.00  0.00     0.134 A 
ATOM     87  C   UNL     1     -13.579   6.279  -9.216  1.00  0.00     0.134 A 
ATOM     88  F   UNL     1     -12.046   7.926  -6.363  1.00  0.00    -0.206 F 
ATOM     89  C   UNL     1     -13.865   8.583  -7.696  1.00  0.00     0.040 A 
ATOM     90  C   UNL     1     -14.576   7.200  -9.535  1.00  0.00     0.040 A 
ATOM     91  F   UNL     1     -13.473   5.179  -9.977  1.00  0.00    -0.206 F 
ATOM     92  C   UNL     1     -14.722   8.357  -8.772  1.00  0.00     0.006 A 
ENDBRANCH  68  85
ENDBRANCH  42  43
ENDBRANCH  34  37
ENDBRANCH  32  33
ENDBRANCH  31  32
ENDBRANCH   1  31
TORSDOF 13
