REMARK SMILES O=C(NCCCNC(=O)c1cc(-c2ccc(N3C(=O)[C@@H]4CC=CC[C@H]4C3=O)cc2)nc2c(Cl)cccc12)c1ccc(-c2c3nc(c(-c4c(F)cccc4F)c4ccc([nH]4)c(-c4c(F)cccc4F)c4nc(c(-c5c(F)cccc5F)c5ccc2[nH]5)C=C4)C=C3)cc1
REMARK SMILES IDX 5 1 4 2 3 3 1 4 2 5 38 7 39 8 91 9 40 10 90 11 41 12 42 13
REMARK SMILES IDX 43 14 84 15 44 16 89 17 83 18 85 19 45 20 88 21 82 22 81 23
REMARK SMILES IDX 46 25 72 26 55 27 71 28 56 29 59 30 70 31 86 32 57 33 58 34
REMARK SMILES IDX 69 36 87 37 60 38 47 39 48 40 53 41 49 42 50 43 52 44 54 45
REMARK SMILES IDX 51 46 73 47 74 48 79 49 75 50 76 51 78 52 80 53 77 54 61 55
REMARK SMILES IDX 62 56 67 57 63 58 64 59 66 60 68 61 65 62 6 63 7 64 8 65
REMARK SMILES IDX 9 67 10 68 11 69 37 70 12 71 31 72 36 73 30 74 32 75 35 76
REMARK SMILES IDX 33 77 34 78 13 79 14 80 29 81 15 82 28 83 16 84 17 85 18 86
REMARK SMILES IDX 26 87 19 88 20 89 25 90 27 91 21 92 24 93 22 94 23 95
REMARK H PARENT 3 6 85 24 59 35 7 66
REMARK Flexibility Score: inf
ROOT
ATOM      1  C   UNL     1       5.025  -0.526  -2.259  1.00  0.00     0.042 C 
ENDROOT
BRANCH   1   2
ATOM      2  C   UNL     1       4.621   0.511  -1.224  1.00  0.00     0.118 C 
BRANCH   2   3
ATOM      3  N   UNL     1       3.189   0.513  -0.950  1.00  0.00    -0.352 N 
ATOM      4  O   UNL     1       1.255   0.005   0.081  1.00  0.00    -0.269 OA
ATOM      5  C   UNL     1       2.480   0.070   0.141  1.00  0.00     0.251 C 
ATOM      6  H   UNL     1       2.636   0.897  -1.668  1.00  0.00     0.163 HD
BRANCH   5   7
ATOM      7  C   UNL     1       3.178  -0.352   1.375  1.00  0.00     0.039 A 
ATOM      8  C   UNL     1       4.285   0.349   1.847  1.00  0.00     0.014 A 
ATOM      9  C   UNL     1       2.697  -1.453   2.094  1.00  0.00     0.014 A 
ATOM     10  C   UNL     1       5.023  -0.155   2.909  1.00  0.00     0.010 A 
ATOM     11  C   UNL     1       3.373  -1.891   3.239  1.00  0.00     0.010 A 
ATOM     12  C   UNL     1       4.566  -1.268   3.633  1.00  0.00    -0.014 A 
BRANCH  12  13
ATOM     13  C   UNL     1       5.336  -1.705   4.826  1.00  0.00     0.031 A 
ATOM     14  C   UNL     1       5.992  -3.056   4.884  1.00  0.00     0.074 A 
ATOM     15  C   UNL     1       5.499  -0.830   5.838  1.00  0.00     0.049 A 
ATOM     16  N   UNL     1       6.753  -3.559   5.824  1.00  0.00    -0.248 NA
ATOM     17  C   UNL     1       5.764  -3.965   3.749  1.00  0.00     0.031 C 
ATOM     18  C   UNL     1       4.894   0.504   5.903  1.00  0.00     0.029 A 
ATOM     19  N   UNL     1       6.247  -0.909   6.984  1.00  0.00    -0.354 N 
ATOM     20  C   UNL     1       7.080  -4.843   5.405  1.00  0.00     0.074 A 
ATOM     21  C   UNL     1       6.415  -5.053   4.137  1.00  0.00     0.031 C 
ATOM     22  C   UNL     1       5.349   1.141   6.990  1.00  0.00     0.029 A 
ATOM     23  C   UNL     1       6.224   0.242   7.732  1.00  0.00     0.049 A 
ATOM     24  H   UNL     1       6.751  -1.714   7.245  1.00  0.00     0.167 HD
ATOM     25  C   UNL     1       7.872  -5.756   6.018  1.00  0.00     0.037 A 
ATOM     26  C   UNL     1       6.833   0.544   8.893  1.00  0.00     0.037 A 
ATOM     27  C   UNL     1       8.545  -5.538   7.272  1.00  0.00     0.049 A 
ATOM     28  C   UNL     1       7.708  -0.484   9.543  1.00  0.00     0.074 A 
ATOM     29  C   UNL     1       9.369  -6.403   7.973  1.00  0.00     0.029 A 
ATOM     30  N   UNL     1       8.478  -4.366   8.011  1.00  0.00    -0.354 N 
ATOM     31  N   UNL     1       8.010  -1.691   9.129  1.00  0.00    -0.248 NA
ATOM     32  C   UNL     1       8.323  -0.113  10.824  1.00  0.00     0.031 C 
ATOM     33  C   UNL     1       9.779  -5.764   9.148  1.00  0.00     0.029 A 
ATOM     34  C   UNL     1       9.239  -4.488   9.163  1.00  0.00     0.049 A 
ATOM     35  H   UNL     1       7.965  -3.566   7.755  1.00  0.00     0.167 HD
ATOM     36  C   UNL     1       8.849  -2.223  10.095  1.00  0.00     0.074 A 
ATOM     37  C   UNL     1       9.035  -1.196  11.101  1.00  0.00     0.031 C 
ATOM     38  C   UNL     1       9.408  -3.456  10.152  1.00  0.00     0.037 A 
BRANCH  25  39
ATOM     39  C   UNL     1       8.051  -7.084   5.342  1.00  0.00     0.057 A 
ATOM     40  C   UNL     1       8.859  -7.229   4.207  1.00  0.00     0.134 A 
ATOM     41  C   UNL     1       7.450  -8.238   5.860  1.00  0.00     0.134 A 
ATOM     42  F   UNL     1       9.452  -6.160   3.654  1.00  0.00    -0.206 F 
ATOM     43  C   UNL     1       9.053  -8.473   3.604  1.00  0.00     0.040 A 
ATOM     44  C   UNL     1       7.653  -9.491   5.278  1.00  0.00     0.040 A 
ATOM     45  F   UNL     1       6.668  -8.169   6.947  1.00  0.00    -0.206 F 
ATOM     46  C   UNL     1       8.455  -9.610   4.145  1.00  0.00     0.006 A 
ENDBRANCH  25  39
BRANCH  26  47
ATOM     47  C   UNL     1       6.626   1.876   9.510  1.00  0.00     0.057 A 
ATOM     48  C   UNL     1       7.655   2.822   9.559  1.00  0.00     0.134 A 
ATOM     49  C   UNL     1       5.386   2.239  10.052  1.00  0.00     0.134 A 
ATOM     50  F   UNL     1       8.868   2.526   9.070  1.00  0.00    -0.206 F 
ATOM     51  C   UNL     1       7.464   4.078  10.138  1.00  0.00     0.040 A 
ATOM     52  C   UNL     1       5.173   3.499  10.609  1.00  0.00     0.040 A 
ATOM     53  F   UNL     1       4.358   1.378  10.025  1.00  0.00    -0.206 F 
ATOM     54  C   UNL     1       6.217   4.421  10.659  1.00  0.00     0.006 A 
ENDBRANCH  26  47
BRANCH  38  55
ATOM     55  C   UNL     1      10.277  -3.747  11.337  1.00  0.00     0.057 A 
ATOM     56  C   UNL     1       9.731  -3.980  12.606  1.00  0.00     0.134 A 
ATOM     57  C   UNL     1      11.669  -3.800  11.207  1.00  0.00     0.134 A 
ATOM     58  F   UNL     1       8.404  -3.926  12.796  1.00  0.00    -0.206 F 
ATOM     59  C   UNL     1      10.544  -4.233  13.711  1.00  0.00     0.040 A 
ATOM     60  C   UNL     1      12.491  -4.073  12.301  1.00  0.00     0.040 A 
ATOM     61  F   UNL     1      12.251  -3.589  10.017  1.00  0.00    -0.206 F 
ATOM     62  C   UNL     1      11.928  -4.283  13.559  1.00  0.00     0.006 A 
ENDBRANCH  38  55
ENDBRANCH  12  13
ENDBRANCH   5   7
ENDBRANCH   2   3
ENDBRANCH   1   2
BRANCH   1  63
ATOM     63  C   UNL     1       4.442  -0.275  -3.638  1.00  0.00     0.118 C 
BRANCH  63  64
ATOM     64  N   UNL     1       4.856   1.005  -4.200  1.00  0.00    -0.352 N 
ATOM     65  C   UNL     1       5.615   1.268  -5.311  1.00  0.00     0.252 C 
ATOM     66  H   UNL     1       4.543   1.798  -3.709  1.00  0.00     0.163 HD
ATOM     67  O   UNL     1       5.945   2.418  -5.580  1.00  0.00    -0.269 OA
BRANCH  65  68
ATOM     68  C   UNL     1       6.081   0.156  -6.161  1.00  0.00     0.051 A 
ATOM     69  C   UNL     1       7.461   0.022  -6.279  1.00  0.00     0.043 A 
ATOM     70  C   UNL     1       5.192  -0.744  -6.790  1.00  0.00     0.015 A 
ATOM     71  C   UNL     1       7.940  -1.055  -6.992  1.00  0.00     0.072 A 
ATOM     72  C   UNL     1       5.772  -1.857  -7.427  1.00  0.00     0.090 A 
ATOM     73  C   UNL     1       3.780  -0.595  -6.781  1.00  0.00     0.011 A 
ATOM     74  N   UNL     1       7.117  -1.984  -7.530  1.00  0.00    -0.246 NA
ATOM     75  C   UNL     1       4.900  -2.834  -7.932  1.00  0.00     0.067 A 
ATOM     76  C   UNL     1       2.943  -1.578  -7.293  1.00  0.00     0.002 A 
ATOM     77  Cl  UNL     1       5.522  -4.279  -8.663  1.00  0.00    -0.082 Cl
ATOM     78  C   UNL     1       3.506  -2.713  -7.854  1.00  0.00     0.023 A 
BRANCH  71  79
ATOM     79  C   UNL     1       9.371  -1.254  -7.225  1.00  0.00     0.000 A 
ATOM     80  C   UNL     1      10.251  -1.557  -6.180  1.00  0.00     0.012 A 
ATOM     81  C   UNL     1       9.900  -1.130  -8.515  1.00  0.00     0.012 A 
ATOM     82  C   UNL     1      11.621  -1.738  -6.421  1.00  0.00     0.027 A 
ATOM     83  C   UNL     1      11.274  -1.270  -8.749  1.00  0.00     0.027 A 
ATOM     84  C   UNL     1      12.156  -1.583  -7.708  1.00  0.00     0.052 A 
BRANCH  84  85
ATOM     85  N   UNL     1      13.546  -1.743  -7.951  1.00  0.00    -0.250 N 
ATOM     86  C   UNL     1      14.388  -2.568  -7.215  1.00  0.00     0.238 C 
ATOM     87  C   UNL     1      14.249  -1.093  -8.959  1.00  0.00     0.238 C 
ATOM     88  O   UNL     1      14.178  -3.190  -6.183  1.00  0.00    -0.274 OA
ATOM     89  C   UNL     1      15.646  -2.688  -8.025  1.00  0.00     0.096 C 
ATOM     90  C   UNL     1      15.701  -1.307  -8.645  1.00  0.00     0.096 C 
ATOM     91  O   UNL     1      13.847  -0.378  -9.866  1.00  0.00    -0.274 OA
ATOM     92  C   UNL     1      16.947  -3.018  -7.324  1.00  0.00     0.041 C 
ATOM     93  C   UNL     1      16.712  -1.260  -9.773  1.00  0.00     0.041 C 
ATOM     94  C   UNL     1      18.114  -2.673  -8.224  1.00  0.00    -0.030 C 
ATOM     95  C   UNL     1      18.003  -1.912  -9.330  1.00  0.00    -0.030 C 
ENDBRANCH  84  85
ENDBRANCH  71  79
ENDBRANCH  65  68
ENDBRANCH  63  64
ENDBRANCH   1  63
TORSDOF 12
