REMARK SMILES C[C@H]1CCC[C@H](C(C)(C)C(=O)NCCCNC(=O)c2ccc(-c3c4nc(c(-c5c(F)cccc5F)c5ccc([nH]5)c(-c5c(F)cccc5F)c5nc(c(-c6c(F)cccc6F)c6ccc3[nH]6)C=C5)C=C4)cc2)C1
REMARK SMILES IDX 14 1 13 2 12 3 10 4 11 5 7 7 8 8 9 9 6 10 1 11 2 12 3 13
REMARK SMILES IDX 73 14 4 15 5 16 15 17 16 18 17 19 18 21 19 22 20 23 72 24
REMARK SMILES IDX 21 25 71 26 22 27 23 28 24 29 65 30 25 31 70 32 64 33 66 34
REMARK SMILES IDX 26 35 69 36 63 37 62 38 27 40 53 41 36 42 52 43 37 44 40 45
REMARK SMILES IDX 51 46 67 47 38 48 39 49 50 51 68 52 41 53 28 54 29 55 34 56
REMARK SMILES IDX 30 57 31 58 33 59 35 60 32 61 54 62 55 63 60 64 56 65 57 66
REMARK SMILES IDX 59 67 61 68 58 69 42 70 43 71 48 72 44 73 45 74 47 75 49 76
REMARK SMILES IDX 46 77
REMARK H PARENT 12 6 16 20 66 39 40 50
REMARK Flexibility Score: inf
ROOT
ATOM      1  C   UNL     1      -0.325  -1.423   5.857  1.00  0.00     0.042 C 
ENDROOT
BRANCH   1   2
ATOM      2  C   UNL     1      -1.556  -0.980   5.070  1.00  0.00     0.117 C 
BRANCH   2   3
ATOM      3  N   UNL     1      -1.208  -0.007   4.056  1.00  0.00    -0.356 N 
ATOM      4  C   UNL     1      -0.981  -0.053   2.722  1.00  0.00     0.225 C 
ATOM      5  O   UNL     1      -0.457   0.977   2.298  1.00  0.00    -0.275 OA
ATOM      6  H   UNL     1      -1.114   0.902   4.422  1.00  0.00     0.163 HD
BRANCH   4   7
ATOM      7  C   UNL     1      -1.365  -1.244   1.817  1.00  0.00     0.046 C 
ATOM      8  C   UNL     1      -2.891  -1.467   1.962  1.00  0.00     0.022 C 
ATOM      9  C   UNL     1      -0.623  -2.517   2.279  1.00  0.00     0.022 C 
BRANCH   7  10
ATOM     10  C   UNL     1      -1.062  -1.038   0.260  1.00  0.00     0.004 C 
ATOM     11  C   UNL     1       2.609   0.013  -0.623  1.00  0.00     0.007 C 
ATOM     12  C   UNL     1       1.197   0.179  -0.054  1.00  0.00    -0.014 C 
ATOM     13  C   UNL     1       0.485   1.352  -0.742  1.00  0.00     0.003 C 
ATOM     14  C   UNL     1       0.408  -1.120  -0.205  1.00  0.00     0.008 C 
ATOM     15  C   UNL     1      -1.013   1.467  -0.462  1.00  0.00     0.001 C 
ATOM     16  C   UNL     1      -1.760   0.136  -0.459  1.00  0.00     0.005 C 
ENDBRANCH   7  10
ENDBRANCH   4   7
ENDBRANCH   2   3
ENDBRANCH   1   2
BRANCH   1  17
ATOM     17  C   UNL     1       0.482  -0.273   6.458  1.00  0.00     0.118 C 
BRANCH  17  18
ATOM     18  N   UNL     1      -0.314   0.581   7.332  1.00  0.00    -0.352 N 
ATOM     19  C   UNL     1      -0.240   0.784   8.684  1.00  0.00     0.251 C 
ATOM     20  H   UNL     1      -1.018   1.095   6.875  1.00  0.00     0.163 HD
ATOM     21  O   UNL     1      -1.140   1.398   9.258  1.00  0.00    -0.269 OA
BRANCH  19  22
ATOM     22  C   UNL     1       0.897   0.256   9.464  1.00  0.00     0.039 A 
ATOM     23  C   UNL     1       0.643  -0.344  10.700  1.00  0.00     0.014 A 
ATOM     24  C   UNL     1       2.209   0.374   8.998  1.00  0.00     0.014 A 
ATOM     25  C   UNL     1       1.698  -0.886  11.436  1.00  0.00     0.010 A 
ATOM     26  C   UNL     1       3.248  -0.237   9.693  1.00  0.00     0.010 A 
ATOM     27  C   UNL     1       3.004  -0.871  10.920  1.00  0.00    -0.014 A 
BRANCH  27  28
ATOM     28  C   UNL     1       4.122  -1.520  11.650  1.00  0.00     0.031 A 
ATOM     29  C   UNL     1       5.272  -0.701  12.165  1.00  0.00     0.074 A 
ATOM     30  C   UNL     1       4.127  -2.859  11.796  1.00  0.00     0.049 A 
ATOM     31  N   UNL     1       6.358  -1.096  12.781  1.00  0.00    -0.248 NA
ATOM     32  C   UNL     1       5.210   0.751  11.932  1.00  0.00     0.031 C 
ATOM     33  C   UNL     1       3.097  -3.770  11.292  1.00  0.00     0.029 A 
ATOM     34  N   UNL     1       5.034  -3.689  12.406  1.00  0.00    -0.354 N 
ATOM     35  C   UNL     1       7.110   0.052  12.995  1.00  0.00     0.074 A 
ATOM     36  C   UNL     1       6.384   1.151  12.397  1.00  0.00     0.031 C 
ATOM     37  C   UNL     1       3.416  -5.028  11.636  1.00  0.00     0.029 A 
ATOM     38  C   UNL     1       4.687  -5.017  12.353  1.00  0.00     0.049 A 
ATOM     39  H   UNL     1       5.856  -3.363  12.840  1.00  0.00     0.167 HD
ATOM     40  C   UNL     1       8.288   0.182  13.651  1.00  0.00     0.037 A 
ATOM     41  C   UNL     1       5.323  -6.104  12.829  1.00  0.00     0.037 A 
ATOM     42  C   UNL     1       8.995  -0.909  14.269  1.00  0.00     0.049 A 
ATOM     43  C   UNL     1       6.623  -5.931  13.562  1.00  0.00     0.074 A 
ATOM     44  C   UNL     1      10.161  -0.870  15.013  1.00  0.00     0.029 A 
ATOM     45  N   UNL     1       8.601  -2.237  14.212  1.00  0.00    -0.354 N 
ATOM     46  N   UNL     1       7.286  -4.831  13.820  1.00  0.00    -0.248 NA
ATOM     47  C   UNL     1       7.258  -7.152  14.077  1.00  0.00     0.031 C 
ATOM     48  C   UNL     1      10.494  -2.181  15.373  1.00  0.00     0.029 A 
ATOM     49  C   UNL     1       9.512  -3.030  14.891  1.00  0.00     0.049 A 
ATOM     50  H   UNL     1       7.793  -2.568  13.757  1.00  0.00     0.167 HD
ATOM     51  C   UNL     1       8.403  -5.222  14.546  1.00  0.00     0.074 A 
ATOM     52  C   UNL     1       8.317  -6.659  14.703  1.00  0.00     0.031 C 
ATOM     53  C   UNL     1       9.411  -4.460  15.038  1.00  0.00     0.037 A 
BRANCH  40  54
ATOM     54  C   UNL     1       8.881   1.558  13.739  1.00  0.00     0.057 A 
ATOM     55  C   UNL     1       8.310   2.559  14.537  1.00  0.00     0.134 A 
ATOM     56  C   UNL     1      10.054   1.879  13.044  1.00  0.00     0.134 A 
ATOM     57  F   UNL     1       7.180   2.321  15.220  1.00  0.00    -0.206 F 
ATOM     58  C   UNL     1       8.868   3.836  14.619  1.00  0.00     0.040 A 
ATOM     59  C   UNL     1      10.636   3.144  13.138  1.00  0.00     0.040 A 
ATOM     60  F   UNL     1      10.656   0.967  12.266  1.00  0.00    -0.206 F 
ATOM     61  C   UNL     1      10.039   4.129  13.922  1.00  0.00     0.006 A 
ENDBRANCH  40  54
BRANCH  41  62
ATOM     62  C   UNL     1       4.724  -7.450  12.652  1.00  0.00     0.057 A 
ATOM     63  C   UNL     1       4.194  -8.152  13.741  1.00  0.00     0.134 A 
ATOM     64  C   UNL     1       4.670  -8.069  11.397  1.00  0.00     0.134 A 
ATOM     65  F   UNL     1       4.233  -7.618  14.970  1.00  0.00    -0.206 F 
ATOM     66  C   UNL     1       3.650  -9.428  13.593  1.00  0.00     0.040 A 
ATOM     67  C   UNL     1       4.107  -9.335  11.231  1.00  0.00     0.040 A 
ATOM     68  F   UNL     1       5.153  -7.445  10.313  1.00  0.00    -0.206 F 
ATOM     69  C   UNL     1       3.601 -10.022  12.333  1.00  0.00     0.006 A 
ENDBRANCH  41  62
BRANCH  53  70
ATOM     70  C   UNL     1      10.483  -5.166  15.814  1.00  0.00     0.057 A 
ATOM     71  C   UNL     1      11.432  -5.983  15.186  1.00  0.00     0.134 A 
ATOM     72  C   UNL     1      10.583  -5.005  17.201  1.00  0.00     0.134 A 
ATOM     73  F   UNL     1      11.382  -6.189  13.861  1.00  0.00    -0.206 F 
ATOM     74  C   UNL     1      12.427  -6.636  15.915  1.00  0.00     0.040 A 
ATOM     75  C   UNL     1      11.589  -5.632  17.937  1.00  0.00     0.040 A 
ATOM     76  F   UNL     1       9.711  -4.229  17.863  1.00  0.00    -0.206 F 
ATOM     77  C   UNL     1      12.510  -6.457  17.295  1.00  0.00     0.006 A 
ENDBRANCH  53  70
ENDBRANCH  27  28
ENDBRANCH  19  22
ENDBRANCH  17  18
ENDBRANCH   1  17
TORSDOF 11
