REMARK SMILES COc1ccc(-n2c(SCc3cn(-c4ccc(C(=O)NCCCNC(=O)c5ccc(-c6c7nc(c(-c8c(F)cccc8F)c8ccc([nH]8)c(-c8c(F)cccc8F)c8nc(c(-c9c(F)cccc9F)c9ccc6[nH]9)C=C8)C=C7)cc5)cc4)nn3)nc3ccccc3c2=O)cc1
REMARK SMILES IDX 18 1 19 2 20 3 17 5 14 6 15 7 82 8 16 9 81 10 13 11 11 12
REMARK SMILES IDX 12 13 84 14 83 15 10 16 9 17 8 18 7 19 92 20 85 21 91 22
REMARK SMILES IDX 93 23 86 24 90 25 87 26 89 27 88 28 6 29 3 30 4 31 95 32
REMARK SMILES IDX 5 33 94 34 2 35 1 36 21 37 22 38 23 39 24 40 25 41 26 43
REMARK SMILES IDX 27 44 28 45 80 46 29 47 79 48 30 49 31 50 32 51 73 52 33 53
REMARK SMILES IDX 78 54 72 55 74 56 34 57 77 58 71 59 70 60 35 62 61 63 44 64
REMARK SMILES IDX 60 65 45 66 48 67 59 68 75 69 46 70 47 71 58 73 76 74 49 75
REMARK SMILES IDX 36 76 37 77 42 78 38 79 39 80 41 81 43 82 40 83 62 84 63 85
REMARK SMILES IDX 68 86 64 87 65 88 67 89 69 90 66 91 50 92 51 93 56 94 52 95
REMARK SMILES IDX 53 96 55 97 57 98 54 99
REMARK H PARENT 20 4 24 42 74 61 48 72
REMARK Flexibility Score: inf
ROOT
ATOM      1  C   UNL     1      -2.662  -7.788  -3.736  1.00  0.00     0.251 C 
ATOM      2  O   UNL     1      -3.037  -7.716  -4.907  1.00  0.00    -0.269 OA
ATOM      3  N   UNL     1      -3.028  -8.902  -3.020  1.00  0.00    -0.352 N 
ATOM      4  H   UNL     1      -3.614  -9.515  -3.520  1.00  0.00     0.163 HD
ENDROOT
BRANCH   1   5
ATOM      5  C   UNL     1      -1.800  -6.702  -3.190  1.00  0.00     0.039 A 
ATOM      6  C   UNL     1       0.026  -4.786  -2.332  1.00  0.00     0.066 A 
ATOM      7  C   UNL     1      -0.214  -4.911  -3.694  1.00  0.00     0.029 A 
ATOM      8  C   UNL     1      -0.682  -5.538  -1.393  1.00  0.00     0.029 A 
ATOM      9  C   UNL     1      -1.108  -5.896  -4.117  1.00  0.00     0.016 A 
ATOM     10  C   UNL     1      -1.632  -6.451  -1.829  1.00  0.00     0.016 A 
BRANCH   6  11
ATOM     11  N   UNL     1       1.150  -4.086  -1.896  1.00  0.00    -0.220 N 
ATOM     12  C   UNL     1       3.062  -3.663  -0.968  1.00  0.00     0.093 A 
ATOM     13  C   UNL     1       2.155  -4.667  -1.185  1.00  0.00     0.141 A 
ATOM     14  N   UNL     1       2.616  -2.534  -1.611  1.00  0.00    -0.134 NA
ATOM     15  N   UNL     1       1.490  -2.837  -2.253  1.00  0.00    -0.062 NA
BRANCH  12  16
ATOM     16  C   UNL     1       4.346  -3.667  -0.243  1.00  0.00     0.138 C 
BRANCH  16  17
ATOM     17  S   UNL     1       4.896  -5.258   0.371  1.00  0.00    -0.081 SA
BRANCH  17  18
ATOM     18  C   UNL     1       3.467  -6.008   1.129  1.00  0.00     0.176 A 
ATOM     19  N   UNL     1       3.207  -5.568   2.410  1.00  0.00    -0.255 N 
ATOM     20  C   UNL     1       3.515  -6.448   3.437  1.00  0.00     0.266 A 
ATOM     21  N   UNL     1       3.253  -7.251   0.811  1.00  0.00    -0.223 NA
ATOM     22  C   UNL     1       4.299  -7.628   2.965  1.00  0.00     0.066 A 
ATOM     23  O   UNL     1       3.230  -6.327   4.621  1.00  0.00    -0.268 OA
ATOM     24  C   UNL     1       3.995  -8.085   1.671  1.00  0.00     0.079 A 
ATOM     25  C   UNL     1       5.455  -8.060   3.606  1.00  0.00     0.016 A 
ATOM     26  C   UNL     1       4.727  -9.123   1.100  1.00  0.00     0.029 A 
ATOM     27  C   UNL     1       6.269  -8.998   2.961  1.00  0.00     0.001 A 
ATOM     28  C   UNL     1       5.883  -9.563   1.739  1.00  0.00     0.002 A 
BRANCH  19  29
ATOM     29  C   UNL     1       2.333  -4.465   2.570  1.00  0.00     0.052 A 
ATOM     30  C   UNL     1       0.842  -2.183   1.952  1.00  0.00     0.119 A 
ATOM     31  C   UNL     1       0.221  -3.431   1.956  1.00  0.00     0.048 A 
ATOM     32  C   UNL     1       2.156  -2.060   2.400  1.00  0.00     0.048 A 
ATOM     33  C   UNL     1       0.972  -4.579   2.243  1.00  0.00     0.030 A 
ATOM     34  C   UNL     1       2.895  -3.199   2.728  1.00  0.00     0.030 A 
BRANCH  30  35
ATOM     35  O   UNL     1       0.107  -1.099   1.559  1.00  0.00    -0.497 OA
ATOM     36  C   UNL     1       0.683  -0.407   0.443  1.00  0.00     0.278 C 
ENDBRANCH  30  35
ENDBRANCH  19  29
ENDBRANCH  17  18
ENDBRANCH  16  17
ENDBRANCH  12  16
ENDBRANCH   6  11
ENDBRANCH   1   5
BRANCH   3  37
ATOM     37  C   UNL     1      -2.722  -9.359  -1.670  1.00  0.00     0.118 C 
BRANCH  37  38
ATOM     38  C   UNL     1      -3.778  -8.899  -0.651  1.00  0.00     0.042 C 
BRANCH  38  39
ATOM     39  C   UNL     1      -5.006  -9.785  -0.675  1.00  0.00     0.118 C 
BRANCH  39  40
ATOM     40  N   UNL     1      -4.766 -11.125  -0.108  1.00  0.00    -0.352 N 
ATOM     41  C   UNL     1      -5.652 -12.184   0.022  1.00  0.00     0.251 C 
ATOM     42  H   UNL     1      -3.854 -11.290   0.223  1.00  0.00     0.163 HD
ATOM     43  O   UNL     1      -5.421 -13.115   0.798  1.00  0.00    -0.269 OA
BRANCH  41  44
ATOM     44  C   UNL     1      -6.870 -12.184  -0.797  1.00  0.00     0.039 A 
ATOM     45  C   UNL     1      -8.119 -12.651  -0.379  1.00  0.00     0.014 A 
ATOM     46  C   UNL     1      -6.732 -11.591  -2.036  1.00  0.00     0.014 A 
ATOM     47  C   UNL     1      -9.199 -12.483  -1.245  1.00  0.00     0.010 A 
ATOM     48  C   UNL     1      -7.824 -11.018  -2.587  1.00  0.00     0.010 A 
ATOM     49  C   UNL     1      -9.015 -11.670  -2.369  1.00  0.00    -0.014 A 
BRANCH  49  50
ATOM     50  C   UNL     1     -10.001 -11.422  -3.398  1.00  0.00     0.031 A 
ATOM     51  C   UNL     1     -11.194 -10.696  -2.933  1.00  0.00     0.074 A 
ATOM     52  C   UNL     1      -9.701 -11.582  -4.709  1.00  0.00     0.049 A 
ATOM     53  N   UNL     1     -12.376 -11.183  -2.780  1.00  0.00    -0.248 NA
ATOM     54  C   UNL     1     -11.031  -9.332  -2.411  1.00  0.00     0.031 C 
ATOM     55  C   UNL     1      -8.437 -11.996  -5.342  1.00  0.00     0.029 A 
ATOM     56  N   UNL     1     -10.482 -11.297  -5.782  1.00  0.00    -0.354 N 
ATOM     57  C   UNL     1     -13.165 -10.129  -2.342  1.00  0.00     0.074 A 
ATOM     58  C   UNL     1     -12.255  -9.089  -1.935  1.00  0.00     0.031 C 
ATOM     59  C   UNL     1      -8.478 -11.728  -6.667  1.00  0.00     0.029 A 
ATOM     60  C   UNL     1      -9.812 -11.273  -7.002  1.00  0.00     0.049 A 
ATOM     61  H   UNL     1     -11.447 -11.120  -5.704  1.00  0.00     0.167 HD
ATOM     62  C   UNL     1     -14.505 -10.118  -2.578  1.00  0.00     0.037 A 
ATOM     63  C   UNL     1     -10.339 -10.861  -8.182  1.00  0.00     0.037 A 
ATOM     64  C   UNL     1     -14.949 -11.397  -3.081  1.00  0.00     0.049 A 
ATOM     65  C   UNL     1     -11.821 -10.966  -8.044  1.00  0.00     0.074 A 
ATOM     66  C   UNL     1     -14.945 -12.684  -2.579  1.00  0.00     0.029 A 
ATOM     67  N   UNL     1     -15.085 -11.525  -4.445  1.00  0.00    -0.354 N 
ATOM     68  N   UNL     1     -12.441 -12.109  -7.905  1.00  0.00    -0.248 NA
ATOM     69  C   UNL     1     -12.534  -9.808  -7.519  1.00  0.00     0.031 C 
ATOM     70  C   UNL     1     -14.578 -13.507  -3.685  1.00  0.00     0.029 A 
ATOM     71  C   UNL     1     -14.465 -12.694  -4.814  1.00  0.00     0.049 A 
ATOM     72  H   UNL     1     -15.543 -10.894  -5.046  1.00  0.00     0.167 HD
ATOM     73  C   UNL     1     -13.392 -11.886  -6.915  1.00  0.00     0.074 A 
ATOM     74  C   UNL     1     -13.446 -10.431  -6.764  1.00  0.00     0.031 C 
ATOM     75  C   UNL     1     -13.813 -12.893  -6.090  1.00  0.00     0.037 A 
BRANCH  62  76
ATOM     76  C   UNL     1     -15.352  -8.885  -2.707  1.00  0.00     0.057 A 
ATOM     77  C   UNL     1     -16.751  -9.022  -2.725  1.00  0.00     0.134 A 
ATOM     78  C   UNL     1     -14.864  -7.621  -3.091  1.00  0.00     0.134 A 
ATOM     79  F   UNL     1     -17.333 -10.180  -2.378  1.00  0.00    -0.206 F 
ATOM     80  C   UNL     1     -17.596  -8.003  -3.174  1.00  0.00     0.040 A 
ATOM     81  C   UNL     1     -15.703  -6.579  -3.491  1.00  0.00     0.040 A 
ATOM     82  F   UNL     1     -13.556  -7.359  -3.200  1.00  0.00    -0.206 F 
ATOM     83  C   UNL     1     -17.072  -6.779  -3.568  1.00  0.00     0.006 A 
ENDBRANCH  62  76
BRANCH  63  84
ATOM     84  C   UNL     1      -9.659 -10.079  -9.244  1.00  0.00     0.057 A 
ATOM     85  C   UNL     1     -10.218  -9.918 -10.520  1.00  0.00     0.134 A 
ATOM     86  C   UNL     1      -8.554  -9.255  -8.955  1.00  0.00     0.134 A 
ATOM     87  F   UNL     1     -11.300 -10.623 -10.882  1.00  0.00    -0.206 F 
ATOM     88  C   UNL     1      -9.719  -8.985 -11.443  1.00  0.00     0.040 A 
ATOM     89  C   UNL     1      -8.043  -8.325  -9.867  1.00  0.00     0.040 A 
ATOM     90  F   UNL     1      -7.983  -9.261  -7.742  1.00  0.00    -0.206 F 
ATOM     91  C   UNL     1      -8.633  -8.178 -11.114  1.00  0.00     0.006 A 
ENDBRANCH  63  84
BRANCH  75  92
ATOM     92  C   UNL     1     -13.356 -14.297  -6.399  1.00  0.00     0.057 A 
ATOM     93  C   UNL     1     -12.018 -14.719  -6.335  1.00  0.00     0.134 A 
ATOM     94  C   UNL     1     -14.313 -15.296  -6.592  1.00  0.00     0.134 A 
ATOM     95  F   UNL     1     -11.037 -13.863  -6.040  1.00  0.00    -0.206 F 
ATOM     96  C   UNL     1     -11.646 -16.056  -6.504  1.00  0.00     0.040 A 
ATOM     97  C   UNL     1     -13.959 -16.642  -6.731  1.00  0.00     0.040 A 
ATOM     98  F   UNL     1     -15.619 -14.988  -6.594  1.00  0.00    -0.206 F 
ATOM     99  C   UNL     1     -12.621 -17.025  -6.699  1.00  0.00     0.006 A 
ENDBRANCH  75  92
ENDBRANCH  49  50
ENDBRANCH  41  44
ENDBRANCH  39  40
ENDBRANCH  38  39
ENDBRANCH  37  38
ENDBRANCH   3  37
TORSDOF 16
