REMARK SMILES Cc1cc(OC(F)(F)F)cc2c1O[C@H](C(F)(F)F)C(C(=O)NCCCNC(=O)c1ccc(-c3c4nc(c(-c5c(F)cccc5F)c5ccc([nH]5)c(-c5c(F)cccc5F)c5nc(c(-c6c(F)cccc6F)c6ccc3[nH]6)C=C5)C=C4)cc1)=C2
REMARK SMILES IDX 24 1 23 2 22 3 20 4 21 5 19 7 1 8 2 9 3 10 12 11 4 12 11 13
REMARK SMILES IDX 13 14 10 15 83 16 14 17 5 18 6 19 7 20 8 21 9 22 15 23 16 24
REMARK SMILES IDX 17 25 18 26 25 27 26 28 27 29 28 31 29 32 30 33 82 34 31 35
REMARK SMILES IDX 81 36 32 37 33 38 34 39 75 40 35 41 80 42 74 43 76 44 36 45
REMARK SMILES IDX 79 46 73 47 72 48 37 50 63 51 46 52 62 53 47 54 50 55 61 56
REMARK SMILES IDX 77 57 48 58 49 59 60 61 78 62 51 63 38 64 39 65 44 66 40 67
REMARK SMILES IDX 41 68 43 69 45 70 42 71 64 72 65 73 70 74 66 75 67 76 69 77
REMARK SMILES IDX 71 78 68 79 52 80 53 81 58 82 54 83 55 84 57 85 59 86 56 87
REMARK H PARENT 22 6 26 30 76 49 50 60
REMARK Flexibility Score: inf
ROOT
ATOM      1  C   UNL     1      -3.248  -1.667   6.049  1.00  0.00     0.042 C 
ENDROOT
BRANCH   1   2
ATOM      2  C   UNL     1      -3.963  -0.802   5.021  1.00  0.00     0.118 C 
BRANCH   2   3
ATOM      3  N   UNL     1      -3.785   0.616   5.295  1.00  0.00    -0.352 N 
ATOM      4  C   UNL     1      -3.067   1.645   4.791  1.00  0.00     0.251 C 
ATOM      5  O   UNL     1      -3.213   2.721   5.380  1.00  0.00    -0.270 OA
ATOM      6  H   UNL     1      -4.340   0.906   6.056  1.00  0.00     0.163 HD
BRANCH   4   7
ATOM      7  C   UNL     1      -2.149   1.562   3.620  1.00  0.00     0.067 C 
ATOM      8  C   UNL     1       1.063   0.134  -0.156  1.00  0.00     0.048 C 
ATOM      9  C   UNL     1       0.661   1.426   0.498  1.00  0.00    -0.005 A 
ATOM     10  C   UNL     1       1.156   2.634  -0.022  1.00  0.00     0.054 A 
ATOM     11  C   UNL     1      -0.228   1.470   1.578  1.00  0.00     0.131 A 
ATOM     12  C   UNL     1       0.793   3.860   0.542  1.00  0.00     0.130 A 
ATOM     13  C   UNL     1      -0.597   2.688   2.154  1.00  0.00     0.021 A 
ATOM     14  O   UNL     1      -0.684   0.281   2.077  1.00  0.00    -0.475 OA
ATOM     15  C   UNL     1      -0.082   3.878   1.633  1.00  0.00     0.058 A 
ATOM     16  C   UNL     1      -1.490   2.694   3.307  1.00  0.00     0.025 C 
ATOM     17  C   UNL     1      -1.954   0.334   2.781  1.00  0.00     0.314 C 
BRANCH  12  18
ATOM     18  O   UNL     1       1.211   5.094   0.133  1.00  0.00    -0.406 OA
BRANCH  18  19
ATOM     19  C   UNL     1       2.139   5.156  -0.937  1.00  0.00     0.573 C 
ATOM     20  F   UNL     1       3.279   4.499  -0.633  1.00  0.00    -0.132 F 
ATOM     21  F   UNL     1       1.611   4.644  -2.069  1.00  0.00    -0.132 F 
ATOM     22  F   UNL     1       2.451   6.451  -1.167  1.00  0.00    -0.132 F 
ENDBRANCH  18  19
ENDBRANCH  12  18
BRANCH  17  23
ATOM     23  C   UNL     1      -3.106   0.101   1.784  1.00  0.00     0.429 C 
ATOM     24  F   UNL     1      -3.072  -1.171   1.314  1.00  0.00    -0.167 F 
ATOM     25  F   UNL     1      -4.324   0.267   2.353  1.00  0.00    -0.167 F 
ATOM     26  F   UNL     1      -3.056   0.929   0.718  1.00  0.00    -0.167 F 
ENDBRANCH  17  23
ENDBRANCH   4   7
ENDBRANCH   2   3
ENDBRANCH   1   2
BRANCH   1  27
ATOM     27  C   UNL     1      -4.034  -1.769   7.351  1.00  0.00     0.118 C 
BRANCH  27  28
ATOM     28  N   UNL     1      -5.260  -2.544   7.177  1.00  0.00    -0.352 N 
ATOM     29  C   UNL     1      -5.525  -3.846   7.521  1.00  0.00     0.251 C 
ATOM     30  H   UNL     1      -6.005  -2.062   6.750  1.00  0.00     0.163 HD
ATOM     31  O   UNL     1      -6.500  -4.426   7.054  1.00  0.00    -0.269 OA
BRANCH  29  32
ATOM     32  C   UNL     1      -4.625  -4.546   8.455  1.00  0.00     0.039 A 
ATOM     33  C   UNL     1      -4.201  -5.844   8.161  1.00  0.00     0.014 A 
ATOM     34  C   UNL     1      -4.213  -3.913   9.630  1.00  0.00     0.014 A 
ATOM     35  C   UNL     1      -3.305  -6.482   9.019  1.00  0.00     0.010 A 
ATOM     36  C   UNL     1      -3.264  -4.518  10.442  1.00  0.00     0.010 A 
ATOM     37  C   UNL     1      -2.810  -5.811  10.149  1.00  0.00    -0.014 A 
BRANCH  37  38
ATOM     38  C   UNL     1      -1.839  -6.456  11.062  1.00  0.00     0.031 A 
ATOM     39  C   UNL     1      -2.251  -6.796  12.465  1.00  0.00     0.074 A 
ATOM     40  C   UNL     1      -0.577  -6.671  10.647  1.00  0.00     0.049 A 
ATOM     41  N   UNL     1      -1.543  -7.322  13.431  1.00  0.00    -0.248 NA
ATOM     42  C   UNL     1      -3.638  -6.476  12.841  1.00  0.00     0.031 C 
ATOM     43  C   UNL     1      -0.047  -6.331   9.325  1.00  0.00     0.029 A 
ATOM     44  N   UNL     1       0.493  -7.221  11.303  1.00  0.00    -0.354 N 
ATOM     45  C   UNL     1      -2.395  -7.392  14.525  1.00  0.00     0.074 A 
ATOM     46  C   UNL     1      -3.650  -6.794  14.126  1.00  0.00     0.031 C 
ATOM     47  C   UNL     1       1.243  -6.701   9.261  1.00  0.00     0.029 A 
ATOM     48  C   UNL     1       1.634  -7.282  10.541  1.00  0.00     0.049 A 
ATOM     49  H   UNL     1       0.448  -7.543  12.233  1.00  0.00     0.167 HD
ATOM     50  C   UNL     1      -2.164  -7.934  15.744  1.00  0.00     0.037 A 
ATOM     51  C   UNL     1       2.854  -7.758  10.847  1.00  0.00     0.037 A 
ATOM     52  C   UNL     1      -0.919  -8.539  16.134  1.00  0.00     0.049 A 
ATOM     53  C   UNL     1       3.088  -8.345  12.210  1.00  0.00     0.074 A 
ATOM     54  C   UNL     1      -0.593  -9.161  17.326  1.00  0.00     0.029 A 
ATOM     55  N   UNL     1       0.211  -8.594  15.331  1.00  0.00    -0.354 N 
ATOM     56  N   UNL     1       2.252  -8.473  13.213  1.00  0.00    -0.248 NA
ATOM     57  C   UNL     1       4.436  -8.864  12.480  1.00  0.00     0.031 C 
ATOM     58  C   UNL     1       0.746  -9.564  17.255  1.00  0.00     0.029 A 
ATOM     59  C   UNL     1       1.242  -9.225  16.006  1.00  0.00     0.049 A 
ATOM     60  H   UNL     1       0.271  -8.236  14.415  1.00  0.00     0.167 HD
ATOM     61  C   UNL     1       2.963  -9.109  14.222  1.00  0.00     0.074 A 
ATOM     62  C   UNL     1       4.294  -9.356  13.702  1.00  0.00     0.031 C 
ATOM     63  C   UNL     1       2.557  -9.457  15.467  1.00  0.00     0.037 A 
BRANCH  50  64
ATOM     64  C   UNL     1      -3.296  -7.900  16.728  1.00  0.00     0.057 A 
ATOM     65  C   UNL     1      -3.253  -7.061  17.847  1.00  0.00     0.134 A 
ATOM     66  C   UNL     1      -4.439  -8.694  16.558  1.00  0.00     0.134 A 
ATOM     67  F   UNL     1      -2.189  -6.276  18.070  1.00  0.00    -0.206 F 
ATOM     68  C   UNL     1      -4.310  -7.006  18.758  1.00  0.00     0.040 A 
ATOM     69  C   UNL     1      -5.513  -8.629  17.448  1.00  0.00     0.040 A 
ATOM     70  F   UNL     1      -4.551  -9.506  15.496  1.00  0.00    -0.206 F 
ATOM     71  C   UNL     1      -5.448  -7.785  18.554  1.00  0.00     0.006 A 
ENDBRANCH  50  64
BRANCH  51  72
ATOM     72  C   UNL     1       3.940  -7.740   9.837  1.00  0.00     0.057 A 
ATOM     73  C   UNL     1       4.575  -6.551   9.461  1.00  0.00     0.134 A 
ATOM     74  C   UNL     1       4.388  -8.928   9.245  1.00  0.00     0.134 A 
ATOM     75  F   UNL     1       4.186  -5.381   9.986  1.00  0.00    -0.206 F 
ATOM     76  C   UNL     1       5.620  -6.544   8.536  1.00  0.00     0.040 A 
ATOM     77  C   UNL     1       5.446  -8.938   8.335  1.00  0.00     0.040 A 
ATOM     78  F   UNL     1       3.830 -10.100   9.580  1.00  0.00    -0.206 F 
ATOM     79  C   UNL     1       6.064  -7.741   7.977  1.00  0.00     0.006 A 
ENDBRANCH  51  72
BRANCH  63  80
ATOM     80  C   UNL     1       3.559 -10.163  16.330  1.00  0.00     0.057 A 
ATOM     81  C   UNL     1       3.430 -11.530  16.601  1.00  0.00     0.134 A 
ATOM     82  C   UNL     1       4.650  -9.489  16.894  1.00  0.00     0.134 A 
ATOM     83  F   UNL     1       2.404 -12.232  16.096  1.00  0.00    -0.206 F 
ATOM     84  C   UNL     1       4.354 -12.205  17.400  1.00  0.00     0.040 A 
ATOM     85  C   UNL     1       5.595 -10.158  17.673  1.00  0.00     0.040 A 
ATOM     86  F   UNL     1       4.838  -8.182  16.657  1.00  0.00    -0.206 F 
ATOM     87  C   UNL     1       5.445 -11.520  17.931  1.00  0.00     0.006 A 
ENDBRANCH  63  80
ENDBRANCH  37  38
ENDBRANCH  29  32
ENDBRANCH  27  28
ENDBRANCH   1  27
TORSDOF 13
