REMARK SMILES CCOc1cccc(OCC)c1-c1ccc([C@@H](C)C(=O)NCCCNC(=O)c2ccc(-c3c4nc(c(-c5c(F)cccc5F)c5ccc([nH]5)c(-c5c(F)cccc5F)c5nc(c(-c6c(F)cccc6F)c6ccc3[nH]6)C=C5)C=C4)cc2)cc1F
REMARK SMILES IDX 22 1 21 2 19 3 20 4 17 6 18 7 16 8 13 9 14 10 83 11 15 12
REMARK SMILES IDX 82 13 84 14 12 15 4 16 5 17 6 18 8 19 7 20 3 21 2 22 1 23
REMARK SMILES IDX 9 24 10 25 11 26 23 27 24 28 25 29 26 30 27 32 28 33 29 34
REMARK SMILES IDX 81 35 30 36 80 37 31 38 32 39 33 40 74 41 34 42 79 43 73 44
REMARK SMILES IDX 75 45 35 46 78 47 72 48 71 49 36 51 62 52 45 53 61 54 46 55
REMARK SMILES IDX 49 56 60 57 76 58 47 59 48 60 59 62 77 63 50 64 37 65 38 66
REMARK SMILES IDX 43 67 39 68 40 69 42 70 44 71 41 72 63 73 64 74 69 75 65 76
REMARK SMILES IDX 66 77 68 78 70 79 67 80 51 81 52 82 57 83 53 84 54 85 56 86
REMARK SMILES IDX 58 87 55 88
REMARK H PARENT 21 5 25 31 75 50 49 61
REMARK Flexibility Score: inf
ROOT
ATOM      1  C   UNL     1       1.872  -4.785  -1.503  1.00  0.00     0.117 C 
ENDROOT
BRANCH   1   2
ATOM      2  N   UNL     1       0.506  -4.298  -1.614  1.00  0.00    -0.356 N 
ATOM      3  C   UNL     1      -0.082  -3.258  -2.271  1.00  0.00     0.227 C 
ATOM      4  O   UNL     1      -1.298  -3.131  -2.068  1.00  0.00    -0.274 OA
ATOM      5  H   UNL     1      -0.137  -4.838  -1.100  1.00  0.00     0.163 HD
BRANCH   3   6
ATOM      6  C   UNL     1       0.638  -2.254  -3.201  1.00  0.00     0.105 C 
ATOM      7  C   UNL     1       1.474  -2.881  -4.311  1.00  0.00     0.023 C 
BRANCH   6   8
ATOM      8  C   UNL     1       1.351  -1.144  -2.448  1.00  0.00    -0.033 A 
ATOM      9  C   UNL     1       2.516   0.815  -0.741  1.00  0.00     0.025 A 
ATOM     10  C   UNL     1       2.919  -0.519  -0.712  1.00  0.00     0.012 A 
ATOM     11  C   UNL     1       1.523   1.156  -1.669  1.00  0.00     0.131 A 
ATOM     12  C   UNL     1       2.436  -1.437  -1.634  1.00  0.00     0.005 A 
ATOM     13  C   UNL     1       0.915   0.187  -2.482  1.00  0.00     0.044 A 
ATOM     14  F   UNL     1       1.086   2.422  -1.760  1.00  0.00    -0.206 F 
BRANCH   9  15
ATOM     15  C   UNL     1       3.050   1.739   0.275  1.00  0.00     0.069 A 
ATOM     16  C   UNL     1       2.140   2.198   1.271  1.00  0.00     0.130 A 
ATOM     17  C   UNL     1       2.536   3.005   2.341  1.00  0.00     0.047 A 
ATOM     18  C   UNL     1       3.868   3.358   2.466  1.00  0.00     0.008 A 
ATOM     19  C   UNL     1       4.404   2.125   0.409  1.00  0.00     0.130 A 
ATOM     20  C   UNL     1       4.782   2.929   1.506  1.00  0.00     0.047 A 
BRANCH  16  21
ATOM     21  O   UNL     1       0.799   1.915   1.143  1.00  0.00    -0.493 OA
BRANCH  21  22
ATOM     22  C   UNL     1       0.331   0.948   2.087  1.00  0.00     0.226 C 
ATOM     23  C   UNL     1      -0.302  -0.205   1.325  1.00  0.00     0.049 C 
ENDBRANCH  21  22
ENDBRANCH  16  21
BRANCH  19  24
ATOM     24  O   UNL     1       5.501   1.899  -0.379  1.00  0.00    -0.493 OA
BRANCH  24  25
ATOM     25  C   UNL     1       5.593   0.905  -1.385  1.00  0.00     0.226 C 
ATOM     26  C   UNL     1       6.130  -0.395  -0.800  1.00  0.00     0.049 C 
ENDBRANCH  24  25
ENDBRANCH  19  24
ENDBRANCH   9  15
ENDBRANCH   6   8
ENDBRANCH   3   6
ENDBRANCH   1   2
BRANCH   1  27
ATOM     27  C   UNL     1       2.535  -4.365  -0.185  1.00  0.00     0.042 C 
BRANCH  27  28
ATOM     28  C   UNL     1       2.317  -5.304   0.990  1.00  0.00     0.118 C 
BRANCH  28  29
ATOM     29  N   UNL     1       3.095  -6.527   0.871  1.00  0.00    -0.352 N 
ATOM     30  C   UNL     1       4.074  -7.058   1.668  1.00  0.00     0.251 C 
ATOM     31  H   UNL     1       2.879  -7.069   0.078  1.00  0.00     0.163 HD
ATOM     32  O   UNL     1       4.712  -8.021   1.235  1.00  0.00    -0.269 OA
BRANCH  30  33
ATOM     33  C   UNL     1       4.399  -6.525   3.016  1.00  0.00     0.039 A 
ATOM     34  C   UNL     1       5.713  -6.673   3.484  1.00  0.00     0.014 A 
ATOM     35  C   UNL     1       3.437  -5.975   3.869  1.00  0.00     0.014 A 
ATOM     36  C   UNL     1       6.059  -6.261   4.775  1.00  0.00     0.010 A 
ATOM     37  C   UNL     1       3.803  -5.484   5.126  1.00  0.00     0.010 A 
ATOM     38  C   UNL     1       5.109  -5.649   5.606  1.00  0.00    -0.014 A 
BRANCH  38  39
ATOM     39  C   UNL     1       5.460  -5.232   6.990  1.00  0.00     0.031 A 
ATOM     40  C   UNL     1       4.797  -5.888   8.174  1.00  0.00     0.074 A 
ATOM     41  C   UNL     1       6.352  -4.243   7.190  1.00  0.00     0.049 A 
ATOM     42  N   UNL     1       4.958  -5.649   9.452  1.00  0.00    -0.248 NA
ATOM     43  C   UNL     1       3.801  -6.932   7.883  1.00  0.00     0.031 C 
ATOM     44  C   UNL     1       7.027  -3.487   6.134  1.00  0.00     0.029 A 
ATOM     45  N   UNL     1       6.841  -3.700   8.352  1.00  0.00    -0.354 N 
ATOM     46  C   UNL     1       4.070  -6.491  10.111  1.00  0.00     0.074 A 
ATOM     47  C   UNL     1       3.339  -7.212   9.092  1.00  0.00     0.031 C 
ATOM     48  C   UNL     1       7.859  -2.595   6.696  1.00  0.00     0.029 A 
ATOM     49  C   UNL     1       7.759  -2.698   8.149  1.00  0.00     0.049 A 
ATOM     50  H   UNL     1       6.561  -4.001   9.247  1.00  0.00     0.167 HD
ATOM     51  C   UNL     1       3.894  -6.668  11.443  1.00  0.00     0.037 A 
ATOM     52  C   UNL     1       8.445  -1.949   9.032  1.00  0.00     0.037 A 
ATOM     53  C   UNL     1       4.650  -5.984  12.459  1.00  0.00     0.049 A 
ATOM     54  C   UNL     1       8.265  -2.192  10.505  1.00  0.00     0.074 A 
ATOM     55  C   UNL     1       4.599  -6.151  13.832  1.00  0.00     0.029 A 
ATOM     56  N   UNL     1       5.598  -5.003  12.210  1.00  0.00    -0.354 N 
ATOM     57  N   UNL     1       7.477  -3.046  11.111  1.00  0.00    -0.248 NA
ATOM     58  C   UNL     1       9.082  -1.377  11.415  1.00  0.00     0.031 C 
ATOM     59  C   UNL     1       5.491  -5.244  14.416  1.00  0.00     0.029 A 
ATOM     60  C   UNL     1       6.127  -4.543  13.404  1.00  0.00     0.049 A 
ATOM     61  H   UNL     1       5.857  -4.681  11.316  1.00  0.00     0.167 HD
ATOM     62  C   UNL     1       7.717  -2.888  12.469  1.00  0.00     0.074 A 
ATOM     63  C   UNL     1       8.738  -1.868  12.598  1.00  0.00     0.031 C 
ATOM     64  C   UNL     1       7.144  -3.529  13.517  1.00  0.00     0.037 A 
BRANCH  51  65
ATOM     65  C   UNL     1       2.840  -7.646  11.877  1.00  0.00     0.057 A 
ATOM     66  C   UNL     1       2.998  -9.028  11.708  1.00  0.00     0.134 A 
ATOM     67  C   UNL     1       1.664  -7.203  12.496  1.00  0.00     0.134 A 
ATOM     68  F   UNL     1       4.095  -9.520  11.112  1.00  0.00    -0.206 F 
ATOM     69  C   UNL     1       2.011  -9.931  12.109  1.00  0.00     0.040 A 
ATOM     70  C   UNL     1       0.682  -8.097  12.926  1.00  0.00     0.040 A 
ATOM     71  F   UNL     1       1.452  -5.893  12.696  1.00  0.00    -0.206 F 
ATOM     72  C   UNL     1       0.851  -9.466  12.725  1.00  0.00     0.006 A 
ENDBRANCH  51  65
BRANCH  52  73
ATOM     73  C   UNL     1       9.397  -0.920   8.544  1.00  0.00     0.057 A 
ATOM     74  C   UNL     1      10.780  -1.105   8.653  1.00  0.00     0.134 A 
ATOM     75  C   UNL     1       8.948   0.266   7.950  1.00  0.00     0.134 A 
ATOM     76  F   UNL     1      11.268  -2.213   9.229  1.00  0.00    -0.206 F 
ATOM     77  C   UNL     1      11.684  -0.141   8.204  1.00  0.00     0.040 A 
ATOM     78  C   UNL     1       9.841   1.228   7.476  1.00  0.00     0.040 A 
ATOM     79  F   UNL     1       7.635   0.498   7.809  1.00  0.00    -0.206 F 
ATOM     80  C   UNL     1      11.214   1.028   7.608  1.00  0.00     0.006 A 
ENDBRANCH  52  73
BRANCH  64  81
ATOM     81  C   UNL     1       7.627  -3.166  14.889  1.00  0.00     0.057 A 
ATOM     82  C   UNL     1       7.291  -1.946  15.491  1.00  0.00     0.134 A 
ATOM     83  C   UNL     1       8.412  -4.059  15.629  1.00  0.00     0.134 A 
ATOM     84  F   UNL     1       6.552  -1.043  14.830  1.00  0.00    -0.206 F 
ATOM     85  C   UNL     1       7.741  -1.618  16.771  1.00  0.00     0.040 A 
ATOM     86  C   UNL     1       8.848  -3.752  16.919  1.00  0.00     0.040 A 
ATOM     87  F   UNL     1       8.762  -5.247  15.113  1.00  0.00    -0.206 F 
ATOM     88  C   UNL     1       8.517  -2.525  17.491  1.00  0.00     0.006 A 
ENDBRANCH  64  81
ENDBRANCH  38  39
ENDBRANCH  30  33
ENDBRANCH  28  29
ENDBRANCH  27  28
ENDBRANCH   1  27
TORSDOF 16
