REMARK SMILES Cc1ccc(OCC(=O)NC(=S)Nc2ccc(C(=O)NCCCNC(=O)c3ccc(-c4c5nc(c(-c6c(F)cccc6F)c6ccc([nH]6)c(-c6c(F)cccc6F)c6nc(c(-c7c(F)cccc7F)c7ccc4[nH]7)C=C6)C=C5)cc3)cc2)cc1
REMARK SMILES IDX 18 1 19 2 20 3 17 5 14 6 15 7 82 8 16 9 81 10 13 11 11 13
REMARK SMILES IDX 12 14 10 15 8 16 9 17 7 19 6 20 5 21 1 22 2 23 3 24 84 25
REMARK SMILES IDX 4 26 83 27 21 28 22 29 23 30 24 31 25 32 26 34 27 35 28 36
REMARK SMILES IDX 80 37 29 38 79 39 30 40 31 41 32 42 73 43 33 44 78 45 72 46
REMARK SMILES IDX 74 47 34 48 77 49 71 50 70 51 35 53 61 54 44 55 60 56 45 57
REMARK SMILES IDX 48 58 59 59 75 60 46 61 47 62 58 64 76 65 49 66 36 67 37 68
REMARK SMILES IDX 42 69 38 70 39 71 41 72 43 73 40 74 62 75 63 76 68 77 64 78
REMARK SMILES IDX 65 79 67 80 69 81 66 82 50 83 51 84 56 85 52 86 53 87 55 88
REMARK SMILES IDX 57 89 54 90
REMARK H PARENT 20 4 13 12 10 18 24 33 74 52 48 63
REMARK Flexibility Score: inf
ROOT
ATOM      1  C   UNL     1      -4.095   1.725  -3.870  1.00  0.00     0.251 C 
ATOM      2  O   UNL     1      -4.851   1.731  -4.835  1.00  0.00    -0.269 OA
ATOM      3  N   UNL     1      -2.935   2.469  -3.878  1.00  0.00    -0.352 N 
ATOM      4  H   UNL     1      -2.712   2.897  -4.736  1.00  0.00     0.163 HD
ENDROOT
BRANCH   1   5
ATOM      5  C   UNL     1      -4.456   0.950  -2.667  1.00  0.00     0.039 A 
ATOM      6  C   UNL     1      -4.983  -0.285  -0.235  1.00  0.00     0.040 A 
ATOM      7  C   UNL     1      -3.951  -0.761  -1.046  1.00  0.00     0.027 A 
ATOM      8  C   UNL     1      -5.845   0.711  -0.702  1.00  0.00     0.027 A 
ATOM      9  C   UNL     1      -3.661  -0.119  -2.248  1.00  0.00     0.016 A 
ATOM     10  C   UNL     1      -5.596   1.311  -1.941  1.00  0.00     0.016 A 
BRANCH   6  11
ATOM     11  N   UNL     1      -5.096  -0.844   1.039  1.00  0.00    -0.332 N 
ATOM     12  H   UNL     1      -4.937  -1.814   1.083  1.00  0.00     0.169 HD
BRANCH  11  13
ATOM     13  C   UNL     1      -5.387  -0.260   2.218  1.00  0.00     0.177 C 
ATOM     14  S   UNL     1      -6.103  -1.190   3.413  1.00  0.00    -0.040 S 
BRANCH  13  15
ATOM     15  N   UNL     1      -5.070   1.038   2.527  1.00  0.00    -0.300 N 
ATOM     16  C   UNL     1      -4.220   2.063   2.131  1.00  0.00     0.264 C 
ATOM     17  O   UNL     1      -4.392   3.173   2.651  1.00  0.00    -0.271 OA
ATOM     18  H   UNL     1      -5.629   1.345   3.277  1.00  0.00     0.172 HD
BRANCH  16  19
ATOM     19  C   UNL     1      -3.089   1.861   1.133  1.00  0.00     0.329 C 
BRANCH  19  20
ATOM     20  O   UNL     1      -2.343   0.689   1.410  1.00  0.00    -0.484 OA
BRANCH  20  21
ATOM     21  C   UNL     1      -1.049   0.620   0.977  1.00  0.00     0.120 A 
ATOM     22  C   UNL     1       3.057  -0.096  -0.168  1.00  0.00     0.044 C 
ATOM     23  C   UNL     1       1.629   0.163   0.213  1.00  0.00    -0.051 A 
ATOM     24  C   UNL     1       0.747  -0.908   0.382  1.00  0.00     0.007 A 
ATOM     25  C   UNL     1       1.163   1.462   0.441  1.00  0.00     0.007 A 
ATOM     26  C   UNL     1      -0.575  -0.678   0.768  1.00  0.00     0.047 A 
ATOM     27  C   UNL     1      -0.170   1.691   0.817  1.00  0.00     0.047 A 
ENDBRANCH  20  21
ENDBRANCH  19  20
ENDBRANCH  16  19
ENDBRANCH  13  15
ENDBRANCH  11  13
ENDBRANCH   6  11
ENDBRANCH   1   5
BRANCH   3  28
ATOM     28  C   UNL     1      -1.992   2.710  -2.793  1.00  0.00     0.118 C 
BRANCH  28  29
ATOM     29  C   UNL     1      -0.770   1.805  -2.879  1.00  0.00     0.042 C 
BRANCH  29  30
ATOM     30  C   UNL     1       0.347   2.355  -3.755  1.00  0.00     0.118 C 
BRANCH  30  31
ATOM     31  N   UNL     1       1.466   2.943  -3.016  1.00  0.00    -0.352 N 
ATOM     32  C   UNL     1       2.651   3.476  -3.516  1.00  0.00     0.251 C 
ATOM     33  H   UNL     1       1.368   2.965  -2.036  1.00  0.00     0.163 HD
ATOM     34  O   UNL     1       3.465   3.998  -2.784  1.00  0.00    -0.269 OA
BRANCH  32  35
ATOM     35  C   UNL     1       2.827   3.497  -4.989  1.00  0.00     0.039 A 
ATOM     36  C   UNL     1       2.980   4.740  -5.609  1.00  0.00     0.014 A 
ATOM     37  C   UNL     1       2.526   2.362  -5.733  1.00  0.00     0.014 A 
ATOM     38  C   UNL     1       2.536   4.893  -6.919  1.00  0.00     0.010 A 
ATOM     39  C   UNL     1       1.982   2.534  -6.989  1.00  0.00     0.010 A 
ATOM     40  C   UNL     1       1.911   3.815  -7.547  1.00  0.00    -0.014 A 
BRANCH  40  41
ATOM     41  C   UNL     1       1.044   3.971  -8.711  1.00  0.00     0.031 A 
ATOM     42  C   UNL     1       1.480   3.509 -10.041  1.00  0.00     0.074 A 
ATOM     43  C   UNL     1      -0.200   4.481  -8.557  1.00  0.00     0.049 A 
ATOM     44  N   UNL     1       0.994   3.944 -11.154  1.00  0.00    -0.248 NA
ATOM     45  C   UNL     1       2.539   2.526 -10.220  1.00  0.00     0.031 C 
ATOM     46  C   UNL     1      -1.282   4.498  -9.539  1.00  0.00     0.029 A 
ATOM     47  N   UNL     1      -0.660   5.308  -7.522  1.00  0.00    -0.354 N 
ATOM     48  C   UNL     1       1.472   3.147 -12.166  1.00  0.00     0.074 A 
ATOM     49  C   UNL     1       2.466   2.306 -11.536  1.00  0.00     0.031 C 
ATOM     50  C   UNL     1      -2.118   5.504  -9.239  1.00  0.00     0.029 A 
ATOM     51  C   UNL     1      -1.531   6.241  -8.136  1.00  0.00     0.049 A 
ATOM     52  H   UNL     1      -0.427   5.250  -6.567  1.00  0.00     0.167 HD
ATOM     53  C   UNL     1       0.897   3.218 -13.402  1.00  0.00     0.037 A 
ATOM     54  C   UNL     1      -1.228   7.571  -8.143  1.00  0.00     0.037 A 
ATOM     55  C   UNL     1      -0.129   4.259 -13.460  1.00  0.00     0.049 A 
ATOM     56  C   UNL     1      -1.007   8.162  -9.520  1.00  0.00     0.074 A 
ATOM     57  C   UNL     1      -1.513   4.271 -13.382  1.00  0.00     0.029 A 
ATOM     58  N   UNL     1       0.265   5.578 -13.333  1.00  0.00    -0.354 N 
ATOM     59  N   UNL     1      -1.083   7.491 -10.637  1.00  0.00    -0.248 NA
ATOM     60  C   UNL     1      -0.582   9.547  -9.735  1.00  0.00     0.031 C 
ATOM     61  C   UNL     1      -1.940   5.619 -13.200  1.00  0.00     0.029 A 
ATOM     62  C   UNL     1      -0.815   6.423 -13.172  1.00  0.00     0.049 A 
ATOM     63  H   UNL     1       1.202   5.879 -13.354  1.00  0.00     0.167 HD
ATOM     64  C   UNL     1      -0.676   8.288 -11.675  1.00  0.00     0.074 A 
ATOM     65  C   UNL     1      -0.380   9.569 -11.062  1.00  0.00     0.031 C 
ATOM     66  C   UNL     1      -0.562   7.837 -12.958  1.00  0.00     0.037 A 
BRANCH  53  67
ATOM     67  C   UNL     1       1.114   2.196 -14.494  1.00  0.00     0.057 A 
ATOM     68  C   UNL     1       0.108   1.929 -15.444  1.00  0.00     0.134 A 
ATOM     69  C   UNL     1       2.270   1.412 -14.646  1.00  0.00     0.134 A 
ATOM     70  F   UNL     1      -1.008   2.666 -15.515  1.00  0.00    -0.206 F 
ATOM     71  C   UNL     1       0.195   0.886 -16.375  1.00  0.00     0.040 A 
ATOM     72  C   UNL     1       2.348   0.326 -15.530  1.00  0.00     0.040 A 
ATOM     73  F   UNL     1       3.404   1.700 -13.994  1.00  0.00    -0.206 F 
ATOM     74  C   UNL     1       1.298   0.049 -16.391  1.00  0.00     0.006 A 
ENDBRANCH  53  67
BRANCH  54  75
ATOM     75  C   UNL     1      -0.541   8.003  -6.897  1.00  0.00     0.057 A 
ATOM     76  C   UNL     1      -1.231   7.886  -5.676  1.00  0.00     0.134 A 
ATOM     77  C   UNL     1       0.846   8.152  -6.832  1.00  0.00     0.134 A 
ATOM     78  F   UNL     1      -2.567   7.744  -5.667  1.00  0.00    -0.206 F 
ATOM     79  C   UNL     1      -0.561   7.790  -4.455  1.00  0.00     0.040 A 
ATOM     80  C   UNL     1       1.526   8.076  -5.612  1.00  0.00     0.040 A 
ATOM     81  F   UNL     1       1.576   8.249  -7.952  1.00  0.00    -0.206 F 
ATOM     82  C   UNL     1       0.828   7.848  -4.427  1.00  0.00     0.006 A 
ENDBRANCH  54  75
BRANCH  66  83
ATOM     83  C   UNL     1      -0.168   8.715 -14.113  1.00  0.00     0.057 A 
ATOM     84  C   UNL     1      -0.707   9.995 -14.303  1.00  0.00     0.134 A 
ATOM     85  C   UNL     1       0.677   8.253 -15.142  1.00  0.00     0.134 A 
ATOM     86  F   UNL     1      -1.583  10.512 -13.428  1.00  0.00    -0.206 F 
ATOM     87  C   UNL     1      -0.383  10.786 -15.412  1.00  0.00     0.040 A 
ATOM     88  C   UNL     1       0.969   9.013 -16.277  1.00  0.00     0.040 A 
ATOM     89  F   UNL     1       1.273   7.054 -15.080  1.00  0.00    -0.206 F 
ATOM     90  C   UNL     1       0.450  10.292 -16.409  1.00  0.00     0.006 A 
ENDBRANCH  66  83
ENDBRANCH  40  41
ENDBRANCH  32  35
ENDBRANCH  30  31
ENDBRANCH  29  30
ENDBRANCH  28  29
ENDBRANCH   3  28
TORSDOF 16
