REMARK SMILES COc1cc([C@H]2c3c(-c4ccccc4)n[nH]c3C(=O)N2c2ccc(C(=O)NCCCNC(=O)c3ccc(-c4c5nc(c(-c6c(F)cccc6F)c6ccc([nH]6)c(-c6c(F)cccc6F)c6nc(c(-c7c(F)cccc7F)c7ccc4[nH]7)C=C6)C=C5)cc3)cc2)ccc1O
REMARK SMILES IDX 28 1 27 2 25 3 26 4 24 6 21 7 22 8 89 9 23 10 88 11 20 12
REMARK SMILES IDX 6 13 7 14 8 15 17 16 18 17 15 18 16 19 19 20 5 22 3 23 4 24
REMARK SMILES IDX 92 25 91 26 90 27 2 28 1 29 93 30 9 32 10 33 14 34 11 35
REMARK SMILES IDX 13 36 12 37 29 38 30 39 31 40 32 41 33 43 34 44 35 45 87 46
REMARK SMILES IDX 36 47 86 48 37 49 38 50 39 51 80 52 40 53 85 54 79 55 81 56
REMARK SMILES IDX 41 57 84 58 78 59 77 60 42 62 68 63 51 64 67 65 52 66 55 67
REMARK SMILES IDX 66 68 82 69 53 70 54 71 65 73 83 74 56 75 43 76 44 77 49 78
REMARK SMILES IDX 45 79 46 80 48 81 50 82 47 83 69 84 70 85 75 86 71 87 72 88
REMARK SMILES IDX 74 89 76 90 73 91 57 92 58 93 63 94 59 95 60 96 62 97 64 98
REMARK SMILES IDX 61 99
REMARK H PARENT 27 5 16 21 93 31 31 42 81 61 55 72
REMARK Flexibility Score: inf
ROOT
ATOM      1  C   UNL     1       4.904   0.235   7.725  1.00  0.00     0.118 C 
ENDROOT
BRANCH   1   2
ATOM      2  N   UNL     1       5.855  -0.864   7.639  1.00  0.00    -0.352 N 
ATOM      3  C   UNL     1       5.709  -2.177   7.259  1.00  0.00     0.251 C 
ATOM      4  O   UNL     1       6.725  -2.869   7.198  1.00  0.00    -0.269 OA
ATOM      5  H   UNL     1       6.773  -0.621   7.901  1.00  0.00     0.163 HD
BRANCH   3   6
ATOM      6  C   UNL     1       4.395  -2.776   6.881  1.00  0.00     0.039 A 
ATOM      7  C   UNL     1       1.988  -3.934   6.012  1.00  0.00     0.045 A 
ATOM      8  C   UNL     1       3.204  -4.527   5.676  1.00  0.00     0.027 A 
ATOM      9  C   UNL     1       1.967  -2.808   6.825  1.00  0.00     0.027 A 
ATOM     10  C   UNL     1       4.404  -3.930   6.082  1.00  0.00     0.016 A 
ATOM     11  C   UNL     1       3.161  -2.274   7.297  1.00  0.00     0.016 A 
BRANCH   7  12
ATOM     12  N   UNL     1       0.777  -4.472   5.570  1.00  0.00    -0.295 N 
ATOM     13  C   UNL     1      -0.217  -3.655   4.815  1.00  0.00     0.156 C 
ATOM     14  C   UNL     1      -1.344  -4.613   4.784  1.00  0.00     0.038 A 
ATOM     15  C   UNL     1      -2.680  -4.784   4.396  1.00  0.00     0.099 A 
ATOM     16  C   UNL     1      -0.999  -5.770   5.422  1.00  0.00     0.129 A 
ATOM     17  C   UNL     1       0.330  -5.758   5.906  1.00  0.00     0.277 C 
ATOM     18  N   UNL     1      -3.136  -5.981   4.833  1.00  0.00    -0.174 NA
ATOM     19  N   UNL     1      -2.077  -6.566   5.444  1.00  0.00    -0.272 N 
ATOM     20  O   UNL     1       0.900  -6.647   6.520  1.00  0.00    -0.267 OA
ATOM     21  H   UNL     1      -2.097  -7.462   5.853  1.00  0.00     0.190 HD
BRANCH  13  22
ATOM     22  C   UNL     1       0.223  -3.377   3.391  1.00  0.00    -0.016 A 
ATOM     23  C   UNL     1       0.668  -1.736   1.609  1.00  0.00     0.160 A 
ATOM     24  C   UNL     1       0.244  -2.053   2.912  1.00  0.00     0.056 A 
ATOM     25  C   UNL     1       1.078  -2.777   0.775  1.00  0.00     0.157 A 
ATOM     26  C   UNL     1       1.057  -4.097   1.223  1.00  0.00     0.050 A 
ATOM     27  C   UNL     1       0.650  -4.395   2.523  1.00  0.00     0.010 A 
BRANCH  23  28
ATOM     28  O   UNL     1       0.617  -0.396   1.345  1.00  0.00    -0.493 OA
ATOM     29  C   UNL     1       0.835   0.064   0.020  1.00  0.00     0.278 C 
ENDBRANCH  23  28
BRANCH  25  30
ATOM     30  O   UNL     1       1.549  -2.606  -0.494  1.00  0.00    -0.504 OA
ATOM     31  H   UNL     1       1.594  -1.747  -0.865  1.00  0.00     0.293 HD
ENDBRANCH  25  30
ENDBRANCH  13  22
BRANCH  15  32
ATOM     32  C   UNL     1      -3.538  -3.872   3.655  1.00  0.00     0.002 A 
ATOM     33  C   UNL     1      -4.763  -3.462   4.192  1.00  0.00     0.010 A 
ATOM     34  C   UNL     1      -3.162  -3.421   2.384  1.00  0.00     0.010 A 
ATOM     35  C   UNL     1      -5.593  -2.598   3.474  1.00  0.00     0.001 A 
ATOM     36  C   UNL     1      -3.991  -2.557   1.666  1.00  0.00     0.001 A 
ATOM     37  C   UNL     1      -5.205  -2.145   2.212  1.00  0.00     0.000 A 
ENDBRANCH  15  32
ENDBRANCH   7  12
ENDBRANCH   3   6
ENDBRANCH   1   2
BRANCH   1  38
ATOM     38  C   UNL     1       4.296   0.361   9.132  1.00  0.00     0.042 C 
BRANCH  38  39
ATOM     39  C   UNL     1       5.134   1.244  10.031  1.00  0.00     0.118 C 
BRANCH  39  40
ATOM     40  N   UNL     1       5.074   2.658   9.633  1.00  0.00    -0.352 N 
ATOM     41  C   UNL     1       5.749   3.744  10.162  1.00  0.00     0.251 C 
ATOM     42  H   UNL     1       4.469   2.861   8.883  1.00  0.00     0.163 HD
ATOM     43  O   UNL     1       5.369   4.889   9.948  1.00  0.00    -0.269 OA
BRANCH  41  44
ATOM     44  C   UNL     1       6.944   3.494  10.980  1.00  0.00     0.039 A 
ATOM     45  C   UNL     1       7.288   4.264  12.096  1.00  0.00     0.014 A 
ATOM     46  C   UNL     1       7.716   2.406  10.606  1.00  0.00     0.014 A 
ATOM     47  C   UNL     1       8.403   3.887  12.843  1.00  0.00     0.010 A 
ATOM     48  C   UNL     1       8.577   1.866  11.503  1.00  0.00     0.010 A 
ATOM     49  C   UNL     1       9.036   2.683  12.523  1.00  0.00    -0.014 A 
BRANCH  49  50
ATOM     50  C   UNL     1      10.220   2.180  13.191  1.00  0.00     0.031 A 
ATOM     51  C   UNL     1       9.989   1.671  14.562  1.00  0.00     0.074 A 
ATOM     52  C   UNL     1      11.305   1.855  12.451  1.00  0.00     0.049 A 
ATOM     53  N   UNL     1      10.449   2.150  15.668  1.00  0.00    -0.248 NA
ATOM     54  C   UNL     1       8.992   0.603  14.745  1.00  0.00     0.031 C 
ATOM     55  C   UNL     1      11.482   1.957  10.992  1.00  0.00     0.029 A 
ATOM     56  N   UNL     1      12.422   1.189  12.837  1.00  0.00    -0.354 N 
ATOM     57  C   UNL     1       9.982   1.299  16.668  1.00  0.00     0.074 A 
ATOM     58  C   UNL     1       8.906   0.554  16.076  1.00  0.00     0.031 C 
ATOM     59  C   UNL     1      12.505   1.165  10.604  1.00  0.00     0.029 A 
ATOM     60  C   UNL     1      13.145   0.629  11.786  1.00  0.00     0.049 A 
ATOM     61  H   UNL     1      12.697   1.108  13.779  1.00  0.00     0.167 HD
ATOM     62  C   UNL     1      10.707   1.080  17.802  1.00  0.00     0.037 A 
ATOM     63  C   UNL     1      14.142  -0.281  11.925  1.00  0.00     0.037 A 
ATOM     64  C   UNL     1      11.776   2.048  17.912  1.00  0.00     0.049 A 
ATOM     65  C   UNL     1      14.609  -0.187  13.339  1.00  0.00     0.074 A 
ATOM     66  C   UNL     1      11.835   3.429  17.944  1.00  0.00     0.029 A 
ATOM     67  N   UNL     1      13.048   1.633  17.585  1.00  0.00    -0.354 N 
ATOM     68  N   UNL     1      15.191   0.875  13.836  1.00  0.00    -0.248 NA
ATOM     69  C   UNL     1      13.960  -1.052  14.315  1.00  0.00     0.031 C 
ATOM     70  C   UNL     1      12.964   3.764  17.139  1.00  0.00     0.029 A 
ATOM     71  C   UNL     1      13.579   2.575  16.743  1.00  0.00     0.049 A 
ATOM     72  H   UNL     1      13.492   0.812  17.897  1.00  0.00     0.167 HD
ATOM     73  C   UNL     1      14.629   1.035  15.098  1.00  0.00     0.074 A 
ATOM     74  C   UNL     1      13.924  -0.220  15.361  1.00  0.00     0.031 C 
ATOM     75  C   UNL     1      14.512   2.267  15.681  1.00  0.00     0.037 A 
BRANCH  62  76
ATOM     76  C   UNL     1      10.727  -0.211  18.594  1.00  0.00     0.057 A 
ATOM     77  C   UNL     1      11.511  -0.265  19.764  1.00  0.00     0.134 A 
ATOM     78  C   UNL     1      10.267  -1.464  18.139  1.00  0.00     0.134 A 
ATOM     79  F   UNL     1      11.990   0.856  20.326  1.00  0.00    -0.206 F 
ATOM     80  C   UNL     1      11.909  -1.470  20.354  1.00  0.00     0.040 A 
ATOM     81  C   UNL     1      10.617  -2.671  18.752  1.00  0.00     0.040 A 
ATOM     82  F   UNL     1       9.533  -1.617  17.034  1.00  0.00    -0.206 F 
ATOM     83  C   UNL     1      11.476  -2.681  19.836  1.00  0.00     0.006 A 
ENDBRANCH  62  76
BRANCH  63  84
ATOM     84  C   UNL     1      14.434  -1.430  11.032  1.00  0.00     0.057 A 
ATOM     85  C   UNL     1      15.637  -2.143  11.126  1.00  0.00     0.134 A 
ATOM     86  C   UNL     1      13.441  -2.014  10.220  1.00  0.00     0.134 A 
ATOM     87  F   UNL     1      16.630  -1.700  11.911  1.00  0.00    -0.206 F 
ATOM     88  C   UNL     1      15.837  -3.363  10.459  1.00  0.00     0.040 A 
ATOM     89  C   UNL     1      13.631  -3.223   9.543  1.00  0.00     0.040 A 
ATOM     90  F   UNL     1      12.218  -1.474  10.120  1.00  0.00    -0.206 F 
ATOM     91  C   UNL     1      14.829  -3.910   9.670  1.00  0.00     0.006 A 
ENDBRANCH  63  84
BRANCH  75  92
ATOM     92  C   UNL     1      15.185   3.449  15.031  1.00  0.00     0.057 A 
ATOM     93  C   UNL     1      14.861   3.935  13.754  1.00  0.00     0.134 A 
ATOM     94  C   UNL     1      16.032   4.250  15.805  1.00  0.00     0.134 A 
ATOM     95  F   UNL     1      13.979   3.301  12.975  1.00  0.00    -0.206 F 
ATOM     96  C   UNL     1      15.374   5.139  13.262  1.00  0.00     0.040 A 
ATOM     97  C   UNL     1      16.526   5.471  15.339  1.00  0.00     0.040 A 
ATOM     98  F   UNL     1      16.341   3.887  17.060  1.00  0.00    -0.206 F 
ATOM     99  C   UNL     1      16.203   5.917  14.061  1.00  0.00     0.006 A 
ENDBRANCH  75  92
ENDBRANCH  49  50
ENDBRANCH  41  44
ENDBRANCH  39  40
ENDBRANCH  38  39
ENDBRANCH   1  38
TORSDOF 15
