REMARK SMILES C#CC[N@H+](CC(=O)NCCCNC(=O)c1ccc(-c2c3nc(c(-c4c(F)cccc4F)c4ccc([nH]4)c(-c4c(F)cccc4F)c4nc(c(-c5c(F)cccc5F)c5ccc2[nH]5)C=C4)C=C3)cc1)[C@H](C)C(=O)NCCC
REMARK SMILES IDX 6 1 7 2 8 3 5 5 4 6 3 8 2 9 1 10 69 11 70 12 71 13 72 14
REMARK SMILES IDX 73 15 74 17 75 18 76 19 9 20 10 21 11 22 12 23 13 24 14 26
REMARK SMILES IDX 15 27 16 28 68 29 17 30 67 31 18 32 19 33 20 34 61 35 21 36
REMARK SMILES IDX 66 37 60 38 62 39 22 40 65 41 59 42 58 43 23 45 49 46 32 47
REMARK SMILES IDX 48 48 33 49 36 50 47 51 63 52 34 53 35 54 46 56 64 57 37 58
REMARK SMILES IDX 24 59 25 60 30 61 26 62 27 63 29 64 31 65 28 66 50 67 51 68
REMARK SMILES IDX 56 69 52 70 53 71 55 72 57 73 54 74 38 75 39 76 44 77 40 78
REMARK SMILES IDX 41 79 43 80 45 81 42 82
REMARK H PARENT 8 4 4 7 73 16 12 25 62 44 36 55
REMARK Flexibility Score: inf
ROOT
ATOM      1  C   UNL     1      -4.200  -3.117  -2.150  1.00  0.00     0.275 C 
ATOM      2  O   UNL     1      -4.697  -4.217  -2.397  1.00  0.00    -0.269 OA
ATOM      3  N   UNL     1      -4.140  -2.201  -3.174  1.00  0.00    -0.351 N 
ATOM      4  H   UNL     1      -4.526  -2.516  -4.023  1.00  0.00     0.163 HD
ENDROOT
BRANCH   1   5
ATOM      5  C   UNL     1      -3.676  -2.753  -0.750  1.00  0.00     0.364 C 
BRANCH   5   6
ATOM      6  N   UNL     1      -2.226  -3.029  -0.492  1.00  0.00    -0.307 N 
ATOM      7  H   UNL     1      -2.084  -4.019  -0.295  1.00  0.00     0.350 HD
BRANCH   6   8
ATOM      8  C   UNL     1      -1.421  -2.842  -1.688  1.00  0.00     0.355 C 
BRANCH   8   9
ATOM      9  C   UNL     1      -0.006  -3.226  -1.715  1.00  0.00    -0.047 C 
ATOM     10  C   UNL     1       1.172  -3.365  -1.891  1.00  0.00     0.010 C 
ENDBRANCH   8   9
ENDBRANCH   6   8
BRANCH   6  11
ATOM     11  C   UNL     1      -1.764  -2.374   0.779  1.00  0.00     0.272 C 
ATOM     12  C   UNL     1      -2.568  -1.196   1.361  1.00  0.00     0.086 C 
BRANCH  11  13
ATOM     13  C   UNL     1      -0.251  -2.086   0.908  1.00  0.00     0.278 C 
ATOM     14  O   UNL     1       0.482  -2.841   1.557  1.00  0.00    -0.268 OA
ATOM     15  N   UNL     1       0.337  -0.973   0.373  1.00  0.00    -0.351 N 
ATOM     16  H   UNL     1       1.248  -0.799   0.702  1.00  0.00     0.163 HD
BRANCH  15  17
ATOM     17  C   UNL     1      -0.142  -0.002  -0.595  1.00  0.00     0.116 C 
BRANCH  17  18
ATOM     18  C   UNL     1       0.438   1.389  -0.375  1.00  0.00     0.018 C 
ATOM     19  C   UNL     1       1.903   1.472  -0.781  1.00  0.00     0.006 C 
ENDBRANCH  17  18
ENDBRANCH  15  17
ENDBRANCH  11  13
ENDBRANCH   6  11
ENDBRANCH   5   6
ENDBRANCH   1   5
BRANCH   3  20
ATOM     20  C   UNL     1      -3.604  -0.845  -3.223  1.00  0.00     0.118 C 
BRANCH  20  21
ATOM     21  C   UNL     1      -2.343  -0.729  -4.087  1.00  0.00     0.042 C 
BRANCH  21  22
ATOM     22  C   UNL     1      -2.554  -1.000  -5.563  1.00  0.00     0.118 C 
BRANCH  22  23
ATOM     23  N   UNL     1      -3.110   0.151  -6.242  1.00  0.00    -0.352 N 
ATOM     24  C   UNL     1      -2.513   1.006  -7.136  1.00  0.00     0.251 C 
ATOM     25  H   UNL     1      -4.052   0.350  -6.033  1.00  0.00     0.163 HD
ATOM     26  O   UNL     1      -3.046   2.085  -7.380  1.00  0.00    -0.269 OA
BRANCH  24  27
ATOM     27  C   UNL     1      -1.228   0.652  -7.790  1.00  0.00     0.039 A 
ATOM     28  C   UNL     1      -0.303   1.669  -8.040  1.00  0.00     0.014 A 
ATOM     29  C   UNL     1      -0.944  -0.653  -8.202  1.00  0.00     0.014 A 
ATOM     30  C   UNL     1       0.915   1.371  -8.657  1.00  0.00     0.010 A 
ATOM     31  C   UNL     1       0.310  -0.967  -8.725  1.00  0.00     0.010 A 
ATOM     32  C   UNL     1       1.248   0.044  -8.976  1.00  0.00    -0.014 A 
BRANCH  32  33
ATOM     33  C   UNL     1       2.562  -0.293  -9.585  1.00  0.00     0.031 A 
ATOM     34  C   UNL     1       2.631  -0.922 -10.952  1.00  0.00     0.074 A 
ATOM     35  C   UNL     1       3.696  -0.069  -8.890  1.00  0.00     0.049 A 
ATOM     36  N   UNL     1       3.679  -1.324 -11.625  1.00  0.00    -0.248 NA
ATOM     37  C   UNL     1       1.353  -1.150 -11.647  1.00  0.00     0.031 C 
ATOM     38  C   UNL     1       3.764   0.499  -7.542  1.00  0.00     0.029 A 
ATOM     39  N   UNL     1       5.010  -0.296  -9.219  1.00  0.00    -0.354 N 
ATOM     40  C   UNL     1       3.189  -1.859 -12.811  1.00  0.00     0.074 A 
ATOM     41  C   UNL     1       1.747  -1.780 -12.744  1.00  0.00     0.031 C 
ATOM     42  C   UNL     1       5.050   0.599  -7.170  1.00  0.00     0.029 A 
ATOM     43  C   UNL     1       5.896   0.056  -8.228  1.00  0.00     0.049 A 
ATOM     44  H   UNL     1       5.292  -0.675 -10.082  1.00  0.00     0.167 HD
ATOM     45  C   UNL     1       3.878  -2.350 -13.868  1.00  0.00     0.037 A 
ATOM     46  C   UNL     1       7.236  -0.062  -8.169  1.00  0.00     0.037 A 
ATOM     47  C   UNL     1       5.315  -2.411 -13.938  1.00  0.00     0.049 A 
ATOM     48  C   UNL     1       7.973  -0.643  -9.346  1.00  0.00     0.074 A 
ATOM     49  C   UNL     1       6.106  -2.839 -14.990  1.00  0.00     0.029 A 
ATOM     50  N   UNL     1       6.174  -2.045 -12.914  1.00  0.00    -0.354 N 
ATOM     51  N   UNL     1       7.497  -1.072 -10.490  1.00  0.00    -0.248 NA
ATOM     52  C   UNL     1       9.434  -0.752  -9.226  1.00  0.00     0.031 C 
ATOM     53  C   UNL     1       7.440  -2.799 -14.578  1.00  0.00     0.029 A 
ATOM     54  C   UNL     1       7.486  -2.272 -13.297  1.00  0.00     0.049 A 
ATOM     55  H   UNL     1       5.894  -1.679 -12.044  1.00  0.00     0.167 HD
ATOM     56  C   UNL     1       8.601  -1.468 -11.237  1.00  0.00     0.074 A 
ATOM     57  C   UNL     1       9.770  -1.209 -10.424  1.00  0.00     0.031 C 
ATOM     58  C   UNL     1       8.643  -1.999 -12.483  1.00  0.00     0.037 A 
BRANCH  45  59
ATOM     59  C   UNL     1       3.095  -2.869 -15.040  1.00  0.00     0.057 A 
ATOM     60  C   UNL     1       2.374  -2.018 -15.888  1.00  0.00     0.134 A 
ATOM     61  C   UNL     1       3.121  -4.231 -15.368  1.00  0.00     0.134 A 
ATOM     62  F   UNL     1       2.299  -0.703 -15.629  1.00  0.00    -0.206 F 
ATOM     63  C   UNL     1       1.694  -2.504 -17.007  1.00  0.00     0.040 A 
ATOM     64  C   UNL     1       2.472  -4.725 -16.501  1.00  0.00     0.040 A 
ATOM     65  F   UNL     1       3.798  -5.103 -14.604  1.00  0.00    -0.206 F 
ATOM     66  C   UNL     1       1.752  -3.860 -17.322  1.00  0.00     0.006 A 
ENDBRANCH  45  59
BRANCH  46  67
ATOM     67  C   UNL     1       7.977   0.365  -6.952  1.00  0.00     0.057 A 
ATOM     68  C   UNL     1       8.888   1.429  -6.988  1.00  0.00     0.134 A 
ATOM     69  C   UNL     1       7.827  -0.308  -5.732  1.00  0.00     0.134 A 
ATOM     70  F   UNL     1       9.090   2.105  -8.129  1.00  0.00    -0.206 F 
ATOM     71  C   UNL     1       9.649   1.781  -5.872  1.00  0.00     0.040 A 
ATOM     72  C   UNL     1       8.555   0.056  -4.599  1.00  0.00     0.040 A 
ATOM     73  F   UNL     1       6.963  -1.328  -5.623  1.00  0.00    -0.206 F 
ATOM     74  C   UNL     1       9.481   1.095  -4.671  1.00  0.00     0.006 A 
ENDBRANCH  46  67
BRANCH  58  75
ATOM     75  C   UNL     1       9.997  -2.290 -13.067  1.00  0.00     0.057 A 
ATOM     76  C   UNL     1      10.814  -3.318 -12.580  1.00  0.00     0.134 A 
ATOM     77  C   UNL     1      10.470  -1.554 -14.162  1.00  0.00     0.134 A 
ATOM     78  F   UNL     1      10.427  -4.055 -11.527  1.00  0.00    -0.206 F 
ATOM     79  C   UNL     1      12.065  -3.584 -13.140  1.00  0.00     0.040 A 
ATOM     80  C   UNL     1      11.702  -1.834 -14.753  1.00  0.00     0.040 A 
ATOM     81  F   UNL     1       9.734  -0.563 -14.687  1.00  0.00    -0.206 F 
ATOM     82  C   UNL     1      12.508  -2.846 -14.236  1.00  0.00     0.006 A 
ENDBRANCH  58  75
ENDBRANCH  32  33
ENDBRANCH  24  27
ENDBRANCH  22  23
ENDBRANCH  21  22
ENDBRANCH  20  21
ENDBRANCH   3  20
TORSDOF 17
