REMARK SMILES [NH3+]CC1([C@H](O)C(=O)NCCCNC(=O)c2ccc(-c3c4nc(c(-c5c(F)cccc5F)c5ccc([nH]5)c(-c5c(F)cccc5F)c5nc(c(-c6c(F)cccc6F)c6ccc3[nH]6)C=C5)C=C4)cc2)Cc2ccccc2C1
REMARK SMILES IDX 9 1 8 2 6 3 7 4 4 6 3 7 69 8 76 9 70 10 75 11 71 12 74 13
REMARK SMILES IDX 72 14 73 15 2 16 1 17 5 21 10 23 11 24 12 25 13 26 14 28
REMARK SMILES IDX 15 29 16 30 68 31 17 32 67 33 18 34 19 35 20 36 61 37 21 38
REMARK SMILES IDX 66 39 60 40 62 41 22 42 65 43 59 44 58 45 23 47 49 48 32 49
REMARK SMILES IDX 48 50 33 51 36 52 47 53 63 54 34 55 35 56 46 58 64 59 37 60
REMARK SMILES IDX 24 61 25 62 30 63 26 64 27 65 29 66 31 67 28 68 50 69 51 70
REMARK SMILES IDX 56 71 52 72 53 73 55 74 57 75 54 76 38 77 39 78 44 79 40 80
REMARK SMILES IDX 41 81 43 82 45 83 42 84
REMARK H PARENT 8 5 1 18 1 19 1 20 5 22 12 27 62 46 36 57
REMARK Flexibility Score: inf
ROOT
ATOM      1  C   UNL     1      -1.106  -0.078  -0.264  1.00  0.00     0.117 C 
ENDROOT
BRANCH   1   2
ATOM      2  N   UNL     1      -1.562   0.733  -1.363  1.00  0.00    -0.354 N 
ATOM      3  C   UNL     1      -0.824   1.429  -2.273  1.00  0.00     0.249 C 
ATOM      4  O   UNL     1      -1.391   1.780  -3.311  1.00  0.00    -0.272 OA
ATOM      5  H   UNL     1      -2.538   0.792  -1.473  1.00  0.00     0.163 HD
BRANCH   3   6
ATOM      6  C   UNL     1       0.653   1.830  -1.994  1.00  0.00     0.215 C 
BRANCH   6   7
ATOM      7  C   UNL     1       1.822   0.844  -2.354  1.00  0.00     0.062 C 
ATOM      8  C   UNL     1       1.485   0.014  -3.632  1.00  0.00     0.052 C 
ATOM      9  C   UNL     1       2.171  -0.229  -1.275  1.00  0.00     0.052 C 
ATOM     10  C   UNL     1       0.989  -1.278  -3.057  1.00  0.00    -0.044 A 
ATOM     11  C   UNL     1       1.390  -1.425  -1.729  1.00  0.00    -0.044 A 
ATOM     12  C   UNL     1       0.262  -2.270  -3.695  1.00  0.00     0.004 A 
ATOM     13  C   UNL     1       1.070  -2.566  -1.006  1.00  0.00     0.004 A 
ATOM     14  C   UNL     1      -0.086  -3.413  -2.970  1.00  0.00     0.000 A 
ATOM     15  C   UNL     1       0.311  -3.558  -1.632  1.00  0.00     0.000 A 
BRANCH   7  16
ATOM     16  C   UNL     1       3.104   1.690  -2.621  1.00  0.00     0.269 C 
BRANCH  16  17
ATOM     17  N   UNL     1       3.538   2.523  -1.498  1.00  0.00    -0.357 N 
ATOM     18  H   UNL     1       4.378   3.038  -1.761  1.00  0.00     0.344 HD
ATOM     19  H   UNL     1       3.740   1.931  -0.693  1.00  0.00     0.344 HD
ATOM     20  H   UNL     1       2.797   3.182  -1.257  1.00  0.00     0.344 HD
ENDBRANCH  16  17
ENDBRANCH   7  16
ENDBRANCH   6   7
BRANCH   6  21
ATOM     21  O   UNL     1       0.856   2.438  -0.715  1.00  0.00    -0.382 OA
ATOM     22  H   UNL     1       0.763   1.768  -0.020  1.00  0.00     0.211 HD
ENDBRANCH   6  21
ENDBRANCH   3   6
ENDBRANCH   1   2
BRANCH   1  23
ATOM     23  C   UNL     1      -1.685   0.301   1.078  1.00  0.00     0.042 C 
BRANCH  23  24
ATOM     24  C   UNL     1      -3.152  -0.047   1.219  1.00  0.00     0.118 C 
BRANCH  24  25
ATOM     25  N   UNL     1      -3.424  -1.460   0.983  1.00  0.00    -0.352 N 
ATOM     26  C   UNL     1      -3.906  -2.434   1.821  1.00  0.00     0.251 C 
ATOM     27  H   UNL     1      -3.228  -1.767   0.068  1.00  0.00     0.163 HD
ATOM     28  O   UNL     1      -3.858  -3.609   1.476  1.00  0.00    -0.269 OA
BRANCH  26  29
ATOM     29  C   UNL     1      -4.465  -2.071   3.139  1.00  0.00     0.039 A 
ATOM     30  C   UNL     1      -4.268  -2.932   4.220  1.00  0.00     0.014 A 
ATOM     31  C   UNL     1      -5.196  -0.894   3.308  1.00  0.00     0.014 A 
ATOM     32  C   UNL     1      -4.752  -2.577   5.479  1.00  0.00     0.010 A 
ATOM     33  C   UNL     1      -5.558  -0.479   4.580  1.00  0.00     0.010 A 
ATOM     34  C   UNL     1      -5.367  -1.329   5.675  1.00  0.00    -0.014 A 
BRANCH  34  35
ATOM     35  C   UNL     1      -5.851  -0.911   7.011  1.00  0.00     0.031 A 
ATOM     36  C   UNL     1      -7.313  -0.622   7.224  1.00  0.00     0.074 A 
ATOM     37  C   UNL     1      -4.967  -0.743   8.012  1.00  0.00     0.049 A 
ATOM     38  N   UNL     1      -7.926  -0.219   8.307  1.00  0.00    -0.248 NA
ATOM     39  C   UNL     1      -8.200  -0.767   6.056  1.00  0.00     0.031 C 
ATOM     40  C   UNL     1      -3.518  -0.924   7.903  1.00  0.00     0.029 A 
ATOM     41  N   UNL     1      -5.159  -0.381   9.320  1.00  0.00    -0.354 N 
ATOM     42  C   UNL     1      -9.257  -0.051   7.947  1.00  0.00     0.074 A 
ATOM     43  C   UNL     1      -9.352  -0.322   6.531  1.00  0.00     0.031 C 
ATOM     44  C   UNL     1      -2.957  -0.716   9.105  1.00  0.00     0.029 A 
ATOM     45  C   UNL     1      -4.000  -0.352  10.057  1.00  0.00     0.049 A 
ATOM     46  H   UNL     1      -6.042  -0.164   9.696  1.00  0.00     0.167 HD
ATOM     47  C   UNL     1     -10.313   0.265   8.732  1.00  0.00     0.037 A 
ATOM     48  C   UNL     1      -3.806  -0.068  11.358  1.00  0.00     0.037 A 
ATOM     49  C   UNL     1     -10.214   0.500  10.147  1.00  0.00     0.049 A 
ATOM     50  C   UNL     1      -4.996   0.263  12.214  1.00  0.00     0.074 A 
ATOM     51  C   UNL     1     -11.227   0.764  11.051  1.00  0.00     0.029 A 
ATOM     52  N   UNL     1      -9.026   0.498  10.864  1.00  0.00    -0.354 N 
ATOM     53  N   UNL     1      -6.262   0.339  11.877  1.00  0.00    -0.248 NA
ATOM     54  C   UNL     1      -4.733   0.536  13.633  1.00  0.00     0.031 C 
ATOM     55  C   UNL     1     -10.646   0.968  12.307  1.00  0.00     0.029 A 
ATOM     56  C   UNL     1      -9.278   0.777  12.196  1.00  0.00     0.049 A 
ATOM     57  H   UNL     1      -8.135   0.325  10.482  1.00  0.00     0.167 HD
ATOM     58  C   UNL     1      -6.949   0.641  13.046  1.00  0.00     0.074 A 
ATOM     59  C   UNL     1      -5.960   0.714  14.102  1.00  0.00     0.031 C 
ATOM     60  C   UNL     1      -8.277   0.842  13.230  1.00  0.00     0.037 A 
BRANCH  47  61
ATOM     61  C   UNL     1     -11.660   0.361   8.076  1.00  0.00     0.057 A 
ATOM     62  C   UNL     1     -12.320  -0.767   7.569  1.00  0.00     0.134 A 
ATOM     63  C   UNL     1     -12.318   1.593   7.968  1.00  0.00     0.134 A 
ATOM     64  F   UNL     1     -11.740  -1.976   7.625  1.00  0.00    -0.206 F 
ATOM     65  C   UNL     1     -13.569  -0.670   6.953  1.00  0.00     0.040 A 
ATOM     66  C   UNL     1     -13.580   1.698   7.381  1.00  0.00     0.040 A 
ATOM     67  F   UNL     1     -11.747   2.714   8.434  1.00  0.00    -0.206 F 
ATOM     68  C   UNL     1     -14.206   0.565   6.864  1.00  0.00     0.006 A 
ENDBRANCH  47  61
BRANCH  48  69
ATOM     69  C   UNL     1      -2.439  -0.123  11.937  1.00  0.00     0.057 A 
ATOM     70  C   UNL     1      -2.081  -1.124  12.848  1.00  0.00     0.134 A 
ATOM     71  C   UNL     1      -1.461   0.818  11.597  1.00  0.00     0.134 A 
ATOM     72  F   UNL     1      -2.979  -2.047  13.223  1.00  0.00    -0.206 F 
ATOM     73  C   UNL     1      -0.809  -1.173  13.419  1.00  0.00     0.040 A 
ATOM     74  C   UNL     1      -0.176   0.765  12.139  1.00  0.00     0.040 A 
ATOM     75  F   UNL     1      -1.736   1.794  10.719  1.00  0.00    -0.206 F 
ATOM     76  C   UNL     1       0.150  -0.228  13.060  1.00  0.00     0.006 A 
ENDBRANCH  48  69
BRANCH  60  77
ATOM     77  C   UNL     1      -8.734   1.126  14.631  1.00  0.00     0.057 A 
ATOM     78  C   UNL     1      -8.457   2.342  15.268  1.00  0.00     0.134 A 
ATOM     79  C   UNL     1      -9.485   0.180  15.339  1.00  0.00     0.134 A 
ATOM     80  F   UNL     1      -7.732   3.286  14.647  1.00  0.00    -0.206 F 
ATOM     81  C   UNL     1      -8.883   2.594  16.573  1.00  0.00     0.040 A 
ATOM     82  C   UNL     1      -9.943   0.432  16.632  1.00  0.00     0.040 A 
ATOM     83  F   UNL     1      -9.795  -1.001  14.782  1.00  0.00    -0.206 F 
ATOM     84  C   UNL     1      -9.634   1.639  17.256  1.00  0.00     0.006 A 
ENDBRANCH  60  77
ENDBRANCH  34  35
ENDBRANCH  26  29
ENDBRANCH  24  25
ENDBRANCH  23  24
ENDBRANCH   1  23
TORSDOF 14
