REMARK SMILES Cc1ccccc1OC1(C(=O)NCCCNC(=O)c2ccc(-c3c4nc(c(-c5c(F)cccc5F)c5ccc([nH]5)c(-c5c(F)cccc5F)c5nc(c(-c6c(F)cccc6F)c6ccc3[nH]6)C=C5)C=C4)cc2)CCN(C(=O)[C@H]2CCCCO2)CC1
REMARK SMILES IDX 14 1 13 2 12 3 10 4 11 5 9 7 73 8 85 9 74 10 84 11 75 12
REMARK SMILES IDX 76 13 77 14 8 15 7 16 1 17 2 18 3 19 4 20 6 21 5 22 78 23
REMARK SMILES IDX 79 24 83 25 80 26 82 27 81 28 15 29 16 30 17 31 18 33 19 34
REMARK SMILES IDX 20 35 72 36 21 37 71 38 22 39 23 40 24 41 65 42 25 43 70 44
REMARK SMILES IDX 64 45 66 46 26 47 69 48 63 49 62 50 27 52 53 53 36 54 52 55
REMARK SMILES IDX 37 56 40 57 51 58 67 59 38 60 39 61 50 63 68 64 41 65 28 66
REMARK SMILES IDX 29 67 34 68 30 69 31 70 33 71 35 72 32 73 54 74 55 75 60 76
REMARK SMILES IDX 56 77 57 78 59 79 61 80 58 81 42 82 43 83 48 84 44 85 45 86
REMARK SMILES IDX 47 87 49 88 46 89
REMARK H PARENT 12 6 16 32 66 51 40 62
REMARK Flexibility Score: inf
ROOT
ATOM      1  C   UNL     1       8.634  -3.860  -2.318  1.00  0.00     0.042 C 
ENDROOT
BRANCH   1   2
ATOM      2  C   UNL     1       7.423  -4.004  -3.231  1.00  0.00     0.118 C 
BRANCH   2   3
ATOM      3  N   UNL     1       7.008  -5.384  -3.440  1.00  0.00    -0.353 N 
ATOM      4  C   UNL     1       6.127  -6.229  -2.819  1.00  0.00     0.264 C 
ATOM      5  O   UNL     1       5.972  -7.305  -3.413  1.00  0.00    -0.270 OA
ATOM      6  H   UNL     1       7.465  -5.806  -4.203  1.00  0.00     0.163 HD
BRANCH   4   7
ATOM      7  C   UNL     1       5.391  -5.922  -1.450  1.00  0.00     0.190 C 
ATOM      8  C   UNL     1       6.449  -5.964  -0.359  1.00  0.00     0.080 C 
ATOM      9  C   UNL     1       4.513  -4.686  -1.624  1.00  0.00     0.080 C 
ATOM     10  C   UNL     1       6.789  -4.656   0.319  1.00  0.00     0.124 C 
ATOM     11  C   UNL     1       4.906  -3.431  -0.860  1.00  0.00     0.124 C 
ATOM     12  N   UNL     1       5.809  -3.583   0.274  1.00  0.00    -0.340 N 
ATOM     13  C   UNL     1       5.991  -2.577   1.236  1.00  0.00     0.251 C 
ATOM     14  O   UNL     1       6.981  -2.591   1.974  1.00  0.00    -0.272 OA
BRANCH   7  15
ATOM     15  O   UNL     1       4.528  -7.091  -1.309  1.00  0.00    -0.477 OA
BRANCH  15  16
ATOM     16  C   UNL     1       3.627  -7.463  -0.352  1.00  0.00     0.123 A 
ATOM     17  C   UNL     1       3.935  -5.798   1.619  1.00  0.00     0.048 C 
ATOM     18  C   UNL     1       3.306  -6.954   0.918  1.00  0.00    -0.009 A 
ATOM     19  C   UNL     1       2.318  -7.602   1.702  1.00  0.00     0.007 A 
ATOM     20  C   UNL     1       1.635  -8.720   1.248  1.00  0.00     0.001 A 
ATOM     21  C   UNL     1       2.921  -8.605  -0.782  1.00  0.00     0.047 A 
ATOM     22  C   UNL     1       1.938  -9.225  -0.003  1.00  0.00     0.004 A 
ENDBRANCH  15  16
ENDBRANCH   7  15
BRANCH  13  23
ATOM     23  C   UNL     1       4.889  -1.504   1.391  1.00  0.00     0.207 C 
ATOM     24  C   UNL     1       3.713  -2.138   2.150  1.00  0.00     0.042 C 
ATOM     25  O   UNL     1       5.433  -0.396   2.115  1.00  0.00    -0.368 OA
ATOM     26  C   UNL     1       2.691  -1.106   2.604  1.00  0.00     0.006 C 
ATOM     27  C   UNL     1       4.480   0.611   2.426  1.00  0.00     0.161 C 
ATOM     28  C   UNL     1       3.385   0.044   3.315  1.00  0.00     0.029 C 
ENDBRANCH  13  23
ENDBRANCH   4   7
ENDBRANCH   2   3
ENDBRANCH   1   2
BRANCH   1  29
ATOM     29  C   UNL     1       9.933  -3.502  -3.020  1.00  0.00     0.118 C 
BRANCH  29  30
ATOM     30  N   UNL     1      10.349  -2.109  -2.838  1.00  0.00    -0.352 N 
ATOM     31  C   UNL     1      11.488  -1.482  -3.334  1.00  0.00     0.251 C 
ATOM     32  H   UNL     1       9.748  -1.547  -2.298  1.00  0.00     0.163 HD
ATOM     33  O   UNL     1      11.686  -0.298  -3.167  1.00  0.00    -0.269 OA
BRANCH  31  34
ATOM     34  C   UNL     1      12.384  -2.290  -4.196  1.00  0.00     0.039 A 
ATOM     35  C   UNL     1      12.494  -1.903  -5.532  1.00  0.00     0.014 A 
ATOM     36  C   UNL     1      12.757  -3.565  -3.781  1.00  0.00     0.014 A 
ATOM     37  C   UNL     1      12.681  -2.886  -6.496  1.00  0.00     0.010 A 
ATOM     38  C   UNL     1      12.840  -4.555  -4.739  1.00  0.00     0.010 A 
ATOM     39  C   UNL     1      12.719  -4.222  -6.094  1.00  0.00    -0.014 A 
BRANCH  39  40
ATOM     40  C   UNL     1      12.508  -5.322  -7.028  1.00  0.00     0.031 A 
ATOM     41  C   UNL     1      13.648  -6.153  -7.457  1.00  0.00     0.074 A 
ATOM     42  C   UNL     1      11.272  -5.593  -7.505  1.00  0.00     0.049 A 
ATOM     43  N   UNL     1      13.737  -6.713  -8.617  1.00  0.00    -0.248 NA
ATOM     44  C   UNL     1      14.809  -6.386  -6.609  1.00  0.00     0.031 C 
ATOM     45  C   UNL     1      10.867  -6.760  -8.286  1.00  0.00     0.029 A 
ATOM     46  N   UNL     1      10.161  -4.743  -7.550  1.00  0.00    -0.354 N 
ATOM     47  C   UNL     1      14.800  -7.584  -8.575  1.00  0.00     0.074 A 
ATOM     48  C   UNL     1      15.472  -7.295  -7.328  1.00  0.00     0.031 C 
ATOM     49  C   UNL     1       9.747  -6.462  -8.962  1.00  0.00     0.029 A 
ATOM     50  C   UNL     1       9.452  -5.061  -8.728  1.00  0.00     0.049 A 
ATOM     51  H   UNL     1       9.921  -4.056  -6.887  1.00  0.00     0.167 HD
ATOM     52  C   UNL     1      14.918  -8.552  -9.529  1.00  0.00     0.037 A 
ATOM     53  C   UNL     1       9.225  -4.130  -9.698  1.00  0.00     0.037 A 
ATOM     54  C   UNL     1      13.841  -8.468 -10.512  1.00  0.00     0.049 A 
ATOM     55  C   UNL     1       9.862  -4.464 -11.026  1.00  0.00     0.074 A 
ATOM     56  C   UNL     1      12.632  -9.137 -10.624  1.00  0.00     0.029 A 
ATOM     57  N   UNL     1      13.769  -7.382 -11.379  1.00  0.00    -0.354 N 
ATOM     58  N   UNL     1      10.754  -5.402 -11.182  1.00  0.00    -0.248 NA
ATOM     59  C   UNL     1       9.583  -3.752 -12.271  1.00  0.00     0.031 C 
ATOM     60  C   UNL     1      11.808  -8.416 -11.521  1.00  0.00     0.029 A 
ATOM     61  C   UNL     1      12.521  -7.319 -11.970  1.00  0.00     0.049 A 
ATOM     62  H   UNL     1      14.503  -6.749 -11.547  1.00  0.00     0.167 HD
ATOM     63  C   UNL     1      11.196  -5.406 -12.479  1.00  0.00     0.074 A 
ATOM     64  C   UNL     1      10.411  -4.374 -13.130  1.00  0.00     0.031 C 
ATOM     65  C   UNL     1      12.182  -6.252 -12.899  1.00  0.00     0.037 A 
BRANCH  52  66
ATOM     66  C   UNL     1      15.815  -9.758  -9.358  1.00  0.00     0.057 A 
ATOM     67  C   UNL     1      15.438 -11.024  -9.847  1.00  0.00     0.134 A 
ATOM     68  C   UNL     1      17.036  -9.746  -8.663  1.00  0.00     0.134 A 
ATOM     69  F   UNL     1      14.372 -11.187 -10.640  1.00  0.00    -0.206 F 
ATOM     70  C   UNL     1      16.139 -12.198  -9.543  1.00  0.00     0.040 A 
ATOM     71  C   UNL     1      17.718 -10.917  -8.301  1.00  0.00     0.040 A 
ATOM     72  F   UNL     1      17.643  -8.595  -8.343  1.00  0.00    -0.206 F 
ATOM     73  C   UNL     1      17.258 -12.154  -8.726  1.00  0.00     0.006 A 
ENDBRANCH  52  66
BRANCH  53  74
ATOM     74  C   UNL     1       9.029  -2.767  -9.142  1.00  0.00     0.057 A 
ATOM     75  C   UNL     1       7.890  -2.544  -8.348  1.00  0.00     0.134 A 
ATOM     76  C   UNL     1      10.096  -1.878  -8.996  1.00  0.00     0.134 A 
ATOM     77  F   UNL     1       6.826  -3.356  -8.452  1.00  0.00    -0.206 F 
ATOM     78  C   UNL     1       7.873  -1.579  -7.339  1.00  0.00     0.040 A 
ATOM     79  C   UNL     1      10.081  -0.895  -7.999  1.00  0.00     0.040 A 
ATOM     80  F   UNL     1      11.216  -2.031  -9.715  1.00  0.00    -0.206 F 
ATOM     81  C   UNL     1       8.992  -0.779  -7.134  1.00  0.00     0.006 A 
ENDBRANCH  53  74
BRANCH  65  82
ATOM     82  C   UNL     1      12.850  -6.222 -14.249  1.00  0.00     0.057 A 
ATOM     83  C   UNL     1      13.071  -5.054 -14.992  1.00  0.00     0.134 A 
ATOM     84  C   UNL     1      13.421  -7.396 -14.787  1.00  0.00     0.134 A 
ATOM     85  F   UNL     1      12.678  -3.854 -14.543  1.00  0.00    -0.206 F 
ATOM     86  C   UNL     1      13.757  -5.063 -16.215  1.00  0.00     0.040 A 
ATOM     87  C   UNL     1      14.150  -7.408 -15.979  1.00  0.00     0.040 A 
ATOM     88  F   UNL     1      13.311  -8.580 -14.166  1.00  0.00    -0.206 F 
ATOM     89  C   UNL     1      14.307  -6.240 -16.708  1.00  0.00     0.006 A 
ENDBRANCH  65  82
ENDBRANCH  39  40
ENDBRANCH  31  34
ENDBRANCH  29  30
ENDBRANCH   1  29
TORSDOF 13
