REMARK SMILES C[C@]([NH3+])(C(=O)N1[C@@H](C(=O)NCCCNC(=O)c2ccc(-c3c4nc(c(-c5c(F)cccc5F)c5ccc([nH]5)c(-c5c(F)cccc5F)c5nc(c(-c6c(F)cccc6F)c6ccc3[nH]6)C=C5)C=C4)cc2)C[C@H]2CCCC[C@@H]21)C(F)(F)F
REMARK SMILES IDX 11 1 10 2 8 3 9 4 7 6 6 7 77 8 71 9 72 10 76 11 73 12 75 13
REMARK SMILES IDX 74 14 4 15 5 16 2 17 1 18 78 19 79 20 80 21 81 22 3 23 12 27
REMARK SMILES IDX 13 28 14 29 15 30 16 32 17 33 18 34 70 35 19 36 69 37 20 38
REMARK SMILES IDX 21 39 22 40 63 41 23 42 68 43 62 44 64 45 24 46 67 47 61 48
REMARK SMILES IDX 60 49 25 51 51 52 34 53 50 54 35 55 38 56 49 57 65 58 36 59
REMARK SMILES IDX 37 60 48 62 66 63 39 64 26 65 27 66 32 67 28 68 29 69 31 70
REMARK SMILES IDX 33 71 30 72 52 73 53 74 58 75 54 76 55 77 57 78 59 79 56 80
REMARK SMILES IDX 40 81 41 82 46 83 42 84 43 85 45 86 47 87 44 88
REMARK H PARENT 10 5 3 24 3 25 3 26 14 31 64 50 38 61
REMARK Flexibility Score: inf
ROOT
ATOM      1  C   UNL     1      -2.073  -3.471  -2.769  1.00  0.00     0.117 C 
ENDROOT
BRANCH   1   2
ATOM      2  N   UNL     1      -2.208  -2.837  -1.471  1.00  0.00    -0.354 N 
ATOM      3  C   UNL     1      -1.952  -1.555  -1.079  1.00  0.00     0.242 C 
ATOM      4  O   UNL     1      -2.036  -1.323   0.131  1.00  0.00    -0.273 OA
ATOM      5  H   UNL     1      -2.538  -3.428  -0.756  1.00  0.00     0.163 HD
BRANCH   3   6
ATOM      6  C   UNL     1      -1.444  -0.485  -2.086  1.00  0.00     0.175 C 
ATOM      7  N   UNL     1      -1.718   0.883  -1.570  1.00  0.00    -0.322 N 
ATOM      8  C   UNL     1      -2.839   1.460  -2.302  1.00  0.00     0.089 C 
ATOM      9  C   UNL     1      -2.225  -0.535  -3.414  1.00  0.00     0.041 C 
ATOM     10  C   UNL     1      -2.565   0.903  -3.695  1.00  0.00     0.014 C 
ATOM     11  C   UNL     1      -2.958   2.978  -2.435  1.00  0.00     0.025 C 
ATOM     12  C   UNL     1      -3.720   1.127  -4.644  1.00  0.00     0.006 C 
ATOM     13  C   UNL     1      -4.054   3.344  -3.452  1.00  0.00     0.002 C 
ATOM     14  C   UNL     1      -3.915   2.631  -4.803  1.00  0.00     0.000 C 
BRANCH   7  15
ATOM     15  C   UNL     1      -1.177   1.504  -0.453  1.00  0.00     0.294 C 
ATOM     16  O   UNL     1      -1.883   2.263   0.216  1.00  0.00    -0.267 OA
BRANCH  15  17
ATOM     17  C   UNL     1       0.348   1.387  -0.189  1.00  0.00     0.267 C 
ATOM     18  C   UNL     1       1.081   1.943  -1.425  1.00  0.00     0.100 C 
BRANCH  17  19
ATOM     19  C   UNL     1       0.684   2.313   1.018  1.00  0.00     0.453 C 
ATOM     20  F   UNL     1       0.116   1.897   2.173  1.00  0.00    -0.164 F 
ATOM     21  F   UNL     1       2.030   2.329   1.235  1.00  0.00    -0.164 F 
ATOM     22  F   UNL     1       0.332   3.603   0.809  1.00  0.00    -0.164 F 
ENDBRANCH  17  19
BRANCH  17  23
ATOM     23  N   UNL     1       0.781  -0.029   0.045  1.00  0.00    -0.337 N 
ATOM     24  H   UNL     1       0.299  -0.402   0.863  1.00  0.00     0.345 HD
ATOM     25  H   UNL     1       1.789  -0.055   0.204  1.00  0.00     0.345 HD
ATOM     26  H   UNL     1       0.551  -0.594  -0.772  1.00  0.00     0.345 HD
ENDBRANCH  17  23
ENDBRANCH  15  17
ENDBRANCH   7  15
ENDBRANCH   3   6
ENDBRANCH   1   2
BRANCH   1  27
ATOM     27  C   UNL     1      -1.200  -4.706  -2.728  1.00  0.00     0.042 C 
BRANCH  27  28
ATOM     28  C   UNL     1      -1.822  -5.858  -1.967  1.00  0.00     0.118 C 
BRANCH  28  29
ATOM     29  N   UNL     1      -3.010  -6.389  -2.624  1.00  0.00    -0.352 N 
ATOM     30  C   UNL     1      -3.212  -7.588  -3.259  1.00  0.00     0.251 C 
ATOM     31  H   UNL     1      -3.792  -5.791  -2.611  1.00  0.00     0.163 HD
ATOM     32  O   UNL     1      -4.233  -7.755  -3.929  1.00  0.00    -0.269 OA
BRANCH  30  33
ATOM     33  C   UNL     1      -2.212  -8.671  -3.161  1.00  0.00     0.039 A 
ATOM     34  C   UNL     1      -1.984  -9.499  -4.264  1.00  0.00     0.014 A 
ATOM     35  C   UNL     1      -1.512  -8.892  -1.974  1.00  0.00     0.014 A 
ATOM     36  C   UNL     1      -1.023 -10.509  -4.184  1.00  0.00     0.010 A 
ATOM     37  C   UNL     1      -0.461  -9.797  -1.943  1.00  0.00     0.010 A 
ATOM     38  C   UNL     1      -0.235 -10.648  -3.030  1.00  0.00    -0.014 A 
BRANCH  38  39
ATOM     39  C   UNL     1       0.768 -11.732  -2.893  1.00  0.00     0.031 A 
ATOM     40  C   UNL     1       0.615 -12.748  -1.789  1.00  0.00     0.074 A 
ATOM     41  C   UNL     1       1.837 -11.773  -3.711  1.00  0.00     0.049 A 
ATOM     42  N   UNL     1       1.413 -13.725  -1.445  1.00  0.00    -0.248 NA
ATOM     43  C   UNL     1      -0.576 -12.622  -0.930  1.00  0.00     0.031 C 
ATOM     44  C   UNL     1       2.126 -10.815  -4.780  1.00  0.00     0.029 A 
ATOM     45  N   UNL     1       2.883 -12.657  -3.766  1.00  0.00    -0.354 N 
ATOM     46  C   UNL     1       0.836 -14.304  -0.321  1.00  0.00     0.074 A 
ATOM     47  C   UNL     1      -0.336 -13.525   0.006  1.00  0.00     0.031 C 
ATOM     48  C   UNL     1       3.255 -11.184  -5.407  1.00  0.00     0.029 A 
ATOM     49  C   UNL     1       3.786 -12.381  -4.763  1.00  0.00     0.049 A 
ATOM     50  H   UNL     1       2.977 -13.418  -3.149  1.00  0.00     0.167 HD
ATOM     51  C   UNL     1       1.222 -15.410   0.358  1.00  0.00     0.037 A 
ATOM     52  C   UNL     1       4.913 -13.027  -5.116  1.00  0.00     0.037 A 
ATOM     53  C   UNL     1       2.362 -16.209  -0.000  1.00  0.00     0.049 A 
ATOM     54  C   UNL     1       5.311 -14.266  -4.362  1.00  0.00     0.074 A 
ATOM     55  C   UNL     1       2.811 -17.381   0.581  1.00  0.00     0.029 A 
ATOM     56  N   UNL     1       3.229 -15.918  -1.043  1.00  0.00    -0.354 N 
ATOM     57  N   UNL     1       4.720 -14.841  -3.343  1.00  0.00    -0.248 NA
ATOM     58  C   UNL     1       6.526 -14.956  -4.819  1.00  0.00     0.031 C 
ATOM     59  C   UNL     1       3.974 -17.779  -0.086  1.00  0.00     0.029 A 
ATOM     60  C   UNL     1       4.218 -16.883  -1.116  1.00  0.00     0.049 A 
ATOM     61  H   UNL     1       3.152 -15.140  -1.641  1.00  0.00     0.167 HD
ATOM     62  C   UNL     1       5.465 -15.979  -3.062  1.00  0.00     0.074 A 
ATOM     63  C   UNL     1       6.547 -16.016  -4.025  1.00  0.00     0.031 C 
ATOM     64  C   UNL     1       5.272 -16.912  -2.097  1.00  0.00     0.037 A 
BRANCH  51  65
ATOM     65  C   UNL     1       0.394 -15.820   1.542  1.00  0.00     0.057 A 
ATOM     66  C   UNL     1      -0.915 -16.303   1.400  1.00  0.00     0.134 A 
ATOM     67  C   UNL     1       0.914 -15.743   2.840  1.00  0.00     0.134 A 
ATOM     68  F   UNL     1      -1.481 -16.386   0.186  1.00  0.00    -0.206 F 
ATOM     69  C   UNL     1      -1.687 -16.662   2.506  1.00  0.00     0.040 A 
ATOM     70  C   UNL     1       0.163 -16.130   3.951  1.00  0.00     0.040 A 
ATOM     71  F   UNL     1       2.160 -15.293   3.050  1.00  0.00    -0.206 F 
ATOM     72  C   UNL     1      -1.145 -16.582   3.787  1.00  0.00     0.006 A 
ENDBRANCH  51  65
BRANCH  52  73
ATOM     73  C   UNL     1       5.721 -12.543  -6.264  1.00  0.00     0.057 A 
ATOM     74  C   UNL     1       5.785 -13.271  -7.459  1.00  0.00     0.134 A 
ATOM     75  C   UNL     1       6.454 -11.352  -6.196  1.00  0.00     0.134 A 
ATOM     76  F   UNL     1       5.116 -14.426  -7.581  1.00  0.00    -0.206 F 
ATOM     77  C   UNL     1       6.569 -12.848  -8.533  1.00  0.00     0.040 A 
ATOM     78  C   UNL     1       7.222 -10.904  -7.272  1.00  0.00     0.040 A 
ATOM     79  F   UNL     1       6.425 -10.601  -5.085  1.00  0.00    -0.206 F 
ATOM     80  C   UNL     1       7.288 -11.658  -8.442  1.00  0.00     0.006 A 
ENDBRANCH  52  73
BRANCH  64  81
ATOM     81  C   UNL     1       6.213 -18.081  -2.073  1.00  0.00     0.057 A 
ATOM     82  C   UNL     1       7.547 -17.955  -1.668  1.00  0.00     0.134 A 
ATOM     83  C   UNL     1       5.760 -19.358  -2.426  1.00  0.00     0.134 A 
ATOM     84  F   UNL     1       8.045 -16.757  -1.328  1.00  0.00    -0.206 F 
ATOM     85  C   UNL     1       8.406 -19.055  -1.643  1.00  0.00     0.040 A 
ATOM     86  C   UNL     1       6.600 -20.470  -2.376  1.00  0.00     0.040 A 
ATOM     87  F   UNL     1       4.489 -19.549  -2.812  1.00  0.00    -0.206 F 
ATOM     88  C   UNL     1       7.930 -20.318  -1.991  1.00  0.00     0.006 A 
ENDBRANCH  64  81
ENDBRANCH  38  39
ENDBRANCH  30  33
ENDBRANCH  28  29
ENDBRANCH  27  28
ENDBRANCH   1  27
TORSDOF 14
