REMARK SMILES [NH3+][C@@](Cc1ccc(F)cc1)(C(=O)NCCCNC(=O)c1ccc(-c2c3nc(c(-c4c(F)cccc4F)c4ccc([nH]4)c(-c4c(F)cccc4F)c4nc(c(-c5c(F)cccc5F)c5ccc2[nH]5)C=C4)C=C3)cc1)c1ccccc1
REMARK SMILES IDX 15 1 14 2 13 3 11 4 12 5 2 7 1 8 3 12 4 13 5 14 10 15 6 16
REMARK SMILES IDX 9 17 7 18 8 19 74 20 75 21 79 22 76 23 78 24 77 25 16 26
REMARK SMILES IDX 17 27 18 28 19 30 20 31 21 32 73 33 22 34 72 35 23 36 24 37
REMARK SMILES IDX 25 38 66 39 26 40 71 41 65 42 67 43 27 44 70 45 64 46 63 47
REMARK SMILES IDX 28 49 54 50 37 51 53 52 38 53 41 54 52 55 68 56 39 57 40 58
REMARK SMILES IDX 51 60 69 61 42 62 29 63 30 64 35 65 31 66 32 67 34 68 36 69
REMARK SMILES IDX 33 70 55 71 56 72 61 73 57 74 58 75 60 76 62 77 59 78 43 79
REMARK SMILES IDX 44 80 49 81 45 82 46 83 48 84 50 85 47 86
REMARK H PARENT 13 6 1 9 1 10 1 11 17 29 67 48 41 59
REMARK Flexibility Score: inf
ROOT
ATOM      1  C   UNL     1      -1.910  -0.924   1.938  1.00  0.00     0.042 C 
ENDROOT
BRANCH   1   2
ATOM      2  C   UNL     1      -1.552  -1.697   0.692  1.00  0.00     0.118 C 
BRANCH   2   3
ATOM      3  N   UNL     1      -1.771  -1.020  -0.549  1.00  0.00    -0.350 N 
ATOM      4  C   UNL     1      -0.859  -0.810  -1.550  1.00  0.00     0.286 C 
ATOM      5  O   UNL     1      -1.355  -0.708  -2.680  1.00  0.00    -0.267 OA
ATOM      6  H   UNL     1      -2.677  -0.666  -0.701  1.00  0.00     0.163 HD
BRANCH   4   7
ATOM      7  C   UNL     1       0.723  -0.675  -1.287  1.00  0.00     0.203 C 
BRANCH   7   8
ATOM      8  N   UNL     1       0.958   0.207  -0.108  1.00  0.00    -0.341 N 
ATOM      9  H   UNL     1       0.607  -0.250   0.734  1.00  0.00     0.345 HD
ATOM     10  H   UNL     1       0.469   1.092  -0.242  1.00  0.00     0.345 HD
ATOM     11  H   UNL     1       1.958   0.383  -0.008  1.00  0.00     0.345 HD
ENDBRANCH   7   8
BRANCH   7  12
ATOM     12  C   UNL     1       1.463  -2.074  -1.139  1.00  0.00     0.120 C 
BRANCH  12  13
ATOM     13  C   UNL     1       1.330  -2.997   0.070  1.00  0.00    -0.041 A 
ATOM     14  C   UNL     1       0.833  -4.303  -0.116  1.00  0.00     0.007 A 
ATOM     15  C   UNL     1       1.660  -2.595   1.378  1.00  0.00     0.007 A 
ATOM     16  C   UNL     1       0.571  -5.135   0.977  1.00  0.00     0.039 A 
ATOM     17  C   UNL     1       1.348  -3.410   2.473  1.00  0.00     0.039 A 
ATOM     18  C   UNL     1       0.798  -4.668   2.263  1.00  0.00     0.123 A 
ATOM     19  F   UNL     1       0.482  -5.437   3.313  1.00  0.00    -0.207 F 
ENDBRANCH  12  13
ENDBRANCH   7  12
BRANCH   7  20
ATOM     20  C   UNL     1       1.288   0.101  -2.528  1.00  0.00     0.022 A 
ATOM     21  C   UNL     1       1.998  -0.525  -3.570  1.00  0.00     0.011 A 
ATOM     22  C   UNL     1       0.993   1.474  -2.682  1.00  0.00     0.011 A 
ATOM     23  C   UNL     1       2.405   0.190  -4.701  1.00  0.00     0.001 A 
ATOM     24  C   UNL     1       1.396   2.186  -3.815  1.00  0.00     0.001 A 
ATOM     25  C   UNL     1       2.104   1.543  -4.824  1.00  0.00     0.000 A 
ENDBRANCH   7  20
ENDBRANCH   4   7
ENDBRANCH   2   3
ENDBRANCH   1   2
BRANCH   1  26
ATOM     26  C   UNL     1      -3.311  -1.205   2.434  1.00  0.00     0.118 C 
BRANCH  26  27
ATOM     27  N   UNL     1      -3.568  -2.622   2.680  1.00  0.00    -0.352 N 
ATOM     28  C   UNL     1      -4.063  -3.280   3.775  1.00  0.00     0.251 C 
ATOM     29  H   UNL     1      -3.346  -3.210   1.922  1.00  0.00     0.163 HD
ATOM     30  O   UNL     1      -4.095  -4.509   3.772  1.00  0.00    -0.269 OA
BRANCH  28  31
ATOM     31  C   UNL     1      -4.525  -2.535   4.962  1.00  0.00     0.039 A 
ATOM     32  C   UNL     1      -4.342  -3.104   6.225  1.00  0.00     0.014 A 
ATOM     33  C   UNL     1      -5.133  -1.285   4.846  1.00  0.00     0.014 A 
ATOM     34  C   UNL     1      -4.708  -2.386   7.362  1.00  0.00     0.010 A 
ATOM     35  C   UNL     1      -5.354  -0.514   5.976  1.00  0.00     0.010 A 
ATOM     36  C   UNL     1      -5.173  -1.065   7.248  1.00  0.00    -0.014 A 
BRANCH  36  37
ATOM     37  C   UNL     1      -5.499  -0.261   8.448  1.00  0.00     0.031 A 
ATOM     38  C   UNL     1      -6.890   0.279   8.645  1.00  0.00     0.074 A 
ATOM     39  C   UNL     1      -4.528   0.010   9.341  1.00  0.00     0.049 A 
ATOM     40  N   UNL     1      -7.363   0.993   9.633  1.00  0.00    -0.248 NA
ATOM     41  C   UNL     1      -7.873   0.016   7.578  1.00  0.00     0.031 C 
ATOM     42  C   UNL     1      -3.125  -0.393   9.215  1.00  0.00     0.029 A 
ATOM     43  N   UNL     1      -4.575   0.676  10.539  1.00  0.00    -0.354 N 
ATOM     44  C   UNL     1      -8.684   1.268   9.301  1.00  0.00     0.074 A 
ATOM     45  C   UNL     1      -8.918   0.717   7.988  1.00  0.00     0.031 C 
ATOM     46  C   UNL     1      -2.461  -0.024  10.321  1.00  0.00     0.029 A 
ATOM     47  C   UNL     1      -3.378   0.675  11.214  1.00  0.00     0.049 A 
ATOM     48  H   UNL     1      -5.388   1.113  10.882  1.00  0.00     0.167 HD
ATOM     49  C   UNL     1      -9.630   1.888  10.044  1.00  0.00     0.037 A 
ATOM     50  C   UNL     1      -3.063   1.167  12.425  1.00  0.00     0.037 A 
ATOM     51  C   UNL     1      -9.399   2.398  11.368  1.00  0.00     0.049 A 
ATOM     52  C   UNL     1      -4.137   1.827  13.242  1.00  0.00     0.074 A 
ATOM     53  C   UNL     1     -10.303   2.989  12.232  1.00  0.00     0.029 A 
ATOM     54  N   UNL     1      -8.176   2.372  12.021  1.00  0.00    -0.354 N 
ATOM     55  N   UNL     1      -5.400   2.018  12.945  1.00  0.00    -0.248 NA
ATOM     56  C   UNL     1      -3.746   2.329  14.566  1.00  0.00     0.031 C 
ATOM     57  C   UNL     1      -9.617   3.362  13.390  1.00  0.00     0.029 A 
ATOM     58  C   UNL     1      -8.298   2.954  13.272  1.00  0.00     0.049 A 
ATOM     59  H   UNL     1      -7.345   1.995  11.651  1.00  0.00     0.167 HD
ATOM     60  C   UNL     1      -5.959   2.648  14.049  1.00  0.00     0.074 A 
ATOM     61  C   UNL     1      -4.903   2.780  15.032  1.00  0.00     0.031 C 
ATOM     62  C   UNL     1      -7.231   3.082  14.232  1.00  0.00     0.037 A 
BRANCH  49  63
ATOM     63  C   UNL     1     -11.005   2.021   9.456  1.00  0.00     0.057 A 
ATOM     64  C   UNL     1     -11.525   3.278   9.124  1.00  0.00     0.134 A 
ATOM     65  C   UNL     1     -11.838   0.909   9.270  1.00  0.00     0.134 A 
ATOM     66  F   UNL     1     -10.783   4.385   9.277  1.00  0.00    -0.206 F 
ATOM     67  C   UNL     1     -12.827   3.425   8.642  1.00  0.00     0.040 A 
ATOM     68  C   UNL     1     -13.131   1.040   8.761  1.00  0.00     0.040 A 
ATOM     69  F   UNL     1     -11.396  -0.327   9.550  1.00  0.00    -0.206 F 
ATOM     70  C   UNL     1     -13.633   2.304   8.457  1.00  0.00     0.006 A 
ENDBRANCH  49  63
BRANCH  50  71
ATOM     71  C   UNL     1      -1.686   0.996  12.953  1.00  0.00     0.057 A 
ATOM     72  C   UNL     1      -0.596   1.674  12.395  1.00  0.00     0.134 A 
ATOM     73  C   UNL     1      -1.424   0.119  14.012  1.00  0.00     0.134 A 
ATOM     74  F   UNL     1      -0.777   2.520  11.369  1.00  0.00    -0.206 F 
ATOM     75  C   UNL     1       0.706   1.475  12.859  1.00  0.00     0.040 A 
ATOM     76  C   UNL     1      -0.132  -0.071  14.504  1.00  0.00     0.040 A 
ATOM     77  F   UNL     1      -2.429  -0.550  14.598  1.00  0.00    -0.206 F 
ATOM     78  C   UNL     1       0.939   0.602  13.920  1.00  0.00     0.006 A 
ENDBRANCH  50  71
BRANCH  62  79
ATOM     79  C   UNL     1      -7.551   3.732  15.545  1.00  0.00     0.057 A 
ATOM     80  C   UNL     1      -8.400   3.105  16.466  1.00  0.00     0.134 A 
ATOM     81  C   UNL     1      -7.061   5.002  15.877  1.00  0.00     0.134 A 
ATOM     82  F   UNL     1      -8.916   1.894  16.203  1.00  0.00    -0.206 F 
ATOM     83  C   UNL     1      -8.754   3.718  17.667  1.00  0.00     0.040 A 
ATOM     84  C   UNL     1      -7.382   5.612  17.090  1.00  0.00     0.040 A 
ATOM     85  F   UNL     1      -6.237   5.653  15.042  1.00  0.00    -0.206 F 
ATOM     86  C   UNL     1      -8.238   4.973  17.985  1.00  0.00     0.006 A 
ENDBRANCH  62  79
ENDBRANCH  36  37
ENDBRANCH  28  31
ENDBRANCH  26  27
ENDBRANCH   1  26
TORSDOF 14
