REMARK SMILES O=C(C[C@H](c1ccsc1)n1cccc1)NCCCNC(=O)c1ccc(-c2c3nc(c(-c4c(F)cccc4F)c4ccc([nH]4)c(-c4c(F)cccc4F)c4nc(c(-c5c(F)cccc5F)c5ccc2[nH]5)C=C4)C=C3)cc1
REMARK SMILES IDX 17 1 16 2 15 3 1 4 2 5 3 7 4 8 10 9 11 10 14 11 12 12 13 13
REMARK SMILES IDX 5 14 6 15 9 16 7 17 8 18 18 19 19 20 20 21 21 23 22 24 23 25
REMARK SMILES IDX 75 26 24 27 74 28 25 29 26 30 27 31 68 32 28 33 73 34 67 35
REMARK SMILES IDX 69 36 29 37 72 38 66 39 65 40 30 42 56 43 39 44 55 45 40 46
REMARK SMILES IDX 43 47 54 48 70 49 41 50 42 51 53 53 71 54 44 55 31 56 32 57
REMARK SMILES IDX 37 58 33 59 34 60 36 61 38 62 35 63 57 64 58 65 63 66 59 67
REMARK SMILES IDX 60 68 62 69 64 70 61 71 45 72 46 73 51 74 47 75 48 76 50 77
REMARK SMILES IDX 52 78 49 79
REMARK H PARENT 15 6 19 22 69 41 43 52
REMARK Flexibility Score: inf
ROOT
ATOM      1  C   UNL     1       2.471   0.983   3.961  1.00  0.00     0.042 C 
ENDROOT
BRANCH   1   2
ATOM      2  C   UNL     1       2.471   0.197   2.649  1.00  0.00     0.117 C 
BRANCH   2   3
ATOM      3  N   UNL     1       3.100   0.896   1.537  1.00  0.00    -0.356 N 
ATOM      4  O   UNL     1       5.120  -0.150   1.774  1.00  0.00    -0.275 OA
ATOM      5  C   UNL     1       4.369   0.568   1.117  1.00  0.00     0.222 C 
ATOM      6  H   UNL     1       2.609   1.616   1.079  1.00  0.00     0.163 HD
BRANCH   5   7
ATOM      7  C   UNL     1       4.825   1.164  -0.200  1.00  0.00     0.130 C 
BRANCH   7   8
ATOM      8  C   UNL     1       3.889   0.928  -1.393  1.00  0.00     0.127 C 
BRANCH   8   9
ATOM      9  N   UNL     1       4.607   1.147  -2.670  1.00  0.00    -0.346 N 
ATOM     10  C   UNL     1       4.888   2.391  -3.193  1.00  0.00     0.086 A 
ATOM     11  C   UNL     1       5.133   0.196  -3.511  1.00  0.00     0.086 A 
ATOM     12  C   UNL     1       5.583   2.220  -4.372  1.00  0.00     0.019 A 
ATOM     13  C   UNL     1       5.731   0.832  -4.575  1.00  0.00     0.019 A 
ENDBRANCH   8   9
BRANCH   8  14
ATOM     14  C   UNL     1       3.139  -0.391  -1.393  1.00  0.00    -0.014 A 
ATOM     15  C   UNL     1       3.709  -1.684  -1.120  1.00  0.00     0.017 A 
ATOM     16  C   UNL     1       1.781  -0.510  -1.643  1.00  0.00     0.070 A 
ATOM     17  C   UNL     1       2.790  -2.704  -1.212  1.00  0.00     0.065 A 
ATOM     18  S   UNL     1       1.226  -2.125  -1.575  1.00  0.00    -0.152 S 
ENDBRANCH   8  14
ENDBRANCH   7   8
ENDBRANCH   5   7
ENDBRANCH   2   3
ENDBRANCH   1   2
BRANCH   1  19
ATOM     19  C   UNL     1       1.583   2.220   3.922  1.00  0.00     0.118 C 
BRANCH  19  20
ATOM     20  N   UNL     1       0.172   1.887   3.769  1.00  0.00    -0.352 N 
ATOM     21  C   UNL     1      -0.917   2.720   3.662  1.00  0.00     0.251 C 
ATOM     22  H   UNL     1      -0.031   0.924   3.737  1.00  0.00     0.163 HD
ATOM     23  O   UNL     1      -2.040   2.282   3.866  1.00  0.00    -0.269 OA
BRANCH  21  24
ATOM     24  C   UNL     1      -0.742   4.145   3.311  1.00  0.00     0.039 A 
ATOM     25  C   UNL     1      -1.591   5.092   3.897  1.00  0.00     0.014 A 
ATOM     26  C   UNL     1       0.196   4.536   2.351  1.00  0.00     0.014 A 
ATOM     27  C   UNL     1      -1.455   6.434   3.564  1.00  0.00     0.010 A 
ATOM     28  C   UNL     1       0.381   5.876   2.063  1.00  0.00     0.010 A 
ATOM     29  C   UNL     1      -0.456   6.820   2.661  1.00  0.00    -0.014 A 
BRANCH  29  30
ATOM     30  C   UNL     1      -0.271   8.248   2.351  1.00  0.00     0.031 A 
ATOM     31  C   UNL     1       0.469   8.981   3.478  1.00  0.00     0.074 A 
ATOM     32  C   UNL     1      -0.800   8.659   1.158  1.00  0.00     0.049 A 
ATOM     33  N   UNL     1       0.287  10.171   3.961  1.00  0.00    -0.248 NA
ATOM     34  C   UNL     1       1.506   8.244   4.252  1.00  0.00     0.031 C 
ATOM     35  C   UNL     1      -1.438   7.758   0.169  1.00  0.00     0.029 A 
ATOM     36  N   UNL     1      -0.919   9.876   0.521  1.00  0.00    -0.354 N 
ATOM     37  C   UNL     1       1.276  10.393   4.949  1.00  0.00     0.074 A 
ATOM     38  C   UNL     1       1.901   9.125   5.177  1.00  0.00     0.031 C 
ATOM     39  C   UNL     1      -1.931   8.453  -0.877  1.00  0.00     0.029 A 
ATOM     40  C   UNL     1      -1.683   9.864  -0.678  1.00  0.00     0.049 A 
ATOM     41  H   UNL     1      -0.504  10.696   0.873  1.00  0.00     0.167 HD
ATOM     42  C   UNL     1       1.617  11.642   5.394  1.00  0.00     0.037 A 
ATOM     43  C   UNL     1      -2.147  10.921  -1.417  1.00  0.00     0.037 A 
ATOM     44  C   UNL     1       0.868  12.618   4.676  1.00  0.00     0.049 A 
ATOM     45  C   UNL     1      -1.614  12.112  -0.744  1.00  0.00     0.074 A 
ATOM     46  C   UNL     1      -0.445  13.004   4.720  1.00  0.00     0.029 A 
ATOM     47  N   UNL     1       1.432  13.066   3.505  1.00  0.00    -0.354 N 
ATOM     48  N   UNL     1      -0.377  12.503  -0.791  1.00  0.00    -0.248 NA
ATOM     49  C   UNL     1      -2.503  12.853   0.160  1.00  0.00     0.031 C 
ATOM     50  C   UNL     1      -0.755  13.243   3.365  1.00  0.00     0.029 A 
ATOM     51  C   UNL     1       0.417  13.222   2.597  1.00  0.00     0.049 A 
ATOM     52  H   UNL     1       2.388  13.241   3.348  1.00  0.00     0.167 HD
ATOM     53  C   UNL     1      -0.285  13.306   0.321  1.00  0.00     0.074 A 
ATOM     54  C   UNL     1      -1.629  13.730   0.643  1.00  0.00     0.031 C 
ATOM     55  C   UNL     1       0.741  13.134   1.192  1.00  0.00     0.037 A 
BRANCH  42  56
ATOM     56  C   UNL     1       2.761  12.171   6.220  1.00  0.00     0.057 A 
ATOM     57  C   UNL     1       2.645  13.477   6.762  1.00  0.00     0.134 A 
ATOM     58  C   UNL     1       4.051  11.636   6.214  1.00  0.00     0.134 A 
ATOM     59  F   UNL     1       1.448  14.076   6.873  1.00  0.00    -0.206 F 
ATOM     60  C   UNL     1       3.751  14.246   7.133  1.00  0.00     0.040 A 
ATOM     61  C   UNL     1       5.165  12.382   6.632  1.00  0.00     0.040 A 
ATOM     62  F   UNL     1       4.300  10.416   5.722  1.00  0.00    -0.206 F 
ATOM     63  C   UNL     1       5.023  13.703   7.048  1.00  0.00     0.006 A 
ENDBRANCH  42  56
BRANCH  43  64
ATOM     64  C   UNL     1      -3.115  11.162  -2.555  1.00  0.00     0.057 A 
ATOM     65  C   UNL     1      -3.644  10.196  -3.415  1.00  0.00     0.134 A 
ATOM     66  C   UNL     1      -3.615  12.473  -2.800  1.00  0.00     0.134 A 
ATOM     67  F   UNL     1      -3.180   8.942  -3.428  1.00  0.00    -0.206 F 
ATOM     68  C   UNL     1      -4.671  10.485  -4.340  1.00  0.00     0.040 A 
ATOM     69  C   UNL     1      -4.659  12.768  -3.682  1.00  0.00     0.040 A 
ATOM     70  F   UNL     1      -3.110  13.552  -2.188  1.00  0.00    -0.206 F 
ATOM     71  C   UNL     1      -5.210  11.763  -4.447  1.00  0.00     0.006 A 
ENDBRANCH  43  64
BRANCH  55  72
ATOM     72  C   UNL     1       1.972  12.485   0.583  1.00  0.00     0.057 A 
ATOM     73  C   UNL     1       2.645  13.111  -0.475  1.00  0.00     0.134 A 
ATOM     74  C   UNL     1       2.438  11.203   0.913  1.00  0.00     0.134 A 
ATOM     75  F   UNL     1       2.288  14.346  -0.860  1.00  0.00    -0.206 F 
ATOM     76  C   UNL     1       3.690  12.490  -1.173  1.00  0.00     0.040 A 
ATOM     77  C   UNL     1       3.486  10.568   0.233  1.00  0.00     0.040 A 
ATOM     78  F   UNL     1       1.881  10.511   1.902  1.00  0.00    -0.206 F 
ATOM     79  C   UNL     1       4.112  11.210  -0.825  1.00  0.00     0.006 A 
ENDBRANCH  55  72
ENDBRANCH  29  30
ENDBRANCH  21  24
ENDBRANCH  19  20
ENDBRANCH   1  19
TORSDOF 13
