REMARK SMILES O=C(CCN1C(=O)C(=O)/C(=C(\[O-])c2ccc(Cl)cc2)[C@@H]1c1ccc2c(c1)OCO2)NCCCNC(=O)c1ccc(-c2c3nc(c(-c4c(F)cccc4F)c4ccc([nH]4)c(-c4c(F)cccc4F)c4nc(c(-c5c(F)cccc5F)c5ccc2[nH]5)C=C4)C=C3)cc1
REMARK SMILES IDX 31 1 30 2 1 3 2 4 3 6 4 7 5 8 6 9 20 10 7 11 8 12 10 13 9 14
REMARK SMILES IDX 11 15 12 16 21 17 22 18 26 19 23 20 25 21 24 22 27 23 29 24
REMARK SMILES IDX 28 25 13 26 14 27 19 28 15 29 18 30 16 31 17 32 32 33 33 34
REMARK SMILES IDX 34 35 35 36 36 38 37 39 38 40 90 41 39 42 89 43 40 44 41 45
REMARK SMILES IDX 42 46 83 47 43 48 88 49 82 50 84 51 44 52 87 53 81 54 80 55
REMARK SMILES IDX 45 57 71 58 54 59 70 60 55 61 58 62 69 63 85 64 56 65 57 66
REMARK SMILES IDX 68 68 86 69 59 70 46 71 47 72 52 73 48 74 49 75 51 76 53 77
REMARK SMILES IDX 50 78 72 79 73 80 78 81 74 82 75 83 77 84 79 85 76 86 60 87
REMARK SMILES IDX 61 88 66 89 62 90 63 91 65 92 67 93 64 94
REMARK H PARENT 30 5 34 37 84 56 58 67
REMARK Flexibility Score: inf
ROOT
ATOM      1  C   UNL     1       1.907  -0.355   2.917  1.00  0.00     0.117 C 
ENDROOT
BRANCH   1   2
ATOM      2  N   UNL     1       2.538   0.050   1.671  1.00  0.00    -0.356 N 
ATOM      3  O   UNL     1       0.770  -0.552   0.357  1.00  0.00    -0.275 OA
ATOM      4  C   UNL     1       1.896  -0.071   0.461  1.00  0.00     0.221 C 
ATOM      5  H   UNL     1       3.449   0.421   1.695  1.00  0.00     0.163 HD
BRANCH   4   6
ATOM      6  C   UNL     1       2.674   0.319  -0.779  1.00  0.00     0.121 C 
BRANCH   6   7
ATOM      7  C   UNL     1       3.772   1.363  -0.647  1.00  0.00     0.131 C 
BRANCH   7   8
ATOM      8  N   UNL     1       5.022   1.034   0.047  1.00  0.00    -0.324 N 
ATOM      9  C   UNL     1       5.863   2.054   0.455  1.00  0.00     0.295 C 
ATOM     10  C   UNL     1       5.596  -0.299   0.266  1.00  0.00     0.150 C 
ATOM     11  O   UNL     1       5.661   3.252   0.433  1.00  0.00    -0.265 OA
ATOM     12  C   UNL     1       7.146   1.407   0.957  1.00  0.00     0.248 C 
ATOM     13  C   UNL     1       6.996  -0.051   0.789  1.00  0.00     0.025 C 
ATOM     14  O   UNL     1       8.092   1.974   1.468  1.00  0.00    -0.283 OA
ATOM     15  C   UNL     1       7.966  -0.885   1.209  1.00  0.00    -0.092 C 
ATOM     16  O   UNL     1       9.144  -0.479   1.798  1.00  0.00    -0.872 OA
BRANCH  10  17
ATOM     17  C   UNL     1       5.473  -1.265  -0.891  1.00  0.00    -0.017 A 
ATOM     18  C   UNL     1       5.017  -2.584  -0.615  1.00  0.00     0.010 A 
ATOM     19  C   UNL     1       5.766  -0.913  -2.217  1.00  0.00     0.056 A 
ATOM     20  C   UNL     1       4.906  -3.550  -1.615  1.00  0.00     0.051 A 
ATOM     21  C   UNL     1       5.593  -1.877  -3.194  1.00  0.00     0.166 A 
ATOM     22  C   UNL     1       5.194  -3.160  -2.898  1.00  0.00     0.165 A 
ATOM     23  O   UNL     1       5.774  -1.695  -4.530  1.00  0.00    -0.454 OA
ATOM     24  O   UNL     1       5.113  -3.952  -3.998  1.00  0.00    -0.454 OA
ATOM     25  C   UNL     1       5.399  -2.995  -5.037  1.00  0.00     0.468 C 
ENDBRANCH  10  17
BRANCH  15  26
ATOM     26  C   UNL     1       7.761  -2.334   1.268  1.00  0.00    -0.033 A 
ATOM     27  C   UNL     1       8.117  -3.208   0.239  1.00  0.00     0.009 A 
ATOM     28  C   UNL     1       7.073  -2.832   2.373  1.00  0.00     0.009 A 
ATOM     29  C   UNL     1       7.723  -4.553   0.293  1.00  0.00     0.021 A 
ATOM     30  C   UNL     1       6.649  -4.160   2.411  1.00  0.00     0.021 A 
ATOM     31  C   UNL     1       6.971  -5.017   1.369  1.00  0.00     0.041 A 
ATOM     32  Cl  UNL     1       6.379  -6.630   1.397  1.00  0.00    -0.084 Cl
ENDBRANCH  15  26
ENDBRANCH   7   8
ENDBRANCH   6   7
ENDBRANCH   4   6
ENDBRANCH   1   2
BRANCH   1  33
ATOM     33  C   UNL     1       2.323  -1.747   3.398  1.00  0.00     0.042 C 
BRANCH  33  34
ATOM     34  C   UNL     1       3.756  -1.876   3.925  1.00  0.00     0.118 C 
BRANCH  34  35
ATOM     35  N   UNL     1       4.054  -1.018   5.068  1.00  0.00    -0.352 N 
ATOM     36  C   UNL     1       4.578  -1.276   6.320  1.00  0.00     0.251 C 
ATOM     37  H   UNL     1       3.840  -0.069   4.917  1.00  0.00     0.163 HD
ATOM     38  O   UNL     1       4.581  -0.370   7.150  1.00  0.00    -0.269 OA
BRANCH  36  39
ATOM     39  C   UNL     1       5.151  -2.597   6.692  1.00  0.00     0.039 A 
ATOM     40  C   UNL     1       5.039  -3.098   7.988  1.00  0.00     0.014 A 
ATOM     41  C   UNL     1       5.883  -3.330   5.772  1.00  0.00     0.014 A 
ATOM     42  C   UNL     1       5.561  -4.369   8.301  1.00  0.00     0.010 A 
ATOM     43  C   UNL     1       6.332  -4.621   6.046  1.00  0.00     0.010 A 
ATOM     44  C   UNL     1       6.156  -5.176   7.309  1.00  0.00    -0.014 A 
BRANCH  44  45
ATOM     45  C   UNL     1       6.437  -6.628   7.517  1.00  0.00     0.031 A 
ATOM     46  C   UNL     1       7.788  -7.258   7.261  1.00  0.00     0.074 A 
ATOM     47  C   UNL     1       5.390  -7.438   7.780  1.00  0.00     0.049 A 
ATOM     48  N   UNL     1       8.161  -8.506   7.436  1.00  0.00    -0.248 NA
ATOM     49  C   UNL     1       8.840  -6.405   6.687  1.00  0.00     0.031 C 
ATOM     50  C   UNL     1       3.991  -7.007   7.853  1.00  0.00     0.029 A 
ATOM     51  N   UNL     1       5.330  -8.788   8.020  1.00  0.00    -0.354 N 
ATOM     52  C   UNL     1       9.479  -8.583   6.997  1.00  0.00     0.074 A 
ATOM     53  C   UNL     1       9.816  -7.278   6.471  1.00  0.00     0.031 C 
ATOM     54  C   UNL     1       3.222  -8.054   8.182  1.00  0.00     0.029 A 
ATOM     55  C   UNL     1       4.065  -9.236   8.316  1.00  0.00     0.049 A 
ATOM     56  H   UNL     1       6.117  -9.378   7.984  1.00  0.00     0.167 HD
ATOM     57  C   UNL     1      10.341  -9.631   7.057  1.00  0.00     0.037 A 
ATOM     58  C   UNL     1       3.626 -10.454   8.682  1.00  0.00     0.037 A 
ATOM     59  C   UNL     1      10.002 -10.931   7.586  1.00  0.00     0.049 A 
ATOM     60  C   UNL     1       4.611 -11.577   8.831  1.00  0.00     0.074 A 
ATOM     61  C   UNL     1      10.833 -12.017   7.809  1.00  0.00     0.029 A 
ATOM     62  N   UNL     1       8.726 -11.327   7.955  1.00  0.00    -0.354 N 
ATOM     63  N   UNL     1       5.899 -11.584   8.594  1.00  0.00    -0.248 NA
ATOM     64  C   UNL     1       4.082 -12.856   9.322  1.00  0.00     0.031 C 
ATOM     65  C   UNL     1      10.050 -13.087   8.258  1.00  0.00     0.029 A 
ATOM     66  C   UNL     1       8.742 -12.648   8.380  1.00  0.00     0.049 A 
ATOM     67  H   UNL     1       7.925 -10.756   7.920  1.00  0.00     0.167 HD
ATOM     68  C   UNL     1       6.340 -12.856   8.936  1.00  0.00     0.074 A 
ATOM     69  C   UNL     1       5.185 -13.582   9.420  1.00  0.00     0.031 C 
ATOM     70  C   UNL     1       7.591 -13.373   8.855  1.00  0.00     0.037 A 
BRANCH  57  71
ATOM     71  C   UNL     1      11.756  -9.414   6.582  1.00  0.00     0.057 A 
ATOM     72  C   UNL     1      12.632  -8.548   7.254  1.00  0.00     0.134 A 
ATOM     73  C   UNL     1      12.280 -10.138   5.502  1.00  0.00     0.134 A 
ATOM     74  F   UNL     1      12.205  -7.828   8.302  1.00  0.00    -0.206 F 
ATOM     75  C   UNL     1      13.960  -8.387   6.852  1.00  0.00     0.040 A 
ATOM     76  C   UNL     1      13.616 -10.010   5.111  1.00  0.00     0.040 A 
ATOM     77  F   UNL     1      11.511 -11.002   4.822  1.00  0.00    -0.206 F 
ATOM     78  C   UNL     1      14.458  -9.127   5.783  1.00  0.00     0.006 A 
ENDBRANCH  57  71
BRANCH  58  79
ATOM     79  C   UNL     1       2.194 -10.648   9.023  1.00  0.00     0.057 A 
ATOM     80  C   UNL     1       1.796 -10.856  10.349  1.00  0.00     0.134 A 
ATOM     81  C   UNL     1       1.193 -10.613   8.046  1.00  0.00     0.134 A 
ATOM     82  F   UNL     1       2.711 -10.906  11.328  1.00  0.00    -0.206 F 
ATOM     83  C   UNL     1       0.457 -11.052  10.689  1.00  0.00     0.040 A 
ATOM     84  C   UNL     1      -0.153 -10.777   8.376  1.00  0.00     0.040 A 
ATOM     85  F   UNL     1       1.507 -10.393   6.761  1.00  0.00    -0.206 F 
ATOM     86  C   UNL     1      -0.523 -11.008   9.700  1.00  0.00     0.006 A 
ENDBRANCH  58  79
BRANCH  70  87
ATOM     87  C   UNL     1       7.781 -14.784   9.336  1.00  0.00     0.057 A 
ATOM     88  C   UNL     1       7.231 -15.883   8.660  1.00  0.00     0.134 A 
ATOM     89  C   UNL     1       8.527 -15.048  10.492  1.00  0.00     0.134 A 
ATOM     90  F   UNL     1       6.496 -15.702   7.553  1.00  0.00    -0.206 F 
ATOM     91  C   UNL     1       7.381 -17.185   9.140  1.00  0.00     0.040 A 
ATOM     92  C   UNL     1       8.713 -16.349  10.962  1.00  0.00     0.040 A 
ATOM     93  F   UNL     1       9.091 -14.047  11.184  1.00  0.00    -0.206 F 
ATOM     94  C   UNL     1       8.128 -17.422  10.292  1.00  0.00     0.006 A 
ENDBRANCH  70  87
ENDBRANCH  44  45
ENDBRANCH  36  39
ENDBRANCH  34  35
ENDBRANCH  33  34
ENDBRANCH   1  33
TORSDOF 14
