REMARK SMILES CC[C@@](C)(NC(=O)N(C)[C@@H](C)C(C)C)C(=O)NCCCNC(=O)c1ccc(-c2c3nc(c(-c4c(F)cccc4F)c4ccc([nH]4)c(-c4c(F)cccc4F)c4nc(c(-c5c(F)cccc5F)c5ccc2[nH]5)C=C4)C=C3)cc1
REMARK SMILES IDX 18 1 17 2 15 3 16 4 3 6 4 7 2 8 1 9 5 10 6 11 7 13 8 14 9 15
REMARK SMILES IDX 10 16 11 17 12 18 13 19 14 20 19 21 20 22 21 23 22 24 23 26
REMARK SMILES IDX 24 27 25 28 77 29 26 30 76 31 27 32 28 33 29 34 70 35 30 36
REMARK SMILES IDX 75 37 69 38 71 39 31 40 74 41 68 42 67 43 32 45 58 46 41 47
REMARK SMILES IDX 57 48 42 49 45 50 56 51 72 52 43 53 44 54 55 56 73 57 46 58
REMARK SMILES IDX 33 59 34 60 39 61 35 62 36 63 38 64 40 65 37 66 59 67 60 68
REMARK SMILES IDX 65 69 61 70 62 71 64 72 66 73 63 74 47 75 48 76 53 77 49 78
REMARK SMILES IDX 50 79 52 80 54 81 51 82
REMARK H PARENT 17 5 5 12 21 25 71 44 45 55
REMARK Flexibility Score: inf
ROOT
ATOM      1  C   UNL     1       2.447   5.242   0.104  1.00  0.00     0.117 C 
ENDROOT
BRANCH   1   2
ATOM      2  N   UNL     1       2.978   3.900  -0.068  1.00  0.00    -0.354 N 
ATOM      3  C   UNL     1       2.546   2.651   0.264  1.00  0.00     0.245 C 
ATOM      4  O   UNL     1       3.257   1.736  -0.171  1.00  0.00    -0.272 OA
ATOM      5  H   UNL     1       3.847   3.892  -0.530  1.00  0.00     0.163 HD
BRANCH   3   6
ATOM      6  C   UNL     1       1.226   2.349   1.044  1.00  0.00     0.117 C 
ATOM      7  C   UNL     1       0.060   2.777   0.110  1.00  0.00     0.045 C 
BRANCH   6   8
ATOM      8  C   UNL     1       0.992   0.836   1.366  1.00  0.00     0.035 C 
ATOM      9  C   UNL     1       0.997  -0.140   0.191  1.00  0.00     0.007 C 
ENDBRANCH   6   8
BRANCH   6  10
ATOM     10  N   UNL     1       1.081   3.112   2.314  1.00  0.00    -0.324 N 
ATOM     11  C   UNL     1       1.706   3.261   3.500  1.00  0.00     0.318 C 
ATOM     12  H   UNL     1       0.282   3.686   2.277  1.00  0.00     0.166 HD
ATOM     13  O   UNL     1       0.985   3.741   4.382  1.00  0.00    -0.249 OA
BRANCH  11  14
ATOM     14  N   UNL     1       3.042   3.047   3.701  1.00  0.00    -0.325 N 
ATOM     15  C   UNL     1       3.924   2.246   2.867  1.00  0.00     0.149 C 
BRANCH  14  16
ATOM     16  C   UNL     1       3.714   3.655   4.887  1.00  0.00     0.086 C 
ATOM     17  C   UNL     1       3.306   5.120   5.153  1.00  0.00     0.031 C 
BRANCH  16  18
ATOM     18  C   UNL     1       3.602   2.822   6.199  1.00  0.00     0.005 C 
ATOM     19  C   UNL     1       3.881   1.329   6.013  1.00  0.00     0.009 C 
ATOM     20  C   UNL     1       4.576   3.363   7.260  1.00  0.00     0.009 C 
ENDBRANCH  16  18
ENDBRANCH  14  16
ENDBRANCH  11  14
ENDBRANCH   6  10
ENDBRANCH   3   6
ENDBRANCH   1   2
BRANCH   1  21
ATOM     21  C   UNL     1       2.889   5.954   1.377  1.00  0.00     0.042 C 
BRANCH  21  22
ATOM     22  C   UNL     1       4.389   5.955   1.657  1.00  0.00     0.118 C 
BRANCH  22  23
ATOM     23  N   UNL     1       5.131   6.853   0.795  1.00  0.00    -0.352 N 
ATOM     24  C   UNL     1       5.796   8.023   1.062  1.00  0.00     0.251 C 
ATOM     25  H   UNL     1       5.163   6.575  -0.148  1.00  0.00     0.163 HD
ATOM     26  O   UNL     1       6.221   8.676   0.110  1.00  0.00    -0.269 OA
BRANCH  24  27
ATOM     27  C   UNL     1       6.016   8.541   2.440  1.00  0.00     0.039 A 
ATOM     28  C   UNL     1       5.992   9.931   2.614  1.00  0.00     0.014 A 
ATOM     29  C   UNL     1       6.369   7.732   3.526  1.00  0.00     0.014 A 
ATOM     30  C   UNL     1       6.307  10.502   3.852  1.00  0.00     0.010 A 
ATOM     31  C   UNL     1       6.624   8.301   4.784  1.00  0.00     0.010 A 
ATOM     32  C   UNL     1       6.624   9.694   4.954  1.00  0.00    -0.014 A 
BRANCH  32  33
ATOM     33  C   UNL     1       7.005  10.321   6.252  1.00  0.00     0.031 A 
ATOM     34  C   UNL     1       8.419  10.229   6.767  1.00  0.00     0.074 A 
ATOM     35  C   UNL     1       6.090  11.005   6.967  1.00  0.00     0.049 A 
ATOM     36  N   UNL     1       8.945  10.768   7.841  1.00  0.00    -0.248 NA
ATOM     37  C   UNL     1       9.361   9.417   5.984  1.00  0.00     0.031 C 
ATOM     38  C   UNL     1       4.678  11.152   6.614  1.00  0.00     0.029 A 
ATOM     39  N   UNL     1       6.217  11.715   8.137  1.00  0.00    -0.354 N 
ATOM     40  C   UNL     1      10.271  10.353   7.866  1.00  0.00     0.074 A 
ATOM     41  C   UNL     1      10.459   9.484   6.723  1.00  0.00     0.031 C 
ATOM     42  C   UNL     1       4.076  11.929   7.530  1.00  0.00     0.029 A 
ATOM     43  C   UNL     1       5.054  12.323   8.542  1.00  0.00     0.049 A 
ATOM     44  H   UNL     1       7.062  11.781   8.637  1.00  0.00     0.167 HD
ATOM     45  C   UNL     1      11.252  10.679   8.743  1.00  0.00     0.037 A 
ATOM     46  C   UNL     1       4.802  13.119   9.598  1.00  0.00     0.037 A 
ATOM     47  C   UNL     1      11.091  11.566   9.866  1.00  0.00     0.049 A 
ATOM     48  C   UNL     1       5.913  13.491  10.541  1.00  0.00     0.074 A 
ATOM     49  C   UNL     1      12.044  11.985  10.779  1.00  0.00     0.029 A 
ATOM     50  N   UNL     1       9.900  12.174  10.227  1.00  0.00    -0.354 N 
ATOM     51  N   UNL     1       7.174  13.137  10.514  1.00  0.00    -0.248 NA
ATOM     52  C   UNL     1       5.564  14.387  11.654  1.00  0.00     0.031 C 
ATOM     53  C   UNL     1      11.425  12.829  11.708  1.00  0.00     0.029 A 
ATOM     54  C   UNL     1      10.092  12.959  11.353  1.00  0.00     0.049 A 
ATOM     55  H   UNL     1       9.043  12.065   9.754  1.00  0.00     0.167 HD
ATOM     56  C   UNL     1       7.774  13.787  11.585  1.00  0.00     0.074 A 
ATOM     57  C   UNL     1       6.742  14.566  12.236  1.00  0.00     0.031 C 
ATOM     58  C   UNL     1       9.066  13.742  11.989  1.00  0.00     0.037 A 
BRANCH  45  59
ATOM     59  C   UNL     1      12.606  10.074   8.516  1.00  0.00     0.057 A 
ATOM     60  C   UNL     1      13.444  10.516   7.484  1.00  0.00     0.134 A 
ATOM     61  C   UNL     1      13.092   9.070   9.361  1.00  0.00     0.134 A 
ATOM     62  F   UNL     1      13.031  11.469   6.635  1.00  0.00    -0.206 F 
ATOM     63  C   UNL     1      14.710   9.964   7.288  1.00  0.00     0.040 A 
ATOM     64  C   UNL     1      14.366   8.525   9.188  1.00  0.00     0.040 A 
ATOM     65  F   UNL     1      12.343   8.608  10.373  1.00  0.00    -0.206 F 
ATOM     66  C   UNL     1      15.177   8.970   8.145  1.00  0.00     0.006 A 
ENDBRANCH  45  59
BRANCH  46  67
ATOM     67  C   UNL     1       3.438  13.664   9.803  1.00  0.00     0.057 A 
ATOM     68  C   UNL     1       3.156  15.012   9.556  1.00  0.00     0.134 A 
ATOM     69  C   UNL     1       2.394  12.856  10.267  1.00  0.00     0.134 A 
ATOM     70  F   UNL     1       4.124  15.838   9.132  1.00  0.00    -0.206 F 
ATOM     71  C   UNL     1       1.885  15.543   9.777  1.00  0.00     0.040 A 
ATOM     72  C   UNL     1       1.113  13.370  10.473  1.00  0.00     0.040 A 
ATOM     73  F   UNL     1       2.605  11.557  10.521  1.00  0.00    -0.206 F 
ATOM     74  C   UNL     1       0.858  14.719  10.233  1.00  0.00     0.006 A 
ENDBRANCH  46  67
BRANCH  58  75
ATOM     75  C   UNL     1       9.445  14.585  13.169  1.00  0.00     0.057 A 
ATOM     76  C   UNL     1       9.079  14.236  14.475  1.00  0.00     0.134 A 
ATOM     77  C   UNL     1      10.201  15.752  12.998  1.00  0.00     0.134 A 
ATOM     78  F   UNL     1       8.344  13.138  14.705  1.00  0.00    -0.206 F 
ATOM     79  C   UNL     1       9.431  15.031  15.568  1.00  0.00     0.040 A 
ATOM     80  C   UNL     1      10.576  16.544  14.085  1.00  0.00     0.040 A 
ATOM     81  F   UNL     1      10.588  16.139  11.774  1.00  0.00    -0.206 F 
ATOM     82  C   UNL     1      10.186  16.187  15.374  1.00  0.00     0.006 A 
ENDBRANCH  58  75
ENDBRANCH  32  33
ENDBRANCH  24  27
ENDBRANCH  22  23
ENDBRANCH  21  22
ENDBRANCH   1  21
TORSDOF 15
