REMARK SMILES COc1cccc(C2=NN3[C@@H](c4ccc(OC)c(OC)c4C(=O)NCCCNC(=O)c4ccc(-c5c6nc(c(-c7c(F)cccc7F)c7ccc([nH]7)c(-c7c(F)cccc7F)c7nc(c(-c8c(F)cccc8F)c8ccc5[nH]8)C=C7)C=C6)cc4)Oc4c(OC)cccc4[C@@H]3C2)c1
REMARK SMILES IDX 25 1 24 2 22 3 23 4 21 6 12 7 13 8 14 9 18 10 15 11 11 12
REMARK SMILES IDX 8 13 9 14 95 15 10 16 94 17 93 18 85 19 86 20 92 21 87 22
REMARK SMILES IDX 91 23 90 24 7 25 3 26 4 27 96 28 5 29 6 30 2 31 1 32 88 33
REMARK SMILES IDX 89 34 19 35 20 36 16 37 17 38 26 39 27 40 28 41 29 42 30 44
REMARK SMILES IDX 31 45 32 46 84 47 33 48 83 49 34 50 35 51 36 52 77 53 37 54
REMARK SMILES IDX 82 55 76 56 78 57 38 58 81 59 75 60 74 61 39 63 65 64 48 65
REMARK SMILES IDX 64 66 49 67 52 68 63 69 79 70 50 71 51 72 62 74 80 75 53 76
REMARK SMILES IDX 40 77 41 78 46 79 42 80 43 81 45 82 47 83 44 84 66 85 67 86
REMARK SMILES IDX 72 87 68 88 69 89 71 90 73 91 70 92 54 93 55 94 60 95 56 96
REMARK SMILES IDX 57 97 59 98 61 99 58 100
REMARK H PARENT 24 5 28 43 78 62 52 73
REMARK Flexibility Score: inf
ROOT
ATOM      1  C   UNL     1       5.378   5.377   1.437  1.00  0.00     0.118 C 
ENDROOT
BRANCH   1   2
ATOM      2  N   UNL     1       6.758   4.925   1.220  1.00  0.00    -0.352 N 
ATOM      3  C   UNL     1       7.859   5.758   1.229  1.00  0.00     0.255 C 
ATOM      4  O   UNL     1       7.891   6.845   1.802  1.00  0.00    -0.269 OA
ATOM      5  H   UNL     1       6.908   3.966   1.057  1.00  0.00     0.163 HD
BRANCH   3   6
ATOM      6  C   UNL     1       9.013   5.273   0.409  1.00  0.00     0.094 A 
ATOM      7  C   UNL     1       8.795   5.053  -0.981  1.00  0.00     0.032 A 
ATOM      8  C   UNL     1       9.852   4.577  -1.772  1.00  0.00     0.014 A 
ATOM      9  C   UNL     1      11.109   4.375  -1.220  1.00  0.00     0.051 A 
ATOM     10  C   UNL     1      10.305   5.106   0.959  1.00  0.00     0.173 A 
ATOM     11  C   UNL     1      11.358   4.678   0.123  1.00  0.00     0.161 A 
BRANCH   7  12
ATOM     12  C   UNL     1       7.511   5.478  -1.670  1.00  0.00     0.321 C 
ATOM     13  C   UNL     1       5.300   3.456  -3.321  1.00  0.00     0.070 C 
ATOM     14  N   UNL     1       6.129   3.557  -2.321  1.00  0.00    -0.178 NA
ATOM     15  C   UNL     1       5.752   4.186  -4.556  1.00  0.00     0.090 C 
ATOM     16  N   UNL     1       7.052   4.518  -2.717  1.00  0.00    -0.246 NA
ATOM     17  C   UNL     1       6.520   5.289  -3.866  1.00  0.00     0.146 C 
ATOM     18  C   UNL     1       5.725   6.480  -3.364  1.00  0.00     0.023 A 
ATOM     19  O   UNL     1       7.693   6.849  -2.128  1.00  0.00    -0.460 OA
ATOM     20  C   UNL     1       6.450   7.316  -2.499  1.00  0.00     0.169 A 
ATOM     21  C   UNL     1       4.389   6.782  -3.631  1.00  0.00     0.010 A 
ATOM     22  C   UNL     1       5.908   8.501  -2.006  1.00  0.00     0.161 A 
ATOM     23  C   UNL     1       3.805   7.916  -3.061  1.00  0.00     0.004 A 
ATOM     24  C   UNL     1       4.572   8.789  -2.286  1.00  0.00     0.050 A 
BRANCH  13  25
ATOM     25  C   UNL     1       3.988   2.787  -3.250  1.00  0.00     0.001 A 
ATOM     26  C   UNL     1       2.446   1.305  -2.150  1.00  0.00     0.119 A 
ATOM     27  C   UNL     1       1.449   1.797  -2.985  1.00  0.00     0.046 A 
ATOM     28  C   UNL     1       3.732   1.813  -2.269  1.00  0.00     0.056 A 
ATOM     29  C   UNL     1       1.678   2.763  -3.948  1.00  0.00     0.005 A 
ATOM     30  C   UNL     1       2.961   3.246  -4.091  1.00  0.00     0.010 A 
BRANCH  26  31
ATOM     31  O   UNL     1       1.979   0.344  -1.307  1.00  0.00    -0.497 OA
ATOM     32  C   UNL     1       2.782  -0.048  -0.213  1.00  0.00     0.278 C 
ENDBRANCH  26  31
ENDBRANCH  13  25
BRANCH  22  33
ATOM     33  O   UNL     1       6.598   9.470  -1.337  1.00  0.00    -0.493 OA
ATOM     34  C   UNL     1       7.199   9.027  -0.126  1.00  0.00     0.278 C 
ENDBRANCH  22  33
ENDBRANCH   7  12
BRANCH  10  35
ATOM     35  O   UNL     1      10.625   5.429   2.251  1.00  0.00    -0.492 OA
ATOM     36  C   UNL     1       9.848   4.803   3.264  1.00  0.00     0.278 C 
ENDBRANCH  10  35
BRANCH  11  37
ATOM     37  O   UNL     1      12.668   4.454   0.461  1.00  0.00    -0.493 OA
ATOM     38  C   UNL     1      13.222   5.227   1.515  1.00  0.00     0.278 C 
ENDBRANCH  11  37
ENDBRANCH   3   6
ENDBRANCH   1   2
BRANCH   1  39
ATOM     39  C   UNL     1       4.454   4.660   0.440  1.00  0.00     0.042 C 
BRANCH  39  40
ATOM     40  C   UNL     1       2.964   4.626   0.767  1.00  0.00     0.118 C 
BRANCH  40  41
ATOM     41  N   UNL     1       2.197   5.749   0.250  1.00  0.00    -0.352 N 
ATOM     42  C   UNL     1       0.965   5.806  -0.373  1.00  0.00     0.251 C 
ATOM     43  H   UNL     1       2.634   6.623   0.364  1.00  0.00     0.163 HD
ATOM     44  O   UNL     1       0.577   6.904  -0.776  1.00  0.00    -0.269 OA
BRANCH  42  45
ATOM     45  C   UNL     1       0.093   4.611  -0.615  1.00  0.00     0.039 A 
ATOM     46  C   UNL     1      -0.835   4.653  -1.675  1.00  0.00     0.014 A 
ATOM     47  C   UNL     1       0.113   3.470   0.180  1.00  0.00     0.014 A 
ATOM     48  C   UNL     1      -1.669   3.554  -1.977  1.00  0.00     0.010 A 
ATOM     49  C   UNL     1      -0.650   2.349  -0.171  1.00  0.00     0.010 A 
ATOM     50  C   UNL     1      -1.561   2.369  -1.248  1.00  0.00    -0.014 A 
BRANCH  50  51
ATOM     51  C   UNL     1      -2.354   1.120  -1.504  1.00  0.00     0.031 A 
ATOM     52  C   UNL     1      -3.139   0.528  -0.364  1.00  0.00     0.074 A 
ATOM     53  C   UNL     1      -2.217   0.390  -2.634  1.00  0.00     0.049 A 
ATOM     54  N   UNL     1      -3.625  -0.679  -0.225  1.00  0.00    -0.248 NA
ATOM     55  C   UNL     1      -3.403   1.421   0.777  1.00  0.00     0.031 C 
ATOM     56  C   UNL     1      -1.562   0.807  -3.869  1.00  0.00     0.029 A 
ATOM     57  N   UNL     1      -2.497  -0.943  -2.859  1.00  0.00    -0.354 N 
ATOM     58  C   UNL     1      -4.284  -0.674   0.995  1.00  0.00     0.074 A 
ATOM     59  C   UNL     1      -4.020   0.606   1.617  1.00  0.00     0.031 C 
ATOM     60  C   UNL     1      -1.262  -0.279  -4.602  1.00  0.00     0.029 A 
ATOM     61  C   UNL     1      -1.806  -1.456  -3.938  1.00  0.00     0.049 A 
ATOM     62  H   UNL     1      -3.121  -1.470  -2.310  1.00  0.00     0.167 HD
ATOM     63  C   UNL     1      -5.109  -1.614   1.513  1.00  0.00     0.037 A 
ATOM     64  C   UNL     1      -1.613  -2.727  -4.338  1.00  0.00     0.037 A 
ATOM     65  C   UNL     1      -5.402  -2.871   0.883  1.00  0.00     0.049 A 
ATOM     66  C   UNL     1      -2.404  -3.822  -3.688  1.00  0.00     0.074 A 
ATOM     67  C   UNL     1      -6.333  -3.829   1.243  1.00  0.00     0.029 A 
ATOM     68  N   UNL     1      -4.752  -3.348  -0.244  1.00  0.00    -0.354 N 
ATOM     69  N   UNL     1      -3.156  -3.768  -2.619  1.00  0.00    -0.248 NA
ATOM     70  C   UNL     1      -2.405  -5.128  -4.363  1.00  0.00     0.031 C 
ATOM     71  C   UNL     1      -6.229  -4.899   0.345  1.00  0.00     0.029 A 
ATOM     72  C   UNL     1      -5.247  -4.595  -0.584  1.00  0.00     0.049 A 
ATOM     73  H   UNL     1      -4.042  -2.870  -0.731  1.00  0.00     0.167 HD
ATOM     74  C   UNL     1      -3.809  -4.991  -2.557  1.00  0.00     0.074 A 
ATOM     75  C   UNL     1      -3.311  -5.791  -3.656  1.00  0.00     0.031 C 
ATOM     76  C   UNL     1      -4.779  -5.381  -1.696  1.00  0.00     0.037 A 
BRANCH  63  77
ATOM     77  C   UNL     1      -5.810  -1.256   2.788  1.00  0.00     0.057 A 
ATOM     78  C   UNL     1      -6.806  -0.267   2.808  1.00  0.00     0.134 A 
ATOM     79  C   UNL     1      -5.479  -1.869   3.999  1.00  0.00     0.134 A 
ATOM     80  F   UNL     1      -7.157   0.366   1.679  1.00  0.00    -0.206 F 
ATOM     81  C   UNL     1      -7.414   0.132   3.997  1.00  0.00     0.040 A 
ATOM     82  C   UNL     1      -6.100  -1.495   5.193  1.00  0.00     0.040 A 
ATOM     83  F   UNL     1      -4.538  -2.823   4.047  1.00  0.00    -0.206 F 
ATOM     84  C   UNL     1      -7.061  -0.484   5.195  1.00  0.00     0.006 A 
ENDBRANCH  63  77
BRANCH  64  85
ATOM     85  C   UNL     1      -0.703  -3.035  -5.468  1.00  0.00     0.057 A 
ATOM     86  C   UNL     1      -1.190  -3.186  -6.770  1.00  0.00     0.134 A 
ATOM     87  C   UNL     1       0.668  -3.228  -5.263  1.00  0.00     0.134 A 
ATOM     88  F   UNL     1      -2.499  -3.036  -7.018  1.00  0.00    -0.206 F 
ATOM     89  C   UNL     1      -0.350  -3.533  -7.829  1.00  0.00     0.040 A 
ATOM     90  C   UNL     1       1.522  -3.567  -6.316  1.00  0.00     0.040 A 
ATOM     91  F   UNL     1       1.194  -3.110  -4.035  1.00  0.00    -0.206 F 
ATOM     92  C   UNL     1       1.012  -3.724  -7.603  1.00  0.00     0.006 A 
ENDBRANCH  64  85
BRANCH  76  93
ATOM     93  C   UNL     1      -5.452  -6.689  -1.969  1.00  0.00     0.057 A 
ATOM     94  C   UNL     1      -4.845  -7.917  -1.686  1.00  0.00     0.134 A 
ATOM     95  C   UNL     1      -6.748  -6.711  -2.502  1.00  0.00     0.134 A 
ATOM     96  F   UNL     1      -3.597  -7.961  -1.196  1.00  0.00    -0.206 F 
ATOM     97  C   UNL     1      -5.501  -9.124  -1.934  1.00  0.00     0.040 A 
ATOM     98  C   UNL     1      -7.421  -7.910  -2.735  1.00  0.00     0.040 A 
ATOM     99  F   UNL     1      -7.383  -5.566  -2.796  1.00  0.00    -0.206 F 
ATOM    100  C   UNL     1      -6.795  -9.122  -2.453  1.00  0.00     0.006 A 
ENDBRANCH  76  93
ENDBRANCH  50  51
ENDBRANCH  42  45
ENDBRANCH  40  41
ENDBRANCH  39  40
ENDBRANCH   1  39
TORSDOF 16
