REMARK SMILES CCOc1ccc(-c2cnc(N)cc2C(=O)NCCCNC(=O)c2ccc(-c3c4nc(c(-c5c(F)cccc5F)c5ccc([nH]5)c(-c5c(F)cccc5F)c5nc(c(-c6c(F)cccc6F)c6ccc3[nH]6)C=C5)C=C4)cc2)c(Cl)c1
REMARK SMILES IDX 18 1 17 2 15 3 16 4 14 6 8 7 9 8 10 9 13 10 11 11 7 12 4 13
REMARK SMILES IDX 5 14 80 15 6 16 78 17 79 18 3 19 2 20 1 21 12 22 19 25 20 26
REMARK SMILES IDX 21 27 22 28 23 30 24 31 25 32 77 33 26 34 76 35 27 36 28 37
REMARK SMILES IDX 29 38 70 39 30 40 75 41 69 42 71 43 31 44 74 45 68 46 67 47
REMARK SMILES IDX 32 49 58 50 41 51 57 52 42 53 45 54 56 55 72 56 43 57 44 58
REMARK SMILES IDX 55 60 73 61 46 62 33 63 34 64 39 65 35 66 36 67 38 68 40 69
REMARK SMILES IDX 37 70 59 71 60 72 65 73 61 74 62 75 64 76 66 77 63 78 47 79
REMARK SMILES IDX 48 80 53 81 49 82 50 83 52 84 54 85 51 86
REMARK H PARENT 17 5 12 23 12 24 21 29 71 48 45 59
REMARK Flexibility Score: inf
ROOT
ATOM      1  C   UNL     1       9.198  -2.725   4.375  1.00  0.00     0.118 C 
ENDROOT
BRANCH   1   2
ATOM      2  N   UNL     1       7.776  -2.471   4.245  1.00  0.00    -0.352 N 
ATOM      3  C   UNL     1       6.988  -1.377   3.994  1.00  0.00     0.252 C 
ATOM      4  O   UNL     1       5.793  -1.649   3.879  1.00  0.00    -0.269 OA
ATOM      5  H   UNL     1       7.242  -3.290   4.366  1.00  0.00     0.163 HD
BRANCH   3   6
ATOM      6  C   UNL     1       7.481   0.034   3.811  1.00  0.00     0.052 A 
ATOM      7  C   UNL     1       6.620   1.038   3.311  1.00  0.00     0.014 A 
ATOM      8  C   UNL     1       7.198   2.286   3.050  1.00  0.00     0.123 A 
ATOM      9  N   UNL     1       8.498   2.601   3.232  1.00  0.00    -0.239 NA
ATOM     10  C   UNL     1       8.800   0.400   4.101  1.00  0.00     0.061 A 
ATOM     11  C   UNL     1       9.278   1.654   3.752  1.00  0.00     0.124 A 
BRANCH   7  12
ATOM     12  C   UNL     1       5.177   0.896   3.039  1.00  0.00     0.003 A 
ATOM     13  C   UNL     1       2.437   0.703   2.404  1.00  0.00     0.120 A 
ATOM     14  C   UNL     1       3.375   0.875   1.392  1.00  0.00     0.047 A 
ATOM     15  C   UNL     1       2.841   0.677   3.735  1.00  0.00     0.067 A 
ATOM     16  C   UNL     1       4.732   0.948   1.704  1.00  0.00     0.014 A 
ATOM     17  C   UNL     1       4.200   0.786   4.053  1.00  0.00     0.052 A 
ATOM     18  Cl  UNL     1       4.625   0.835   5.734  1.00  0.00    -0.084 Cl
BRANCH  13  19
ATOM     19  O   UNL     1       1.097   0.683   2.137  1.00  0.00    -0.494 OA
BRANCH  19  20
ATOM     20  C   UNL     1       0.681  -0.477   1.406  1.00  0.00     0.226 C 
ATOM     21  C   UNL     1       0.578  -0.187  -0.083  1.00  0.00     0.049 C 
ENDBRANCH  19  20
ENDBRANCH  13  19
ENDBRANCH   7  12
BRANCH  11  22
ATOM     22  N   UNL     1      10.599   1.994   3.968  1.00  0.00    -0.384 N 
ATOM     23  H   UNL     1      10.924   2.888   3.715  1.00  0.00     0.158 HD
ATOM     24  H   UNL     1      11.215   1.343   4.374  1.00  0.00     0.158 HD
ENDBRANCH  11  22
ENDBRANCH   3   6
ENDBRANCH   1   2
BRANCH   1  25
ATOM     25  C   UNL     1       9.638  -2.720   5.838  1.00  0.00     0.042 C 
BRANCH  25  26
ATOM     26  C   UNL     1       9.117  -3.918   6.635  1.00  0.00     0.118 C 
BRANCH  26  27
ATOM     27  N   UNL     1       9.667  -5.177   6.150  1.00  0.00    -0.352 N 
ATOM     28  C   UNL     1      10.469  -6.097   6.773  1.00  0.00     0.251 C 
ATOM     29  H   UNL     1       9.422  -5.404   5.224  1.00  0.00     0.163 HD
ATOM     30  O   UNL     1      11.025  -6.963   6.104  1.00  0.00    -0.269 OA
BRANCH  28  31
ATOM     31  C   UNL     1      10.671  -6.063   8.238  1.00  0.00     0.039 A 
ATOM     32  C   UNL     1      11.940  -6.352   8.748  1.00  0.00     0.014 A 
ATOM     33  C   UNL     1       9.605  -5.823   9.110  1.00  0.00     0.014 A 
ATOM     34  C   UNL     1      12.152  -6.353  10.128  1.00  0.00     0.010 A 
ATOM     35  C   UNL     1       9.831  -5.763  10.484  1.00  0.00     0.010 A 
ATOM     36  C   UNL     1      11.104  -6.035  11.006  1.00  0.00    -0.014 A 
BRANCH  36  37
ATOM     37  C   UNL     1      11.320  -5.986  12.474  1.00  0.00     0.031 A 
ATOM     38  C   UNL     1      10.627  -6.969  13.375  1.00  0.00     0.074 A 
ATOM     39  C   UNL     1      12.089  -5.013  12.998  1.00  0.00     0.049 A 
ATOM     40  N   UNL     1      10.626  -7.034  14.683  1.00  0.00    -0.248 NA
ATOM     41  C   UNL     1       9.806  -8.000  12.722  1.00  0.00     0.031 C 
ATOM     42  C   UNL     1      12.780  -3.975  12.232  1.00  0.00     0.029 A 
ATOM     43  N   UNL     1      12.407  -4.730  14.303  1.00  0.00    -0.354 N 
ATOM     44  C   UNL     1       9.793  -8.097  15.008  1.00  0.00     0.074 A 
ATOM     45  C   UNL     1       9.272  -8.621  13.764  1.00  0.00     0.031 C 
ATOM     46  C   UNL     1      13.453  -3.179  13.078  1.00  0.00     0.029 A 
ATOM     47  C   UNL     1      13.214  -3.628  14.445  1.00  0.00     0.049 A 
ATOM     48  H   UNL     1      12.088  -5.267  15.064  1.00  0.00     0.167 HD
ATOM     49  C   UNL     1       9.503  -8.602  16.231  1.00  0.00     0.037 A 
ATOM     50  C   UNL     1      13.698  -3.040  15.555  1.00  0.00     0.037 A 
ATOM     51  C   UNL     1      10.046  -8.096  17.465  1.00  0.00     0.049 A 
ATOM     52  C   UNL     1      13.367  -3.623  16.900  1.00  0.00     0.074 A 
ATOM     53  C   UNL     1       9.861  -8.576  18.750  1.00  0.00     0.029 A 
ATOM     54  N   UNL     1      10.879  -6.992  17.566  1.00  0.00    -0.354 N 
ATOM     55  N   UNL     1      12.627  -4.665  17.189  1.00  0.00    -0.248 NA
ATOM     56  C   UNL     1      13.943  -2.950  18.073  1.00  0.00     0.031 C 
ATOM     57  C   UNL     1      10.555  -7.741  19.633  1.00  0.00     0.029 A 
ATOM     58  C   UNL     1      11.205  -6.766  18.893  1.00  0.00     0.049 A 
ATOM     59  H   UNL     1      11.193  -6.450  16.807  1.00  0.00     0.167 HD
ATOM     60  C   UNL     1      12.668  -4.789  18.571  1.00  0.00     0.074 A 
ATOM     61  C   UNL     1      13.517  -3.724  19.062  1.00  0.00     0.031 C 
ATOM     62  C   UNL     1      12.058  -5.704  19.363  1.00  0.00     0.037 A 
BRANCH  49  63
ATOM     63  C   UNL     1       8.558  -9.766  16.293  1.00  0.00     0.057 A 
ATOM     64  C   UNL     1       8.931 -11.043  15.854  1.00  0.00     0.134 A 
ATOM     65  C   UNL     1       7.272  -9.617  16.827  1.00  0.00     0.134 A 
ATOM     66  F   UNL     1      10.145 -11.252  15.322  1.00  0.00    -0.206 F 
ATOM     67  C   UNL     1       8.050 -12.124  15.920  1.00  0.00     0.040 A 
ATOM     68  C   UNL     1       6.391 -10.695  16.921  1.00  0.00     0.040 A 
ATOM     69  F   UNL     1       6.853  -8.422  17.272  1.00  0.00    -0.206 F 
ATOM     70  C   UNL     1       6.777 -11.953  16.461  1.00  0.00     0.006 A 
ENDBRANCH  49  63
BRANCH  50  71
ATOM     71  C   UNL     1      14.570  -1.845  15.439  1.00  0.00     0.057 A 
ATOM     72  C   UNL     1      15.939  -1.923  15.717  1.00  0.00     0.134 A 
ATOM     73  C   UNL     1      14.059  -0.601  15.049  1.00  0.00     0.134 A 
ATOM     74  F   UNL     1      16.481  -3.084  16.112  1.00  0.00    -0.206 F 
ATOM     75  C   UNL     1      16.768  -0.804  15.628  1.00  0.00     0.040 A 
ATOM     76  C   UNL     1      14.881   0.521  14.934  1.00  0.00     0.040 A 
ATOM     77  F   UNL     1      12.757  -0.464  14.761  1.00  0.00    -0.206 F 
ATOM     78  C   UNL     1      16.239   0.422  15.230  1.00  0.00     0.006 A 
ENDBRANCH  50  71
BRANCH  62  79
ATOM     79  C   UNL     1      12.314  -5.611  20.837  1.00  0.00     0.057 A 
ATOM     80  C   UNL     1      11.736  -4.608  21.625  1.00  0.00     0.134 A 
ATOM     81  C   UNL     1      13.119  -6.559  21.481  1.00  0.00     0.134 A 
ATOM     82  F   UNL     1      10.967  -3.662  21.065  1.00  0.00    -0.206 F 
ATOM     83  C   UNL     1      11.967  -4.538  23.000  1.00  0.00     0.040 A 
ATOM     84  C   UNL     1      13.338  -6.514  22.858  1.00  0.00     0.040 A 
ATOM     85  F   UNL     1      13.695  -7.550  20.784  1.00  0.00    -0.206 F 
ATOM     86  C   UNL     1      12.765  -5.498  23.621  1.00  0.00     0.006 A 
ENDBRANCH  62  79
ENDBRANCH  36  37
ENDBRANCH  28  31
ENDBRANCH  26  27
ENDBRANCH  25  26
ENDBRANCH   1  25
TORSDOF 14
