REMARK SMILES CC1=C(C#N)C(=O)N(C)C(=O)/C1=C\Nc1ccc(C(=O)NCCCNC(=O)c2ccc(-c3c4nc(c(-c5c(F)cccc5F)c5ccc([nH]5)c(-c5c(F)cccc5F)c5nc(c(-c6c(F)cccc6F)c6ccc3[nH]6)C=C5)C=C4)cc2)c(O)c1
REMARK SMILES IDX 22 1 21 2 19 3 20 4 18 6 15 7 16 8 84 9 17 10 82 11 14 12
REMARK SMILES IDX 13 14 1 15 2 16 3 17 12 18 6 19 10 20 7 21 8 22 11 23 9 24
REMARK SMILES IDX 4 25 5 26 83 27 23 29 24 30 25 31 26 32 27 34 28 35 29 36
REMARK SMILES IDX 81 37 30 38 80 39 31 40 32 41 33 42 74 43 34 44 79 45 73 46
REMARK SMILES IDX 75 47 35 48 78 49 72 50 71 51 36 53 62 54 45 55 61 56 46 57
REMARK SMILES IDX 49 58 60 59 76 60 47 61 48 62 59 64 77 65 50 66 37 67 38 68
REMARK SMILES IDX 43 69 39 70 40 71 42 72 44 73 41 74 63 75 64 76 69 77 65 78
REMARK SMILES IDX 66 79 68 80 70 81 67 82 51 83 52 84 57 85 53 86 54 87 56 88
REMARK SMILES IDX 58 89 55 90
REMARK H PARENT 21 5 14 13 83 28 25 33 75 52 49 63
REMARK Flexibility Score: inf
ROOT
ATOM      1  C   UNL     1      -6.591   3.371  -5.604  1.00  0.00     0.118 C 
ENDROOT
BRANCH   1   2
ATOM      2  N   UNL     1      -5.531   4.203  -6.160  1.00  0.00    -0.352 N 
ATOM      3  C   UNL     1      -4.171   4.022  -6.170  1.00  0.00     0.255 C 
ATOM      4  O   UNL     1      -3.460   4.890  -6.671  1.00  0.00    -0.269 OA
ATOM      5  H   UNL     1      -5.841   5.027  -6.599  1.00  0.00     0.163 HD
BRANCH   3   6
ATOM      6  C   UNL     1      -3.546   2.836  -5.548  1.00  0.00     0.081 A 
ATOM      7  C   UNL     1      -2.361   0.736  -4.098  1.00  0.00     0.042 A 
ATOM      8  C   UNL     1      -1.806   2.019  -4.070  1.00  0.00     0.027 A 
ATOM      9  C   UNL     1      -3.479   0.508  -4.907  1.00  0.00     0.073 A 
ATOM     10  C   UNL     1      -2.395   3.064  -4.785  1.00  0.00     0.020 A 
ATOM     11  C   UNL     1      -4.028   1.533  -5.670  1.00  0.00     0.130 A 
BRANCH   7  12
ATOM     12  N   UNL     1      -1.882  -0.330  -3.333  1.00  0.00    -0.361 N 
ATOM     13  H   UNL     1      -2.255  -1.212  -3.562  1.00  0.00     0.166 HD
BRANCH  12  14
ATOM     14  C   UNL     1      -0.971  -0.329  -2.311  1.00  0.00     0.097 C 
ATOM     15  C   UNL     1       1.008   0.075  -0.120  1.00  0.00     0.047 C 
ATOM     16  C   UNL     1       0.585  -1.284  -0.643  1.00  0.00    -0.013 C 
ATOM     17  C   UNL     1       1.105  -2.409  -0.122  1.00  0.00     0.121 C 
ATOM     18  C   UNL     1      -0.387  -1.392  -1.724  1.00  0.00     0.060 C 
ATOM     19  C   UNL     1       0.773  -3.764  -0.622  1.00  0.00     0.271 C 
ATOM     20  C   UNL     1      -0.775  -2.760  -2.247  1.00  0.00     0.262 C 
ATOM     21  O   UNL     1       1.287  -4.754  -0.106  1.00  0.00    -0.268 OA
ATOM     22  N   UNL     1      -0.122  -3.840  -1.675  1.00  0.00    -0.277 N 
ATOM     23  O   UNL     1      -1.633  -2.893  -3.121  1.00  0.00    -0.269 OA
ATOM     24  C   UNL     1      -0.418  -5.172  -2.175  1.00  0.00     0.157 C 
BRANCH  17  25
ATOM     25  C   UNL     1       2.091  -2.344   1.033  1.00  0.00     0.105 C 
ATOM     26  N   UNL     1       2.909  -2.290   1.991  1.00  0.00    -0.192 NA
ENDBRANCH  17  25
ENDBRANCH  12  14
ENDBRANCH   7  12
BRANCH  11  27
ATOM     27  O   UNL     1      -5.021   1.157  -6.532  1.00  0.00    -0.507 OA
ATOM     28  H   UNL     1      -5.436   1.796  -7.076  1.00  0.00     0.293 HD
ENDBRANCH  11  27
ENDBRANCH   3   6
ENDBRANCH   1   2
BRANCH   1  29
ATOM     29  C   UNL     1      -7.699   4.149  -4.917  1.00  0.00     0.042 C 
BRANCH  29  30
ATOM     30  C   UNL     1      -8.359   5.214  -5.777  1.00  0.00     0.118 C 
BRANCH  30  31
ATOM     31  N   UNL     1      -9.035   4.687  -6.957  1.00  0.00    -0.352 N 
ATOM     32  C   UNL     1     -10.371   4.542  -7.248  1.00  0.00     0.251 C 
ATOM     33  H   UNL     1      -8.428   4.382  -7.670  1.00  0.00     0.163 HD
ATOM     34  O   UNL     1     -10.707   3.952  -8.273  1.00  0.00    -0.269 OA
BRANCH  32  35
ATOM     35  C   UNL     1     -11.407   5.046  -6.321  1.00  0.00     0.039 A 
ATOM     36  C   UNL     1     -12.548   4.273  -6.088  1.00  0.00     0.014 A 
ATOM     37  C   UNL     1     -11.260   6.269  -5.670  1.00  0.00     0.014 A 
ATOM     38  C   UNL     1     -13.478   4.678  -5.126  1.00  0.00     0.010 A 
ATOM     39  C   UNL     1     -12.110   6.603  -4.622  1.00  0.00     0.010 A 
ATOM     40  C   UNL     1     -13.236   5.817  -4.342  1.00  0.00    -0.014 A 
BRANCH  40  41
ATOM     41  C   UNL     1     -14.145   6.221  -3.237  1.00  0.00     0.031 A 
ATOM     42  C   UNL     1     -14.787   7.583  -3.252  1.00  0.00     0.074 A 
ATOM     43  C   UNL     1     -14.329   5.401  -2.183  1.00  0.00     0.049 A 
ATOM     44  N   UNL     1     -15.520   8.164  -2.335  1.00  0.00    -0.248 NA
ATOM     45  C   UNL     1     -14.542   8.421  -4.438  1.00  0.00     0.031 C 
ATOM     46  C   UNL     1     -13.723   4.078  -2.018  1.00  0.00     0.029 A 
ATOM     47  N   UNL     1     -15.075   5.565  -1.042  1.00  0.00    -0.354 N 
ATOM     48  C   UNL     1     -15.801   9.434  -2.825  1.00  0.00     0.074 A 
ATOM     49  C   UNL     1     -15.103   9.566  -4.084  1.00  0.00     0.031 C 
ATOM     50  C   UNL     1     -14.148   3.538  -0.865  1.00  0.00     0.029 A 
ATOM     51  C   UNL     1     -15.018   4.492  -0.185  1.00  0.00     0.049 A 
ATOM     52  H   UNL     1     -15.602   6.375  -0.855  1.00  0.00     0.167 HD
ATOM     53  C   UNL     1     -16.597  10.392  -2.295  1.00  0.00     0.037 A 
ATOM     54  C   UNL     1     -15.595   4.302   1.017  1.00  0.00     0.037 A 
ATOM     55  C   UNL     1     -17.319  10.246  -1.059  1.00  0.00     0.049 A 
ATOM     56  C   UNL     1     -16.465   5.386   1.591  1.00  0.00     0.074 A 
ATOM     57  C   UNL     1     -18.195  11.135  -0.463  1.00  0.00     0.029 A 
ATOM     58  N   UNL     1     -17.249   9.135  -0.232  1.00  0.00    -0.354 N 
ATOM     59  N   UNL     1     -16.773   6.556   1.085  1.00  0.00    -0.248 NA
ATOM     60  C   UNL     1     -17.072   5.122   2.903  1.00  0.00     0.031 C 
ATOM     61  C   UNL     1     -18.621  10.581   0.748  1.00  0.00     0.029 A 
ATOM     62  C   UNL     1     -18.052   9.325   0.880  1.00  0.00     0.049 A 
ATOM     63  H   UNL     1     -16.709   8.332  -0.409  1.00  0.00     0.167 HD
ATOM     64  C   UNL     1     -17.635   7.151   1.997  1.00  0.00     0.074 A 
ATOM     65  C   UNL     1     -17.811   6.208   3.082  1.00  0.00     0.031 C 
ATOM     66  C   UNL     1     -18.227   8.369   1.943  1.00  0.00     0.037 A 
BRANCH  53  67
ATOM     67  C   UNL     1     -16.737  11.677  -3.060  1.00  0.00     0.057 A 
ATOM     68  C   UNL     1     -17.410  11.736  -4.288  1.00  0.00     0.134 A 
ATOM     69  C   UNL     1     -16.218  12.875  -2.553  1.00  0.00     0.134 A 
ATOM     70  F   UNL     1     -17.920  10.623  -4.838  1.00  0.00    -0.206 F 
ATOM     71  C   UNL     1     -17.535  12.931  -4.998  1.00  0.00     0.040 A 
ATOM     72  C   UNL     1     -16.363  14.082  -3.238  1.00  0.00     0.040 A 
ATOM     73  F   UNL     1     -15.567  12.893  -1.380  1.00  0.00    -0.206 F 
ATOM     74  C   UNL     1     -17.016  14.111  -4.469  1.00  0.00     0.006 A 
ENDBRANCH  53  67
BRANCH  54  75
ATOM     75  C   UNL     1     -15.393   3.026   1.752  1.00  0.00     0.057 A 
ATOM     76  C   UNL     1     -16.450   2.125   1.932  1.00  0.00     0.134 A 
ATOM     77  C   UNL     1     -14.155   2.685   2.309  1.00  0.00     0.134 A 
ATOM     78  F   UNL     1     -17.665   2.403   1.438  1.00  0.00    -0.206 F 
ATOM     79  C   UNL     1     -16.291   0.945   2.660  1.00  0.00     0.040 A 
ATOM     80  C   UNL     1     -13.974   1.495   3.016  1.00  0.00     0.040 A 
ATOM     81  F   UNL     1     -13.100   3.500   2.167  1.00  0.00    -0.206 F 
ATOM     82  C   UNL     1     -15.047   0.625   3.202  1.00  0.00     0.006 A 
ENDBRANCH  54  75
BRANCH  66  83
ATOM     83  C   UNL     1     -19.156   8.733   3.064  1.00  0.00     0.057 A 
ATOM     84  C   UNL     1     -18.688   9.033   4.349  1.00  0.00     0.134 A 
ATOM     85  C   UNL     1     -20.536   8.826   2.840  1.00  0.00     0.134 A 
ATOM     86  F   UNL     1     -17.379   8.951   4.632  1.00  0.00    -0.206 F 
ATOM     87  C   UNL     1     -19.561   9.389   5.378  1.00  0.00     0.040 A 
ATOM     88  C   UNL     1     -21.416   9.209   3.853  1.00  0.00     0.040 A 
ATOM     89  F   UNL     1     -21.050   8.562   1.629  1.00  0.00    -0.206 F 
ATOM     90  C   UNL     1     -20.929   9.485   5.129  1.00  0.00     0.006 A 
ENDBRANCH  66  83
ENDBRANCH  40  41
ENDBRANCH  32  35
ENDBRANCH  30  31
ENDBRANCH  29  30
ENDBRANCH   1  29
TORSDOF 14
