REMARK SMILES CN1C(=O)CC[C@H]([NH2+]Cc2ccc(C(=O)NCCCNC(=O)c3ccc(-c4c5nc(c(-c6c(F)cccc6F)c6ccc([nH]6)c(-c6c(F)cccc6F)c6nc(c(-c7c(F)cccc7F)c7ccc4[nH]7)C=C6)C=C5)cc3)cn2)C1=O
REMARK SMILES IDX 17 1 16 2 14 3 15 4 13 6 10 7 11 8 78 9 12 10 77 11 9 12
REMARK SMILES IDX 8 13 7 16 1 17 2 18 3 19 79 20 4 21 5 22 80 23 6 24 18 25
REMARK SMILES IDX 19 26 20 27 21 28 22 30 23 31 24 32 76 33 25 34 75 35 26 36
REMARK SMILES IDX 27 37 28 38 69 39 29 40 74 41 68 42 70 43 30 44 73 45 67 46
REMARK SMILES IDX 66 47 31 49 57 50 40 51 56 52 41 53 44 54 55 55 71 56 42 57
REMARK SMILES IDX 43 58 54 60 72 61 45 62 32 63 33 64 38 65 34 66 35 67 37 68
REMARK SMILES IDX 39 69 36 70 58 71 59 72 64 73 60 74 61 75 63 76 65 77 62 78
REMARK SMILES IDX 46 79 47 80 52 81 48 82 49 83 51 84 53 85 50 86
REMARK H PARENT 16 5 8 14 8 15 20 29 70 48 44 59
REMARK Flexibility Score: inf
ROOT
ATOM      1  C   UNL     1      -5.721  -6.332   6.064  1.00  0.00     0.118 C 
ENDROOT
BRANCH   1   2
ATOM      2  N   UNL     1      -5.696  -5.479   7.238  1.00  0.00    -0.352 N 
ATOM      3  C   UNL     1      -5.144  -4.245   7.466  1.00  0.00     0.252 C 
ATOM      4  O   UNL     1      -5.381  -3.710   8.549  1.00  0.00    -0.269 OA
ATOM      5  H   UNL     1      -6.162  -5.859   8.018  1.00  0.00     0.163 HD
BRANCH   3   6
ATOM      6  C   UNL     1      -4.308  -3.522   6.479  1.00  0.00     0.058 A 
ATOM      7  C   UNL     1      -2.758  -1.927   4.818  1.00  0.00     0.094 A 
ATOM      8  C   UNL     1      -2.729  -3.310   4.661  1.00  0.00     0.030 A 
ATOM      9  N   UNL     1      -3.516  -1.333   5.771  1.00  0.00    -0.255 NA
ATOM     10  C   UNL     1      -3.496  -4.110   5.513  1.00  0.00     0.017 A 
ATOM     11  C   UNL     1      -4.267  -2.135   6.570  1.00  0.00     0.125 A 
BRANCH   7  12
ATOM     12  C   UNL     1      -1.859  -1.042   3.967  1.00  0.00     0.318 C 
BRANCH  12  13
ATOM     13  N   UNL     1      -2.614  -0.078   3.154  1.00  0.00    -0.331 N 
ATOM     14  H   UNL     1      -3.205  -0.601   2.508  1.00  0.00     0.347 HD
ATOM     15  H   UNL     1      -3.144   0.497   3.808  1.00  0.00     0.347 HD
BRANCH  13  16
ATOM     16  C   UNL     1      -1.781   0.852   2.364  1.00  0.00     0.274 C 
ATOM     17  C   UNL     1       1.255   0.043   0.158  1.00  0.00     0.156 C 
ATOM     18  N   UNL     1       0.346   0.732   1.059  1.00  0.00    -0.281 N 
ATOM     19  C   UNL     1       0.759   1.990   1.497  1.00  0.00     0.229 C 
ATOM     20  C   UNL     1      -0.864   0.110   1.373  1.00  0.00     0.287 C 
ATOM     21  O   UNL     1       1.830   2.499   1.167  1.00  0.00    -0.274 OA
ATOM     22  C   UNL     1      -0.219   2.762   2.348  1.00  0.00     0.107 C 
ATOM     23  O   UNL     1      -1.221  -0.957   0.865  1.00  0.00    -0.267 OA
ATOM     24  C   UNL     1      -1.009   1.829   3.241  1.00  0.00     0.085 C 
ENDBRANCH  13  16
ENDBRANCH  12  13
ENDBRANCH   7  12
ENDBRANCH   3   6
ENDBRANCH   1   2
BRANCH   1  25
ATOM     25  C   UNL     1      -4.703  -7.467   6.171  1.00  0.00     0.042 C 
BRANCH  25  26
ATOM     26  C   UNL     1      -5.106  -8.565   7.152  1.00  0.00     0.118 C 
BRANCH  26  27
ATOM     27  N   UNL     1      -6.236  -9.343   6.669  1.00  0.00    -0.352 N 
ATOM     28  C   UNL     1      -6.353 -10.690   6.434  1.00  0.00     0.251 C 
ATOM     29  H   UNL     1      -7.048  -8.819   6.480  1.00  0.00     0.163 HD
ATOM     30  O   UNL     1      -7.329 -11.109   5.818  1.00  0.00    -0.269 OA
BRANCH  28  31
ATOM     31  C   UNL     1      -5.321 -11.642   6.904  1.00  0.00     0.039 A 
ATOM     32  C   UNL     1      -4.993 -12.728   6.085  1.00  0.00     0.014 A 
ATOM     33  C   UNL     1      -4.729 -11.517   8.163  1.00  0.00     0.014 A 
ATOM     34  C   UNL     1      -4.043 -13.661   6.509  1.00  0.00     0.010 A 
ATOM     35  C   UNL     1      -3.733 -12.410   8.557  1.00  0.00     0.010 A 
ATOM     36  C   UNL     1      -3.389 -13.496   7.739  1.00  0.00    -0.014 A 
BRANCH  36  37
ATOM     37  C   UNL     1      -2.346 -14.454   8.186  1.00  0.00     0.031 A 
ATOM     38  C   UNL     1      -2.569 -15.309   9.402  1.00  0.00     0.074 A 
ATOM     39  C   UNL     1      -1.167 -14.499   7.537  1.00  0.00     0.049 A 
ATOM     40  N   UNL     1      -1.753 -16.154   9.979  1.00  0.00    -0.248 NA
ATOM     41  C   UNL     1      -3.869 -15.172  10.076  1.00  0.00     0.031 C 
ATOM     42  C   UNL     1      -0.807 -13.675   6.383  1.00  0.00     0.029 A 
ATOM     43  N   UNL     1      -0.049 -15.259   7.769  1.00  0.00    -0.354 N 
ATOM     44  C   UNL     1      -2.429 -16.629  11.096  1.00  0.00     0.074 A 
ATOM     45  C   UNL     1      -3.704 -15.947  11.138  1.00  0.00     0.031 C 
ATOM     46  C   UNL     1       0.444 -13.978   6.002  1.00  0.00     0.029 A 
ATOM     47  C   UNL     1       0.982 -14.996   6.899  1.00  0.00     0.049 A 
ATOM     48  H   UNL     1       0.010 -15.927   8.489  1.00  0.00     0.167 HD
ATOM     49  C   UNL     1      -2.029 -17.561  11.995  1.00  0.00     0.037 A 
ATOM     50  C   UNL     1       2.223 -15.512   6.836  1.00  0.00     0.037 A 
ATOM     51  C   UNL     1      -0.773 -18.262  11.930  1.00  0.00     0.049 A 
ATOM     52  C   UNL     1       2.631 -16.573   7.817  1.00  0.00     0.074 A 
ATOM     53  C   UNL     1      -0.316 -19.291  12.735  1.00  0.00     0.029 A 
ATOM     54  N   UNL     1       0.229 -18.001  11.007  1.00  0.00    -0.354 N 
ATOM     55  N   UNL     1       1.948 -17.078   8.816  1.00  0.00    -0.248 NA
ATOM     56  C   UNL     1       3.975 -17.144   7.657  1.00  0.00     0.031 C 
ATOM     57  C   UNL     1       0.980 -19.624  12.324  1.00  0.00     0.029 A 
ATOM     58  C   UNL     1       1.314 -18.831  11.238  1.00  0.00     0.049 A 
ATOM     59  H   UNL     1       0.176 -17.325  10.293  1.00  0.00     0.167 HD
ATOM     60  C   UNL     1       2.771 -18.036   9.394  1.00  0.00     0.074 A 
ATOM     61  C   UNL     1       3.997 -18.052   8.623  1.00  0.00     0.031 C 
ATOM     62  C   UNL     1       2.531 -18.829  10.467  1.00  0.00     0.037 A 
BRANCH  49  63
ATOM     63  C   UNL     1      -2.962 -17.867  13.131  1.00  0.00     0.057 A 
ATOM     64  C   UNL     1      -4.169 -18.552  12.937  1.00  0.00     0.134 A 
ATOM     65  C   UNL     1      -2.642 -17.484  14.440  1.00  0.00     0.134 A 
ATOM     66  F   UNL     1      -4.540 -18.938  11.707  1.00  0.00    -0.206 F 
ATOM     67  C   UNL     1      -5.040 -18.813  13.996  1.00  0.00     0.040 A 
ATOM     68  C   UNL     1      -3.492 -17.763  15.512  1.00  0.00     0.040 A 
ATOM     69  F   UNL     1      -1.498 -16.832  14.699  1.00  0.00    -0.206 F 
ATOM     70  C   UNL     1      -4.700 -18.421  15.289  1.00  0.00     0.006 A 
ENDBRANCH  49  63
BRANCH  50  71
ATOM     71  C   UNL     1       3.156 -15.041   5.784  1.00  0.00     0.057 A 
ATOM     72  C   UNL     1       3.463 -15.843   4.680  1.00  0.00     0.134 A 
ATOM     73  C   UNL     1       3.732 -13.766   5.839  1.00  0.00     0.134 A 
ATOM     74  F   UNL     1       2.952 -17.079   4.581  1.00  0.00    -0.206 F 
ATOM     75  C   UNL     1       4.317 -15.398   3.669  1.00  0.00     0.040 A 
ATOM     76  C   UNL     1       4.571 -13.300   4.826  1.00  0.00     0.040 A 
ATOM     77  F   UNL     1       3.467 -12.947   6.867  1.00  0.00    -0.206 F 
ATOM     78  C   UNL     1       4.868 -14.119   3.738  1.00  0.00     0.006 A 
ENDBRANCH  50  71
BRANCH  62  79
ATOM     79  C   UNL     1       3.614 -19.789  10.861  1.00  0.00     0.057 A 
ATOM     80  C   UNL     1       4.788 -19.356  11.491  1.00  0.00     0.134 A 
ATOM     81  C   UNL     1       3.466 -21.164  10.641  1.00  0.00     0.134 A 
ATOM     82  F   UNL     1       4.996 -18.050  11.717  1.00  0.00    -0.206 F 
ATOM     83  C   UNL     1       5.785 -20.255  11.870  1.00  0.00     0.040 A 
ATOM     84  C   UNL     1       4.445 -22.075  11.037  1.00  0.00     0.040 A 
ATOM     85  F   UNL     1       2.362 -21.644  10.049  1.00  0.00    -0.206 F 
ATOM     86  C   UNL     1       5.612 -21.621  11.649  1.00  0.00     0.006 A 
ENDBRANCH  62  79
ENDBRANCH  36  37
ENDBRANCH  28  31
ENDBRANCH  26  27
ENDBRANCH  25  26
ENDBRANCH   1  25
TORSDOF 13
