REMARK SMILES Cc1ccc(NC(=O)c2cnn3c2NC2=C(C(=O)CCC2)[C@H]3c2ccc(C(=O)NCCCNC(=O)c3ccc(-c4c5nc(c(-c6c(F)cccc6F)c6ccc([nH]6)c(-c6c(F)cccc6F)c6nc(c(-c7c(F)cccc7F)c7ccc4[nH]7)C=C6)C=C5)cc3)cc2)cc1
REMARK SMILES IDX 30 1 29 2 27 3 28 4 26 6 23 7 24 8 91 9 25 10 90 11 22 12
REMARK SMILES IDX 9 13 10 14 13 15 11 16 12 17 14 18 15 19 16 21 21 22 17 23
REMARK SMILES IDX 20 24 18 25 19 26 7 27 6 28 8 30 5 31 1 32 2 33 3 34 93 35
REMARK SMILES IDX 4 36 92 37 31 38 32 39 33 40 34 41 35 43 36 44 37 45 89 46
REMARK SMILES IDX 38 47 88 48 39 49 40 50 41 51 82 52 42 53 87 54 81 55 83 56
REMARK SMILES IDX 43 57 86 58 80 59 79 60 44 62 70 63 53 64 69 65 54 66 57 67
REMARK SMILES IDX 68 68 84 69 55 70 56 71 67 73 85 74 58 75 45 76 46 77 51 78
REMARK SMILES IDX 47 79 48 80 50 81 52 82 49 83 71 84 72 85 77 86 73 87 74 88
REMARK SMILES IDX 76 89 78 90 75 91 59 92 60 93 65 94 61 95 62 96 64 97 66 98
REMARK SMILES IDX 63 99
REMARK H PARENT 29 5 14 20 6 29 33 42 83 61 57 72
REMARK Flexibility Score: inf
ROOT
ATOM      1  C   UNL     1      -2.024  -2.944  -6.418  1.00  0.00     0.118 C 
ENDROOT
BRANCH   1   2
ATOM      2  N   UNL     1      -1.592  -4.218  -6.982  1.00  0.00    -0.352 N 
ATOM      3  C   UNL     1      -1.388  -5.458  -6.414  1.00  0.00     0.251 C 
ATOM      4  O   UNL     1      -1.190  -6.405  -7.175  1.00  0.00    -0.269 OA
ATOM      5  H   UNL     1      -1.413  -4.187  -7.949  1.00  0.00     0.163 HD
BRANCH   3   6
ATOM      6  C   UNL     1      -1.441  -5.720  -4.944  1.00  0.00     0.039 A 
ATOM      7  C   UNL     1      -1.833  -6.261  -2.179  1.00  0.00    -0.019 A 
ATOM      8  C   UNL     1      -2.055  -7.258  -3.144  1.00  0.00     0.007 A 
ATOM      9  C   UNL     1      -1.197  -5.088  -2.614  1.00  0.00     0.007 A 
ATOM     10  C   UNL     1      -1.869  -6.983  -4.510  1.00  0.00     0.014 A 
ATOM     11  C   UNL     1      -1.034  -4.809  -3.975  1.00  0.00     0.014 A 
BRANCH   7  12
ATOM     12  C   UNL     1      -2.452  -6.364  -0.747  1.00  0.00     0.175 C 
ATOM     13  C   UNL     1      -3.469  -2.965  -0.266  1.00  0.00     0.102 A 
ATOM     14  C   UNL     1      -2.547  -3.205   0.798  1.00  0.00     0.151 A 
ATOM     15  C   UNL     1      -3.724  -4.231  -0.748  1.00  0.00     0.142 A 
ATOM     16  N   UNL     1      -2.046  -4.445   0.796  1.00  0.00    -0.178 NA
ATOM     17  N   UNL     1      -2.706  -5.013  -0.225  1.00  0.00    -0.237 N 
ATOM     18  N   UNL     1      -4.642  -4.844  -1.560  1.00  0.00    -0.343 N 
ATOM     19  C   UNL     1      -4.819  -6.235  -1.445  1.00  0.00     0.026 C 
ATOM     20  H   UNL     1      -5.167  -4.322  -2.209  1.00  0.00     0.168 HD
ATOM     21  C   UNL     1      -3.848  -6.947  -0.821  1.00  0.00     0.044 C 
ATOM     22  C   UNL     1      -6.168  -6.853  -1.680  1.00  0.00     0.055 C 
ATOM     23  C   UNL     1      -4.349  -7.742   0.330  1.00  0.00     0.163 C 
ATOM     24  C   UNL     1      -6.711  -7.560  -0.434  1.00  0.00     0.014 C 
ATOM     25  O   UNL     1      -3.592  -8.455   0.979  1.00  0.00    -0.294 OA
ATOM     26  C   UNL     1      -5.777  -7.444   0.764  1.00  0.00     0.081 C 
BRANCH  13  27
ATOM     27  C   UNL     1      -4.066  -1.719  -0.689  1.00  0.00     0.261 C 
ATOM     28  N   UNL     1      -3.320  -0.554  -0.629  1.00  0.00    -0.322 N 
ATOM     29  H   UNL     1      -3.858   0.270  -0.645  1.00  0.00     0.170 HD
ATOM     30  O   UNL     1      -5.234  -1.662  -1.073  1.00  0.00    -0.269 OA
BRANCH  28  31
ATOM     31  C   UNL     1      -1.927  -0.334  -0.550  1.00  0.00     0.041 A 
ATOM     32  C   UNL     1       2.292   0.414   0.042  1.00  0.00     0.044 C 
ATOM     33  C   UNL     1       0.832   0.187  -0.216  1.00  0.00    -0.051 A 
ATOM     34  C   UNL     1       0.396  -1.048  -0.695  1.00  0.00     0.005 A 
ATOM     35  C   UNL     1      -0.119   1.176   0.053  1.00  0.00     0.005 A 
ATOM     36  C   UNL     1      -0.966  -1.285  -0.895  1.00  0.00     0.026 A 
ATOM     37  C   UNL     1      -1.487   0.920  -0.122  1.00  0.00     0.026 A 
ENDBRANCH  28  31
ENDBRANCH  13  27
ENDBRANCH   7  12
ENDBRANCH   3   6
ENDBRANCH   1   2
BRANCH   1  38
ATOM     38  C   UNL     1      -0.845  -2.056  -6.023  1.00  0.00     0.042 C 
BRANCH  38  39
ATOM     39  C   UNL     1      -0.355  -1.113  -7.114  1.00  0.00     0.118 C 
BRANCH  39  40
ATOM     40  N   UNL     1      -0.769   0.276  -6.924  1.00  0.00    -0.352 N 
ATOM     41  C   UNL     1      -0.370   1.412  -7.624  1.00  0.00     0.251 C 
ATOM     42  H   UNL     1      -1.419   0.430  -6.201  1.00  0.00     0.163 HD
ATOM     43  O   UNL     1      -0.871   2.488  -7.411  1.00  0.00    -0.269 OA
BRANCH  41  44
ATOM     44  C   UNL     1       0.598   1.233  -8.736  1.00  0.00     0.039 A 
ATOM     45  C   UNL     1       0.182   1.607 -10.017  1.00  0.00     0.014 A 
ATOM     46  C   UNL     1       1.740   0.461  -8.552  1.00  0.00     0.014 A 
ATOM     47  C   UNL     1       0.744   0.968 -11.117  1.00  0.00     0.010 A 
ATOM     48  C   UNL     1       2.229  -0.248  -9.632  1.00  0.00     0.010 A 
ATOM     49  C   UNL     1       1.669  -0.054 -10.900  1.00  0.00    -0.014 A 
BRANCH  49  50
ATOM     50  C   UNL     1       1.947  -1.075 -11.905  1.00  0.00     0.031 A 
ATOM     51  C   UNL     1       3.236  -1.112 -12.621  1.00  0.00     0.074 A 
ATOM     52  C   UNL     1       1.023  -2.031 -12.151  1.00  0.00     0.049 A 
ATOM     53  N   UNL     1       3.391  -1.616 -13.800  1.00  0.00    -0.248 NA
ATOM     54  C   UNL     1       4.459  -0.543 -12.072  1.00  0.00     0.031 C 
ATOM     55  C   UNL     1       1.203  -3.261 -12.918  1.00  0.00     0.029 A 
ATOM     56  N   UNL     1      -0.360  -1.965 -11.919  1.00  0.00    -0.354 N 
ATOM     57  C   UNL     1       4.742  -1.697 -14.046  1.00  0.00     0.074 A 
ATOM     58  C   UNL     1       5.360  -0.954 -12.970  1.00  0.00     0.031 C 
ATOM     59  C   UNL     1       0.004  -3.683 -13.346  1.00  0.00     0.029 A 
ATOM     60  C   UNL     1      -0.966  -2.666 -12.985  1.00  0.00     0.049 A 
ATOM     61  H   UNL     1      -0.814  -1.521 -11.168  1.00  0.00     0.167 HD
ATOM     62  C   UNL     1       5.197  -2.500 -15.051  1.00  0.00     0.037 A 
ATOM     63  C   UNL     1      -1.825  -2.060 -13.852  1.00  0.00     0.037 A 
ATOM     64  C   UNL     1       4.095  -3.140 -15.765  1.00  0.00     0.049 A 
ATOM     65  C   UNL     1      -1.403  -2.146 -15.299  1.00  0.00     0.074 A 
ATOM     66  C   UNL     1       3.523  -4.399 -15.665  1.00  0.00     0.029 A 
ATOM     67  N   UNL     1       3.226  -2.374 -16.532  1.00  0.00    -0.354 N 
ATOM     68  N   UNL     1      -0.185  -2.403 -15.686  1.00  0.00    -0.248 NA
ATOM     69  C   UNL     1      -2.308  -1.918 -16.421  1.00  0.00     0.031 C 
ATOM     70  C   UNL     1       2.292  -4.383 -16.362  1.00  0.00     0.029 A 
ATOM     71  C   UNL     1       2.118  -3.117 -16.892  1.00  0.00     0.049 A 
ATOM     72  H   UNL     1       3.378  -1.435 -16.783  1.00  0.00     0.167 HD
ATOM     73  C   UNL     1      -0.118  -2.357 -17.057  1.00  0.00     0.074 A 
ATOM     74  C   UNL     1      -1.480  -2.076 -17.469  1.00  0.00     0.031 C 
ATOM     75  C   UNL     1       1.064  -2.544 -17.717  1.00  0.00     0.037 A 
BRANCH  62  76
ATOM     76  C   UNL     1       6.638  -2.945 -15.168  1.00  0.00     0.057 A 
ATOM     77  C   UNL     1       6.971  -4.224 -15.659  1.00  0.00     0.134 A 
ATOM     78  C   UNL     1       7.742  -2.181 -14.758  1.00  0.00     0.134 A 
ATOM     79  F   UNL     1       6.057  -5.029 -16.215  1.00  0.00    -0.206 F 
ATOM     80  C   UNL     1       8.269  -4.749 -15.607  1.00  0.00     0.040 A 
ATOM     81  C   UNL     1       9.038  -2.709 -14.649  1.00  0.00     0.040 A 
ATOM     82  F   UNL     1       7.624  -0.873 -14.492  1.00  0.00    -0.206 F 
ATOM     83  C   UNL     1       9.301  -4.008 -15.056  1.00  0.00     0.006 A 
ENDBRANCH  62  76
BRANCH  63  84
ATOM     84  C   UNL     1      -2.586  -0.936 -13.253  1.00  0.00     0.057 A 
ATOM     85  C   UNL     1      -3.508  -1.213 -12.228  1.00  0.00     0.134 A 
ATOM     86  C   UNL     1      -2.179   0.392 -13.402  1.00  0.00     0.134 A 
ATOM     87  F   UNL     1      -3.937  -2.470 -12.030  1.00  0.00    -0.206 F 
ATOM     88  C   UNL     1      -3.924  -0.234 -11.324  1.00  0.00     0.040 A 
ATOM     89  C   UNL     1      -2.596   1.384 -12.507  1.00  0.00     0.040 A 
ATOM     90  F   UNL     1      -1.283   0.730 -14.340  1.00  0.00    -0.206 F 
ATOM     91  C   UNL     1      -3.441   1.066 -11.444  1.00  0.00     0.006 A 
ENDBRANCH  63  84
BRANCH  75  92
ATOM     92  C   UNL     1       1.346  -2.310 -19.188  1.00  0.00     0.057 A 
ATOM     93  C   UNL     1       0.603  -1.464 -20.024  1.00  0.00     0.134 A 
ATOM     94  C   UNL     1       2.511  -2.852 -19.787  1.00  0.00     0.134 A 
ATOM     95  F   UNL     1      -0.460  -0.786 -19.576  1.00  0.00    -0.206 F 
ATOM     96  C   UNL     1       0.955  -1.221 -21.361  1.00  0.00     0.040 A 
ATOM     97  C   UNL     1       2.901  -2.571 -21.101  1.00  0.00     0.040 A 
ATOM     98  F   UNL     1       3.343  -3.661 -19.117  1.00  0.00    -0.206 F 
ATOM     99  C   UNL     1       2.113  -1.764 -21.901  1.00  0.00     0.006 A 
ENDBRANCH  75  92
ENDBRANCH  49  50
ENDBRANCH  41  44
ENDBRANCH  39  40
ENDBRANCH  38  39
ENDBRANCH   1  38
TORSDOF 13
