REMARK SMILES O=C(NCCCNC(=O)[C@@H]1CSCN1C(=O)COc1ccc(Cl)cc1Cl)c1ccc(-c2c3nc(c(-c4c(F)cccc4F)c4ccc([nH]4)c(-c4c(F)cccc4F)c4nc(c(-c5c(F)cccc5F)c5ccc2[nH]5)C=C4)C=C3)cc1
REMARK SMILES IDX 6 1 5 2 4 3 3 4 1 5 2 6 27 8 28 9 80 10 29 11 79 12 30 13
REMARK SMILES IDX 31 14 32 15 73 16 33 17 78 18 72 19 74 20 34 21 77 22 71 23
REMARK SMILES IDX 70 24 35 26 61 27 44 28 60 29 45 30 48 31 59 32 75 33 46 34
REMARK SMILES IDX 47 35 58 37 76 38 49 39 36 40 37 41 42 42 38 43 39 44 41 45
REMARK SMILES IDX 43 46 40 47 62 48 63 49 68 50 64 51 65 52 67 53 69 54 66 55
REMARK SMILES IDX 50 56 51 57 56 58 52 59 53 60 55 61 57 62 54 63 7 64 8 65
REMARK SMILES IDX 9 67 10 68 11 69 14 70 12 71 13 72 15 73 16 74 17 75 18 76
REMARK SMILES IDX 19 77 20 78 25 79 21 80 24 81 26 82 22 83 23 84
REMARK H PARENT 3 7 74 25 48 36 7 66
REMARK Flexibility Score: inf
ROOT
ATOM      1  C   UNL     1       7.284  -6.307   2.136  1.00  0.00     0.117 C 
ENDROOT
BRANCH   1   2
ATOM      2  C   UNL     1       8.020  -5.557   1.033  1.00  0.00     0.042 C 
BRANCH   2   3
ATOM      3  C   UNL     1       9.506  -5.890   0.942  1.00  0.00     0.118 C 
BRANCH   3   4
ATOM      4  N   UNL     1       9.753  -7.280   0.584  1.00  0.00    -0.352 N 
ATOM      5  O   UNL     1      10.244  -9.051  -0.710  1.00  0.00    -0.269 OA
ATOM      6  C   UNL     1      10.294  -7.829  -0.549  1.00  0.00     0.251 C 
ATOM      7  H   UNL     1       9.489  -7.934   1.270  1.00  0.00     0.163 HD
BRANCH   6   8
ATOM      8  C   UNL     1      10.915  -6.984  -1.591  1.00  0.00     0.039 A 
ATOM      9  C   UNL     1      11.764  -5.925  -1.260  1.00  0.00     0.014 A 
ATOM     10  C   UNL     1      10.684  -7.297  -2.934  1.00  0.00     0.014 A 
ATOM     11  C   UNL     1      12.269  -5.098  -2.261  1.00  0.00     0.010 A 
ATOM     12  C   UNL     1      11.255  -6.514  -3.941  1.00  0.00     0.010 A 
ATOM     13  C   UNL     1      12.026  -5.389  -3.612  1.00  0.00    -0.014 A 
BRANCH  13  14
ATOM     14  C   UNL     1      12.608  -4.536  -4.678  1.00  0.00     0.031 A 
ATOM     15  C   UNL     1      11.720  -3.746  -5.598  1.00  0.00     0.074 A 
ATOM     16  C   UNL     1      13.945  -4.491  -4.832  1.00  0.00     0.049 A 
ATOM     17  N   UNL     1      12.046  -3.002  -6.625  1.00  0.00    -0.248 NA
ATOM     18  C   UNL     1      10.275  -3.806  -5.333  1.00  0.00     0.031 C 
ATOM     19  C   UNL     1      14.913  -5.214  -4.005  1.00  0.00     0.029 A 
ATOM     20  N   UNL     1      14.720  -3.816  -5.740  1.00  0.00    -0.354 N 
ATOM     21  C   UNL     1      10.848  -2.525  -7.143  1.00  0.00     0.074 A 
ATOM     22  C   UNL     1       9.787  -3.085  -6.333  1.00  0.00     0.031 C 
ATOM     23  C   UNL     1      16.152  -4.934  -4.435  1.00  0.00     0.029 A 
ATOM     24  C   UNL     1      16.064  -4.062  -5.601  1.00  0.00     0.049 A 
ATOM     25  H   UNL     1      14.350  -3.214  -6.425  1.00  0.00     0.167 HD
ATOM     26  C   UNL     1      10.653  -1.691  -8.194  1.00  0.00     0.037 A 
ATOM     27  C   UNL     1      17.109  -3.656  -6.346  1.00  0.00     0.037 A 
ATOM     28  C   UNL     1      11.714  -1.134  -8.994  1.00  0.00     0.049 A 
ATOM     29  C   UNL     1      16.867  -2.768  -7.531  1.00  0.00     0.074 A 
ATOM     30  C   UNL     1      11.621  -0.253 -10.057  1.00  0.00     0.029 A 
ATOM     31  N   UNL     1      13.063  -1.414  -8.825  1.00  0.00    -0.354 N 
ATOM     32  N   UNL     1      15.733  -2.295  -7.989  1.00  0.00    -0.248 NA
ATOM     33  C   UNL     1      18.047  -2.356  -8.303  1.00  0.00     0.031 C 
ATOM     34  C   UNL     1      12.908  -0.041 -10.565  1.00  0.00     0.029 A 
ATOM     35  C   UNL     1      13.809  -0.743  -9.781  1.00  0.00     0.049 A 
ATOM     36  H   UNL     1      13.435  -2.003  -8.129  1.00  0.00     0.167 HD
ATOM     37  C   UNL     1      16.064  -1.508  -9.084  1.00  0.00     0.074 A 
ATOM     38  C   UNL     1      17.506  -1.563  -9.218  1.00  0.00     0.031 C 
ATOM     39  C   UNL     1      15.245  -0.798  -9.898  1.00  0.00     0.037 A 
BRANCH  26  40
ATOM     40  C   UNL     1       9.234  -1.357  -8.556  1.00  0.00     0.057 A 
ATOM     41  C   UNL     1       8.429  -0.546  -7.745  1.00  0.00     0.134 A 
ATOM     42  C   UNL     1       8.671  -1.836  -9.746  1.00  0.00     0.134 A 
ATOM     43  F   UNL     1       8.901  -0.062  -6.586  1.00  0.00    -0.206 F 
ATOM     44  C   UNL     1       7.107  -0.254  -8.086  1.00  0.00     0.040 A 
ATOM     45  C   UNL     1       7.360  -1.527 -10.112  1.00  0.00     0.040 A 
ATOM     46  F   UNL     1       9.387  -2.610 -10.576  1.00  0.00    -0.206 F 
ATOM     47  C   UNL     1       6.570  -0.741  -9.276  1.00  0.00     0.006 A 
ENDBRANCH  26  40
BRANCH  27  48
ATOM     48  C   UNL     1      18.478  -4.099  -5.983  1.00  0.00     0.057 A 
ATOM     49  C   UNL     1      19.409  -3.205  -5.444  1.00  0.00     0.134 A 
ATOM     50  C   UNL     1      18.875  -5.434  -6.134  1.00  0.00     0.134 A 
ATOM     51  F   UNL     1      19.092  -1.912  -5.291  1.00  0.00    -0.206 F 
ATOM     52  C   UNL     1      20.689  -3.621  -5.074  1.00  0.00     0.040 A 
ATOM     53  C   UNL     1      20.142  -5.868  -5.744  1.00  0.00     0.040 A 
ATOM     54  F   UNL     1      18.023  -6.341  -6.636  1.00  0.00    -0.206 F 
ATOM     55  C   UNL     1      21.055  -4.958  -5.216  1.00  0.00     0.006 A 
ENDBRANCH  27  48
BRANCH  39  56
ATOM     56  C   UNL     1      15.888   0.018 -10.981  1.00  0.00     0.057 A 
ATOM     57  C   UNL     1      16.445  -0.568 -12.124  1.00  0.00     0.134 A 
ATOM     58  C   UNL     1      15.899   1.417 -10.900  1.00  0.00     0.134 A 
ATOM     59  F   UNL     1      16.480  -1.903 -12.256  1.00  0.00    -0.206 F 
ATOM     60  C   UNL     1      17.005   0.208 -13.141  1.00  0.00     0.040 A 
ATOM     61  C   UNL     1      16.431   2.204 -11.922  1.00  0.00     0.040 A 
ATOM     62  F   UNL     1      15.375   2.042  -9.835  1.00  0.00    -0.206 F 
ATOM     63  C   UNL     1      16.990   1.598 -13.046  1.00  0.00     0.006 A 
ENDBRANCH  39  56
ENDBRANCH  13  14
ENDBRANCH   6   8
ENDBRANCH   3   4
ENDBRANCH   2   3
ENDBRANCH   1   2
BRANCH   1  64
ATOM     64  N   UNL     1       7.793  -5.984   3.458  1.00  0.00    -0.354 N 
ATOM     65  C   UNL     1       7.348  -5.075   4.371  1.00  0.00     0.243 C 
ATOM     66  H   UNL     1       8.581  -6.503   3.738  1.00  0.00     0.163 HD
ATOM     67  O   UNL     1       7.910  -5.062   5.470  1.00  0.00    -0.273 OA
BRANCH  65  68
ATOM     68  C   UNL     1       6.133  -4.173   4.071  1.00  0.00     0.185 C 
ATOM     69  C   UNL     1       6.521  -2.721   4.375  1.00  0.00     0.106 C 
ATOM     70  N   UNL     1       5.034  -4.592   4.953  1.00  0.00    -0.318 N 
ATOM     71  S   UNL     1       5.393  -2.124   5.660  1.00  0.00    -0.138 SA
ATOM     72  C   UNL     1       4.873  -3.780   6.138  1.00  0.00     0.190 C 
BRANCH  70  73
ATOM     73  C   UNL     1       4.301  -5.725   4.669  1.00  0.00     0.261 C 
ATOM     74  O   UNL     1       4.399  -6.303   3.584  1.00  0.00    -0.271 OA
BRANCH  73  75
ATOM     75  C   UNL     1       3.370  -6.287   5.751  1.00  0.00     0.329 C 
BRANCH  75  76
ATOM     76  O   UNL     1       3.909  -6.366   7.065  1.00  0.00    -0.482 OA
BRANCH  76  77
ATOM     77  C   UNL     1       4.667  -7.480   7.322  1.00  0.00     0.138 A 
ATOM     78  C   UNL     1       5.779  -7.816   6.545  1.00  0.00     0.049 A 
ATOM     79  C   UNL     1       4.390  -8.229   8.474  1.00  0.00     0.084 A 
ATOM     80  C   UNL     1       6.594  -8.892   6.903  1.00  0.00     0.024 A 
ATOM     81  C   UNL     1       5.200  -9.310   8.832  1.00  0.00     0.045 A 
ATOM     82  Cl  UNL     1       3.038  -7.851   9.481  1.00  0.00    -0.080 Cl
ATOM     83  C   UNL     1       6.302  -9.633   8.044  1.00  0.00     0.042 A 
ATOM     84  Cl  UNL     1       7.323 -10.943   8.491  1.00  0.00    -0.084 Cl
ENDBRANCH  76  77
ENDBRANCH  75  76
ENDBRANCH  73  75
ENDBRANCH  70  73
ENDBRANCH  65  68
ENDBRANCH   1  64
TORSDOF 14
