REMARK SMILES COc1ccc(C2=NN=C[C@@H]2C(=O)NCCCNC(=O)c2ccc(-c3c4nc(c(-c5c(F)cccc5F)c5ccc([nH]5)c(-c5c(F)cccc5F)c5nc(c(-c6c(F)cccc6F)c6ccc3[nH]6)C=C5)C=C4)cc2)cc1OC
REMARK SMILES IDX 16 1 15 2 14 3 12 4 13 5 11 7 7 8 8 9 9 10 10 11 6 12 3 13
REMARK SMILES IDX 4 14 76 15 5 16 75 17 2 18 1 19 77 20 78 21 17 22 18 23
REMARK SMILES IDX 19 24 20 26 21 27 22 28 74 29 23 30 73 31 24 32 25 33 26 34
REMARK SMILES IDX 67 35 27 36 72 37 66 38 68 39 28 40 71 41 65 42 64 43 29 45
REMARK SMILES IDX 55 46 38 47 54 48 39 49 42 50 53 51 69 52 40 53 41 54 52 56
REMARK SMILES IDX 70 57 43 58 30 59 31 60 36 61 32 62 33 63 35 64 37 65 34 66
REMARK SMILES IDX 56 67 57 68 62 69 58 70 59 71 61 72 63 73 60 74 44 75 45 76
REMARK SMILES IDX 50 77 46 78 47 79 49 80 51 81 48 82
REMARK H PARENT 14 6 18 25 68 44 42 55
REMARK Flexibility Score: inf
ROOT
ATOM      1  C   UNL     1       5.110   8.052   0.022  1.00  0.00     0.042 C 
ENDROOT
BRANCH   1   2
ATOM      2  C   UNL     1       4.225   6.813  -0.106  1.00  0.00     0.117 C 
BRANCH   2   3
ATOM      3  N   UNL     1       2.987   6.909   0.660  1.00  0.00    -0.355 N 
ATOM      4  C   UNL     1       1.691   7.040   0.262  1.00  0.00     0.234 C 
ATOM      5  O   UNL     1       0.830   7.070   1.147  1.00  0.00    -0.274 OA
ATOM      6  H   UNL     1       3.110   6.873   1.636  1.00  0.00     0.163 HD
BRANCH   4   7
ATOM      7  C   UNL     1       1.282   7.159  -1.177  1.00  0.00     0.173 C 
ATOM      8  C   UNL     1       1.742   6.088  -2.102  1.00  0.00     0.088 C 
ATOM      9  N   UNL     1       2.420   6.545  -3.112  1.00  0.00    -0.154 NA
ATOM     10  N   UNL     1       2.495   7.971  -2.985  1.00  0.00    -0.162 NA
ATOM     11  C   UNL     1       1.872   8.310  -1.903  1.00  0.00     0.128 C 
BRANCH   8  12
ATOM     12  C   UNL     1       1.494   4.669  -1.842  1.00  0.00     0.003 A 
ATOM     13  C   UNL     1       1.107   1.949  -1.379  1.00  0.00     0.160 A 
ATOM     14  C   UNL     1       0.015   2.783  -1.671  1.00  0.00     0.051 A 
ATOM     15  C   UNL     1       2.402   2.479  -1.315  1.00  0.00     0.161 A 
ATOM     16  C   UNL     1       0.203   4.152  -1.884  1.00  0.00     0.014 A 
ATOM     17  C   UNL     1       2.585   3.842  -1.569  1.00  0.00     0.060 A 
BRANCH  13  18
ATOM     18  O   UNL     1       0.895   0.598  -1.310  1.00  0.00    -0.493 OA
ATOM     19  C   UNL     1       0.199   0.212  -0.126  1.00  0.00     0.278 C 
ENDBRANCH  13  18
BRANCH  15  20
ATOM     20  O   UNL     1       3.578   1.828  -1.055  1.00  0.00    -0.493 OA
ATOM     21  C   UNL     1       3.516   0.547  -0.447  1.00  0.00     0.278 C 
ENDBRANCH  15  20
ENDBRANCH   8  12
ENDBRANCH   4   7
ENDBRANCH   2   3
ENDBRANCH   1   2
BRANCH   1  22
ATOM     22  C   UNL     1       5.838   8.119   1.356  1.00  0.00     0.118 C 
BRANCH  22  23
ATOM     23  N   UNL     1       6.845   7.065   1.511  1.00  0.00    -0.352 N 
ATOM     24  C   UNL     1       7.594   6.767   2.628  1.00  0.00     0.251 C 
ATOM     25  H   UNL     1       7.005   6.500   0.720  1.00  0.00     0.163 HD
ATOM     26  O   UNL     1       8.618   6.084   2.548  1.00  0.00    -0.269 OA
BRANCH  24  27
ATOM     27  C   UNL     1       7.158   7.292   3.927  1.00  0.00     0.039 A 
ATOM     28  C   UNL     1       8.050   7.949   4.780  1.00  0.00     0.014 A 
ATOM     29  C   UNL     1       5.805   7.198   4.237  1.00  0.00     0.014 A 
ATOM     30  C   UNL     1       7.548   8.608   5.900  1.00  0.00     0.010 A 
ATOM     31  C   UNL     1       5.298   7.970   5.254  1.00  0.00     0.010 A 
ATOM     32  C   UNL     1       6.163   8.646   6.116  1.00  0.00    -0.014 A 
BRANCH  32  33
ATOM     33  C   UNL     1       5.591   9.500   7.160  1.00  0.00     0.031 A 
ATOM     34  C   UNL     1       5.989  10.941   7.106  1.00  0.00     0.074 A 
ATOM     35  C   UNL     1       4.569   9.089   7.943  1.00  0.00     0.049 A 
ATOM     36  N   UNL     1       6.548  11.653   8.031  1.00  0.00    -0.248 NA
ATOM     37  C   UNL     1       5.816  11.661   5.832  1.00  0.00     0.031 C 
ATOM     38  C   UNL     1       3.861   7.801   7.893  1.00  0.00     0.029 A 
ATOM     39  N   UNL     1       3.845   9.789   8.860  1.00  0.00    -0.354 N 
ATOM     40  C   UNL     1       6.626  12.953   7.529  1.00  0.00     0.074 A 
ATOM     41  C   UNL     1       6.306  12.866   6.129  1.00  0.00     0.031 C 
ATOM     42  C   UNL     1       2.679   7.908   8.534  1.00  0.00     0.029 A 
ATOM     43  C   UNL     1       2.634   9.196   9.197  1.00  0.00     0.049 A 
ATOM     44  H   UNL     1       4.152  10.639   9.250  1.00  0.00     0.167 HD
ATOM     45  C   UNL     1       6.720  14.032   8.356  1.00  0.00     0.037 A 
ATOM     46  C   UNL     1       1.642   9.723   9.952  1.00  0.00     0.037 A 
ATOM     47  C   UNL     1       7.118  13.638   9.682  1.00  0.00     0.049 A 
ATOM     48  C   UNL     1       2.226  10.825  10.745  1.00  0.00     0.074 A 
ATOM     49  C   UNL     1       8.228  13.044  10.245  1.00  0.00     0.029 A 
ATOM     50  N   UNL     1       6.125  13.559  10.624  1.00  0.00    -0.354 N 
ATOM     51  N   UNL     1       3.100  10.656  11.697  1.00  0.00    -0.248 NA
ATOM     52  C   UNL     1       2.132  12.177  10.218  1.00  0.00     0.031 C 
ATOM     53  C   UNL     1       7.721  12.248  11.315  1.00  0.00     0.029 A 
ATOM     54  C   UNL     1       6.338  12.436  11.374  1.00  0.00     0.049 A 
ATOM     55  H   UNL     1       5.387  14.200  10.740  1.00  0.00     0.167 HD
ATOM     56  C   UNL     1       3.955  11.740  11.583  1.00  0.00     0.074 A 
ATOM     57  C   UNL     1       3.230  12.706  10.763  1.00  0.00     0.031 C 
ATOM     58  C   UNL     1       5.273  11.626  11.922  1.00  0.00     0.037 A 
BRANCH  45  59
ATOM     59  C   UNL     1       6.066  15.376   8.102  1.00  0.00     0.057 A 
ATOM     60  C   UNL     1       6.312  16.438   8.995  1.00  0.00     0.134 A 
ATOM     61  C   UNL     1       4.976  15.575   7.231  1.00  0.00     0.134 A 
ATOM     62  F   UNL     1       7.317  16.374   9.882  1.00  0.00    -0.206 F 
ATOM     63  C   UNL     1       5.481  17.563   9.077  1.00  0.00     0.040 A 
ATOM     64  C   UNL     1       4.171  16.718   7.271  1.00  0.00     0.040 A 
ATOM     65  F   UNL     1       4.564  14.638   6.370  1.00  0.00    -0.206 F 
ATOM     66  C   UNL     1       4.399  17.701   8.220  1.00  0.00     0.006 A 
ENDBRANCH  45  59
BRANCH  46  67
ATOM     67  C   UNL     1       0.186   9.485   9.865  1.00  0.00     0.057 A 
ATOM     68  C   UNL     1      -0.665   9.770  10.939  1.00  0.00     0.134 A 
ATOM     69  C   UNL     1      -0.437   9.219   8.633  1.00  0.00     0.134 A 
ATOM     70  F   UNL     1      -0.162  10.073  12.144  1.00  0.00    -0.206 F 
ATOM     71  C   UNL     1      -2.058   9.811  10.793  1.00  0.00     0.040 A 
ATOM     72  C   UNL     1      -1.825   9.249   8.474  1.00  0.00     0.040 A 
ATOM     73  F   UNL     1       0.288   9.005   7.524  1.00  0.00    -0.206 F 
ATOM     74  C   UNL     1      -2.642   9.561   9.554  1.00  0.00     0.006 A 
ENDBRANCH  46  67
BRANCH  58  75
ATOM     75  C   UNL     1       5.684  10.424  12.727  1.00  0.00     0.057 A 
ATOM     76  C   UNL     1       5.629   9.102  12.261  1.00  0.00     0.134 A 
ATOM     77  C   UNL     1       6.288  10.630  13.972  1.00  0.00     0.134 A 
ATOM     78  F   UNL     1       5.158   8.813  11.043  1.00  0.00    -0.206 F 
ATOM     79  C   UNL     1       6.113   8.031  13.019  1.00  0.00     0.040 A 
ATOM     80  C   UNL     1       6.806   9.573  14.724  1.00  0.00     0.040 A 
ATOM     81  F   UNL     1       6.427  11.873  14.458  1.00  0.00    -0.206 F 
ATOM     82  C   UNL     1       6.710   8.267  14.253  1.00  0.00     0.006 A 
ENDBRANCH  58  75
ENDBRANCH  32  33
ENDBRANCH  24  27
ENDBRANCH  22  23
ENDBRANCH   1  22
TORSDOF 13
