REMARK SMILES CC[C@H]([NH3+])C(=O)N(C)c1snc(C)c1C(=O)NCCCNC(=O)c1ccc(-c2c3nc(c(-c4c(F)cccc4F)c4ccc([nH]4)c(-c4c(F)cccc4F)c4nc(c(-c5c(F)cccc5F)c5ccc2[nH]5)C=C4)C=C3)cc1
REMARK SMILES IDX 18 1 17 2 15 3 16 4 14 6 9 7 10 8 11 9 12 10 13 11 7 12 8 13
REMARK SMILES IDX 5 14 6 15 3 16 2 17 1 18 4 19 19 23 20 24 21 25 22 26 23 28
REMARK SMILES IDX 24 29 25 30 77 31 26 32 76 33 27 34 28 35 29 36 70 37 30 38
REMARK SMILES IDX 75 39 69 40 71 41 31 42 74 43 68 44 67 45 32 47 58 48 41 49
REMARK SMILES IDX 57 50 42 51 45 52 56 53 72 54 43 55 44 56 55 58 73 59 46 60
REMARK SMILES IDX 33 61 34 62 39 63 35 64 36 65 38 66 40 67 37 68 59 69 60 70
REMARK SMILES IDX 65 71 61 72 62 73 64 74 66 75 63 76 47 77 48 78 53 79 49 80
REMARK SMILES IDX 50 81 52 82 54 83 51 84
REMARK H PARENT 17 5 4 20 4 21 4 22 21 27 71 46 45 57
REMARK Flexibility Score: inf
ROOT
ATOM      1  C   UNL     1      -0.395   3.111  -4.028  1.00  0.00     0.118 C 
ENDROOT
BRANCH   1   2
ATOM      2  N   UNL     1       0.361   4.302  -4.295  1.00  0.00    -0.352 N 
ATOM      3  C   UNL     1       0.268   5.502  -3.619  1.00  0.00     0.256 C 
ATOM      4  O   UNL     1       1.103   6.364  -3.897  1.00  0.00    -0.269 OA
ATOM      5  H   UNL     1       1.011   4.258  -5.033  1.00  0.00     0.163 HD
BRANCH   3   6
ATOM      6  C   UNL     1      -0.882   5.801  -2.761  1.00  0.00     0.097 A 
ATOM      7  C   UNL     1      -1.508   5.036  -1.770  1.00  0.00     0.131 A 
ATOM      8  S   UNL     1      -2.872   5.919  -1.193  1.00  0.00    -0.017 S 
ATOM      9  N   UNL     1      -2.705   7.216  -2.172  1.00  0.00    -0.195 NA
ATOM     10  C   UNL     1      -1.639   7.041  -2.949  1.00  0.00     0.066 A 
ATOM     11  C   UNL     1      -1.389   8.108  -3.967  1.00  0.00     0.069 C 
BRANCH   7  12
ATOM     12  N   UNL     1      -1.320   3.763  -1.165  1.00  0.00    -0.300 N 
ATOM     13  C   UNL     1      -2.498   2.931  -0.909  1.00  0.00     0.154 C 
BRANCH  12  14
ATOM     14  C   UNL     1      -0.019   3.381  -0.807  1.00  0.00     0.285 C 
ATOM     15  O   UNL     1       0.948   4.138  -0.960  1.00  0.00    -0.268 OA
BRANCH  14  16
ATOM     16  C   UNL     1       0.253   1.949  -0.195  1.00  0.00     0.271 C 
BRANCH  16  17
ATOM     17  C   UNL     1      -0.036   0.751  -1.126  1.00  0.00     0.072 C 
ATOM     18  C   UNL     1      -0.866  -0.425  -0.636  1.00  0.00     0.011 C 
ENDBRANCH  16  17
BRANCH  16  19
ATOM     19  N   UNL     1      -0.287   1.821   1.163  1.00  0.00    -0.347 N 
ATOM     20  H   UNL     1      -1.305   1.875   1.131  1.00  0.00     0.345 HD
ATOM     21  H   UNL     1       0.075   2.576   1.745  1.00  0.00     0.345 HD
ATOM     22  H   UNL     1      -0.006   0.923   1.557  1.00  0.00     0.345 HD
ENDBRANCH  16  19
ENDBRANCH  14  16
ENDBRANCH  12  14
ENDBRANCH   7  12
ENDBRANCH   3   6
ENDBRANCH   1   2
BRANCH   1  23
ATOM     23  C   UNL     1      -0.303   1.970  -5.021  1.00  0.00     0.042 C 
BRANCH  23  24
ATOM     24  C   UNL     1       1.077   1.334  -5.125  1.00  0.00     0.118 C 
BRANCH  24  25
ATOM     25  N   UNL     1       1.619   0.772  -3.878  1.00  0.00    -0.352 N 
ATOM     26  C   UNL     1       2.608  -0.189  -3.727  1.00  0.00     0.251 C 
ATOM     27  H   UNL     1       1.230   1.123  -3.045  1.00  0.00     0.163 HD
ATOM     28  O   UNL     1       2.897  -0.694  -2.653  1.00  0.00    -0.269 OA
BRANCH  26  29
ATOM     29  C   UNL     1       3.384  -0.486  -4.934  1.00  0.00     0.039 A 
ATOM     30  C   UNL     1       3.202  -1.681  -5.628  1.00  0.00     0.014 A 
ATOM     31  C   UNL     1       3.896   0.651  -5.536  1.00  0.00     0.014 A 
ATOM     32  C   UNL     1       3.355  -1.662  -7.013  1.00  0.00     0.010 A 
ATOM     33  C   UNL     1       3.823   0.704  -6.904  1.00  0.00     0.010 A 
ATOM     34  C   UNL     1       3.567  -0.438  -7.671  1.00  0.00    -0.014 A 
BRANCH  34  35
ATOM     35  C   UNL     1       3.375  -0.314  -9.124  1.00  0.00     0.031 A 
ATOM     36  C   UNL     1       2.320  -1.152  -9.785  1.00  0.00     0.074 A 
ATOM     37  C   UNL     1       3.930   0.653  -9.889  1.00  0.00     0.049 A 
ATOM     38  N   UNL     1       2.504  -2.090 -10.660  1.00  0.00    -0.248 NA
ATOM     39  C   UNL     1       0.906  -0.935  -9.449  1.00  0.00     0.031 C 
ATOM     40  C   UNL     1       4.786   1.786  -9.512  1.00  0.00     0.029 A 
ATOM     41  N   UNL     1       3.737   0.861 -11.221  1.00  0.00    -0.354 N 
ATOM     42  C   UNL     1       1.243  -2.482 -11.111  1.00  0.00     0.074 A 
ATOM     43  C   UNL     1       0.294  -1.802 -10.263  1.00  0.00     0.031 C 
ATOM     44  C   UNL     1       4.811   2.691 -10.510  1.00  0.00     0.029 A 
ATOM     45  C   UNL     1       4.191   2.086 -11.668  1.00  0.00     0.049 A 
ATOM     46  H   UNL     1       3.312   0.198 -11.812  1.00  0.00     0.167 HD
ATOM     47  C   UNL     1       1.078  -3.217 -12.251  1.00  0.00     0.037 A 
ATOM     48  C   UNL     1       4.132   2.579 -12.921  1.00  0.00     0.037 A 
ATOM     49  C   UNL     1       2.321  -3.791 -12.698  1.00  0.00     0.049 A 
ATOM     50  C   UNL     1       4.058   1.425 -13.843  1.00  0.00     0.074 A 
ATOM     51  C   UNL     1       3.271  -4.625 -12.138  1.00  0.00     0.029 A 
ATOM     52  N   UNL     1       2.934  -3.252 -13.803  1.00  0.00    -0.354 N 
ATOM     53  N   UNL     1       5.024   0.560 -14.002  1.00  0.00    -0.248 NA
ATOM     54  C   UNL     1       2.746   0.979 -14.281  1.00  0.00     0.031 C 
ATOM     55  C   UNL     1       4.521  -4.106 -12.596  1.00  0.00     0.029 A 
ATOM     56  C   UNL     1       4.235  -3.028 -13.437  1.00  0.00     0.049 A 
ATOM     57  H   UNL     1       2.523  -3.066 -14.678  1.00  0.00     0.167 HD
ATOM     58  C   UNL     1       4.388  -0.662 -14.159  1.00  0.00     0.074 A 
ATOM     59  C   UNL     1       2.994  -0.323 -14.441  1.00  0.00     0.031 C 
ATOM     60  C   UNL     1       4.978  -1.837 -13.783  1.00  0.00     0.037 A 
BRANCH  47  61
ATOM     61  C   UNL     1      -0.139  -3.209 -13.145  1.00  0.00     0.057 A 
ATOM     62  C   UNL     1      -0.268  -4.181 -14.159  1.00  0.00     0.134 A 
ATOM     63  C   UNL     1      -1.038  -2.131 -13.235  1.00  0.00     0.134 A 
ATOM     64  F   UNL     1       0.544  -5.248 -14.199  1.00  0.00    -0.206 F 
ATOM     65  C   UNL     1      -1.179  -4.054 -15.217  1.00  0.00     0.040 A 
ATOM     66  C   UNL     1      -1.986  -2.020 -14.260  1.00  0.00     0.040 A 
ATOM     67  F   UNL     1      -0.979  -1.088 -12.398  1.00  0.00    -0.206 F 
ATOM     68  C   UNL     1      -2.040  -2.967 -15.272  1.00  0.00     0.006 A 
ENDBRANCH  47  61
BRANCH  48  69
ATOM     69  C   UNL     1       3.962   3.991 -13.299  1.00  0.00     0.057 A 
ATOM     70  C   UNL     1       4.319   4.463 -14.562  1.00  0.00     0.134 A 
ATOM     71  C   UNL     1       3.233   4.878 -12.481  1.00  0.00     0.134 A 
ATOM     72  F   UNL     1       4.979   3.673 -15.421  1.00  0.00    -0.206 F 
ATOM     73  C   UNL     1       3.967   5.747 -14.996  1.00  0.00     0.040 A 
ATOM     74  C   UNL     1       2.882   6.163 -12.897  1.00  0.00     0.040 A 
ATOM     75  F   UNL     1       2.775   4.495 -11.279  1.00  0.00    -0.206 F 
ATOM     76  C   UNL     1       3.241   6.598 -14.165  1.00  0.00     0.006 A 
ENDBRANCH  48  69
BRANCH  60  77
ATOM     77  C   UNL     1       6.438  -1.832 -13.411  1.00  0.00     0.057 A 
ATOM     78  C   UNL     1       6.965  -1.119 -12.324  1.00  0.00     0.134 A 
ATOM     79  C   UNL     1       7.305  -2.726 -14.051  1.00  0.00     0.134 A 
ATOM     80  F   UNL     1       6.194  -0.322 -11.580  1.00  0.00    -0.206 F 
ATOM     81  C   UNL     1       8.295  -1.258 -11.918  1.00  0.00     0.040 A 
ATOM     82  C   UNL     1       8.630  -2.898 -13.636  1.00  0.00     0.040 A 
ATOM     83  F   UNL     1       6.861  -3.494 -15.059  1.00  0.00    -0.206 F 
ATOM     84  C   UNL     1       9.132  -2.156 -12.571  1.00  0.00     0.006 A 
ENDBRANCH  60  77
ENDBRANCH  34  35
ENDBRANCH  26  29
ENDBRANCH  24  25
ENDBRANCH  23  24
ENDBRANCH   1  23
TORSDOF 15
