REMARK SMILES O=C(C[C@@H](NC(=O)C1CC=CC1)C1CC1)NCCCNC(=O)c1ccc(-c2c3nc(c(-c4c(F)cccc4F)c4ccc([nH]4)c(-c4c(F)cccc4F)c4nc(c(-c5c(F)cccc5F)c5ccc2[nH]5)C=C4)C=C3)cc1
REMARK SMILES IDX 17 1 16 2 1 3 2 4 3 6 4 7 5 8 6 9 7 11 8 12 9 13 12 14 10 15
REMARK SMILES IDX 11 16 13 17 14 18 15 19 18 20 19 21 20 22 21 23 22 25 23 26
REMARK SMILES IDX 24 27 76 28 25 29 75 30 26 31 27 32 28 33 69 34 29 35 74 36
REMARK SMILES IDX 68 37 70 38 30 39 73 40 67 41 66 42 31 44 57 45 40 46 56 47
REMARK SMILES IDX 41 48 44 49 55 50 71 51 42 52 43 53 54 55 72 56 45 57 32 58
REMARK SMILES IDX 33 59 38 60 34 61 35 62 37 63 39 64 36 65 58 66 59 67 64 68
REMARK SMILES IDX 60 69 61 70 63 71 65 72 62 73 46 74 47 75 52 76 48 77 49 78
REMARK SMILES IDX 51 79 53 80 50 81
REMARK H PARENT 16 5 5 10 20 24 70 43 44 54
REMARK Flexibility Score: inf
ROOT
ATOM      1  C   UNL     1       1.906  -0.659  -3.007  1.00  0.00     0.117 C 
ENDROOT
BRANCH   1   2
ATOM      2  N   UNL     1       2.553  -0.610  -1.710  1.00  0.00    -0.356 N 
ATOM      3  O   UNL     1       0.647  -0.535  -0.440  1.00  0.00    -0.275 OA
ATOM      4  C   UNL     1       1.855  -0.365  -0.556  1.00  0.00     0.222 C 
ATOM      5  H   UNL     1       3.525  -0.757  -1.657  1.00  0.00     0.163 HD
BRANCH   4   6
ATOM      6  C   UNL     1       2.675   0.302   0.519  1.00  0.00     0.125 C 
BRANCH   6   7
ATOM      7  C   UNL     1       3.499  -0.623   1.462  1.00  0.00     0.094 C 
BRANCH   7   8
ATOM      8  N   UNL     1       4.880  -0.745   0.885  1.00  0.00    -0.352 N 
ATOM      9  C   UNL     1       6.149  -1.156   1.018  1.00  0.00     0.223 C 
ATOM     10  H   UNL     1       4.831  -0.328  -0.005  1.00  0.00     0.163 HD
ATOM     11  O   UNL     1       6.660  -1.330  -0.109  1.00  0.00    -0.275 OA
BRANCH   9  12
ATOM     12  C   UNL     1       7.094  -1.347   2.207  1.00  0.00     0.086 C 
ATOM     13  C   UNL     1       7.535  -0.064   2.921  1.00  0.00     0.040 C 
ATOM     14  C   UNL     1       6.810  -2.403   3.274  1.00  0.00     0.040 C 
ATOM     15  C   UNL     1       7.404  -0.399   4.370  1.00  0.00    -0.030 C 
ATOM     16  C   UNL     1       7.039  -1.671   4.564  1.00  0.00    -0.030 C 
ENDBRANCH   9  12
ENDBRANCH   7   8
BRANCH   7  17
ATOM     17  C   UNL     1       3.306   0.003   2.814  1.00  0.00     0.012 C 
ATOM     18  C   UNL     1       4.177  -0.194   3.996  1.00  0.00     0.006 C 
ATOM     19  C   UNL     1       4.200   1.121   3.258  1.00  0.00     0.006 C 
ENDBRANCH   7  17
ENDBRANCH   6   7
ENDBRANCH   4   6
ENDBRANCH   1   2
BRANCH   1  20
ATOM     20  C   UNL     1       2.294   0.570  -3.828  1.00  0.00     0.042 C 
BRANCH  20  21
ATOM     21  C   UNL     1       3.802   0.750  -3.982  1.00  0.00     0.118 C 
BRANCH  21  22
ATOM     22  N   UNL     1       4.442  -0.405  -4.597  1.00  0.00    -0.352 N 
ATOM     23  C   UNL     1       5.124  -0.488  -5.787  1.00  0.00     0.251 C 
ATOM     24  H   UNL     1       4.376  -1.245  -4.087  1.00  0.00     0.163 HD
ATOM     25  O   UNL     1       5.406  -1.573  -6.271  1.00  0.00    -0.269 OA
BRANCH  23  26
ATOM     26  C   UNL     1       5.490   0.760  -6.482  1.00  0.00     0.039 A 
ATOM     27  C   UNL     1       5.191   0.898  -7.838  1.00  0.00     0.014 A 
ATOM     28  C   UNL     1       6.092   1.801  -5.773  1.00  0.00     0.014 A 
ATOM     29  C   UNL     1       5.428   2.120  -8.469  1.00  0.00     0.010 A 
ATOM     30  C   UNL     1       6.247   3.039  -6.380  1.00  0.00     0.010 A 
ATOM     31  C   UNL     1       5.917   3.212  -7.734  1.00  0.00    -0.014 A 
BRANCH  31  32
ATOM     32  C   UNL     1       6.104   4.549  -8.347  1.00  0.00     0.031 A 
ATOM     33  C   UNL     1       7.477   5.158  -8.394  1.00  0.00     0.074 A 
ATOM     34  C   UNL     1       5.034   5.252  -8.767  1.00  0.00     0.049 A 
ATOM     35  N   UNL     1       7.836   6.367  -8.740  1.00  0.00    -0.248 NA
ATOM     36  C   UNL     1       8.593   4.300  -7.962  1.00  0.00     0.031 C 
ATOM     37  C   UNL     1       3.648   4.783  -8.745  1.00  0.00     0.029 A 
ATOM     38  N   UNL     1       4.946   6.525  -9.274  1.00  0.00    -0.354 N 
ATOM     39  C   UNL     1       9.210   6.422  -8.546  1.00  0.00     0.074 A 
ATOM     40  C   UNL     1       9.613   5.144  -8.001  1.00  0.00     0.031 C 
ATOM     41  C   UNL     1       2.849   5.748  -9.228  1.00  0.00     0.029 A 
ATOM     42  C   UNL     1       3.658   6.921  -9.545  1.00  0.00     0.049 A 
ATOM     43  H   UNL     1       5.730   7.099  -9.429  1.00  0.00     0.167 HD
ATOM     44  C   UNL     1      10.061   7.438  -8.816  1.00  0.00     0.037 A 
ATOM     45  C   UNL     1       3.182   8.104  -9.979  1.00  0.00     0.037 A 
ATOM     46  C   UNL     1       9.656   8.700  -9.377  1.00  0.00     0.049 A 
ATOM     47  C   UNL     1       4.146   9.229 -10.245  1.00  0.00     0.074 A 
ATOM     48  C   UNL     1      10.447   9.777  -9.734  1.00  0.00     0.029 A 
ATOM     49  N   UNL     1       8.345   9.053  -9.660  1.00  0.00    -0.354 N 
ATOM     50  N   UNL     1       5.449   9.252 -10.106  1.00  0.00    -0.248 NA
ATOM     51  C   UNL     1       3.573  10.492 -10.732  1.00  0.00     0.031 C 
ATOM     52  C   UNL     1       9.610  10.803 -10.181  1.00  0.00     0.029 A 
ATOM     53  C   UNL     1       8.303  10.341 -10.167  1.00  0.00     0.049 A 
ATOM     54  H   UNL     1       7.561   8.474  -9.521  1.00  0.00     0.167 HD
ATOM     55  C   UNL     1       5.856  10.511 -10.528  1.00  0.00     0.074 A 
ATOM     56  C   UNL     1       4.661  11.224 -10.929  1.00  0.00     0.031 C 
ATOM     57  C   UNL     1       7.108  11.028 -10.585  1.00  0.00     0.037 A 
BRANCH  44  58
ATOM     58  C   UNL     1      11.515   7.228  -8.503  1.00  0.00     0.057 A 
ATOM     59  C   UNL     1      12.305   6.321  -9.223  1.00  0.00     0.134 A 
ATOM     60  C   UNL     1      12.141   7.965  -7.490  1.00  0.00     0.134 A 
ATOM     61  F   UNL     1      11.766   5.574 -10.198  1.00  0.00    -0.206 F 
ATOM     62  C   UNL     1      13.656   6.133  -8.926  1.00  0.00     0.040 A 
ATOM     63  C   UNL     1      13.499   7.810  -7.206  1.00  0.00     0.040 A 
ATOM     64  F   UNL     1      11.447   8.856  -6.766  1.00  0.00    -0.206 F 
ATOM     65  C   UNL     1      14.258   6.885  -7.919  1.00  0.00     0.006 A 
ENDBRANCH  44  58
BRANCH  45  66
ATOM     66  C   UNL     1       1.724   8.286 -10.200  1.00  0.00     0.057 A 
ATOM     67  C   UNL     1       1.206   8.450 -11.491  1.00  0.00     0.134 A 
ATOM     68  C   UNL     1       0.817   8.314  -9.134  1.00  0.00     0.134 A 
ATOM     69  F   UNL     1       2.026   8.450 -12.552  1.00  0.00    -0.206 F 
ATOM     70  C   UNL     1      -0.156   8.660 -11.712  1.00  0.00     0.040 A 
ATOM     71  C   UNL     1      -0.551   8.494  -9.343  1.00  0.00     0.040 A 
ATOM     72  F   UNL     1       1.247   8.153  -7.874  1.00  0.00    -0.206 F 
ATOM     73  C   UNL     1      -1.040   8.678 -10.635  1.00  0.00     0.006 A 
ENDBRANCH  45  66
BRANCH  57  74
ATOM     74  C   UNL     1       7.267  12.404 -11.164  1.00  0.00     0.057 A 
ATOM     75  C   UNL     1       6.861  13.555 -10.478  1.00  0.00     0.134 A 
ATOM     76  C   UNL     1       7.902  12.578 -12.401  1.00  0.00     0.134 A 
ATOM     77  F   UNL     1       6.237  13.457  -9.294  1.00  0.00    -0.206 F 
ATOM     78  C   UNL     1       7.066  14.829 -11.010  1.00  0.00     0.040 A 
ATOM     79  C   UNL     1       8.139  13.847 -12.929  1.00  0.00     0.040 A 
ATOM     80  F   UNL     1       8.324  11.517 -13.106  1.00  0.00    -0.206 F 
ATOM     81  C   UNL     1       7.716  14.978 -12.234  1.00  0.00     0.006 A 
ENDBRANCH  57  74
ENDBRANCH  31  32
ENDBRANCH  23  26
ENDBRANCH  21  22
ENDBRANCH  20  21
ENDBRANCH   1  20
TORSDOF 14
