REMARK SMILES Cc1cc(NC(=O)c2ccc(Br)cc2N)ccc1C(=O)NCCCNC(=O)c1ccc(-c2c3nc(c(-c4c(F)cccc4F)c4ccc([nH]4)c(-c4c(F)cccc4F)c4nc(c(-c5c(F)cccc5F)c5ccc2[nH]5)C=C4)C=C3)cc1
REMARK SMILES IDX 22 1 21 2 19 3 20 4 18 6 1 7 2 8 3 9 4 10 17 11 16 12 5 13
REMARK SMILES IDX 6 14 7 16 8 17 9 18 14 19 10 20 13 21 11 22 12 23 15 24
REMARK SMILES IDX 23 27 24 28 25 29 26 30 27 32 28 33 29 34 81 35 30 36 80 37
REMARK SMILES IDX 31 38 32 39 33 40 74 41 34 42 79 43 73 44 75 45 35 46 78 47
REMARK SMILES IDX 72 48 71 49 36 51 62 52 45 53 61 54 46 55 49 56 60 57 76 58
REMARK SMILES IDX 47 59 48 60 59 62 77 63 50 64 37 65 38 66 43 67 39 68 40 69
REMARK SMILES IDX 42 70 44 71 41 72 63 73 64 74 69 75 65 76 66 77 68 78 70 79
REMARK SMILES IDX 67 80 51 81 52 82 57 83 53 84 54 85 56 86 58 87 55 88
REMARK H PARENT 21 5 5 15 15 25 15 26 25 31 75 50 49 61
REMARK Flexibility Score: inf
ROOT
ATOM      1  C   UNL     1       3.408   1.345   0.372  1.00  0.00     0.118 C 
ENDROOT
BRANCH   1   2
ATOM      2  N   UNL     1       2.337   2.180  -0.147  1.00  0.00    -0.352 N 
ATOM      3  C   UNL     1       1.028   1.966  -0.504  1.00  0.00     0.251 C 
ATOM      4  O   UNL     1       0.411   2.966  -0.883  1.00  0.00    -0.269 OA
ATOM      5  H   UNL     1       2.614   3.117  -0.271  1.00  0.00     0.163 HD
BRANCH   3   6
ATOM      6  C   UNL     1       0.262   0.680  -0.393  1.00  0.00     0.042 A 
ATOM      7  C   UNL     1       1.974  -1.032  -1.315  1.00  0.00     0.045 C 
ATOM      8  C   UNL     1       0.670  -0.620  -0.729  1.00  0.00    -0.036 A 
ATOM      9  C   UNL     1      -0.212  -1.694  -0.519  1.00  0.00     0.030 A 
ATOM     10  C   UNL     1      -1.499  -1.516  -0.032  1.00  0.00     0.041 A 
ATOM     11  C   UNL     1      -1.094   0.852  -0.014  1.00  0.00     0.016 A 
ATOM     12  C   UNL     1      -1.978  -0.228   0.134  1.00  0.00     0.027 A 
BRANCH  10  13
ATOM     13  N   UNL     1      -2.292  -2.620   0.315  1.00  0.00    -0.322 N 
ATOM     14  C   UNL     1      -1.856  -3.855   0.778  1.00  0.00     0.257 C 
ATOM     15  H   UNL     1      -3.265  -2.507   0.220  1.00  0.00     0.170 HD
ATOM     16  O   UNL     1      -2.588  -4.839   0.699  1.00  0.00    -0.269 OA
BRANCH  14  17
ATOM     17  C   UNL     1      -0.519  -3.991   1.441  1.00  0.00     0.063 A 
ATOM     18  C   UNL     1       0.271  -5.089   1.055  1.00  0.00     0.017 A 
ATOM     19  C   UNL     1      -0.039  -3.078   2.409  1.00  0.00     0.045 A 
ATOM     20  C   UNL     1       1.539  -5.277   1.609  1.00  0.00     0.016 A 
ATOM     21  C   UNL     1       1.231  -3.297   2.964  1.00  0.00     0.042 A 
ATOM     22  C   UNL     1       2.013  -4.378   2.558  1.00  0.00     0.020 A 
ATOM     23  Br  UNL     1       3.721  -4.633   3.330  1.00  0.00    -0.051 Br
BRANCH  19  24
ATOM     24  N   UNL     1      -0.815  -2.055   2.954  1.00  0.00    -0.398 N 
ATOM     25  H   UNL     1      -1.712  -1.871   2.591  1.00  0.00     0.156 HD
ATOM     26  H   UNL     1      -0.466  -1.517   3.700  1.00  0.00     0.156 HD
ENDBRANCH  19  24
ENDBRANCH  14  17
ENDBRANCH  10  13
ENDBRANCH   3   6
ENDBRANCH   1   2
BRANCH   1  27
ATOM     27  C   UNL     1       4.292   0.814  -0.758  1.00  0.00     0.042 C 
BRANCH  27  28
ATOM     28  C   UNL     1       5.622   1.503  -0.984  1.00  0.00     0.118 C 
BRANCH  28  29
ATOM     29  N   UNL     1       6.752   0.571  -0.876  1.00  0.00    -0.352 N 
ATOM     30  C   UNL     1       8.049   0.725  -1.341  1.00  0.00     0.251 C 
ATOM     31  H   UNL     1       6.562  -0.277  -0.412  1.00  0.00     0.163 HD
ATOM     32  O   UNL     1       8.925  -0.076  -1.073  1.00  0.00    -0.269 OA
BRANCH  30  33
ATOM     33  C   UNL     1       8.352   1.976  -2.065  1.00  0.00     0.039 A 
ATOM     34  C   UNL     1       9.062   2.938  -1.347  1.00  0.00     0.014 A 
ATOM     35  C   UNL     1       7.553   2.317  -3.154  1.00  0.00     0.014 A 
ATOM     36  C   UNL     1       8.720   4.273  -1.514  1.00  0.00     0.010 A 
ATOM     37  C   UNL     1       7.159   3.639  -3.265  1.00  0.00     0.010 A 
ATOM     38  C   UNL     1       7.674   4.595  -2.380  1.00  0.00    -0.014 A 
BRANCH  38  39
ATOM     39  C   UNL     1       7.015   5.896  -2.338  1.00  0.00     0.031 A 
ATOM     40  C   UNL     1       7.347   6.902  -3.360  1.00  0.00     0.074 A 
ATOM     41  C   UNL     1       6.154   6.230  -1.349  1.00  0.00     0.049 A 
ATOM     42  N   UNL     1       7.374   8.172  -3.137  1.00  0.00    -0.248 NA
ATOM     43  C   UNL     1       7.725   6.535  -4.716  1.00  0.00     0.031 C 
ATOM     44  C   UNL     1       5.353   7.449  -1.256  1.00  0.00     0.029 A 
ATOM     45  N   UNL     1       6.011   5.626  -0.094  1.00  0.00    -0.354 N 
ATOM     46  C   UNL     1       7.509   8.800  -4.350  1.00  0.00     0.074 A 
ATOM     47  C   UNL     1       7.788   7.738  -5.292  1.00  0.00     0.031 C 
ATOM     48  C   UNL     1       5.067   7.680   0.034  1.00  0.00     0.029 A 
ATOM     49  C   UNL     1       5.742   6.670   0.824  1.00  0.00     0.049 A 
ATOM     50  H   UNL     1       6.082   4.665   0.109  1.00  0.00     0.167 HD
ATOM     51  C   UNL     1       7.246  10.134  -4.452  1.00  0.00     0.037 A 
ATOM     52  C   UNL     1       6.566   6.900   1.886  1.00  0.00     0.037 A 
ATOM     53  C   UNL     1       6.879  10.721  -3.162  1.00  0.00     0.049 A 
ATOM     54  C   UNL     1       7.273   8.238   1.847  1.00  0.00     0.074 A 
ATOM     55  C   UNL     1       5.676  11.055  -2.560  1.00  0.00     0.029 A 
ATOM     56  N   UNL     1       7.828  10.777  -2.156  1.00  0.00    -0.354 N 
ATOM     57  N   UNL     1       7.075   9.157   0.942  1.00  0.00    -0.248 NA
ATOM     58  C   UNL     1       8.350   8.594   2.774  1.00  0.00     0.031 C 
ATOM     59  C   UNL     1       5.921  11.325  -1.183  1.00  0.00     0.029 A 
ATOM     60  C   UNL     1       7.271  11.153  -0.947  1.00  0.00     0.049 A 
ATOM     61  H   UNL     1       8.783  10.573  -2.285  1.00  0.00     0.167 HD
ATOM     62  C   UNL     1       8.008  10.151   1.095  1.00  0.00     0.074 A 
ATOM     63  C   UNL     1       8.779   9.756   2.258  1.00  0.00     0.031 C 
ATOM     64  C   UNL     1       8.123  11.202   0.231  1.00  0.00     0.037 A 
BRANCH  51  65
ATOM     65  C   UNL     1       7.062  10.826  -5.780  1.00  0.00     0.057 A 
ATOM     66  C   UNL     1       6.159  11.895  -5.924  1.00  0.00     0.134 A 
ATOM     67  C   UNL     1       7.707  10.449  -6.971  1.00  0.00     0.134 A 
ATOM     68  F   UNL     1       5.564  12.463  -4.867  1.00  0.00    -0.206 F 
ATOM     69  C   UNL     1       5.815  12.438  -7.168  1.00  0.00     0.040 A 
ATOM     70  C   UNL     1       7.328  10.935  -8.230  1.00  0.00     0.040 A 
ATOM     71  F   UNL     1       8.768   9.630  -6.961  1.00  0.00    -0.206 F 
ATOM     72  C   UNL     1       6.362  11.923  -8.334  1.00  0.00     0.006 A 
ENDBRANCH  51  65
BRANCH  52  73
ATOM     73  C   UNL     1       7.126   5.638   2.435  1.00  0.00     0.057 A 
ATOM     74  C   UNL     1       6.228   4.706   2.988  1.00  0.00     0.134 A 
ATOM     75  C   UNL     1       8.380   5.166   2.046  1.00  0.00     0.134 A 
ATOM     76  F   UNL     1       5.011   5.101   3.397  1.00  0.00    -0.206 F 
ATOM     77  C   UNL     1       6.503   3.338   2.997  1.00  0.00     0.040 A 
ATOM     78  C   UNL     1       8.675   3.801   2.075  1.00  0.00     0.040 A 
ATOM     79  F   UNL     1       9.288   5.995   1.513  1.00  0.00    -0.206 F 
ATOM     80  C   UNL     1       7.716   2.879   2.495  1.00  0.00     0.006 A 
ENDBRANCH  52  73
BRANCH  64  81
ATOM     81  C   UNL     1       9.084  12.345   0.431  1.00  0.00     0.057 A 
ATOM     82  C   UNL     1       9.335  12.912   1.690  1.00  0.00     0.134 A 
ATOM     83  C   UNL     1       9.707  12.995  -0.654  1.00  0.00     0.134 A 
ATOM     84  F   UNL     1       8.718  12.458   2.791  1.00  0.00    -0.206 F 
ATOM     85  C   UNL     1      10.209  13.993   1.868  1.00  0.00     0.040 A 
ATOM     86  C   UNL     1      10.540  14.107  -0.495  1.00  0.00     0.040 A 
ATOM     87  F   UNL     1       9.548  12.576  -1.917  1.00  0.00    -0.206 F 
ATOM     88  C   UNL     1      10.812  14.597   0.773  1.00  0.00     0.006 A 
ENDBRANCH  64  81
ENDBRANCH  38  39
ENDBRANCH  30  33
ENDBRANCH  28  29
ENDBRANCH  27  28
ENDBRANCH   1  27
TORSDOF 13
