REMARK SMILES CCC1C[NH+]([C@H](C(=O)NCCCNC(=O)c2ccc(-c3c4nc(c(-c5c(F)cccc5F)c5ccc([nH]5)c(-c5c(F)cccc5F)c5nc(c(-c6c(F)cccc6F)c6ccc3[nH]6)C=C5)C=C4)cc2)C(C)C)C1
REMARK SMILES IDX 11 1 10 2 9 3 7 4 8 5 6 7 5 8 3 9 4 10 73 11 2 13 1 14 70 15
REMARK SMILES IDX 71 16 72 17 12 18 13 19 14 20 15 22 16 23 17 24 69 25 18 26
REMARK SMILES IDX 68 27 19 28 20 29 21 30 62 31 22 32 67 33 61 34 63 35 23 36
REMARK SMILES IDX 66 37 60 38 59 39 24 41 50 42 33 43 49 44 34 45 37 46 48 47
REMARK SMILES IDX 64 48 35 49 36 50 47 52 65 53 38 54 25 55 26 56 31 57 27 58
REMARK SMILES IDX 28 59 30 60 32 61 29 62 51 63 52 64 57 65 53 66 54 67 56 68
REMARK SMILES IDX 58 69 55 70 39 71 40 72 45 73 41 74 42 75 44 76 46 77 43 78
REMARK H PARENT 9 6 5 12 13 21 63 40 37 51
REMARK Flexibility Score: inf
ROOT
ATOM      1  C   UNL     1       0.559   3.326   2.804  1.00  0.00     0.042 C 
ENDROOT
BRANCH   1   2
ATOM      2  C   UNL     1       0.134   2.675   4.105  1.00  0.00     0.118 C 
BRANCH   2   3
ATOM      3  N   UNL     1      -0.170   1.262   3.966  1.00  0.00    -0.351 N 
ATOM      4  C   UNL     1       0.292   0.130   4.557  1.00  0.00     0.278 C 
ATOM      5  O   UNL     1      -0.431  -0.861   4.375  1.00  0.00    -0.268 OA
ATOM      6  H   UNL     1      -0.866   1.086   3.292  1.00  0.00     0.163 HD
BRANCH   4   7
ATOM      7  C   UNL     1       1.633  -0.021   5.348  1.00  0.00     0.276 C 
BRANCH   7   8
ATOM      8  N   UNL     1       2.736  -0.617   4.552  1.00  0.00    -0.324 N 
ATOM      9  C   UNL     1       3.316  -1.411   2.707  1.00  0.00     0.099 C 
ATOM     10  C   UNL     1       2.987   0.009   3.244  1.00  0.00     0.272 C 
ATOM     11  C   UNL     1       2.421  -1.897   3.880  1.00  0.00     0.272 C 
ATOM     12  H   UNL     1       3.447  -0.583   5.282  1.00  0.00     0.348 HD
BRANCH   9  13
ATOM     13  C   UNL     1       2.848  -1.744   1.298  1.00  0.00     0.012 C 
ATOM     14  C   UNL     1       3.633  -0.937   0.277  1.00  0.00     0.004 C 
ENDBRANCH   9  13
ENDBRANCH   7   8
BRANCH   7  15
ATOM     15  C   UNL     1       2.164   1.217   6.114  1.00  0.00     0.051 C 
ATOM     16  C   UNL     1       1.120   1.767   7.100  1.00  0.00     0.014 C 
ATOM     17  C   UNL     1       3.458   0.958   6.900  1.00  0.00     0.014 C 
ENDBRANCH   7  15
ENDBRANCH   4   7
ENDBRANCH   2   3
ENDBRANCH   1   2
BRANCH   1  18
ATOM     18  C   UNL     1      -0.594   3.485   1.826  1.00  0.00     0.118 C 
BRANCH  18  19
ATOM     19  N   UNL     1      -1.645   4.357   2.347  1.00  0.00    -0.352 N 
ATOM     20  C   UNL     1      -1.980   5.644   2.009  1.00  0.00     0.251 C 
ATOM     21  H   UNL     1      -2.201   3.958   3.055  1.00  0.00     0.163 HD
ATOM     22  O   UNL     1      -2.719   6.300   2.741  1.00  0.00    -0.269 OA
BRANCH  20  23
ATOM     23  C   UNL     1      -1.446   6.240   0.770  1.00  0.00     0.039 A 
ATOM     24  C   UNL     1      -1.041   7.577   0.764  1.00  0.00     0.014 A 
ATOM     25  C   UNL     1      -1.345   5.470  -0.389  1.00  0.00     0.014 A 
ATOM     26  C   UNL     1      -0.459   8.112  -0.386  1.00  0.00     0.010 A 
ATOM     27  C   UNL     1      -0.657   5.964  -1.485  1.00  0.00     0.010 A 
ATOM     28  C   UNL     1      -0.219   7.295  -1.503  1.00  0.00    -0.014 A 
BRANCH  28  29
ATOM     29  C   UNL     1       0.468   7.803  -2.714  1.00  0.00     0.031 A 
ATOM     30  C   UNL     1      -0.239   7.765  -4.043  1.00  0.00     0.074 A 
ATOM     31  C   UNL     1       1.748   8.212  -2.634  1.00  0.00     0.049 A 
ATOM     32  N   UNL     1       0.221   8.054  -5.233  1.00  0.00    -0.248 NA
ATOM     33  C   UNL     1      -1.637   7.302  -4.038  1.00  0.00     0.031 C 
ATOM     34  C   UNL     1       2.556   8.241  -1.411  1.00  0.00     0.029 A 
ATOM     35  N   UNL     1       2.602   8.670  -3.604  1.00  0.00    -0.354 N 
ATOM     36  C   UNL     1      -0.821   7.789  -6.112  1.00  0.00     0.074 A 
ATOM     37  C   UNL     1      -1.911   7.250  -5.332  1.00  0.00     0.031 C 
ATOM     38  C   UNL     1       3.775   8.722  -1.700  1.00  0.00     0.029 A 
ATOM     39  C   UNL     1       3.853   8.989  -3.132  1.00  0.00     0.049 A 
ATOM     40  H   UNL     1       2.344   8.761  -4.550  1.00  0.00     0.167 HD
ATOM     41  C   UNL     1      -0.876   8.006  -7.447  1.00  0.00     0.037 A 
ATOM     42  C   UNL     1       4.941   9.437  -3.785  1.00  0.00     0.037 A 
ATOM     43  C   UNL     1       0.203   8.570  -8.212  1.00  0.00     0.049 A 
ATOM     44  C   UNL     1       4.858   9.659  -5.271  1.00  0.00     0.074 A 
ATOM     45  C   UNL     1       0.232   8.887  -9.558  1.00  0.00     0.029 A 
ATOM     46  N   UNL     1       1.446   8.902  -7.693  1.00  0.00    -0.354 N 
ATOM     47  N   UNL     1       3.843   9.471  -6.080  1.00  0.00    -0.248 NA
ATOM     48  C   UNL     1       6.069  10.161  -5.933  1.00  0.00     0.031 C 
ATOM     49  C   UNL     1       1.510   9.363  -9.865  1.00  0.00     0.029 A 
ATOM     50  C   UNL     1       2.258   9.398  -8.699  1.00  0.00     0.049 A 
ATOM     51  H   UNL     1       1.712   8.799  -6.751  1.00  0.00     0.167 HD
ATOM     52  C   UNL     1       4.282   9.862  -7.338  1.00  0.00     0.074 A 
ATOM     53  C   UNL     1       5.650  10.311  -7.181  1.00  0.00     0.031 C 
ATOM     54  C   UNL     1       3.614   9.851  -8.518  1.00  0.00     0.037 A 
BRANCH  41  55
ATOM     55  C   UNL     1      -2.147   7.638  -8.158  1.00  0.00     0.057 A 
ATOM     56  C   UNL     1      -3.343   8.339  -7.947  1.00  0.00     0.134 A 
ATOM     57  C   UNL     1      -2.171   6.590  -9.087  1.00  0.00     0.134 A 
ATOM     58  F   UNL     1      -3.395   9.345  -7.060  1.00  0.00    -0.206 F 
ATOM     59  C   UNL     1      -4.522   7.991  -8.609  1.00  0.00     0.040 A 
ATOM     60  C   UNL     1      -3.336   6.254  -9.779  1.00  0.00     0.040 A 
ATOM     61  F   UNL     1      -1.062   5.880  -9.342  1.00  0.00    -0.206 F 
ATOM     62  C   UNL     1      -4.518   6.951  -9.535  1.00  0.00     0.006 A 
ENDBRANCH  41  55
BRANCH  42  63
ATOM     63  C   UNL     1       6.194   9.727  -3.041  1.00  0.00     0.057 A 
ATOM     64  C   UNL     1       6.660  11.040  -2.897  1.00  0.00     0.134 A 
ATOM     65  C   UNL     1       6.961   8.706  -2.467  1.00  0.00     0.134 A 
ATOM     66  F   UNL     1       5.977  12.060  -3.437  1.00  0.00    -0.206 F 
ATOM     67  C   UNL     1       7.855  11.325  -2.235  1.00  0.00     0.040 A 
ATOM     68  C   UNL     1       8.144   8.979  -1.778  1.00  0.00     0.040 A 
ATOM     69  F   UNL     1       6.565   7.428  -2.558  1.00  0.00    -0.206 F 
ATOM     70  C   UNL     1       8.599  10.292  -1.669  1.00  0.00     0.006 A 
ENDBRANCH  42  63
BRANCH  54  71
ATOM     71  C   UNL     1       4.337  10.380  -9.722  1.00  0.00     0.057 A 
ATOM     72  C   UNL     1       5.391   9.680 -10.322  1.00  0.00     0.134 A 
ATOM     73  C   UNL     1       3.939  11.585 -10.316  1.00  0.00     0.134 A 
ATOM     74  F   UNL     1       5.829   8.526  -9.795  1.00  0.00    -0.206 F 
ATOM     75  C   UNL     1       6.039  10.172 -11.456  1.00  0.00     0.040 A 
ATOM     76  C   UNL     1       4.558  12.070 -11.468  1.00  0.00     0.040 A 
ATOM     77  F   UNL     1       2.928  12.299  -9.798  1.00  0.00    -0.206 F 
ATOM     78  C   UNL     1       5.616  11.366 -12.037  1.00  0.00     0.006 A 
ENDBRANCH  54  71
ENDBRANCH  28  29
ENDBRANCH  20  23
ENDBRANCH  18  19
ENDBRANCH   1  18
TORSDOF 13
