REMARK SMILES Cn1c(=O)c(=O)n(C)c2cc(S(=O)(=O)N3CCC[C@H]3C(=O)NCCCNC(=O)c3ccc(-c4c5nc(c(-c6c(F)cccc6F)c6ccc([nH]6)c(-c6c(F)cccc6F)c6nc(c(-c7c(F)cccc7F)c7ccc4[nH]7)C=C6)C=C5)cc3)ccc21
REMARK SMILES IDX 24 1 23 2 22 3 20 4 21 5 19 7 15 8 16 9 17 10 18 11 12 12
REMARK SMILES IDX 13 13 14 14 11 15 1 16 2 17 3 18 85 19 4 20 5 21 9 22 84 23
REMARK SMILES IDX 6 24 7 25 10 26 83 27 8 28 25 29 26 30 27 31 28 33 29 34
REMARK SMILES IDX 30 35 82 36 31 37 81 38 32 39 33 40 34 41 75 42 35 43 80 44
REMARK SMILES IDX 74 45 76 46 36 47 79 48 73 49 72 50 37 52 63 53 46 54 62 55
REMARK SMILES IDX 47 56 50 57 61 58 77 59 48 60 49 61 60 63 78 64 51 65 38 66
REMARK SMILES IDX 39 67 44 68 40 69 41 70 43 71 45 72 42 73 64 74 65 75 70 76
REMARK SMILES IDX 66 77 67 78 69 79 71 80 68 81 52 82 53 83 58 84 54 85 55 86
REMARK SMILES IDX 57 87 59 88 56 89
REMARK H PARENT 22 6 26 32 76 51 50 62
REMARK Flexibility Score: inf
ROOT
ATOM      1  C   UNL     1       6.047   8.373   3.683  1.00  0.00     0.042 C 
ENDROOT
BRANCH   1   2
ATOM      2  C   UNL     1       6.117   6.893   4.015  1.00  0.00     0.117 C 
BRANCH   2   3
ATOM      3  N   UNL     1       5.059   6.516   4.925  1.00  0.00    -0.355 N 
ATOM      4  C   UNL     1       3.958   5.748   4.723  1.00  0.00     0.238 C 
ATOM      5  O   UNL     1       3.160   5.666   5.663  1.00  0.00    -0.273 OA
ATOM      6  H   UNL     1       5.151   6.874   5.837  1.00  0.00     0.163 HD
BRANCH   4   7
ATOM      7  C   UNL     1       3.775   4.888   3.484  1.00  0.00     0.162 C 
ATOM      8  N   UNL     1       3.849   5.511   2.136  1.00  0.00    -0.185 NA
ATOM      9  C   UNL     1       4.838   4.803   1.292  1.00  0.00     0.103 C 
ATOM     10  C   UNL     1       5.080   3.478   1.993  1.00  0.00     0.019 C 
ATOM     11  C   UNL     1       4.804   3.753   3.461  1.00  0.00     0.032 C 
BRANCH   8  12
ATOM     12  S   UNL     1       2.411   6.020   1.390  1.00  0.00     0.243 S 
ATOM     13  O   UNL     1       2.812   6.802   0.238  1.00  0.00    -0.207 OA
ATOM     14  O   UNL     1       1.533   6.559   2.402  1.00  0.00    -0.207 OA
BRANCH  12  15
ATOM     15  C   UNL     1       1.623   4.544   0.738  1.00  0.00     0.084 A 
ATOM     16  C   UNL     1       0.484  -0.288  -0.443  1.00  0.00     0.154 C 
ATOM     17  N   UNL     1       0.163   0.996  -1.051  1.00  0.00    -0.305 N 
ATOM     18  C   UNL     1      -0.513   0.995  -2.266  1.00  0.00     0.316 A 
ATOM     19  C   UNL     1       0.590   2.203  -0.441  1.00  0.00     0.068 A 
ATOM     20  O   UNL     1      -0.861  -0.030  -2.846  1.00  0.00    -0.263 OA
ATOM     21  C   UNL     1      -0.838   2.353  -2.902  1.00  0.00     0.316 A 
ATOM     22  C   UNL     1       0.431   3.439  -1.093  1.00  0.00     0.069 A 
ATOM     23  C   UNL     1       1.188   2.174   0.823  1.00  0.00     0.030 A 
ATOM     24  O   UNL     1      -1.546   2.373  -3.905  1.00  0.00    -0.263 OA
ATOM     25  N   UNL     1      -0.299   3.498  -2.311  1.00  0.00    -0.305 N 
ATOM     26  C   UNL     1       0.988   4.600  -0.511  1.00  0.00     0.050 A 
ATOM     27  C   UNL     1       1.670   3.334   1.416  1.00  0.00     0.024 A 
ATOM     28  C   UNL     1      -0.582   4.780  -2.940  1.00  0.00     0.154 C 
ENDBRANCH  12  15
ENDBRANCH   8  12
ENDBRANCH   4   7
ENDBRANCH   2   3
ENDBRANCH   1   2
BRANCH   1  29
ATOM     29  C   UNL     1       6.344   9.258   4.888  1.00  0.00     0.118 C 
BRANCH  29  30
ATOM     30  N   UNL     1       7.720   9.119   5.359  1.00  0.00    -0.352 N 
ATOM     31  C   UNL     1       8.738  10.041   5.388  1.00  0.00     0.251 C 
ATOM     32  H   UNL     1       7.953   8.228   5.708  1.00  0.00     0.163 HD
ATOM     33  O   UNL     1       9.887   9.683   5.624  1.00  0.00    -0.269 OA
BRANCH  31  34
ATOM     34  C   UNL     1       8.444  11.460   5.107  1.00  0.00     0.039 A 
ATOM     35  C   UNL     1       7.308  12.061   5.649  1.00  0.00     0.014 A 
ATOM     36  C   UNL     1       9.296  12.189   4.274  1.00  0.00     0.014 A 
ATOM     37  C   UNL     1       6.914  13.312   5.197  1.00  0.00     0.010 A 
ATOM     38  C   UNL     1       8.954  13.494   3.908  1.00  0.00     0.010 A 
ATOM     39  C   UNL     1       7.731  14.045   4.322  1.00  0.00    -0.014 A 
BRANCH  39  40
ATOM     40  C   UNL     1       7.270  15.376   3.851  1.00  0.00     0.031 A 
ATOM     41  C   UNL     1       6.997  15.625   2.392  1.00  0.00     0.074 A 
ATOM     42  C   UNL     1       7.026  16.341   4.758  1.00  0.00     0.049 A 
ATOM     43  N   UNL     1       6.574  16.718   1.807  1.00  0.00    -0.248 NA
ATOM     44  C   UNL     1       7.236  14.507   1.466  1.00  0.00     0.031 C 
ATOM     45  C   UNL     1       7.238  16.215   6.203  1.00  0.00     0.029 A 
ATOM     46  N   UNL     1       6.516  17.604   4.608  1.00  0.00    -0.354 N 
ATOM     47  C   UNL     1       6.520  16.428   0.449  1.00  0.00     0.074 A 
ATOM     48  C   UNL     1       6.981  15.066   0.291  1.00  0.00     0.031 C 
ATOM     49  C   UNL     1       6.802  17.327   6.811  1.00  0.00     0.029 A 
ATOM     50  C   UNL     1       6.349  18.272   5.797  1.00  0.00     0.049 A 
ATOM     51  H   UNL     1       6.292  17.996   3.733  1.00  0.00     0.167 HD
ATOM     52  C   UNL     1       6.111  17.220  -0.571  1.00  0.00     0.037 A 
ATOM     53  C   UNL     1       5.898  19.514   6.043  1.00  0.00     0.037 A 
ATOM     54  C   UNL     1       5.624  18.566  -0.408  1.00  0.00     0.049 A 
ATOM     55  C   UNL     1       5.497  20.385   4.890  1.00  0.00     0.074 A 
ATOM     56  C   UNL     1       5.160  19.441  -1.375  1.00  0.00     0.029 A 
ATOM     57  N   UNL     1       5.537  19.231   0.806  1.00  0.00    -0.354 N 
ATOM     58  N   UNL     1       5.451  20.095   3.612  1.00  0.00    -0.248 NA
ATOM     59  C   UNL     1       5.103  21.763   5.212  1.00  0.00     0.031 C 
ATOM     60  C   UNL     1       4.829  20.649  -0.751  1.00  0.00     0.029 A 
ATOM     61  C   UNL     1       5.051  20.514   0.610  1.00  0.00     0.049 A 
ATOM     62  H   UNL     1       5.784  18.848   1.679  1.00  0.00     0.167 HD
ATOM     63  C   UNL     1       5.021  21.252   2.978  1.00  0.00     0.074 A 
ATOM     64  C   UNL     1       4.790  22.237   4.015  1.00  0.00     0.031 C 
ATOM     65  C   UNL     1       4.841  21.482   1.655  1.00  0.00     0.037 A 
BRANCH  52  66
ATOM     66  C   UNL     1       6.190  16.655  -1.960  1.00  0.00     0.057 A 
ATOM     67  C   UNL     1       7.149  17.126  -2.867  1.00  0.00     0.134 A 
ATOM     68  C   UNL     1       5.308  15.665  -2.410  1.00  0.00     0.134 A 
ATOM     69  F   UNL     1       8.021  18.077  -2.503  1.00  0.00    -0.206 F 
ATOM     70  C   UNL     1       7.227  16.631  -4.170  1.00  0.00     0.040 A 
ATOM     71  C   UNL     1       5.391  15.145  -3.704  1.00  0.00     0.040 A 
ATOM     72  F   UNL     1       4.375  15.161  -1.588  1.00  0.00    -0.206 F 
ATOM     73  C   UNL     1       6.351  15.633  -4.590  1.00  0.00     0.006 A 
ENDBRANCH  52  66
BRANCH  53  74
ATOM     74  C   UNL     1       5.827  20.016   7.438  1.00  0.00     0.057 A 
ATOM     75  C   UNL     1       6.986  20.269   8.181  1.00  0.00     0.134 A 
ATOM     76  C   UNL     1       4.596  20.262   8.056  1.00  0.00     0.134 A 
ATOM     77  F   UNL     1       8.196  20.048   7.646  1.00  0.00    -0.206 F 
ATOM     78  C   UNL     1       6.925  20.737   9.493  1.00  0.00     0.040 A 
ATOM     79  C   UNL     1       4.520  20.756   9.359  1.00  0.00     0.040 A 
ATOM     80  F   UNL     1       3.451  20.058   7.387  1.00  0.00    -0.206 F 
ATOM     81  C   UNL     1       5.688  20.989  10.083  1.00  0.00     0.006 A 
ENDBRANCH  53  74
BRANCH  65  82
ATOM     82  C   UNL     1       4.370  22.852   1.269  1.00  0.00     0.057 A 
ATOM     83  C   UNL     1       3.056  23.063   0.836  1.00  0.00     0.134 A 
ATOM     84  C   UNL     1       5.223  23.962   1.325  1.00  0.00     0.134 A 
ATOM     85  F   UNL     1       2.192  22.041   0.756  1.00  0.00    -0.206 F 
ATOM     86  C   UNL     1       2.605  24.333   0.473  1.00  0.00     0.040 A 
ATOM     87  C   UNL     1       4.776  25.241   0.988  1.00  0.00     0.040 A 
ATOM     88  F   UNL     1       6.488  23.827   1.750  1.00  0.00    -0.206 F 
ATOM     89  C   UNL     1       3.465  25.427   0.556  1.00  0.00     0.006 A 
ENDBRANCH  65  82
ENDBRANCH  39  40
ENDBRANCH  31  34
ENDBRANCH  29  30
ENDBRANCH   1  29
TORSDOF 12
