REMARK SMILES Cc1ccc(S(=O)(=O)n2cc(C(=O)C(=O)N[C@H](Cc3c[nH]c4ccccc34)C(=O)NCC(=O)NCCCNC(=O)c3ccc(-c4c5nc(c(-c6c(F)cccc6F)c6ccc([nH]6)c(-c6c(F)cccc6F)c6nc(c(-c7c(F)cccc7F)c7ccc4[nH]7)C=C6)C=C5)cc3)c3ccccc32)cc1
REMARK SMILES IDX 32 1 33 2 34 3 31 5 30 6 28 7 29 8 17 10 16 11 14 12 15 13
REMARK SMILES IDX 12 15 13 16 11 17 9 18 10 19 100 20 95 21 99 22 96 23 98 24
REMARK SMILES IDX 97 25 6 26 7 27 8 28 5 29 1 30 2 31 3 32 102 33 4 34 101 35
REMARK SMILES IDX 18 36 19 37 20 38 27 39 21 40 22 41 26 42 23 44 25 45 24 46
REMARK SMILES IDX 35 47 36 48 37 49 38 50 39 51 40 53 41 54 42 55 94 56 43 57
REMARK SMILES IDX 93 58 44 59 45 60 46 61 87 62 47 63 92 64 86 65 88 66 48 67
REMARK SMILES IDX 91 68 85 69 84 70 49 72 75 73 58 74 74 75 59 76 62 77 73 78
REMARK SMILES IDX 89 79 60 80 61 81 72 83 90 84 63 85 50 86 51 87 56 88 52 89
REMARK SMILES IDX 53 90 55 91 57 92 54 93 76 94 77 95 82 96 78 97 79 98 81 99
REMARK SMILES IDX 83 100 80 101 64 102 65 103 70 104 66 105 67 106 69 107
REMARK SMILES IDX 71 108 68 109
REMARK H PARENT 34 4 30 9 16 14 21 43 38 52 88 71 62 82
REMARK Flexibility Score: inf
ROOT
ATOM      1  C   UNL     1     -13.176   4.781  -2.365  1.00  0.00     0.239 C 
ATOM      2  O   UNL     1     -14.096   5.564  -2.612  1.00  0.00    -0.273 OA
ATOM      3  N   UNL     1     -11.953   5.053  -2.909  1.00  0.00    -0.355 N 
ATOM      4  H   UNL     1     -11.937   5.794  -3.557  1.00  0.00     0.163 HD
ENDROOT
BRANCH   1   5
ATOM      5  C   UNL     1     -13.370   3.645  -1.352  1.00  0.00     0.216 C 
BRANCH   5   6
ATOM      6  N   UNL     1     -12.731   2.408  -1.733  1.00  0.00    -0.345 N 
ATOM      7  C   UNL     1     -11.914   1.530  -1.119  1.00  0.00     0.243 C 
ATOM      8  O   UNL     1     -11.626   0.566  -1.840  1.00  0.00    -0.273 OA
ATOM      9  H   UNL     1     -12.941   2.145  -2.658  1.00  0.00     0.164 HD
BRANCH   7  10
ATOM     10  C   UNL     1     -11.337   1.622   0.331  1.00  0.00     0.176 C 
BRANCH  10  11
ATOM     11  N   UNL     1     -12.124   2.287   1.435  1.00  0.00    -0.337 N 
ATOM     12  C   UNL     1     -12.190   3.564   1.986  1.00  0.00     0.293 C 
ATOM     13  O   UNL     1     -12.896   3.764   2.969  1.00  0.00    -0.265 OA
ATOM     14  H   UNL     1     -12.745   1.662   1.873  1.00  0.00     0.164 HD
BRANCH  12  15
ATOM     15  C   UNL     1     -11.428   4.727   1.359  1.00  0.00     0.252 C 
ATOM     16  O   UNL     1     -10.724   4.410   0.400  1.00  0.00    -0.283 OA
BRANCH  15  17
ATOM     17  C   UNL     1     -11.449   6.144   1.769  1.00  0.00     0.054 A 
ATOM     18  N   UNL     1     -11.578   8.215   2.680  1.00  0.00    -0.240 N 
ATOM     19  C   UNL     1     -11.987   6.870   2.836  1.00  0.00     0.117 A 
ATOM     20  C   UNL     1     -10.497   8.188   1.797  1.00  0.00     0.065 A 
ATOM     21  C   UNL     1     -10.844   7.146   0.950  1.00  0.00     0.012 A 
ATOM     22  C   UNL     1      -9.581   9.177   1.429  1.00  0.00     0.028 A 
ATOM     23  C   UNL     1     -10.530   7.255  -0.411  1.00  0.00     0.011 A 
ATOM     24  C   UNL     1      -9.336   9.283   0.056  1.00  0.00     0.002 A 
ATOM     25  C   UNL     1      -9.838   8.368  -0.863  1.00  0.00     0.001 A 
BRANCH  18  26
ATOM     26  S   UNL     1     -12.771   9.491   2.254  1.00  0.00     0.268 S 
ATOM     27  O   UNL     1     -13.919   8.772   1.734  1.00  0.00    -0.201 OA
ATOM     28  O   UNL     1     -12.034  10.434   1.428  1.00  0.00    -0.201 OA
BRANCH  26  29
ATOM     29  C   UNL     1     -13.313  10.460   3.630  1.00  0.00     0.088 A 
ATOM     30  C   UNL     1     -15.229  13.101   6.449  1.00  0.00     0.044 C 
ATOM     31  C   UNL     1     -14.557  12.165   5.486  1.00  0.00    -0.051 A 
ATOM     32  C   UNL     1     -14.057  12.686   4.296  1.00  0.00     0.005 A 
ATOM     33  C   UNL     1     -14.402  10.790   5.751  1.00  0.00     0.005 A 
ATOM     34  C   UNL     1     -13.447  11.841   3.377  1.00  0.00     0.022 A 
ATOM     35  C   UNL     1     -13.786   9.927   4.822  1.00  0.00     0.022 A 
ENDBRANCH  26  29
ENDBRANCH  18  26
ENDBRANCH  15  17
ENDBRANCH  12  15
ENDBRANCH  10  11
BRANCH  10  36
ATOM     36  C   UNL     1      -9.783   1.653   0.519  1.00  0.00     0.072 C 
BRANCH  36  37
ATOM     37  C   UNL     1      -8.828   1.466  -0.641  1.00  0.00    -0.020 A 
ATOM     38  C   UNL     1      -7.856   2.386  -1.006  1.00  0.00     0.087 A 
ATOM     39  C   UNL     1      -8.619   0.324  -1.502  1.00  0.00     0.003 A 
ATOM     40  N   UNL     1      -7.103   1.862  -2.025  1.00  0.00    -0.361 N 
ATOM     41  C   UNL     1      -7.628   0.662  -2.426  1.00  0.00     0.046 A 
ATOM     42  C   UNL     1      -9.190  -0.961  -1.617  1.00  0.00     0.010 A 
ATOM     43  H   UNL     1      -6.303   2.286  -2.412  1.00  0.00     0.166 HD
ATOM     44  C   UNL     1      -7.274  -0.142  -3.518  1.00  0.00     0.026 A 
ATOM     45  C   UNL     1      -8.835  -1.793  -2.691  1.00  0.00     0.001 A 
ATOM     46  C   UNL     1      -7.910  -1.376  -3.643  1.00  0.00     0.002 A 
ENDBRANCH  36  37
ENDBRANCH  10  36
ENDBRANCH   7  10
ENDBRANCH   5   6
ENDBRANCH   1   5
BRANCH   3  47
ATOM     47  C   UNL     1     -10.671   4.408  -2.672  1.00  0.00     0.117 C 
BRANCH  47  48
ATOM     48  C   UNL     1     -10.254   3.545  -3.846  1.00  0.00     0.042 C 
BRANCH  48  49
ATOM     49  C   UNL     1      -9.147   4.204  -4.659  1.00  0.00     0.118 C 
BRANCH  49  50
ATOM     50  N   UNL     1      -7.829   3.928  -4.099  1.00  0.00    -0.352 N 
ATOM     51  C   UNL     1      -6.554   3.883  -4.651  1.00  0.00     0.251 C 
ATOM     52  H   UNL     1      -7.846   3.735  -3.134  1.00  0.00     0.163 HD
ATOM     53  O   UNL     1      -5.632   3.448  -4.006  1.00  0.00    -0.269 OA
BRANCH  51  54
ATOM     54  C   UNL     1      -6.318   4.610  -5.933  1.00  0.00     0.039 A 
ATOM     55  C   UNL     1      -5.470   5.711  -5.782  1.00  0.00     0.014 A 
ATOM     56  C   UNL     1      -7.311   4.613  -6.897  1.00  0.00     0.014 A 
ATOM     57  C   UNL     1      -5.887   6.936  -6.279  1.00  0.00     0.010 A 
ATOM     58  C   UNL     1      -7.808   5.846  -7.268  1.00  0.00     0.010 A 
ATOM     59  C   UNL     1      -7.146   7.013  -6.865  1.00  0.00    -0.014 A 
BRANCH  59  60
ATOM     60  C   UNL     1      -7.884   8.270  -6.945  1.00  0.00     0.031 A 
ATOM     61  C   UNL     1      -8.148   8.873  -8.267  1.00  0.00     0.074 A 
ATOM     62  C   UNL     1      -8.335   8.873  -5.819  1.00  0.00     0.049 A 
ATOM     63  N   UNL     1      -8.378  10.125  -8.470  1.00  0.00    -0.248 NA
ATOM     64  C   UNL     1      -8.099   8.091  -9.496  1.00  0.00     0.031 C 
ATOM     65  C   UNL     1      -9.282   9.983  -5.733  1.00  0.00     0.029 A 
ATOM     66  N   UNL     1      -7.846   8.731  -4.508  1.00  0.00    -0.354 N 
ATOM     67  C   UNL     1      -8.752  10.276  -9.787  1.00  0.00     0.074 A 
ATOM     68  C   UNL     1      -8.514   8.988 -10.391  1.00  0.00     0.031 C 
ATOM     69  C   UNL     1      -9.120  10.601  -4.553  1.00  0.00     0.029 A 
ATOM     70  C   UNL     1      -7.970   9.998  -3.897  1.00  0.00     0.049 A 
ATOM     71  H   UNL     1      -7.489   7.911  -4.098  1.00  0.00     0.167 HD
ATOM     72  C   UNL     1      -9.337  11.441 -10.189  1.00  0.00     0.037 A 
ATOM     73  C   UNL     1      -6.888  10.690  -3.437  1.00  0.00     0.037 A 
ATOM     74  C   UNL     1      -9.329  12.434  -9.117  1.00  0.00     0.049 A 
ATOM     75  C   UNL     1      -6.691  12.032  -4.097  1.00  0.00     0.074 A 
ATOM     76  C   UNL     1     -10.282  12.824  -8.189  1.00  0.00     0.029 A 
ATOM     77  N   UNL     1      -8.117  12.957  -8.675  1.00  0.00    -0.354 N 
ATOM     78  N   UNL     1      -7.260  12.386  -5.216  1.00  0.00    -0.248 NA
ATOM     79  C   UNL     1      -5.798  13.061  -3.571  1.00  0.00     0.031 C 
ATOM     80  C   UNL     1      -9.625  13.533  -7.152  1.00  0.00     0.029 A 
ATOM     81  C   UNL     1      -8.277  13.593  -7.458  1.00  0.00     0.049 A 
ATOM     82  H   UNL     1      -7.264  12.884  -9.161  1.00  0.00     0.167 HD
ATOM     83  C   UNL     1      -6.790  13.617  -5.592  1.00  0.00     0.074 A 
ATOM     84  C   UNL     1      -5.904  14.013  -4.513  1.00  0.00     0.031 C 
ATOM     85  C   UNL     1      -7.144  14.198  -6.776  1.00  0.00     0.037 A 
BRANCH  72  86
ATOM     86  C   UNL     1     -10.195  11.533 -11.434  1.00  0.00     0.057 A 
ATOM     87  C   UNL     1     -11.323  12.375 -11.474  1.00  0.00     0.134 A 
ATOM     88  C   UNL     1     -10.024  10.752 -12.590  1.00  0.00     0.134 A 
ATOM     89  F   UNL     1     -11.559  13.284 -10.519  1.00  0.00    -0.206 F 
ATOM     90  C   UNL     1     -12.277  12.327 -12.500  1.00  0.00     0.040 A 
ATOM     91  C   UNL     1     -10.998  10.646 -13.594  1.00  0.00     0.040 A 
ATOM     92  F   UNL     1      -8.879  10.103 -12.832  1.00  0.00    -0.206 F 
ATOM     93  C   UNL     1     -12.144  11.423 -13.541  1.00  0.00     0.006 A 
ENDBRANCH  72  86
BRANCH  73  94
ATOM     94  C   UNL     1      -5.788   9.839  -2.914  1.00  0.00     0.057 A 
ATOM     95  C   UNL     1      -5.950   9.216  -1.671  1.00  0.00     0.134 A 
ATOM     96  C   UNL     1      -4.788   9.334  -3.741  1.00  0.00     0.134 A 
ATOM     97  F   UNL     1      -6.773   9.749  -0.766  1.00  0.00    -0.206 F 
ATOM     98  C   UNL     1      -5.302   8.025  -1.341  1.00  0.00     0.040 A 
ATOM     99  C   UNL     1      -4.094   8.164  -3.407  1.00  0.00     0.040 A 
ATOM    100  F   UNL     1      -4.542   9.898  -4.932  1.00  0.00    -0.206 F 
ATOM    101  C   UNL     1      -4.395   7.472  -2.234  1.00  0.00     0.006 A 
ENDBRANCH  73  94
BRANCH  85 102
ATOM    102  C   UNL     1      -6.505  15.429  -7.362  1.00  0.00     0.057 A 
ATOM    103  C   UNL     1      -5.153  15.764  -7.197  1.00  0.00     0.134 A 
ATOM    104  C   UNL     1      -7.226  16.253  -8.253  1.00  0.00     0.134 A 
ATOM    105  F   UNL     1      -4.327  15.002  -6.466  1.00  0.00    -0.206 F 
ATOM    106  C   UNL     1      -4.573  16.874  -7.826  1.00  0.00     0.040 A 
ATOM    107  C   UNL     1      -6.645  17.332  -8.925  1.00  0.00     0.040 A 
ATOM    108  F   UNL     1      -8.520  16.029  -8.524  1.00  0.00    -0.206 F 
ATOM    109  C   UNL     1      -5.316  17.656  -8.701  1.00  0.00     0.006 A 
ENDBRANCH  85 102
ENDBRANCH  59  60
ENDBRANCH  51  54
ENDBRANCH  49  50
ENDBRANCH  48  49
ENDBRANCH  47  48
ENDBRANCH   3  47
TORSDOF 19
