REMARK SMILES N#Cc1cccc(C(=O)N2CCC(CC(=O)NCCCNC(=O)c3ccc(-c4c5nc(c(-c6c(F)cccc6F)c6ccc([nH]6)c(-c6c(F)cccc6F)c6nc(c(-c7c(F)cccc7F)c7ccc4[nH]7)C=C6)C=C5)cc3)CC2)c1
REMARK SMILES IDX 18 1 17 2 15 3 16 4 14 6 13 7 8 8 9 9 10 10 11 11 79 12
REMARK SMILES IDX 12 13 78 14 7 15 3 16 4 17 80 18 5 19 6 20 2 21 1 22 19 23
REMARK SMILES IDX 20 24 21 25 22 26 23 28 24 29 25 30 77 31 26 32 76 33 27 34
REMARK SMILES IDX 28 35 29 36 70 37 30 38 75 39 69 40 71 41 31 42 74 43 68 44
REMARK SMILES IDX 67 45 32 47 58 48 41 49 57 50 42 51 45 52 56 53 72 54 43 55
REMARK SMILES IDX 44 56 55 58 73 59 46 60 33 61 34 62 39 63 35 64 36 65 38 66
REMARK SMILES IDX 40 67 37 68 59 69 60 70 65 71 61 72 62 73 64 74 66 75 63 76
REMARK SMILES IDX 47 77 48 78 53 79 49 80 50 81 52 82 54 83 51 84
REMARK H PARENT 17 5 21 27 71 46 45 57
REMARK Flexibility Score: inf
ROOT
ATOM      1  C   UNL     1       3.573  -7.604   2.356  1.00  0.00     0.117 C 
ENDROOT
BRANCH   1   2
ATOM      2  N   UNL     1       2.421  -8.482   2.170  1.00  0.00    -0.356 N 
ATOM      3  C   UNL     1       1.572  -8.671   1.116  1.00  0.00     0.220 C 
ATOM      4  O   UNL     1       0.692  -9.526   1.240  1.00  0.00    -0.275 OA
ATOM      5  H   UNL     1       2.217  -9.044   2.953  1.00  0.00     0.163 HD
BRANCH   3   6
ATOM      6  C   UNL     1       1.675  -7.849  -0.168  1.00  0.00     0.103 C 
BRANCH   6   7
ATOM      7  C   UNL     1       0.880  -6.522  -0.140  1.00  0.00     0.002 C 
ATOM      8  C   UNL     1       1.991  -2.572  -0.243  1.00  0.00     0.253 C 
ATOM      9  O   UNL     1       3.204  -2.723  -0.169  1.00  0.00    -0.269 OA
ATOM     10  N   UNL     1       1.092  -3.618  -0.170  1.00  0.00    -0.339 N 
ATOM     11  C   UNL     1       0.877  -4.259   1.098  1.00  0.00     0.120 C 
ATOM     12  C   UNL     1       0.550  -4.283  -1.343  1.00  0.00     0.120 C 
ATOM     13  C   UNL     1       1.348  -5.686   1.040  1.00  0.00     0.026 C 
ATOM     14  C   UNL     1       1.039  -5.733  -1.456  1.00  0.00     0.026 C 
BRANCH   8  15
ATOM     15  C   UNL     1       1.371  -1.214  -0.225  1.00  0.00     0.041 A 
ATOM     16  C   UNL     1      -0.599   0.203  -0.099  1.00  0.00     0.053 A 
ATOM     17  C   UNL     1       0.220   1.333  -0.045  1.00  0.00     0.019 A 
ATOM     18  C   UNL     1      -0.022  -1.065  -0.189  1.00  0.00     0.033 A 
ATOM     19  C   UNL     1       1.610   1.192  -0.079  1.00  0.00     0.002 A 
ATOM     20  C   UNL     1       2.186  -0.078  -0.167  1.00  0.00     0.014 A 
BRANCH  16  21
ATOM     21  C   UNL     1      -2.024   0.318  -0.046  1.00  0.00     0.099 C 
ATOM     22  N   UNL     1      -3.185   0.375  -0.004  1.00  0.00    -0.192 NA
ENDBRANCH  16  21
ENDBRANCH   8  15
ENDBRANCH   6   7
ENDBRANCH   3   6
ENDBRANCH   1   2
BRANCH   1  23
ATOM     23  C   UNL     1       3.337  -6.491   3.389  1.00  0.00     0.042 C 
BRANCH  23  24
ATOM     24  C   UNL     1       3.214  -6.971   4.823  1.00  0.00     0.118 C 
BRANCH  24  25
ATOM     25  N   UNL     1       4.521  -7.187   5.404  1.00  0.00    -0.352 N 
ATOM     26  C   UNL     1       5.196  -6.433   6.330  1.00  0.00     0.251 C 
ATOM     27  H   UNL     1       4.995  -7.990   5.090  1.00  0.00     0.163 HD
ATOM     28  O   UNL     1       6.415  -6.557   6.417  1.00  0.00    -0.269 OA
BRANCH  26  29
ATOM     29  C   UNL     1       4.489  -5.481   7.224  1.00  0.00     0.039 A 
ATOM     30  C   UNL     1       5.190  -4.359   7.672  1.00  0.00     0.014 A 
ATOM     31  C   UNL     1       3.191  -5.710   7.693  1.00  0.00     0.014 A 
ATOM     32  C   UNL     1       4.592  -3.475   8.571  1.00  0.00     0.010 A 
ATOM     33  C   UNL     1       2.554  -4.767   8.501  1.00  0.00     0.010 A 
ATOM     34  C   UNL     1       3.258  -3.655   8.976  1.00  0.00    -0.014 A 
BRANCH  34  35
ATOM     35  C   UNL     1       2.626  -2.674   9.897  1.00  0.00     0.031 A 
ATOM     36  C   UNL     1       2.136  -3.084  11.259  1.00  0.00     0.074 A 
ATOM     37  C   UNL     1       2.510  -1.392   9.502  1.00  0.00     0.049 A 
ATOM     38  N   UNL     1       1.655  -2.337  12.222  1.00  0.00    -0.248 NA
ATOM     39  C   UNL     1       2.164  -4.519  11.575  1.00  0.00     0.031 C 
ATOM     40  C   UNL     1       2.882  -0.883   8.181  1.00  0.00     0.029 A 
ATOM     41  N   UNL     1       2.066  -0.282  10.174  1.00  0.00    -0.354 N 
ATOM     42  C   UNL     1       1.334  -3.209  13.256  1.00  0.00     0.074 A 
ATOM     43  C   UNL     1       1.597  -4.546  12.771  1.00  0.00     0.031 C 
ATOM     44  C   UNL     1       2.705   0.446   8.157  1.00  0.00     0.029 A 
ATOM     45  C   UNL     1       2.162   0.875   9.441  1.00  0.00     0.049 A 
ATOM     46  H   UNL     1       1.713  -0.312  11.093  1.00  0.00     0.167 HD
ATOM     47  C   UNL     1       0.889  -2.923  14.505  1.00  0.00     0.037 A 
ATOM     48  C   UNL     1       1.851   2.143   9.764  1.00  0.00     0.037 A 
ATOM     49  C   UNL     1       0.609  -1.588  14.973  1.00  0.00     0.049 A 
ATOM     50  C   UNL     1       1.349   2.441  11.147  1.00  0.00     0.074 A 
ATOM     51  C   UNL     1       0.188  -1.183  16.228  1.00  0.00     0.029 A 
ATOM     52  N   UNL     1       0.703  -0.440  14.197  1.00  0.00    -0.354 N 
ATOM     53  N   UNL     1       1.127   1.616  12.143  1.00  0.00    -0.248 NA
ATOM     54  C   UNL     1       1.071   3.848  11.456  1.00  0.00     0.031 C 
ATOM     55  C   UNL     1      -0.041   0.198  16.189  1.00  0.00     0.029 A 
ATOM     56  C   UNL     1       0.316   0.668  14.935  1.00  0.00     0.049 A 
ATOM     57  H   UNL     1       1.001  -0.417  13.259  1.00  0.00     0.167 HD
ATOM     58  C   UNL     1       0.699   2.404  13.203  1.00  0.00     0.074 A 
ATOM     59  C   UNL     1       0.726   3.776  12.733  1.00  0.00     0.031 C 
ATOM     60  C   UNL     1       0.319   2.028  14.451  1.00  0.00     0.037 A 
BRANCH  47  61
ATOM     61  C   UNL     1       0.663  -4.085  15.436  1.00  0.00     0.057 A 
ATOM     62  C   UNL     1       1.716  -4.898  15.883  1.00  0.00     0.134 A 
ATOM     63  C   UNL     1      -0.624  -4.403  15.890  1.00  0.00     0.134 A 
ATOM     64  F   UNL     1       2.976  -4.660  15.486  1.00  0.00    -0.206 F 
ATOM     65  C   UNL     1       1.492  -6.010  16.699  1.00  0.00     0.040 A 
ATOM     66  C   UNL     1      -0.856  -5.489  16.738  1.00  0.00     0.040 A 
ATOM     67  F   UNL     1      -1.680  -3.666  15.516  1.00  0.00    -0.206 F 
ATOM     68  C   UNL     1       0.202  -6.305  17.132  1.00  0.00     0.006 A 
ENDBRANCH  47  61
BRANCH  48  69
ATOM     69  C   UNL     1       2.026   3.217   8.754  1.00  0.00     0.057 A 
ATOM     70  C   UNL     1       3.010   4.202   8.891  1.00  0.00     0.134 A 
ATOM     71  C   UNL     1       1.227   3.261   7.604  1.00  0.00     0.134 A 
ATOM     72  F   UNL     1       3.799   4.224   9.976  1.00  0.00    -0.206 F 
ATOM     73  C   UNL     1       3.187   5.198   7.928  1.00  0.00     0.040 A 
ATOM     74  C   UNL     1       1.413   4.231   6.619  1.00  0.00     0.040 A 
ATOM     75  F   UNL     1       0.274   2.337   7.407  1.00  0.00    -0.206 F 
ATOM     76  C   UNL     1       2.392   5.207   6.783  1.00  0.00     0.006 A 
ENDBRANCH  48  69
BRANCH  60  77
ATOM     77  C   UNL     1      -0.074   3.130  15.399  1.00  0.00     0.057 A 
ATOM     78  C   UNL     1      -1.213   3.922  15.194  1.00  0.00     0.134 A 
ATOM     79  C   UNL     1       0.711   3.415  16.524  1.00  0.00     0.134 A 
ATOM     80  F   UNL     1      -2.008   3.710  14.133  1.00  0.00    -0.206 F 
ATOM     81  C   UNL     1      -1.521   4.992  16.036  1.00  0.00     0.040 A 
ATOM     82  C   UNL     1       0.390   4.456  17.396  1.00  0.00     0.040 A 
ATOM     83  F   UNL     1       1.806   2.689  16.794  1.00  0.00    -0.206 F 
ATOM     84  C   UNL     1      -0.719   5.260  17.143  1.00  0.00     0.006 A 
ENDBRANCH  60  77
ENDBRANCH  34  35
ENDBRANCH  26  29
ENDBRANCH  24  25
ENDBRANCH  23  24
ENDBRANCH   1  23
TORSDOF 13
