REMARK SMILES CC(=O)Nc1cccc(NC(=O)N[C@H](C(=O)NCCCNC(=O)c2ccc(-c3c4nc(c(-c5c(F)cccc5F)c5ccc([nH]5)c(-c5c(F)cccc5F)c5nc(c(-c6c(F)cccc6F)c6ccc3[nH]6)C=C5)C=C4)cc2)C(C)C)c1
REMARK SMILES IDX 18 1 17 2 15 3 16 4 14 6 13 7 10 8 11 9 12 11 9 13 5 14 6 15
REMARK SMILES IDX 81 16 7 17 8 18 4 19 1 20 2 21 3 22 78 24 79 25 80 26 19 27
REMARK SMILES IDX 20 28 21 29 22 30 23 32 24 33 25 34 77 35 26 36 76 37 27 38
REMARK SMILES IDX 28 39 29 40 70 41 30 42 75 43 69 44 71 45 31 46 74 47 68 48
REMARK SMILES IDX 67 49 32 51 58 52 41 53 57 54 42 55 45 56 56 57 72 58 43 59
REMARK SMILES IDX 44 60 55 62 73 63 46 64 33 65 34 66 39 67 35 68 36 69 38 70
REMARK SMILES IDX 40 71 37 72 59 73 60 74 65 75 61 76 62 77 64 78 66 79 63 80
REMARK SMILES IDX 47 81 48 82 53 83 49 84 50 85 52 86 54 87 51 88
REMARK H PARENT 17 5 10 10 13 12 4 23 21 31 71 50 45 61
REMARK Flexibility Score: inf
ROOT
ATOM      1  C   UNL     1       5.409  -0.161   2.840  1.00  0.00     0.117 C 
ENDROOT
BRANCH   1   2
ATOM      2  N   UNL     1       6.165  -0.295   4.077  1.00  0.00    -0.354 N 
ATOM      3  C   UNL     1       5.839   0.161   5.330  1.00  0.00     0.242 C 
ATOM      4  O   UNL     1       6.437  -0.308   6.300  1.00  0.00    -0.273 OA
ATOM      5  H   UNL     1       7.021  -0.776   4.005  1.00  0.00     0.163 HD
BRANCH   3   6
ATOM      6  C   UNL     1       4.711   1.208   5.484  1.00  0.00     0.175 C 
BRANCH   6   7
ATOM      7  N   UNL     1       3.536   0.582   6.073  1.00  0.00    -0.326 N 
ATOM      8  N   UNL     1       1.523   1.222   4.912  1.00  0.00    -0.308 N 
ATOM      9  C   UNL     1       2.217   0.609   5.884  1.00  0.00     0.319 C 
ATOM     10  H   UNL     1       0.567   1.006   4.995  1.00  0.00     0.171 HD
ATOM     11  O   UNL     1       1.547  -0.066   6.678  1.00  0.00    -0.248 OA
ATOM     12  H   UNL     1       3.782  -0.024   6.809  1.00  0.00     0.166 HD
BRANCH   8  13
ATOM     13  C   UNL     1       1.727   2.074   3.813  1.00  0.00     0.044 A 
ATOM     14  C   UNL     1       0.899   2.929   1.694  1.00  0.00     0.043 A 
ATOM     15  C   UNL     1       2.146   3.463   1.389  1.00  0.00     0.026 A 
ATOM     16  C   UNL     1       0.704   2.183   2.867  1.00  0.00     0.052 A 
ATOM     17  C   UNL     1       3.104   3.485   2.382  1.00  0.00     0.004 A 
ATOM     18  C   UNL     1       2.837   2.870   3.604  1.00  0.00     0.026 A 
BRANCH  14  19
ATOM     19  N   UNL     1      -0.155   3.269   0.843  1.00  0.00    -0.326 N 
ATOM     20  C   UNL     1      -1.414   4.440   2.645  1.00  0.00     0.114 C 
ATOM     21  C   UNL     1      -1.237   4.038   1.200  1.00  0.00     0.221 C 
ATOM     22  O   UNL     1      -2.002   4.443   0.324  1.00  0.00    -0.275 OA
ATOM     23  H   UNL     1      -0.121   2.932  -0.082  1.00  0.00     0.169 HD
ENDBRANCH  14  19
ENDBRANCH   8  13
ENDBRANCH   6   7
BRANCH   6  24
ATOM     24  C   UNL     1       5.225   2.400   6.350  1.00  0.00     0.015 C 
ATOM     25  C   UNL     1       6.113   3.325   5.506  1.00  0.00     0.010 C 
ATOM     26  C   UNL     1       4.135   3.229   7.050  1.00  0.00     0.010 C 
ENDBRANCH   6  24
ENDBRANCH   3   6
ENDBRANCH   1   2
BRANCH   1  27
ATOM     27  C   UNL     1       5.882   0.983   1.943  1.00  0.00     0.042 C 
BRANCH  27  28
ATOM     28  C   UNL     1       7.197   0.722   1.206  1.00  0.00     0.118 C 
BRANCH  28  29
ATOM     29  N   UNL     1       7.109  -0.383   0.258  1.00  0.00    -0.352 N 
ATOM     30  C   UNL     1       7.443  -0.470  -1.068  1.00  0.00     0.251 C 
ATOM     31  H   UNL     1       6.745  -1.214   0.639  1.00  0.00     0.163 HD
ATOM     32  O   UNL     1       7.134  -1.492  -1.688  1.00  0.00    -0.269 OA
BRANCH  30  33
ATOM     33  C   UNL     1       8.138   0.624  -1.784  1.00  0.00     0.039 A 
ATOM     34  C   UNL     1       7.807   0.857  -3.125  1.00  0.00     0.014 A 
ATOM     35  C   UNL     1       9.146   1.384  -1.185  1.00  0.00     0.014 A 
ATOM     36  C   UNL     1       8.435   1.882  -3.838  1.00  0.00     0.010 A 
ATOM     37  C   UNL     1       9.719   2.455  -1.875  1.00  0.00     0.010 A 
ATOM     38  C   UNL     1       9.370   2.717  -3.208  1.00  0.00    -0.014 A 
BRANCH  38  39
ATOM     39  C   UNL     1       9.968   3.875  -3.924  1.00  0.00     0.031 A 
ATOM     40  C   UNL     1      11.447   3.939  -4.189  1.00  0.00     0.074 A 
ATOM     41  C   UNL     1       9.180   4.906  -4.287  1.00  0.00     0.049 A 
ATOM     42  N   UNL     1      12.146   4.891  -4.755  1.00  0.00    -0.248 NA
ATOM     43  C   UNL     1      12.251   2.794  -3.734  1.00  0.00     0.031 C 
ATOM     44  C   UNL     1       7.738   4.992  -4.048  1.00  0.00     0.029 A 
ATOM     45  N   UNL     1       9.480   6.084  -4.926  1.00  0.00    -0.354 N 
ATOM     46  C   UNL     1      13.469   4.468  -4.713  1.00  0.00     0.074 A 
ATOM     47  C   UNL     1      13.481   3.198  -4.018  1.00  0.00     0.031 C 
ATOM     48  C   UNL     1       7.276   6.147  -4.553  1.00  0.00     0.029 A 
ATOM     49  C   UNL     1       8.392   6.901  -5.115  1.00  0.00     0.049 A 
ATOM     50  H   UNL     1      10.389   6.321  -5.221  1.00  0.00     0.167 HD
ATOM     51  C   UNL     1      14.570   5.071  -5.222  1.00  0.00     0.037 A 
ATOM     52  C   UNL     1       8.300   8.124  -5.671  1.00  0.00     0.037 A 
ATOM     53  C   UNL     1      14.554   6.327  -5.928  1.00  0.00     0.049 A 
ATOM     54  C   UNL     1       9.536   8.777  -6.223  1.00  0.00     0.074 A 
ATOM     55  C   UNL     1      15.607   6.986  -6.540  1.00  0.00     0.029 A 
ATOM     56  N   UNL     1      13.430   7.120  -6.107  1.00  0.00    -0.354 N 
ATOM     57  N   UNL     1      10.768   8.330  -6.243  1.00  0.00    -0.248 NA
ATOM     58  C   UNL     1       9.367  10.102  -6.835  1.00  0.00     0.031 C 
ATOM     59  C   UNL     1      15.131   8.203  -7.041  1.00  0.00     0.029 A 
ATOM     60  C   UNL     1      13.770   8.276  -6.792  1.00  0.00     0.049 A 
ATOM     61  H   UNL     1      12.525   6.895  -5.793  1.00  0.00     0.167 HD
ATOM     62  C   UNL     1      11.517   9.305  -6.889  1.00  0.00     0.074 A 
ATOM     63  C   UNL     1      10.596  10.361  -7.260  1.00  0.00     0.031 C 
ATOM     64  C   UNL     1      12.847   9.324  -7.151  1.00  0.00     0.037 A 
BRANCH  51  65
ATOM     65  C   UNL     1      15.891   4.380  -5.028  1.00  0.00     0.057 A 
ATOM     66  C   UNL     1      16.203   3.178  -5.678  1.00  0.00     0.134 A 
ATOM     67  C   UNL     1      16.874   4.936  -4.199  1.00  0.00     0.134 A 
ATOM     68  F   UNL     1      15.305   2.585  -6.479  1.00  0.00    -0.206 F 
ATOM     69  C   UNL     1      17.429   2.538  -5.484  1.00  0.00     0.040 A 
ATOM     70  C   UNL     1      18.115   4.322  -4.021  1.00  0.00     0.040 A 
ATOM     71  F   UNL     1      16.648   6.090  -3.553  1.00  0.00    -0.206 F 
ATOM     72  C   UNL     1      18.392   3.114  -4.658  1.00  0.00     0.006 A 
ENDBRANCH  51  65
BRANCH  52  73
ATOM     73  C   UNL     1       6.980   8.800  -5.752  1.00  0.00     0.057 A 
ATOM     74  C   UNL     1       6.330   8.971  -6.979  1.00  0.00     0.134 A 
ATOM     75  C   UNL     1       6.333   9.279  -4.606  1.00  0.00     0.134 A 
ATOM     76  F   UNL     1       6.907   8.549  -8.113  1.00  0.00    -0.206 F 
ATOM     77  C   UNL     1       5.090   9.607  -7.067  1.00  0.00     0.040 A 
ATOM     78  C   UNL     1       5.082   9.894  -4.676  1.00  0.00     0.040 A 
ATOM     79  F   UNL     1       6.900   9.137  -3.399  1.00  0.00    -0.206 F 
ATOM     80  C   UNL     1       4.460  10.064  -5.911  1.00  0.00     0.006 A 
ENDBRANCH  52  73
BRANCH  64  81
ATOM     81  C   UNL     1      13.383  10.512  -7.897  1.00  0.00     0.057 A 
ATOM     82  C   UNL     1      13.485  11.776  -7.302  1.00  0.00     0.134 A 
ATOM     83  C   UNL     1      13.834  10.382  -9.217  1.00  0.00     0.134 A 
ATOM     84  F   UNL     1      13.058  11.973  -6.045  1.00  0.00    -0.206 F 
ATOM     85  C   UNL     1      13.991  12.873  -8.001  1.00  0.00     0.040 A 
ATOM     86  C   UNL     1      14.369  11.465  -9.917  1.00  0.00     0.040 A 
ATOM     87  F   UNL     1      13.773   9.198  -9.845  1.00  0.00    -0.206 F 
ATOM     88  C   UNL     1      14.442  12.717  -9.311  1.00  0.00     0.006 A 
ENDBRANCH  64  81
ENDBRANCH  38  39
ENDBRANCH  30  33
ENDBRANCH  28  29
ENDBRANCH  27  28
ENDBRANCH   1  27
TORSDOF 14
