REMARK SMILES CC(C)(C)OC(=O)[C@@H]1[NH2+][C@H](C(=O)NCCCNC(=O)c2ccc(-c3c4nc(c(-c5c(F)cccc5F)c5ccc([nH]5)c(-c5c(F)cccc5F)c5nc(c(-c6c(F)cccc6F)c6ccc3[nH]6)C=C5)C=C4)cc2)C(C)(C)S1
REMARK SMILES IDX 14 1 13 2 11 3 12 4 10 6 8 7 9 8 77 9 74 12 75 13 76 14 6 15
REMARK SMILES IDX 7 16 5 17 2 18 1 19 3 20 4 21 15 22 16 23 17 24 18 25 19 27
REMARK SMILES IDX 20 28 21 29 73 30 22 31 72 32 23 33 24 34 25 35 66 36 26 37
REMARK SMILES IDX 71 38 65 39 67 40 27 41 70 42 64 43 63 44 28 46 54 47 37 48
REMARK SMILES IDX 53 49 38 50 41 51 52 52 68 53 39 54 40 55 51 57 69 58 42 59
REMARK SMILES IDX 29 60 30 61 35 62 31 63 32 64 34 65 36 66 33 67 55 68 56 69
REMARK SMILES IDX 61 70 57 71 58 72 60 73 62 74 59 75 43 76 44 77 49 78 45 79
REMARK SMILES IDX 46 80 48 81 50 82 47 83
REMARK H PARENT 13 5 9 10 9 11 17 26 67 45 41 56
REMARK Flexibility Score: inf
ROOT
ATOM      1  C   UNL     1       3.429  -3.927   5.920  1.00  0.00     0.118 C 
ENDROOT
BRANCH   1   2
ATOM      2  N   UNL     1       2.765  -3.156   6.970  1.00  0.00    -0.351 N 
ATOM      3  C   UNL     1       1.490  -2.792   7.269  1.00  0.00     0.279 C 
ATOM      4  O   UNL     1       1.349  -2.428   8.450  1.00  0.00    -0.268 OA
ATOM      5  H   UNL     1       3.408  -2.811   7.631  1.00  0.00     0.163 HD
BRANCH   3   6
ATOM      6  C   UNL     1       0.241  -2.689   6.314  1.00  0.00     0.289 C 
ATOM      7  C   UNL     1       0.824  -0.798   4.938  1.00  0.00     0.354 C 
ATOM      8  N   UNL     1      -0.032  -1.244   6.060  1.00  0.00    -0.314 N 
ATOM      9  S   UNL     1       1.249  -2.289   3.965  1.00  0.00    -0.074 SA
ATOM     10  H   UNL     1      -1.014  -1.117   5.816  1.00  0.00     0.348 HD
ATOM     11  H   UNL     1       0.172  -0.697   6.896  1.00  0.00     0.348 HD
ATOM     12  C   UNL     1       0.157  -3.391   4.956  1.00  0.00     0.078 C 
ATOM     13  C   UNL     1      -1.250  -3.291   4.310  1.00  0.00     0.030 C 
ATOM     14  C   UNL     1       0.460  -4.894   5.042  1.00  0.00     0.030 C 
BRANCH   7  15
ATOM     15  C   UNL     1       1.977   0.067   5.500  1.00  0.00     0.376 C 
ATOM     16  O   UNL     1       1.843   0.777   6.494  1.00  0.00    -0.244 OA
BRANCH  15  17
ATOM     17  O   UNL     1       3.110   0.054   4.746  1.00  0.00    -0.455 OA
BRANCH  17  18
ATOM     18  C   UNL     1       4.263   0.826   5.198  1.00  0.00     0.104 C 
ATOM     19  C   UNL     1       5.390   0.501   4.206  1.00  0.00     0.056 C 
ATOM     20  C   UNL     1       4.703   0.413   6.614  1.00  0.00     0.056 C 
ATOM     21  C   UNL     1       4.001   2.337   5.125  1.00  0.00     0.056 C 
ENDBRANCH  17  18
ENDBRANCH  15  17
ENDBRANCH   7  15
ENDBRANCH   3   6
ENDBRANCH   1   2
BRANCH   1  22
ATOM     22  C   UNL     1       4.570  -3.194   5.228  1.00  0.00     0.042 C 
BRANCH  22  23
ATOM     23  C   UNL     1       5.838  -3.106   6.070  1.00  0.00     0.118 C 
BRANCH  23  24
ATOM     24  N   UNL     1       6.838  -4.074   5.646  1.00  0.00    -0.352 N 
ATOM     25  C   UNL     1       7.910  -3.943   4.794  1.00  0.00     0.251 C 
ATOM     26  H   UNL     1       6.730  -4.972   6.034  1.00  0.00     0.163 HD
ATOM     27  O   UNL     1       8.470  -4.960   4.388  1.00  0.00    -0.269 OA
BRANCH  25  28
ATOM     28  C   UNL     1       8.403  -2.617   4.341  1.00  0.00     0.039 A 
ATOM     29  C   UNL     1       8.895  -2.495   3.035  1.00  0.00     0.014 A 
ATOM     30  C   UNL     1       8.486  -1.520   5.199  1.00  0.00     0.014 A 
ATOM     31  C   UNL     1       9.424  -1.278   2.585  1.00  0.00     0.010 A 
ATOM     32  C   UNL     1       8.933  -0.284   4.725  1.00  0.00     0.010 A 
ATOM     33  C   UNL     1       9.425  -0.148   3.417  1.00  0.00    -0.014 A 
BRANCH  33  34
ATOM     34  C   UNL     1       9.980   1.161   2.965  1.00  0.00     0.031 A 
ATOM     35  C   UNL     1      11.130   1.796   3.709  1.00  0.00     0.074 A 
ATOM     36  C   UNL     1       9.431   1.820   1.924  1.00  0.00     0.049 A 
ATOM     37  N   UNL     1      11.667   2.982   3.555  1.00  0.00    -0.248 NA
ATOM     38  C   UNL     1      11.735   1.004   4.791  1.00  0.00     0.031 C 
ATOM     39  C   UNL     1       8.298   1.354   1.124  1.00  0.00     0.029 A 
ATOM     40  N   UNL     1       9.753   3.034   1.365  1.00  0.00    -0.354 N 
ATOM     41  C   UNL     1      12.633   3.093   4.548  1.00  0.00     0.074 A 
ATOM     42  C   UNL     1      12.586   1.870   5.320  1.00  0.00     0.031 C 
ATOM     43  C   UNL     1       8.040   2.255   0.161  1.00  0.00     0.029 A 
ATOM     44  C   UNL     1       8.957   3.383   0.301  1.00  0.00     0.049 A 
ATOM     45  H   UNL     1      10.486   3.602   1.697  1.00  0.00     0.167 HD
ATOM     46  C   UNL     1      13.497   4.109   4.789  1.00  0.00     0.037 A 
ATOM     47  C   UNL     1       8.956   4.487  -0.471  1.00  0.00     0.037 A 
ATOM     48  C   UNL     1      13.604   5.298   3.986  1.00  0.00     0.049 A 
ATOM     49  C   UNL     1       9.949   5.585  -0.210  1.00  0.00     0.074 A 
ATOM     50  C   UNL     1      14.497   6.349   4.117  1.00  0.00     0.029 A 
ATOM     51  N   UNL     1      12.803   5.589   2.894  1.00  0.00    -0.354 N 
ATOM     52  N   UNL     1      10.875   5.659   0.714  1.00  0.00    -0.248 NA
ATOM     53  C   UNL     1       9.896   6.755  -1.100  1.00  0.00     0.031 C 
ATOM     54  C   UNL     1      14.220   7.287   3.117  1.00  0.00     0.029 A 
ATOM     55  C   UNL     1      13.177   6.804   2.345  1.00  0.00     0.049 A 
ATOM     56  H   UNL     1      12.075   5.017   2.559  1.00  0.00     0.167 HD
ATOM     57  C   UNL     1      11.532   6.865   0.498  1.00  0.00     0.074 A 
ATOM     58  C   UNL     1      10.904   7.488  -0.647  1.00  0.00     0.031 C 
ATOM     59  C   UNL     1      12.563   7.405   1.191  1.00  0.00     0.037 A 
BRANCH  46  60
ATOM     60  C   UNL     1      14.409   3.974   5.973  1.00  0.00     0.057 A 
ATOM     61  C   UNL     1      15.486   3.080   5.980  1.00  0.00     0.134 A 
ATOM     62  C   UNL     1      14.223   4.773   7.109  1.00  0.00     0.134 A 
ATOM     63  F   UNL     1      15.711   2.280   4.927  1.00  0.00    -0.206 F 
ATOM     64  C   UNL     1      16.330   2.963   7.085  1.00  0.00     0.040 A 
ATOM     65  C   UNL     1      15.076   4.683   8.211  1.00  0.00     0.040 A 
ATOM     66  F   UNL     1      13.216   5.657   7.164  1.00  0.00    -0.206 F 
ATOM     67  C   UNL     1      16.129   3.771   8.203  1.00  0.00     0.006 A 
ENDBRANCH  46  60
BRANCH  47  68
ATOM     68  C   UNL     1       7.989   4.607  -1.591  1.00  0.00     0.057 A 
ATOM     69  C   UNL     1       8.416   4.507  -2.921  1.00  0.00     0.134 A 
ATOM     70  C   UNL     1       6.628   4.839  -1.364  1.00  0.00     0.134 A 
ATOM     71  F   UNL     1       9.712   4.308  -3.200  1.00  0.00    -0.206 F 
ATOM     72  C   UNL     1       7.526   4.649  -3.986  1.00  0.00     0.040 A 
ATOM     73  C   UNL     1       5.724   4.962  -2.420  1.00  0.00     0.040 A 
ATOM     74  F   UNL     1       6.159   4.941  -0.112  1.00  0.00    -0.206 F 
ATOM     75  C   UNL     1       6.174   4.873  -3.736  1.00  0.00     0.006 A 
ENDBRANCH  47  68
BRANCH  59  76
ATOM     76  C   UNL     1      13.114   8.713   0.706  1.00  0.00     0.057 A 
ATOM     77  C   UNL     1      12.441   9.922   0.915  1.00  0.00     0.134 A 
ATOM     78  C   UNL     1      14.360   8.765   0.067  1.00  0.00     0.134 A 
ATOM     79  F   UNL     1      11.239   9.937   1.510  1.00  0.00    -0.206 F 
ATOM     80  C   UNL     1      12.983  11.138   0.494  1.00  0.00     0.040 A 
ATOM     81  C   UNL     1      14.920   9.976  -0.340  1.00  0.00     0.040 A 
ATOM     82  F   UNL     1      15.058   7.642  -0.158  1.00  0.00    -0.206 F 
ATOM     83  C   UNL     1      14.229  11.168  -0.129  1.00  0.00     0.006 A 
ENDBRANCH  59  76
ENDBRANCH  33  34
ENDBRANCH  25  28
ENDBRANCH  23  24
ENDBRANCH  22  23
ENDBRANCH   1  22
TORSDOF 13
