REMARK SMILES Cc1cc(C(=O)N[C@@H]2C(=O)N3C(C(=O)NCCCNC(=O)c4ccc(-c5c6nc(c(-c7c(F)cccc7F)c7ccc([nH]7)c(-c7c(F)cccc7F)c7nc(c(-c8c(F)cccc8F)c8ccc5[nH]8)C=C7)C=C6)cc4)=C(CSc4nnc(C)s4)CS[C@H]23)n(C)n1
REMARK SMILES IDX 16 1 15 2 13 3 14 4 12 6 8 7 9 8 87 9 10 10 11 11 86 12
REMARK SMILES IDX 85 13 76 14 7 15 5 16 6 17 4 19 1 20 2 21 3 22 90 23 88 24
REMARK SMILES IDX 89 25 77 26 78 27 79 28 80 29 84 30 81 31 82 32 83 33 17 34
REMARK SMILES IDX 18 35 19 36 20 37 21 39 22 40 23 41 75 42 24 43 74 44 25 45
REMARK SMILES IDX 26 46 27 47 68 48 28 49 73 50 67 51 69 52 29 53 72 54 66 55
REMARK SMILES IDX 65 56 30 58 56 59 39 60 55 61 40 62 43 63 54 64 70 65 41 66
REMARK SMILES IDX 42 67 53 69 71 70 44 71 31 72 32 73 37 74 33 75 34 76 36 77
REMARK SMILES IDX 38 78 35 79 57 80 58 81 63 82 59 83 60 84 62 85 64 86 61 87
REMARK SMILES IDX 45 88 46 89 51 90 47 91 48 92 50 93 52 94 49 95
REMARK H PARENT 15 5 7 18 19 38 69 57 43 68
REMARK Flexibility Score: inf
ROOT
ATOM      1  C   UNL     1      -4.134  -0.683  -4.612  1.00  0.00     0.118 C 
ENDROOT
BRANCH   1   2
ATOM      2  N   UNL     1      -3.389  -0.430  -3.392  1.00  0.00    -0.351 N 
ATOM      3  C   UNL     1      -2.703  -1.166  -2.478  1.00  0.00     0.268 C 
ATOM      4  O   UNL     1      -2.045  -0.465  -1.699  1.00  0.00    -0.268 OA
ATOM      5  H   UNL     1      -3.378   0.528  -3.167  1.00  0.00     0.163 HD
BRANCH   3   6
ATOM      6  C   UNL     1      -2.534  -2.696  -2.465  1.00  0.00     0.111 C 
ATOM      7  C   UNL     1      -0.120  -4.053  -0.403  1.00  0.00     0.206 C 
ATOM      8  C   UNL     1      -1.096  -2.840  -0.414  1.00  0.00     0.253 C 
ATOM      9  C   UNL     1      -0.918  -4.465  -1.672  1.00  0.00     0.181 C 
ATOM     10  O   UNL     1      -1.493  -2.071   0.438  1.00  0.00    -0.272 OA
ATOM     11  N   UNL     1      -1.433  -3.107  -1.718  1.00  0.00    -0.290 N 
ATOM     12  S   UNL     1      -2.301  -5.624  -1.428  1.00  0.00    -0.129 SA
ATOM     13  C   UNL     1      -2.989  -5.128  -3.006  1.00  0.00     0.106 C 
ATOM     14  C   UNL     1      -3.384  -3.664  -2.931  1.00  0.00    -0.020 C 
BRANCH   7  15
ATOM     15  N   UNL     1      -0.113  -4.935   0.798  1.00  0.00    -0.336 N 
ATOM     16  C   UNL     1       0.218  -6.274   0.912  1.00  0.00     0.270 C 
ATOM     17  O   UNL     1       0.170  -6.779   2.032  1.00  0.00    -0.268 OA
ATOM     18  H   UNL     1      -0.384  -4.499   1.638  1.00  0.00     0.164 HD
BRANCH  16  19
ATOM     19  C   UNL     1       0.521  -7.026  -0.286  1.00  0.00     0.126 A 
ATOM     20  C   UNL     1       0.660  -7.420  -3.901  1.00  0.00     0.069 C 
ATOM     21  C   UNL     1       0.689  -7.575  -2.426  1.00  0.00     0.060 A 
ATOM     22  C   UNL     1       1.152  -6.653  -1.463  1.00  0.00     0.059 A 
ATOM     23  N   UNL     1       0.132  -8.637  -1.844  1.00  0.00    -0.178 NA
ATOM     24  N   UNL     1       0.139  -8.329  -0.526  1.00  0.00    -0.263 N 
ATOM     25  C   UNL     1      -0.318  -9.341   0.397  1.00  0.00     0.174 C 
ENDBRANCH  16  19
ENDBRANCH   7  15
BRANCH  14  26
ATOM     26  C   UNL     1      -4.880  -3.525  -3.108  1.00  0.00     0.111 C 
BRANCH  26  27
ATOM     27  S   UNL     1      -5.530  -2.619  -1.701  1.00  0.00    -0.089 SA
BRANCH  27  28
ATOM     28  C   UNL     1      -6.907  -3.501  -1.174  1.00  0.00     0.174 A 
ATOM     29  N   UNL     1      -6.878  -4.771  -0.842  1.00  0.00    -0.132 NA
ATOM     30  S   UNL     1      -8.271  -2.648  -0.592  1.00  0.00    -0.091 S 
ATOM     31  N   UNL     1      -7.760  -5.016   0.201  1.00  0.00    -0.143 NA
ATOM     32  C   UNL     1      -8.392  -3.914   0.558  1.00  0.00     0.115 A 
ATOM     33  C   UNL     1      -9.025  -3.655   1.871  1.00  0.00     0.081 C 
ENDBRANCH  27  28
ENDBRANCH  26  27
ENDBRANCH  14  26
ENDBRANCH   3   6
ENDBRANCH   1   2
BRANCH   1  34
ATOM     34  C   UNL     1      -5.641  -0.547  -4.383  1.00  0.00     0.042 C 
BRANCH  34  35
ATOM     35  C   UNL     1      -6.231   0.837  -4.578  1.00  0.00     0.118 C 
BRANCH  35  36
ATOM     36  N   UNL     1      -6.517   1.113  -5.972  1.00  0.00    -0.352 N 
ATOM     37  C   UNL     1      -7.713   1.183  -6.645  1.00  0.00     0.251 C 
ATOM     38  H   UNL     1      -5.722   1.278  -6.529  1.00  0.00     0.163 HD
ATOM     39  O   UNL     1      -7.692   1.192  -7.874  1.00  0.00    -0.269 OA
BRANCH  37  40
ATOM     40  C   UNL     1      -9.021   1.231  -5.938  1.00  0.00     0.039 A 
ATOM     41  C   UNL     1     -10.135   0.656  -6.562  1.00  0.00     0.014 A 
ATOM     42  C   UNL     1      -9.194   1.889  -4.719  1.00  0.00     0.014 A 
ATOM     43  C   UNL     1     -11.393   0.707  -5.950  1.00  0.00     0.010 A 
ATOM     44  C   UNL     1     -10.422   1.846  -4.059  1.00  0.00     0.010 A 
ATOM     45  C   UNL     1     -11.544   1.279  -4.678  1.00  0.00    -0.014 A 
BRANCH  45  46
ATOM     46  C   UNL     1     -12.871   1.335  -4.006  1.00  0.00     0.031 A 
ATOM     47  C   UNL     1     -13.495   2.666  -3.668  1.00  0.00     0.074 A 
ATOM     48  C   UNL     1     -13.503   0.194  -3.666  1.00  0.00     0.049 A 
ATOM     49  N   UNL     1     -14.613   2.921  -3.035  1.00  0.00    -0.248 NA
ATOM     50  C   UNL     1     -12.750   3.870  -4.070  1.00  0.00     0.031 C 
ATOM     51  C   UNL     1     -12.995  -1.158  -3.903  1.00  0.00     0.029 A 
ATOM     52  N   UNL     1     -14.713  -0.011  -3.050  1.00  0.00    -0.354 N 
ATOM     53  C   UNL     1     -14.695   4.306  -2.954  1.00  0.00     0.074 A 
ATOM     54  C   UNL     1     -13.486   4.836  -3.542  1.00  0.00     0.031 C 
ATOM     55  C   UNL     1     -13.901  -2.050  -3.474  1.00  0.00     0.029 A 
ATOM     56  C   UNL     1     -15.035  -1.337  -2.894  1.00  0.00     0.049 A 
ATOM     57  H   UNL     1     -15.295   0.724  -2.748  1.00  0.00     0.167 HD
ATOM     58  C   UNL     1     -15.699   5.071  -2.463  1.00  0.00     0.037 A 
ATOM     59  C   UNL     1     -16.120  -1.915  -2.345  1.00  0.00     0.037 A 
ATOM     60  C   UNL     1     -16.916   4.545  -1.901  1.00  0.00     0.049 A 
ATOM     61  C   UNL     1     -17.216  -1.046  -1.794  1.00  0.00     0.074 A 
ATOM     62  C   UNL     1     -18.008   5.237  -1.409  1.00  0.00     0.029 A 
ATOM     63  N   UNL     1     -17.201   3.195  -1.764  1.00  0.00    -0.354 N 
ATOM     64  N   UNL     1     -17.295   0.262  -1.758  1.00  0.00    -0.248 NA
ATOM     65  C   UNL     1     -18.377  -1.734  -1.211  1.00  0.00     0.031 C 
ATOM     66  C   UNL     1     -18.938   4.306  -0.936  1.00  0.00     0.029 A 
ATOM     67  C   UNL     1     -18.448   3.033  -1.181  1.00  0.00     0.049 A 
ATOM     68  H   UNL     1     -16.606   2.460  -2.039  1.00  0.00     0.167 HD
ATOM     69  C   UNL     1     -18.522   0.554  -1.177  1.00  0.00     0.074 A 
ATOM     70  C   UNL     1     -19.160  -0.714  -0.888  1.00  0.00     0.031 C 
ATOM     71  C   UNL     1     -19.072   1.764  -0.907  1.00  0.00     0.037 A 
BRANCH  58  72
ATOM     72  C   UNL     1     -15.529   6.563  -2.525  1.00  0.00     0.057 A 
ATOM     73  C   UNL     1     -15.557   7.258  -3.742  1.00  0.00     0.134 A 
ATOM     74  C   UNL     1     -15.371   7.318  -1.356  1.00  0.00     0.134 A 
ATOM     75  F   UNL     1     -15.692   6.595  -4.901  1.00  0.00    -0.206 F 
ATOM     76  C   UNL     1     -15.407   8.645  -3.796  1.00  0.00     0.040 A 
ATOM     77  C   UNL     1     -15.249   8.709  -1.395  1.00  0.00     0.040 A 
ATOM     78  F   UNL     1     -15.342   6.719  -0.156  1.00  0.00    -0.206 F 
ATOM     79  C   UNL     1     -15.260   9.375  -2.619  1.00  0.00     0.006 A 
ENDBRANCH  58  72
BRANCH  59  80
ATOM     80  C   UNL     1     -16.240  -3.396  -2.322  1.00  0.00     0.057 A 
ATOM     81  C   UNL     1     -17.175  -4.054  -3.128  1.00  0.00     0.134 A 
ATOM     82  C   UNL     1     -15.424  -4.186  -1.504  1.00  0.00     0.134 A 
ATOM     83  F   UNL     1     -17.998  -3.351  -3.920  1.00  0.00    -0.206 F 
ATOM     84  C   UNL     1     -17.305  -5.444  -3.113  1.00  0.00     0.040 A 
ATOM     85  C   UNL     1     -15.525  -5.578  -1.498  1.00  0.00     0.040 A 
ATOM     86  F   UNL     1     -14.502  -3.616  -0.713  1.00  0.00    -0.206 F 
ATOM     87  C   UNL     1     -16.473  -6.211  -2.300  1.00  0.00     0.006 A 
ENDBRANCH  59  80
BRANCH  71  88
ATOM     88  C   UNL     1     -20.445   1.777  -0.301  1.00  0.00     0.057 A 
ATOM     89  C   UNL     1     -20.672   1.397   1.028  1.00  0.00     0.134 A 
ATOM     90  C   UNL     1     -21.546   2.219  -1.045  1.00  0.00     0.134 A 
ATOM     91  F   UNL     1     -19.661   0.954   1.791  1.00  0.00    -0.206 F 
ATOM     92  C   UNL     1     -21.950   1.435   1.588  1.00  0.00     0.040 A 
ATOM     93  C   UNL     1     -22.823   2.288  -0.488  1.00  0.00     0.040 A 
ATOM     94  F   UNL     1     -21.395   2.607  -2.320  1.00  0.00    -0.206 F 
ATOM     95  C   UNL     1     -23.029   1.888   0.831  1.00  0.00     0.006 A 
ENDBRANCH  71  88
ENDBRANCH  45  46
ENDBRANCH  37  40
ENDBRANCH  35  36
ENDBRANCH  34  35
ENDBRANCH   1  34
TORSDOF 15
