REMARK SMILES Cc1cccc(CN(C)c2nc(C)c(C(=O)NCCCNC(=O)c3ccc(-c4c5nc(c(-c6c(F)cccc6F)c6ccc([nH]6)c(-c6c(F)cccc6F)c6nc(c(-c7c(F)cccc7F)c7ccc4[nH]7)C=C6)C=C5)cc3)s2)n1
REMARK SMILES IDX 18 1 17 2 15 3 16 4 14 6 10 7 11 8 78 9 12 10 13 11 8 12
REMARK SMILES IDX 9 13 7 14 6 15 1 16 2 17 3 18 79 19 4 20 5 21 19 22 20 23
REMARK SMILES IDX 21 24 22 25 23 27 24 28 25 29 77 30 26 31 76 32 27 33 28 34
REMARK SMILES IDX 29 35 70 36 30 37 75 38 69 39 71 40 31 41 74 42 68 43 67 44
REMARK SMILES IDX 32 46 58 47 41 48 57 49 42 50 45 51 56 52 72 53 43 54 44 55
REMARK SMILES IDX 55 57 73 58 46 59 33 60 34 61 39 62 35 63 36 64 38 65 40 66
REMARK SMILES IDX 37 67 59 68 60 69 65 70 61 71 62 72 64 73 66 74 63 75 47 76
REMARK SMILES IDX 48 77 53 78 49 79 50 80 52 81 54 82 51 83
REMARK H PARENT 17 5 21 26 71 45 45 56
REMARK Flexibility Score: inf
ROOT
ATOM      1  C   UNL     1      -1.679   1.887   7.698  1.00  0.00     0.118 C 
ENDROOT
BRANCH   1   2
ATOM      2  N   UNL     1      -1.789   0.752   6.815  1.00  0.00    -0.351 N 
ATOM      3  C   UNL     1      -1.930   0.626   5.459  1.00  0.00     0.263 C 
ATOM      4  O   UNL     1      -2.098  -0.548   5.106  1.00  0.00    -0.268 OA
ATOM      5  H   UNL     1      -1.757  -0.112   7.286  1.00  0.00     0.163 HD
BRANCH   3   6
ATOM      6  C   UNL     1      -1.829   1.726   4.511  1.00  0.00     0.117 A 
ATOM      7  C   UNL     1      -1.379   2.853   2.347  1.00  0.00     0.186 A 
ATOM      8  N   UNL     1      -1.731   3.715   3.271  1.00  0.00    -0.225 NA
ATOM      9  S   UNL     1      -1.331   1.243   2.926  1.00  0.00    -0.091 S 
ATOM     10  C   UNL     1      -2.072   3.094   4.470  1.00  0.00     0.063 A 
ATOM     11  C   UNL     1      -2.678   4.021   5.457  1.00  0.00     0.068 C 
BRANCH   7  12
ATOM     12  N   UNL     1      -1.053   3.219   1.077  1.00  0.00    -0.345 N 
ATOM     13  C   UNL     1      -0.573   4.572   0.871  1.00  0.00     0.146 C 
BRANCH  12  14
ATOM     14  C   UNL     1      -1.526   2.471  -0.093  1.00  0.00     0.174 C 
BRANCH  14  15
ATOM     15  C   UNL     1      -0.887   1.102  -0.252  1.00  0.00     0.060 A 
ATOM     16  C   UNL     1       2.542  -0.213  -0.143  1.00  0.00     0.067 C 
ATOM     17  C   UNL     1       1.048  -0.188  -0.239  1.00  0.00     0.038 A 
ATOM     18  C   UNL     1       0.308  -1.365  -0.244  1.00  0.00     0.023 A 
ATOM     19  N   UNL     1       0.470   1.036  -0.267  1.00  0.00    -0.256 NA
ATOM     20  C   UNL     1      -1.079  -1.286  -0.290  1.00  0.00     0.004 A 
ATOM     21  C   UNL     1      -1.689  -0.038  -0.298  1.00  0.00     0.026 A 
ENDBRANCH  14  15
ENDBRANCH  12  14
ENDBRANCH   7  12
ENDBRANCH   3   6
ENDBRANCH   1   2
BRANCH   1  22
ATOM     22  C   UNL     1      -3.050   2.224   8.279  1.00  0.00     0.042 C 
BRANCH  22  23
ATOM     23  C   UNL     1      -3.459   1.307   9.426  1.00  0.00     0.118 C 
BRANCH  23  24
ATOM     24  N   UNL     1      -2.755   1.639  10.654  1.00  0.00    -0.352 N 
ATOM     25  C   UNL     1      -3.239   2.134  11.839  1.00  0.00     0.251 C 
ATOM     26  H   UNL     1      -1.783   1.485  10.632  1.00  0.00     0.163 HD
ATOM     27  O   UNL     1      -2.456   2.595  12.663  1.00  0.00    -0.269 OA
BRANCH  25  28
ATOM     28  C   UNL     1      -4.691   2.123  12.133  1.00  0.00     0.039 A 
ATOM     29  C   UNL     1      -5.243   3.200  12.835  1.00  0.00     0.014 A 
ATOM     30  C   UNL     1      -5.498   1.038  11.783  1.00  0.00     0.014 A 
ATOM     31  C   UNL     1      -6.604   3.206  13.149  1.00  0.00     0.010 A 
ATOM     32  C   UNL     1      -6.869   1.079  12.025  1.00  0.00     0.010 A 
ATOM     33  C   UNL     1      -7.433   2.155  12.727  1.00  0.00    -0.014 A 
BRANCH  33  34
ATOM     34  C   UNL     1      -8.885   2.145  13.035  1.00  0.00     0.031 A 
ATOM     35  C   UNL     1      -9.460   1.080  13.928  1.00  0.00     0.074 A 
ATOM     36  C   UNL     1      -9.695   3.055  12.462  1.00  0.00     0.049 A 
ATOM     37  N   UNL     1     -10.707   0.861  14.260  1.00  0.00    -0.248 NA
ATOM     38  C   UNL     1      -8.509   0.114  14.501  1.00  0.00     0.031 C 
ATOM     39  C   UNL     1      -9.266   4.115  11.548  1.00  0.00     0.029 A 
ATOM     40  N   UNL     1     -11.053   3.229  12.560  1.00  0.00    -0.354 N 
ATOM     41  C   UNL     1     -10.693  -0.280  15.053  1.00  0.00     0.074 A 
ATOM     42  C   UNL     1      -9.320  -0.733  15.117  1.00  0.00     0.031 C 
ATOM     43  C   UNL     1     -10.334   4.848  11.194  1.00  0.00     0.029 A 
ATOM     44  C   UNL     1     -11.525   4.288  11.824  1.00  0.00     0.049 A 
ATOM     45  H   UNL     1     -11.633   2.650  13.105  1.00  0.00     0.167 HD
ATOM     46  C   UNL     1     -11.726  -0.885  15.687  1.00  0.00     0.037 A 
ATOM     47  C   UNL     1     -12.779   4.754  11.675  1.00  0.00     0.037 A 
ATOM     48  C   UNL     1     -13.083  -0.408  15.654  1.00  0.00     0.049 A 
ATOM     49  C   UNL     1     -13.909   4.068  12.389  1.00  0.00     0.074 A 
ATOM     50  C   UNL     1     -14.187  -0.898  16.330  1.00  0.00     0.029 A 
ATOM     51  N   UNL     1     -13.521   0.670  14.900  1.00  0.00    -0.354 N 
ATOM     52  N   UNL     1     -13.871   3.032  13.191  1.00  0.00    -0.248 NA
ATOM     53  C   UNL     1     -15.255   4.616  12.175  1.00  0.00     0.031 C 
ATOM     54  C   UNL     1     -15.302  -0.141  15.952  1.00  0.00     0.029 A 
ATOM     55  C   UNL     1     -14.884   0.846  15.073  1.00  0.00     0.049 A 
ATOM     56  H   UNL     1     -12.948   1.229  14.327  1.00  0.00     0.167 HD
ATOM     57  C   UNL     1     -15.181   2.822  13.602  1.00  0.00     0.074 A 
ATOM     58  C   UNL     1     -15.988   3.843  12.966  1.00  0.00     0.031 C 
ATOM     59  C   UNL     1     -15.671   1.871  14.435  1.00  0.00     0.037 A 
BRANCH  46  60
ATOM     60  C   UNL     1     -11.423  -2.134  16.463  1.00  0.00     0.057 A 
ATOM     61  C   UNL     1     -10.686  -2.108  17.655  1.00  0.00     0.134 A 
ATOM     62  C   UNL     1     -11.884  -3.380  16.018  1.00  0.00     0.134 A 
ATOM     63  F   UNL     1     -10.204  -0.950  18.131  1.00  0.00    -0.206 F 
ATOM     64  C   UNL     1     -10.389  -3.278  18.356  1.00  0.00     0.040 A 
ATOM     65  C   UNL     1     -11.617  -4.553  16.726  1.00  0.00     0.040 A 
ATOM     66  F   UNL     1     -12.602  -3.477  14.889  1.00  0.00    -0.206 F 
ATOM     67  C   UNL     1     -10.859  -4.505  17.893  1.00  0.00     0.006 A 
ENDBRANCH  46  60
BRANCH  47  68
ATOM     68  C   UNL     1     -13.025   5.960  10.847  1.00  0.00     0.057 A 
ATOM     69  C   UNL     1     -13.363   7.180  11.445  1.00  0.00     0.134 A 
ATOM     70  C   UNL     1     -12.921   5.931   9.451  1.00  0.00     0.134 A 
ATOM     71  F   UNL     1     -13.495   7.264  12.777  1.00  0.00    -0.206 F 
ATOM     72  C   UNL     1     -13.598   8.326  10.685  1.00  0.00     0.040 A 
ATOM     73  C   UNL     1     -13.133   7.075   8.680  1.00  0.00     0.040 A 
ATOM     74  F   UNL     1     -12.594   4.794   8.820  1.00  0.00    -0.206 F 
ATOM     75  C   UNL     1     -13.477   8.277   9.298  1.00  0.00     0.006 A 
ENDBRANCH  47  68
BRANCH  59  76
ATOM     76  C   UNL     1     -17.140   1.912  14.730  1.00  0.00     0.057 A 
ATOM     77  C   UNL     1     -18.095   1.516  13.785  1.00  0.00     0.134 A 
ATOM     78  C   UNL     1     -17.603   2.320  15.987  1.00  0.00     0.134 A 
ATOM     79  F   UNL     1     -17.716   1.129  12.557  1.00  0.00    -0.206 F 
ATOM     80  C   UNL     1     -19.460   1.544  14.073  1.00  0.00     0.040 A 
ATOM     81  C   UNL     1     -18.964   2.329  16.296  1.00  0.00     0.040 A 
ATOM     82  F   UNL     1     -16.740   2.705  16.939  1.00  0.00    -0.206 F 
ATOM     83  C   UNL     1     -19.897   1.945  15.335  1.00  0.00     0.006 A 
ENDBRANCH  59  76
ENDBRANCH  33  34
ENDBRANCH  25  28
ENDBRANCH  23  24
ENDBRANCH  22  23
ENDBRANCH   1  22
TORSDOF 13
