REMARK SMILES O=C(NCCCNC(=O)[C@H]1C[C@@H](O)CN1C(=O)CCc1ccc(Cl)cc1Cl)c1ccc(-c2c3nc(c(-c4c(F)cccc4F)c4ccc([nH]4)c(-c4c(F)cccc4F)c4nc(c(-c5c(F)cccc5F)c5ccc2[nH]5)C=C4)C=C3)cc1
REMARK SMILES IDX 6 1 5 2 4 3 3 4 1 5 2 6 28 8 29 9 81 10 30 11 80 12 31 13
REMARK SMILES IDX 32 14 33 15 74 16 34 17 79 18 73 19 75 20 35 21 78 22 72 23
REMARK SMILES IDX 71 24 36 26 62 27 45 28 61 29 46 30 49 31 60 32 76 33 47 34
REMARK SMILES IDX 48 35 59 37 77 38 50 39 37 40 38 41 43 42 39 43 40 44 42 45
REMARK SMILES IDX 44 46 41 47 63 48 64 49 69 50 65 51 66 52 68 53 70 54 67 55
REMARK SMILES IDX 51 56 52 57 57 58 53 59 54 60 56 61 58 62 55 63 7 64 8 65
REMARK SMILES IDX 9 67 10 68 11 69 15 70 12 71 14 72 16 73 17 74 18 75 19 76
REMARK SMILES IDX 20 77 21 78 26 79 22 80 25 81 27 82 23 83 24 84 13 85
REMARK H PARENT 3 7 75 25 49 36 7 66 13 86
REMARK Flexibility Score: inf
ROOT
ATOM      1  C   UNL     1       4.111  -3.300  -0.897  1.00  0.00     0.117 C 
ENDROOT
BRANCH   1   2
ATOM      2  C   UNL     1       4.803  -2.117  -0.261  1.00  0.00     0.042 C 
BRANCH   2   3
ATOM      3  C   UNL     1       4.530  -0.837  -1.024  1.00  0.00     0.118 C 
BRANCH   3   4
ATOM      4  N   UNL     1       3.101  -0.519  -1.069  1.00  0.00    -0.352 N 
ATOM      5  O   UNL     1       1.129   0.253  -0.295  1.00  0.00    -0.269 OA
ATOM      6  C   UNL     1       2.349   0.343  -0.306  1.00  0.00     0.251 C 
ATOM      7  H   UNL     1       2.594  -1.004  -1.760  1.00  0.00     0.163 HD
BRANCH   6   8
ATOM      8  C   UNL     1       3.028   1.374   0.501  1.00  0.00     0.039 A 
ATOM      9  C   UNL     1       4.167   1.996  -0.003  1.00  0.00     0.014 A 
ATOM     10  C   UNL     1       2.531   1.730   1.757  1.00  0.00     0.014 A 
ATOM     11  C   UNL     1       4.941   2.783   0.826  1.00  0.00     0.010 A 
ATOM     12  C   UNL     1       3.230   2.658   2.534  1.00  0.00     0.010 A 
ATOM     13  C   UNL     1       4.465   3.155   2.091  1.00  0.00    -0.014 A 
BRANCH  13  14
ATOM     14  C   UNL     1       5.271   4.114   2.883  1.00  0.00     0.031 A 
ATOM     15  C   UNL     1       5.826   3.740   4.226  1.00  0.00     0.074 A 
ATOM     16  C   UNL     1       5.554   5.311   2.331  1.00  0.00     0.049 A 
ATOM     17  N   UNL     1       6.586   4.444   5.025  1.00  0.00    -0.248 NA
ATOM     18  C   UNL     1       5.475   2.411   4.751  1.00  0.00     0.031 C 
ATOM     19  C   UNL     1       5.067   5.775   1.027  1.00  0.00     0.029 A 
ATOM     20  N   UNL     1       6.348   6.338   2.767  1.00  0.00    -0.354 N 
ATOM     21  C   UNL     1       6.775   3.663   6.158  1.00  0.00     0.074 A 
ATOM     22  C   UNL     1       6.032   2.438   5.953  1.00  0.00     0.031 C 
ATOM     23  C   UNL     1       5.637   6.951   0.734  1.00  0.00     0.029 A 
ATOM     24  C   UNL     1       6.452   7.368   1.865  1.00  0.00     0.049 A 
ATOM     25  H   UNL     1       6.800   6.337   3.642  1.00  0.00     0.167 HD
ATOM     26  C   UNL     1       7.504   3.947   7.264  1.00  0.00     0.037 A 
ATOM     27  C   UNL     1       7.117   8.533   1.946  1.00  0.00     0.037 A 
ATOM     28  C   UNL     1       8.257   5.163   7.440  1.00  0.00     0.049 A 
ATOM     29  C   UNL     1       7.899   8.826   3.190  1.00  0.00     0.074 A 
ATOM     30  C   UNL     1       9.055   5.537   8.507  1.00  0.00     0.029 A 
ATOM     31  N   UNL     1       8.302   6.206   6.524  1.00  0.00    -0.354 N 
ATOM     32  N   UNL     1       8.083   8.071   4.246  1.00  0.00    -0.248 NA
ATOM     33  C   UNL     1       8.560  10.133   3.257  1.00  0.00     0.031 C 
ATOM     34  C   UNL     1       9.539   6.827   8.260  1.00  0.00     0.029 A 
ATOM     35  C   UNL     1       9.095   7.232   7.011  1.00  0.00     0.049 A 
ATOM     36  H   UNL     1       7.838   6.214   5.655  1.00  0.00     0.167 HD
ATOM     37  C   UNL     1       8.905   8.799   5.093  1.00  0.00     0.074 A 
ATOM     38  C   UNL     1       9.194  10.049   4.417  1.00  0.00     0.031 C 
ATOM     39  C   UNL     1       9.378   8.464   6.318  1.00  0.00     0.037 A 
BRANCH  26  40
ATOM     40  C   UNL     1       7.489   2.944   8.383  1.00  0.00     0.057 A 
ATOM     41  C   UNL     1       8.118   1.696   8.280  1.00  0.00     0.134 A 
ATOM     42  C   UNL     1       6.852   3.244   9.594  1.00  0.00     0.134 A 
ATOM     43  F   UNL     1       8.735   1.337   7.145  1.00  0.00    -0.206 F 
ATOM     44  C   UNL     1       8.089   0.774   9.330  1.00  0.00     0.040 A 
ATOM     45  C   UNL     1       6.841   2.343  10.660  1.00  0.00     0.040 A 
ATOM     46  F   UNL     1       6.233   4.423   9.765  1.00  0.00    -0.206 F 
ATOM     47  C   UNL     1       7.454   1.100  10.527  1.00  0.00     0.006 A 
ENDBRANCH  26  40
BRANCH  27  48
ATOM     48  C   UNL     1       7.064   9.498   0.819  1.00  0.00     0.057 A 
ATOM     49  C   UNL     1       8.201   9.778   0.053  1.00  0.00     0.134 A 
ATOM     50  C   UNL     1       5.875  10.151   0.471  1.00  0.00     0.134 A 
ATOM     51  F   UNL     1       9.372   9.192   0.343  1.00  0.00    -0.206 F 
ATOM     52  C   UNL     1       8.162  10.685  -1.006  1.00  0.00     0.040 A 
ATOM     53  C   UNL     1       5.814  11.037  -0.604  1.00  0.00     0.040 A 
ATOM     54  F   UNL     1       4.747   9.916   1.158  1.00  0.00    -0.206 F 
ATOM     55  C   UNL     1       6.964  11.313  -1.341  1.00  0.00     0.006 A 
ENDBRANCH  27  48
BRANCH  39  56
ATOM     56  C   UNL     1      10.303   9.445   6.975  1.00  0.00     0.057 A 
ATOM     57  C   UNL     1       9.855  10.674   7.476  1.00  0.00     0.134 A 
ATOM     58  C   UNL     1      11.665   9.146   7.116  1.00  0.00     0.134 A 
ATOM     59  F   UNL     1       8.566  11.028   7.356  1.00  0.00    -0.206 F 
ATOM     60  C   UNL     1      10.734  11.585   8.062  1.00  0.00     0.040 A 
ATOM     61  C   UNL     1      12.547  10.035   7.730  1.00  0.00     0.040 A 
ATOM     62  F   UNL     1      12.157   7.982   6.665  1.00  0.00    -0.206 F 
ATOM     63  C   UNL     1      12.084  11.263   8.196  1.00  0.00     0.006 A 
ENDBRANCH  39  56
ENDBRANCH  13  14
ENDBRANCH   6   8
ENDBRANCH   3   4
ENDBRANCH   2   3
ENDBRANCH   1   2
BRANCH   1  64
ATOM     64  N   UNL     1       4.730  -3.723  -2.145  1.00  0.00    -0.354 N 
ATOM     65  C   UNL     1       5.404  -4.819  -2.579  1.00  0.00     0.242 C 
ATOM     66  H   UNL     1       4.636  -3.043  -2.852  1.00  0.00     0.163 HD
ATOM     67  O   UNL     1       5.658  -4.805  -3.790  1.00  0.00    -0.273 OA
BRANCH  65  68
ATOM     68  C   UNL     1       5.835  -6.021  -1.699  1.00  0.00     0.177 C 
ATOM     69  C   UNL     1       5.315  -6.143  -0.279  1.00  0.00     0.069 C 
ATOM     70  N   UNL     1       5.354  -7.292  -2.270  1.00  0.00    -0.328 N 
ATOM     71  C   UNL     1       3.927  -6.781  -0.449  1.00  0.00     0.136 C 
ATOM     72  C   UNL     1       4.086  -7.679  -1.673  1.00  0.00     0.152 C 
BRANCH  70  73
ATOM     73  C   UNL     1       6.149  -8.071  -3.084  1.00  0.00     0.223 C 
ATOM     74  O   UNL     1       7.221  -7.674  -3.538  1.00  0.00    -0.275 OA
BRANCH  73  75
ATOM     75  C   UNL     1       5.710  -9.510  -3.320  1.00  0.00     0.105 C 
BRANCH  75  76
ATOM     76  C   UNL     1       6.442 -10.495  -2.389  1.00  0.00     0.047 C 
BRANCH  76  77
ATOM     77  C   UNL     1       6.085 -10.365  -0.918  1.00  0.00    -0.029 A 
ATOM     78  C   UNL     1       4.905 -10.979  -0.452  1.00  0.00     0.007 A 
ATOM     79  C   UNL     1       6.824  -9.579  -0.014  1.00  0.00     0.045 A 
ATOM     80  C   UNL     1       4.430 -10.733   0.841  1.00  0.00     0.021 A 
ATOM     81  C   UNL     1       6.349  -9.338   1.280  1.00  0.00     0.041 A 
ATOM     82  Cl  UNL     1       8.315  -8.825  -0.450  1.00  0.00    -0.084 Cl
ATOM     83  C   UNL     1       5.142  -9.892   1.690  1.00  0.00     0.042 A 
ATOM     84  Cl  UNL     1       4.503  -9.495   3.237  1.00  0.00    -0.084 Cl
ENDBRANCH  76  77
ENDBRANCH  75  76
ENDBRANCH  73  75
ENDBRANCH  70  73
BRANCH  71  85
ATOM     85  O   UNL     1       2.881  -5.848  -0.679  1.00  0.00    -0.391 OA
ATOM     86  H   UNL     1       3.069  -5.343  -1.486  1.00  0.00     0.211 HD
ENDBRANCH  71  85
ENDBRANCH  65  68
ENDBRANCH   1  64
TORSDOF 15
