REMARK SMILES O=C(NCc1ccc(C(=O)NCCCNC(=O)c2ccc(-c3c4nc(c(-c5c(F)cccc5F)c5ccc([nH]5)c(-c5c(F)cccc5F)c5nc(c(-c6c(F)cccc6F)c6ccc3[nH]6)C=C5)C=C4)cc2)o1)N[C@@H]1CCS(=O)(=O)C1
REMARK SMILES IDX 12 1 11 2 9 3 10 4 8 6 5 7 6 8 72 9 7 10 4 11 3 12 1 13 2 14
REMARK SMILES IDX 73 15 74 18 75 19 80 20 76 21 77 22 78 23 79 24 13 25 14 26
REMARK SMILES IDX 15 27 16 28 17 30 18 31 19 32 71 33 20 34 70 35 21 36 22 37
REMARK SMILES IDX 23 38 64 39 24 40 69 41 63 42 65 43 25 44 68 45 62 46 61 47
REMARK SMILES IDX 26 49 52 50 35 51 51 52 36 53 39 54 50 55 66 56 37 57 38 58
REMARK SMILES IDX 49 60 67 61 40 62 27 63 28 64 33 65 29 66 30 67 32 68 34 69
REMARK SMILES IDX 31 70 53 71 54 72 59 73 55 74 56 75 58 76 60 77 57 78 41 79
REMARK SMILES IDX 42 80 47 81 43 82 44 83 46 84 48 85 45 86
REMARK H PARENT 11 5 3 16 73 17 15 29 65 48 39 59
REMARK Flexibility Score: inf
ROOT
ATOM      1  C   UNL     1       6.540   6.463   1.990  1.00  0.00     0.118 C 
ENDROOT
BRANCH   1   2
ATOM      2  N   UNL     1       7.248   5.415   2.694  1.00  0.00    -0.349 N 
ATOM      3  C   UNL     1       7.029   4.059   2.760  1.00  0.00     0.286 C 
ATOM      4  O   UNL     1       7.878   3.418   3.386  1.00  0.00    -0.266 OA
ATOM      5  H   UNL     1       8.022   5.728   3.216  1.00  0.00     0.163 HD
BRANCH   3   6
ATOM      6  C   UNL     1       5.882   3.436   2.123  1.00  0.00     0.191 A 
ATOM      7  C   UNL     1       4.772   1.654   1.403  1.00  0.00     0.124 A 
ATOM      8  C   UNL     1       4.003   2.748   1.078  1.00  0.00     0.048 A 
ATOM      9  O   UNL     1       5.913   2.063   2.021  1.00  0.00    -0.454 OA
ATOM     10  C   UNL     1       4.686   3.879   1.585  1.00  0.00     0.056 A 
BRANCH   7  11
ATOM     11  C   UNL     1       4.601   0.188   1.248  1.00  0.00     0.193 C 
BRANCH  11  12
ATOM     12  N   UNL     1       3.190  -0.103   1.090  1.00  0.00    -0.331 N 
ATOM     13  O   UNL     1       1.235  -0.444   0.077  1.00  0.00    -0.249 OA
ATOM     14  C   UNL     1       2.455  -0.351  -0.013  1.00  0.00     0.315 C 
ATOM     15  N   UNL     1       3.121  -0.485  -1.191  1.00  0.00    -0.334 N 
ATOM     16  H   UNL     1       2.682  -0.124   1.933  1.00  0.00     0.165 HD
ATOM     17  H   UNL     1       4.103  -0.411  -1.201  1.00  0.00     0.165 HD
BRANCH  15  18
ATOM     18  C   UNL     1       2.409  -0.737  -2.438  1.00  0.00     0.099 C 
ATOM     19  C   UNL     1       3.291  -1.454  -3.465  1.00  0.00     0.042 C 
ATOM     20  C   UNL     1       1.947   0.558  -3.100  1.00  0.00     0.161 C 
ATOM     21  C   UNL     1       4.250  -0.420  -4.043  1.00  0.00     0.139 C 
ATOM     22  S   UNL     1       3.373   1.135  -3.997  1.00  0.00     0.152 S 
ATOM     23  O   UNL     1       4.120   2.042  -3.145  1.00  0.00    -0.229 OA
ATOM     24  O   UNL     1       2.973   1.490  -5.340  1.00  0.00    -0.229 OA
ENDBRANCH  15  18
ENDBRANCH  11  12
ENDBRANCH   7  11
ENDBRANCH   3   6
ENDBRANCH   1   2
BRANCH   1  25
ATOM     25  C   UNL     1       5.609   7.237   2.921  1.00  0.00     0.042 C 
BRANCH  25  26
ATOM     26  C   UNL     1       6.342   8.266   3.781  1.00  0.00     0.118 C 
BRANCH  26  27
ATOM     27  N   UNL     1       6.947   9.317   2.971  1.00  0.00    -0.352 N 
ATOM     28  C   UNL     1       6.754  10.672   2.964  1.00  0.00     0.251 C 
ATOM     29  H   UNL     1       7.608   8.996   2.316  1.00  0.00     0.163 HD
ATOM     30  O   UNL     1       7.188  11.330   2.021  1.00  0.00    -0.269 OA
BRANCH  28  31
ATOM     31  C   UNL     1       6.040  11.354   4.064  1.00  0.00     0.039 A 
ATOM     32  C   UNL     1       5.252  12.466   3.754  1.00  0.00     0.014 A 
ATOM     33  C   UNL     1       6.195  10.962   5.396  1.00  0.00     0.014 A 
ATOM     34  C   UNL     1       4.589  13.154   4.770  1.00  0.00     0.010 A 
ATOM     35  C   UNL     1       5.467  11.598   6.401  1.00  0.00     0.010 A 
ATOM     36  C   UNL     1       4.665  12.707   6.100  1.00  0.00    -0.014 A 
BRANCH  36  37
ATOM     37  C   UNL     1       3.894  13.392   7.168  1.00  0.00     0.031 A 
ATOM     38  C   UNL     1       4.595  14.086   8.303  1.00  0.00     0.074 A 
ATOM     39  C   UNL     1       2.548  13.363   7.122  1.00  0.00     0.049 A 
ATOM     40  N   UNL     1       4.080  14.756   9.304  1.00  0.00    -0.248 NA
ATOM     41  C   UNL     1       6.063  13.998   8.334  1.00  0.00     0.031 C 
ATOM     42  C   UNL     1       1.753  12.669   6.107  1.00  0.00     0.029 A 
ATOM     43  N   UNL     1       1.610  13.933   7.945  1.00  0.00    -0.354 N 
ATOM     44  C   UNL     1       5.156  15.162  10.083  1.00  0.00     0.074 A 
ATOM     45  C   UNL     1       6.348  14.612   9.473  1.00  0.00     0.031 C 
ATOM     46  C   UNL     1       0.451  12.889   6.341  1.00  0.00     0.029 A 
ATOM     47  C   UNL     1       0.317  13.706   7.543  1.00  0.00     0.049 A 
ATOM     48  H   UNL     1       1.842  14.456   8.746  1.00  0.00     0.167 HD
ATOM     49  C   UNL     1       5.155  15.942  11.191  1.00  0.00     0.037 A 
ATOM     50  C   UNL     1      -0.848  14.113   8.080  1.00  0.00     0.037 A 
ATOM     51  C   UNL     1       3.965  16.495  11.788  1.00  0.00     0.049 A 
ATOM     52  C   UNL     1      -0.822  14.980   9.306  1.00  0.00     0.074 A 
ATOM     53  C   UNL     1       3.860  17.344  12.877  1.00  0.00     0.029 A 
ATOM     54  N   UNL     1       2.672  16.245  11.352  1.00  0.00    -0.354 N 
ATOM     55  N   UNL     1       0.208  15.425   9.985  1.00  0.00    -0.248 NA
ATOM     56  C   UNL     1      -2.123  15.412   9.834  1.00  0.00     0.031 C 
ATOM     57  C   UNL     1       2.502  17.562  13.133  1.00  0.00     0.029 A 
ATOM     58  C   UNL     1       1.761  16.900  12.166  1.00  0.00     0.049 A 
ATOM     59  H   UNL     1       2.436  15.684  10.578  1.00  0.00     0.167 HD
ATOM     60  C   UNL     1      -0.318  16.207  11.005  1.00  0.00     0.074 A 
ATOM     61  C   UNL     1      -1.757  16.198  10.836  1.00  0.00     0.031 C 
ATOM     62  C   UNL     1       0.330  16.872  11.994  1.00  0.00     0.037 A 
BRANCH  49  63
ATOM     63  C   UNL     1       6.482  16.243  11.830  1.00  0.00     0.057 A 
ATOM     64  C   UNL     1       7.440  17.055  11.206  1.00  0.00     0.134 A 
ATOM     65  C   UNL     1       6.796  15.740  13.099  1.00  0.00     0.134 A 
ATOM     66  F   UNL     1       7.210  17.562   9.985  1.00  0.00    -0.206 F 
ATOM     67  C   UNL     1       8.671  17.329  11.806  1.00  0.00     0.040 A 
ATOM     68  C   UNL     1       8.011  16.033  13.723  1.00  0.00     0.040 A 
ATOM     69  F   UNL     1       5.926  14.961  13.759  1.00  0.00    -0.206 F 
ATOM     70  C   UNL     1       8.956  16.823  13.072  1.00  0.00     0.006 A 
ENDBRANCH  49  63
BRANCH  50  71
ATOM     71  C   UNL     1      -2.134  13.729   7.443  1.00  0.00     0.057 A 
ATOM     72  C   UNL     1      -2.943  14.682   6.813  1.00  0.00     0.134 A 
ATOM     73  C   UNL     1      -2.586  12.405   7.451  1.00  0.00     0.134 A 
ATOM     74  F   UNL     1      -2.572  15.971   6.786  1.00  0.00    -0.206 F 
ATOM     75  C   UNL     1      -4.166  14.337   6.236  1.00  0.00     0.040 A 
ATOM     76  C   UNL     1      -3.792  12.040   6.852  1.00  0.00     0.040 A 
ATOM     77  F   UNL     1      -1.852  11.442   8.028  1.00  0.00    -0.206 F 
ATOM     78  C   UNL     1      -4.591  13.010   6.250  1.00  0.00     0.006 A 
ENDBRANCH  50  71
BRANCH  62  79
ATOM     79  C   UNL     1      -0.519  17.659  12.952  1.00  0.00     0.057 A 
ATOM     80  C   UNL     1      -1.377  17.035  13.869  1.00  0.00     0.134 A 
ATOM     81  C   UNL     1      -0.481  19.059  12.955  1.00  0.00     0.134 A 
ATOM     82  F   UNL     1      -1.471  15.698  13.911  1.00  0.00    -0.206 F 
ATOM     83  C   UNL     1      -2.197  17.776  14.722  1.00  0.00     0.040 A 
ATOM     84  C   UNL     1      -1.270  19.810  13.826  1.00  0.00     0.040 A 
ATOM     85  F   UNL     1       0.326  19.721  12.112  1.00  0.00    -0.206 F 
ATOM     86  C   UNL     1      -2.142  19.168  14.704  1.00  0.00     0.006 A 
ENDBRANCH  62  79
ENDBRANCH  36  37
ENDBRANCH  28  31
ENDBRANCH  26  27
ENDBRANCH  25  26
ENDBRANCH   1  25
TORSDOF 13
