REMARK SMILES CC(C)[NH2+][C@@]1(C(=O)NCCCNC(=O)c2ccc(-c3c4nc(c(-c5c(F)cccc5F)c5ccc([nH]5)c(-c5c(F)cccc5F)c5nc(c(-c6c(F)cccc6F)c6ccc3[nH]6)C=C5)C=C4)cc2)CCC[C@H](SC2CCCCC2)C1
REMARK SMILES IDX 10 1 9 2 8 3 6 4 7 5 5 7 69 8 80 9 70 10 72 11 71 12 4 13
REMARK SMILES IDX 2 16 1 17 3 18 73 19 74 20 75 21 79 22 76 23 78 24 77 25
REMARK SMILES IDX 11 26 12 27 13 28 14 30 15 31 16 32 68 33 17 34 67 35 18 36
REMARK SMILES IDX 19 37 20 38 61 39 21 40 66 41 60 42 62 43 22 44 65 45 59 46
REMARK SMILES IDX 58 47 23 49 49 50 32 51 48 52 33 53 36 54 47 55 63 56 34 57
REMARK SMILES IDX 35 58 46 60 64 61 37 62 24 63 25 64 30 65 26 66 27 67 29 68
REMARK SMILES IDX 31 69 28 70 50 71 51 72 56 73 52 74 53 75 55 76 57 77 54 78
REMARK SMILES IDX 38 79 39 80 44 81 40 82 41 83 43 84 45 85 42 86
REMARK H PARENT 8 6 4 14 4 15 12 29 62 48 36 59
REMARK Flexibility Score: inf
ROOT
ATOM      1  C   UNL     1      -4.403  -4.577   2.838  1.00  0.00     0.042 C 
ENDROOT
BRANCH   1   2
ATOM      2  C   UNL     1      -4.405  -4.131   1.384  1.00  0.00     0.118 C 
BRANCH   2   3
ATOM      3  N   UNL     1      -3.965  -2.744   1.290  1.00  0.00    -0.351 N 
ATOM      4  C   UNL     1      -2.813  -2.081   1.574  1.00  0.00     0.281 C 
ATOM      5  O   UNL     1      -3.010  -0.880   1.853  1.00  0.00    -0.268 OA
ATOM      6  H   UNL     1      -4.665  -2.148   0.939  1.00  0.00     0.163 HD
BRANCH   4   7
ATOM      7  C   UNL     1      -1.281  -2.598   1.524  1.00  0.00     0.176 C 
ATOM      8  C   UNL     1      -1.049  -3.769   0.556  1.00  0.00     0.079 C 
ATOM      9  C   UNL     1      -0.706  -2.808   2.954  1.00  0.00     0.093 C 
ATOM     10  C   UNL     1      -1.013  -5.157   1.192  1.00  0.00     0.008 C 
ATOM     11  C   UNL     1      -0.553  -4.234   3.547  1.00  0.00     0.053 C 
ATOM     12  C   UNL     1      -0.158  -5.208   2.443  1.00  0.00     0.015 C 
BRANCH   7  13
ATOM     13  N   UNL     1      -0.634  -1.369   0.906  1.00  0.00    -0.332 N 
ATOM     14  H   UNL     1      -0.993  -1.325  -0.048  1.00  0.00     0.347 HD
ATOM     15  H   UNL     1      -0.873  -0.666   1.605  1.00  0.00     0.347 HD
BRANCH  13  16
ATOM     16  C   UNL     1       0.809  -1.145   0.790  1.00  0.00     0.176 C 
ATOM     17  C   UNL     1       0.968  -0.064  -0.294  1.00  0.00     0.075 C 
ATOM     18  C   UNL     1       1.520  -0.605   2.044  1.00  0.00     0.075 C 
ENDBRANCH  13  16
ENDBRANCH   7  13
BRANCH  11  19
ATOM     19  S   UNL     1      -1.930  -4.430   4.726  1.00  0.00    -0.155 SA
BRANCH  19  20
ATOM     20  C   UNL     1      -2.144  -6.166   5.247  1.00  0.00     0.047 C 
ATOM     21  C   UNL     1      -2.015  -7.314   4.246  1.00  0.00     0.014 C 
ATOM     22  C   UNL     1      -1.352  -6.436   6.525  1.00  0.00     0.014 C 
ATOM     23  C   UNL     1      -2.447  -8.644   4.867  1.00  0.00     0.001 C 
ATOM     24  C   UNL     1      -1.800  -7.763   7.130  1.00  0.00     0.001 C 
ATOM     25  C   UNL     1      -1.674  -8.923   6.152  1.00  0.00     0.000 C 
ENDBRANCH  19  20
ENDBRANCH  11  19
ENDBRANCH   4   7
ENDBRANCH   2   3
ENDBRANCH   1   2
BRANCH   1  26
ATOM     26  C   UNL     1      -5.701  -4.870   3.584  1.00  0.00     0.118 C 
BRANCH  26  27
ATOM     27  N   UNL     1      -6.107  -6.264   3.501  1.00  0.00    -0.352 N 
ATOM     28  C   UNL     1      -6.265  -7.285   4.407  1.00  0.00     0.251 C 
ATOM     29  H   UNL     1      -6.317  -6.541   2.580  1.00  0.00     0.163 HD
ATOM     30  O   UNL     1      -6.543  -8.389   3.918  1.00  0.00    -0.269 OA
BRANCH  28  31
ATOM     31  C   UNL     1      -6.121  -7.203   5.900  1.00  0.00     0.039 A 
ATOM     32  C   UNL     1      -5.938  -8.422   6.587  1.00  0.00     0.014 A 
ATOM     33  C   UNL     1      -6.233  -6.050   6.678  1.00  0.00     0.014 A 
ATOM     34  C   UNL     1      -5.850  -8.489   7.989  1.00  0.00     0.010 A 
ATOM     35  C   UNL     1      -6.090  -6.106   8.082  1.00  0.00     0.010 A 
ATOM     36  C   UNL     1      -5.915  -7.325   8.760  1.00  0.00    -0.014 A 
BRANCH  36  37
ATOM     37  C   UNL     1      -5.880  -7.375  10.257  1.00  0.00     0.031 A 
ATOM     38  C   UNL     1      -7.109  -7.020  11.053  1.00  0.00     0.074 A 
ATOM     39  C   UNL     1      -4.760  -7.717  10.928  1.00  0.00     0.049 A 
ATOM     40  N   UNL     1      -7.262  -6.942  12.353  1.00  0.00    -0.248 NA
ATOM     41  C   UNL     1      -8.327  -6.721  10.287  1.00  0.00     0.031 C 
ATOM     42  C   UNL     1      -3.511  -8.141  10.312  1.00  0.00     0.029 A 
ATOM     43  N   UNL     1      -4.480  -7.744  12.276  1.00  0.00    -0.354 N 
ATOM     44  C   UNL     1      -8.589  -6.588  12.559  1.00  0.00     0.074 A 
ATOM     45  C   UNL     1      -9.184  -6.417  11.250  1.00  0.00     0.031 C 
ATOM     46  C   UNL     1      -2.580  -8.332  11.259  1.00  0.00     0.029 A 
ATOM     47  C   UNL     1      -3.169  -8.052  12.562  1.00  0.00     0.049 A 
ATOM     48  H   UNL     1      -5.154  -7.559  12.970  1.00  0.00     0.167 HD
ATOM     49  C   UNL     1      -9.259  -6.442  13.728  1.00  0.00     0.037 A 
ATOM     50  C   UNL     1      -2.506  -8.105  13.735  1.00  0.00     0.037 A 
ATOM     51  C   UNL     1      -8.678  -6.616  15.035  1.00  0.00     0.049 A 
ATOM     52  C   UNL     1      -3.250  -7.856  15.017  1.00  0.00     0.074 A 
ATOM     53  C   UNL     1      -9.297  -6.522  16.271  1.00  0.00     0.029 A 
ATOM     54  N   UNL     1      -7.345  -6.907  15.280  1.00  0.00    -0.354 N 
ATOM     55  N   UNL     1      -4.517  -7.574  15.193  1.00  0.00    -0.248 NA
ATOM     56  C   UNL     1      -2.478  -7.956  16.265  1.00  0.00     0.031 C 
ATOM     57  C   UNL     1      -8.327  -6.701  17.263  1.00  0.00     0.029 A 
ATOM     58  C   UNL     1      -7.116  -6.964  16.647  1.00  0.00     0.049 A 
ATOM     59  H   UNL     1      -6.662  -7.052  14.586  1.00  0.00     0.167 HD
ATOM     60  C   UNL     1      -4.703  -7.505  16.568  1.00  0.00     0.074 A 
ATOM     61  C   UNL     1      -3.421  -7.780  17.180  1.00  0.00     0.031 C 
ATOM     62  C   UNL     1      -5.840  -7.244  17.257  1.00  0.00     0.037 A 
BRANCH  49  63
ATOM     63  C   UNL     1     -10.710  -6.061  13.645  1.00  0.00     0.057 A 
ATOM     64  C   UNL     1     -11.685  -6.956  13.186  1.00  0.00     0.134 A 
ATOM     65  C   UNL     1     -11.140  -4.795  14.063  1.00  0.00     0.134 A 
ATOM     66  F   UNL     1     -11.338  -8.181  12.762  1.00  0.00    -0.206 F 
ATOM     67  C   UNL     1     -13.032  -6.596  13.117  1.00  0.00     0.040 A 
ATOM     68  C   UNL     1     -12.488  -4.434  14.026  1.00  0.00     0.040 A 
ATOM     69  F   UNL     1     -10.260  -3.894  14.523  1.00  0.00    -0.206 F 
ATOM     70  C   UNL     1     -13.437  -5.333  13.544  1.00  0.00     0.006 A 
ENDBRANCH  49  63
BRANCH  50  71
ATOM     71  C   UNL     1      -1.055  -8.426  13.760  1.00  0.00     0.057 A 
ATOM     72  C   UNL     1      -0.587  -9.639  14.279  1.00  0.00     0.134 A 
ATOM     73  C   UNL     1      -0.099  -7.516  13.291  1.00  0.00     0.134 A 
ATOM     74  F   UNL     1      -1.452 -10.543  14.764  1.00  0.00    -0.206 F 
ATOM     75  C   UNL     1       0.777  -9.927  14.354  1.00  0.00     0.040 A 
ATOM     76  C   UNL     1       1.268  -7.801  13.337  1.00  0.00     0.040 A 
ATOM     77  F   UNL     1      -0.479  -6.337  12.779  1.00  0.00    -0.206 F 
ATOM     78  C   UNL     1       1.709  -9.007  13.878  1.00  0.00     0.006 A 
ENDBRANCH  50  71
BRANCH  62  79
ATOM     79  C   UNL     1      -5.765  -7.283  18.756  1.00  0.00     0.057 A 
ATOM     80  C   UNL     1      -5.095  -6.298  19.494  1.00  0.00     0.134 A 
ATOM     81  C   UNL     1      -6.401  -8.305  19.474  1.00  0.00     0.134 A 
ATOM     82  F   UNL     1      -4.452  -5.300  18.869  1.00  0.00    -0.206 F 
ATOM     83  C   UNL     1      -5.041  -6.341  20.888  1.00  0.00     0.040 A 
ATOM     84  C   UNL     1      -6.378  -8.342  20.869  1.00  0.00     0.040 A 
ATOM     85  F   UNL     1      -7.066  -9.277  18.832  1.00  0.00    -0.206 F 
ATOM     86  C   UNL     1      -5.691  -7.361  21.580  1.00  0.00     0.006 A 
ENDBRANCH  62  79
ENDBRANCH  36  37
ENDBRANCH  28  31
ENDBRANCH  26  27
ENDBRANCH   1  26
TORSDOF 14
