REMARK SMILES CCCCCCNC(=O)Oc1cccc(-c2ccc([C@@H](C)C(=O)NCCCNC(=O)c3ccc(-c4c5nc(c(-c6c(F)cccc6F)c6ccc([nH]6)c(-c6c(F)cccc6F)c6nc(c(-c7c(F)cccc7F)c7ccc4[nH]7)C=C6)C=C5)cc3)cc2C(F)(F)F)c1
REMARK SMILES IDX 16 1 17 2 18 3 19 4 85 5 86 6 15 7 11 8 12 9 91 10 13 11
REMARK SMILES IDX 14 12 10 13 8 14 7 15 9 17 6 18 5 19 4 20 3 21 2 22 1 23
REMARK SMILES IDX 87 24 88 25 89 26 90 27 20 28 21 29 22 30 23 31 24 32 25 34
REMARK SMILES IDX 26 35 27 36 28 37 29 38 30 40 31 41 32 42 84 43 33 44 83 45
REMARK SMILES IDX 34 46 35 47 36 48 77 49 37 50 82 51 76 52 78 53 38 54 81 55
REMARK SMILES IDX 75 56 74 57 39 59 65 60 48 61 64 62 49 63 52 64 63 65 79 66
REMARK SMILES IDX 50 67 51 68 62 70 80 71 53 72 40 73 41 74 46 75 42 76 43 77
REMARK SMILES IDX 45 78 47 79 44 80 66 81 67 82 72 83 68 84 69 85 71 86 73 87
REMARK SMILES IDX 70 88 54 89 55 90 60 91 56 92 57 93 59 94 61 95 58 96
REMARK H PARENT 7 16 24 33 28 39 78 58 52 69
REMARK Flexibility Score: inf
ROOT
ATOM      1  C   UNL     1      -5.231   1.157   9.600  1.00  0.00    -0.006 A 
ATOM      2  C   UNL     1      -5.699   0.843  10.892  1.00  0.00     0.009 A 
ATOM      3  C   UNL     1      -5.720   1.777  11.929  1.00  0.00     0.005 A 
ATOM      4  C   UNL     1      -5.170   3.042  11.762  1.00  0.00    -0.035 A 
ATOM      5  C   UNL     1      -4.722   3.380  10.476  1.00  0.00     0.018 A 
ATOM      6  C   UNL     1      -4.798   2.481   9.378  1.00  0.00     0.064 A 
ENDROOT
BRANCH   1   7
ATOM      7  C   UNL     1      -5.247   0.080   8.582  1.00  0.00    -0.014 A 
ATOM      8  C   UNL     1      -4.205  -1.208   6.806  1.00  0.00     0.133 A 
ATOM      9  C   UNL     1      -5.341  -2.000   6.665  1.00  0.00     0.047 A 
ATOM     10  C   UNL     1      -4.137  -0.195   7.767  1.00  0.00     0.056 A 
ATOM     11  C   UNL     1      -6.433  -1.773   7.492  1.00  0.00     0.004 A 
ATOM     12  C   UNL     1      -6.390  -0.733   8.425  1.00  0.00     0.009 A 
BRANCH   8  13
ATOM     13  O   UNL     1      -3.219  -1.369   5.815  1.00  0.00    -0.410 OA
BRANCH  13  14
ATOM     14  C   UNL     1      -1.871  -1.343   6.134  1.00  0.00     0.412 C 
ATOM     15  N   UNL     1      -1.069  -1.298   5.026  1.00  0.00    -0.321 N 
ATOM     16  H   UNL     1      -0.098  -1.343   5.181  1.00  0.00     0.167 HD
ATOM     17  O   UNL     1      -1.400  -1.363   7.263  1.00  0.00    -0.224 OA
BRANCH  15  18
ATOM     18  C   UNL     1      -1.505  -1.193   3.647  1.00  0.00     0.119 C 
BRANCH  18  19
ATOM     19  C   UNL     1      -0.932   0.047   2.959  1.00  0.00     0.021 C 
BRANCH  19  20
ATOM     20  C   UNL     1       0.596   0.058   2.821  1.00  0.00     0.002 C 
BRANCH  20  21
ATOM     21  C   UNL     1       1.196  -1.124   2.053  1.00  0.00    -0.000 C 
BRANCH  21  22
ATOM     22  C   UNL     1       0.703  -1.291   0.613  1.00  0.00    -0.003 C 
ATOM     23  C   UNL     1       1.064  -0.118  -0.285  1.00  0.00     0.004 C 
ENDBRANCH  21  22
ENDBRANCH  20  21
ENDBRANCH  19  20
ENDBRANCH  18  19
ENDBRANCH  15  18
ENDBRANCH  13  14
ENDBRANCH   8  13
ENDBRANCH   1   7
BRANCH   6  24
ATOM     24  C   UNL     1      -4.432   3.059   8.026  1.00  0.00     0.417 C 
ATOM     25  F   UNL     1      -5.034   4.269   7.819  1.00  0.00    -0.166 F 
ATOM     26  F   UNL     1      -3.095   3.297   7.910  1.00  0.00    -0.166 F 
ATOM     27  F   UNL     1      -4.777   2.316   6.942  1.00  0.00    -0.166 F 
ENDBRANCH   6  24
BRANCH   4  28
ATOM     28  C   UNL     1      -5.049   4.043  12.900  1.00  0.00     0.105 C 
ATOM     29  C   UNL     1      -6.346   4.319  13.658  1.00  0.00     0.023 C 
BRANCH  28  30
ATOM     30  C   UNL     1      -3.814   3.834  13.791  1.00  0.00     0.227 C 
ATOM     31  O   UNL     1      -2.826   4.566  13.648  1.00  0.00    -0.274 OA
ATOM     32  N   UNL     1      -3.715   2.888  14.763  1.00  0.00    -0.356 N 
ATOM     33  H   UNL     1      -2.882   2.943  15.286  1.00  0.00     0.163 HD
BRANCH  32  34
ATOM     34  C   UNL     1      -4.595   1.813  15.179  1.00  0.00     0.117 C 
BRANCH  34  35
ATOM     35  C   UNL     1      -4.184   0.466  14.584  1.00  0.00     0.042 C 
BRANCH  35  36
ATOM     36  C   UNL     1      -3.051  -0.225  15.332  1.00  0.00     0.118 C 
BRANCH  36  37
ATOM     37  N   UNL     1      -3.475  -0.727  16.632  1.00  0.00    -0.352 N 
ATOM     38  C   UNL     1      -3.632  -2.012  17.093  1.00  0.00     0.251 C 
ATOM     39  H   UNL     1      -3.685  -0.028  17.292  1.00  0.00     0.163 HD
ATOM     40  O   UNL     1      -4.218  -2.196  18.158  1.00  0.00    -0.269 OA
BRANCH  38  41
ATOM     41  C   UNL     1      -3.129  -3.176  16.328  1.00  0.00     0.039 A 
ATOM     42  C   UNL     1      -3.897  -4.346  16.305  1.00  0.00     0.014 A 
ATOM     43  C   UNL     1      -1.892  -3.150  15.680  1.00  0.00     0.014 A 
ATOM     44  C   UNL     1      -3.465  -5.455  15.571  1.00  0.00     0.010 A 
ATOM     45  C   UNL     1      -1.495  -4.228  14.890  1.00  0.00     0.010 A 
ATOM     46  C   UNL     1      -2.281  -5.388  14.820  1.00  0.00    -0.014 A 
BRANCH  46  47
ATOM     47  C   UNL     1      -1.866  -6.500  13.927  1.00  0.00     0.031 A 
ATOM     48  C   UNL     1      -0.595  -7.257  14.187  1.00  0.00     0.074 A 
ATOM     49  C   UNL     1      -2.596  -6.768  12.827  1.00  0.00     0.049 A 
ATOM     50  N   UNL     1      -0.017  -8.178  13.457  1.00  0.00    -0.248 NA
ATOM     51  C   UNL     1       0.135  -6.922  15.420  1.00  0.00     0.031 C 
ATOM     52  C   UNL     1      -3.829  -6.077  12.442  1.00  0.00     0.029 A 
ATOM     53  N   UNL     1      -2.396  -7.676  11.817  1.00  0.00    -0.354 N 
ATOM     54  C   UNL     1       1.149  -8.520  14.130  1.00  0.00     0.074 A 
ATOM     55  C   UNL     1       1.216  -7.681  15.309  1.00  0.00     0.031 C 
ATOM     56  C   UNL     1      -4.279  -6.591  11.287  1.00  0.00     0.029 A 
ATOM     57  C   UNL     1      -3.345  -7.614  10.826  1.00  0.00     0.049 A 
ATOM     58  H   UNL     1      -1.645  -8.312  11.805  1.00  0.00     0.167 HD
ATOM     59  C   UNL     1       2.070  -9.458  13.804  1.00  0.00     0.037 A 
ATOM     60  C   UNL     1      -3.442  -8.286   9.663  1.00  0.00     0.037 A 
ATOM     61  C   UNL     1       1.990 -10.303  12.641  1.00  0.00     0.049 A 
ATOM     62  C   UNL     1      -2.386  -9.293   9.305  1.00  0.00     0.074 A 
ATOM     63  C   UNL     1       2.830 -11.337  12.267  1.00  0.00     0.029 A 
ATOM     64  N   UNL     1       1.017 -10.203  11.657  1.00  0.00    -0.354 N 
ATOM     65  N   UNL     1      -1.329  -9.658   9.988  1.00  0.00    -0.248 NA
ATOM     66  C   UNL     1      -2.534  -9.976   8.012  1.00  0.00     0.031 C 
ATOM     67  C   UNL     1       2.394 -11.832  11.033  1.00  0.00     0.029 A 
ATOM     68  C   UNL     1       1.258 -11.133  10.659  1.00  0.00     0.049 A 
ATOM     69  H   UNL     1       0.267  -9.566  11.667  1.00  0.00     0.167 HD
ATOM     70  C   UNL     1      -0.691 -10.618   9.215  1.00  0.00     0.074 A 
ATOM     71  C   UNL     1      -1.491 -10.796   8.021  1.00  0.00     0.031 C 
ATOM     72  C   UNL     1       0.458 -11.290   9.471  1.00  0.00     0.037 A 
BRANCH  59  73
ATOM     73  C   UNL     1       3.248  -9.621  14.718  1.00  0.00     0.057 A 
ATOM     74  C   UNL     1       3.123 -10.201  15.987  1.00  0.00     0.134 A 
ATOM     75  C   UNL     1       4.531  -9.235  14.309  1.00  0.00     0.134 A 
ATOM     76  F   UNL     1       1.921 -10.585  16.443  1.00  0.00    -0.206 F 
ATOM     77  C   UNL     1       4.226 -10.368  16.826  1.00  0.00     0.040 A 
ATOM     78  C   UNL     1       5.646  -9.419  15.129  1.00  0.00     0.040 A 
ATOM     79  F   UNL     1       4.723  -8.681  13.102  1.00  0.00    -0.206 F 
ATOM     80  C   UNL     1       5.494  -9.983  16.394  1.00  0.00     0.006 A 
ENDBRANCH  59  73
BRANCH  60  81
ATOM     81  C   UNL     1      -4.581  -8.022   8.750  1.00  0.00     0.057 A 
ATOM     82  C   UNL     1      -5.595  -8.969   8.571  1.00  0.00     0.134 A 
ATOM     83  C   UNL     1      -4.689  -6.819   8.041  1.00  0.00     0.134 A 
ATOM     84  F   UNL     1      -5.535 -10.148   9.207  1.00  0.00    -0.206 F 
ATOM     85  C   UNL     1      -6.670  -8.736   7.713  1.00  0.00     0.040 A 
ATOM     86  C   UNL     1      -5.771  -6.562   7.198  1.00  0.00     0.040 A 
ATOM     87  F   UNL     1      -3.751  -5.870   8.171  1.00  0.00    -0.206 F 
ATOM     88  C   UNL     1      -6.763  -7.525   7.028  1.00  0.00     0.006 A 
ENDBRANCH  60  81
BRANCH  72  89
ATOM     89  C   UNL     1       0.917 -12.279   8.442  1.00  0.00     0.057 A 
ATOM     90  C   UNL     1       1.488 -11.866   7.232  1.00  0.00     0.134 A 
ATOM     91  C   UNL     1       0.831 -13.656   8.681  1.00  0.00     0.134 A 
ATOM     92  F   UNL     1       1.584 -10.560   6.937  1.00  0.00    -0.206 F 
ATOM     93  C   UNL     1       1.946 -12.788   6.290  1.00  0.00     0.040 A 
ATOM     94  C   UNL     1       1.306 -14.588   7.757  1.00  0.00     0.040 A 
ATOM     95  F   UNL     1       0.299 -14.118   9.823  1.00  0.00    -0.206 F 
ATOM     96  C   UNL     1       1.863 -14.154   6.556  1.00  0.00     0.006 A 
ENDBRANCH  72  89
ENDBRANCH  46  47
ENDBRANCH  38  41
ENDBRANCH  36  37
ENDBRANCH  35  36
ENDBRANCH  34  35
ENDBRANCH  32  34
ENDBRANCH  28  30
ENDBRANCH   4  28
TORSDOF 20
