REMARK SMILES O=C(Cc1ccc(CBr)cc1)NCCCNC(=O)c1ccc(-c2c3nc(c(-c4c(F)cccc4F)c4ccc([nH]4)c(-c4c(F)cccc4F)c4nc(c(-c5c(F)cccc5F)c5ccc2[nH]5)C=C4)C=C3)cc1
REMARK SMILES IDX 14 1 13 2 12 3 1 4 2 5 3 7 4 8 5 9 11 10 6 11 10 12 7 13
REMARK SMILES IDX 8 14 9 15 15 16 16 17 17 18 18 20 19 21 20 22 72 23 21 24
REMARK SMILES IDX 71 25 22 26 23 27 24 28 65 29 25 30 70 31 64 32 66 33 26 34
REMARK SMILES IDX 69 35 63 36 62 37 27 39 53 40 36 41 52 42 37 43 40 44 51 45
REMARK SMILES IDX 67 46 38 47 39 48 50 50 68 51 41 52 28 53 29 54 34 55 30 56
REMARK SMILES IDX 31 57 33 58 35 59 32 60 54 61 55 62 60 63 56 64 57 65 59 66
REMARK SMILES IDX 61 67 58 68 42 69 43 70 48 71 44 72 45 73 47 74 49 75 46 76
REMARK H PARENT 12 6 16 19 66 38 40 49
REMARK Flexibility Score: inf
ROOT
ATOM      1  C   UNL     1       2.318   2.723  -2.023  1.00  0.00     0.042 C 
ENDROOT
BRANCH   1   2
ATOM      2  C   UNL     1       2.069   1.217  -2.038  1.00  0.00     0.117 C 
BRANCH   2   3
ATOM      3  N   UNL     1       2.780   0.526  -0.983  1.00  0.00    -0.356 N 
ATOM      4  O   UNL     1       0.956   0.155   0.359  1.00  0.00    -0.275 OA
ATOM      5  C   UNL     1       2.158   0.024   0.141  1.00  0.00     0.224 C 
ATOM      6  H   UNL     1       3.754   0.409  -1.071  1.00  0.00     0.163 HD
BRANCH   5   7
ATOM      7  C   UNL     1       3.093  -0.629   1.149  1.00  0.00     0.135 C 
BRANCH   7   8
ATOM      8  C   UNL     1       3.922  -1.756   0.578  1.00  0.00    -0.039 A 
ATOM      9  C   UNL     1       3.387  -3.045   0.475  1.00  0.00     0.004 A 
ATOM     10  C   UNL     1       5.228  -1.526   0.123  1.00  0.00     0.004 A 
ATOM     11  C   UNL     1       4.141  -4.083  -0.077  1.00  0.00     0.005 A 
ATOM     12  C   UNL     1       5.977  -2.562  -0.440  1.00  0.00     0.005 A 
ATOM     13  C   UNL     1       5.440  -3.851  -0.550  1.00  0.00    -0.037 A 
BRANCH  13  14
ATOM     14  C   UNL     1       6.247  -4.964  -1.151  1.00  0.00     0.116 C 
ATOM     15  Br  UNL     1       7.039  -6.034   0.264  1.00  0.00    -0.088 Br
ENDBRANCH  13  14
ENDBRANCH   7   8
ENDBRANCH   5   7
ENDBRANCH   2   3
ENDBRANCH   1   2
BRANCH   1  16
ATOM     16  C   UNL     1       3.781   3.137  -2.175  1.00  0.00     0.118 C 
BRANCH  16  17
ATOM     17  N   UNL     1       4.374   2.720  -3.437  1.00  0.00    -0.352 N 
ATOM     18  C   UNL     1       5.096   3.432  -4.361  1.00  0.00     0.251 C 
ATOM     19  H   UNL     1       4.234   1.772  -3.665  1.00  0.00     0.163 HD
ATOM     20  O   UNL     1       5.409   2.892  -5.422  1.00  0.00    -0.269 OA
BRANCH  18  21
ATOM     21  C   UNL     1       5.487   4.841  -4.121  1.00  0.00     0.039 A 
ATOM     22  C   UNL     1       5.412   5.743  -5.189  1.00  0.00     0.014 A 
ATOM     23  C   UNL     1       5.972   5.274  -2.884  1.00  0.00     0.014 A 
ATOM     24  C   UNL     1       5.767   7.082  -5.003  1.00  0.00     0.010 A 
ATOM     25  C   UNL     1       6.267   6.623  -2.683  1.00  0.00     0.010 A 
ATOM     26  C   UNL     1       6.172   7.541  -3.741  1.00  0.00    -0.014 A 
BRANCH  26  27
ATOM     27  C   UNL     1       6.508   8.971  -3.515  1.00  0.00     0.031 A 
ATOM     28  C   UNL     1       7.914   9.375  -3.163  1.00  0.00     0.074 A 
ATOM     29  C   UNL     1       5.539   9.905  -3.572  1.00  0.00     0.049 A 
ATOM     30  N   UNL     1       8.384  10.559  -2.859  1.00  0.00    -0.248 NA
ATOM     31  C   UNL     1       8.919   8.302  -3.123  1.00  0.00     0.031 C 
ATOM     32  C   UNL     1       4.129   9.645  -3.865  1.00  0.00     0.029 A 
ATOM     33  N   UNL     1       5.593  11.262  -3.374  1.00  0.00    -0.354 N 
ATOM     34  C   UNL     1       9.730  10.371  -2.575  1.00  0.00     0.074 A 
ATOM     35  C   UNL     1       9.994   8.953  -2.701  1.00  0.00     0.031 C 
ATOM     36  C   UNL     1       3.455  10.807  -3.845  1.00  0.00     0.029 A 
ATOM     37  C   UNL     1       4.377  11.887  -3.506  1.00  0.00     0.049 A 
ATOM     38  H   UNL     1       6.425  11.742  -3.157  1.00  0.00     0.167 HD
ATOM     39  C   UNL     1      10.667  11.296  -2.255  1.00  0.00     0.037 A 
ATOM     40  C   UNL     1       4.041  13.183  -3.366  1.00  0.00     0.037 A 
ATOM     41  C   UNL     1      10.418  12.710  -2.161  1.00  0.00     0.049 A 
ATOM     42  C   UNL     1       5.101  14.192  -3.022  1.00  0.00     0.074 A 
ATOM     43  C   UNL     1      11.317  13.729  -1.900  1.00  0.00     0.029 A 
ATOM     44  N   UNL     1       9.177  13.305  -2.329  1.00  0.00    -0.354 N 
ATOM     45  N   UNL     1       6.380  14.005  -2.808  1.00  0.00    -0.248 NA
ATOM     46  C   UNL     1       4.670  15.592  -2.905  1.00  0.00     0.031 C 
ATOM     47  C   UNL     1      10.615  14.940  -1.880  1.00  0.00     0.029 A 
ATOM     48  C   UNL     1       9.285  14.677  -2.165  1.00  0.00     0.049 A 
ATOM     49  H   UNL     1       8.343  12.825  -2.535  1.00  0.00     0.167 HD
ATOM     50  C   UNL     1       6.912  15.264  -2.561  1.00  0.00     0.074 A 
ATOM     51  C   UNL     1       5.818  16.208  -2.659  1.00  0.00     0.031 C 
ATOM     52  C   UNL     1       8.192  15.606  -2.277  1.00  0.00     0.037 A 
BRANCH  39  53
ATOM     53  C   UNL     1      12.059  10.802  -1.988  1.00  0.00     0.057 A 
ATOM     54  C   UNL     1      12.888  10.341  -3.018  1.00  0.00     0.134 A 
ATOM     55  C   UNL     1      12.587  10.819  -0.691  1.00  0.00     0.134 A 
ATOM     56  F   UNL     1      12.437  10.288  -4.281  1.00  0.00    -0.206 F 
ATOM     57  C   UNL     1      14.184   9.889  -2.765  1.00  0.00     0.040 A 
ATOM     58  C   UNL     1      13.890  10.393  -0.429  1.00  0.00     0.040 A 
ATOM     59  F   UNL     1      11.848  11.255   0.341  1.00  0.00    -0.206 F 
ATOM     60  C   UNL     1      14.690   9.920  -1.467  1.00  0.00     0.006 A 
ENDBRANCH  39  53
BRANCH  40  61
ATOM     61  C   UNL     1       2.636  13.611  -3.578  1.00  0.00     0.057 A 
ATOM     62  C   UNL     1       2.271  14.342  -4.714  1.00  0.00     0.134 A 
ATOM     63  C   UNL     1       1.632  13.309  -2.651  1.00  0.00     0.134 A 
ATOM     64  F   UNL     1       3.195  14.678  -5.626  1.00  0.00    -0.206 F 
ATOM     65  C   UNL     1       0.959  14.773  -4.914  1.00  0.00     0.040 A 
ATOM     66  C   UNL     1       0.311  13.716  -2.849  1.00  0.00     0.040 A 
ATOM     67  F   UNL     1       1.919  12.607  -1.545  1.00  0.00    -0.206 F 
ATOM     68  C   UNL     1      -0.027  14.456  -3.981  1.00  0.00     0.006 A 
ENDBRANCH  40  61
BRANCH  52  69
ATOM     69  C   UNL     1       8.487  17.064  -2.092  1.00  0.00     0.057 A 
ATOM     70  C   UNL     1       8.106  17.753  -0.934  1.00  0.00     0.134 A 
ATOM     71  C   UNL     1       9.192  17.778  -3.069  1.00  0.00     0.134 A 
ATOM     72  F   UNL     1       7.416  17.129   0.033  1.00  0.00    -0.206 F 
ATOM     73  C   UNL     1       8.401  19.107  -0.762  1.00  0.00     0.040 A 
ATOM     74  C   UNL     1       9.512  19.126  -2.899  1.00  0.00     0.040 A 
ATOM     75  F   UNL     1       9.591  17.174  -4.198  1.00  0.00    -0.206 F 
ATOM     76  C   UNL     1       9.111  19.795  -1.744  1.00  0.00     0.006 A 
ENDBRANCH  52  69
ENDBRANCH  26  27
ENDBRANCH  18  21
ENDBRANCH  16  17
ENDBRANCH   1  16
TORSDOF 12
