REMARK SMILES O=C(NCCCNC(=O)c1cccnc1C(=O)Nc1ccc([N+](=O)[O-])cc1)c1ccc(-c2c3nc(c(-c4c(F)cccc4F)c4ccc([nH]4)c(-c4c(F)cccc4F)c4nc(c(-c5c(F)cccc5F)c5ccc2[nH]5)C=C4)C=C3)cc1
REMARK SMILES IDX 5 1 4 2 3 3 1 4 2 5 28 7 29 8 81 9 30 10 80 11 31 12 32 13
REMARK SMILES IDX 33 14 74 15 34 16 79 17 73 18 75 19 35 20 78 21 72 22 71 23
REMARK SMILES IDX 36 25 62 26 45 27 61 28 46 29 49 30 60 31 76 32 47 33 48 34
REMARK SMILES IDX 59 36 77 37 50 38 37 39 38 40 43 41 39 42 40 43 42 44 44 45
REMARK SMILES IDX 41 46 63 47 64 48 69 49 65 50 66 51 68 52 70 53 67 54 51 55
REMARK SMILES IDX 52 56 57 57 53 58 54 59 56 60 58 61 55 62 6 63 7 64 8 65
REMARK SMILES IDX 9 67 10 68 11 69 15 70 12 71 14 72 13 73 16 74 17 75 18 76
REMARK SMILES IDX 19 78 20 79 27 80 21 81 26 82 22 83 23 84 24 85 25 86
REMARK H PARENT 3 6 75 24 49 35 7 66 18 77
REMARK Flexibility Score: inf
ROOT
ATOM      1  C   UNL     1       4.812  -0.395   3.023  1.00  0.00     0.042 C 
ENDROOT
BRANCH   1   2
ATOM      2  C   UNL     1       4.386  -0.050   1.591  1.00  0.00     0.118 C 
BRANCH   2   3
ATOM      3  N   UNL     1       3.045  -0.413   1.181  1.00  0.00    -0.352 N 
ATOM      4  O   UNL     1       1.135  -0.169  -0.018  1.00  0.00    -0.269 OA
ATOM      5  C   UNL     1       2.308   0.144   0.160  1.00  0.00     0.251 C 
ATOM      6  H   UNL     1       2.613  -1.138   1.688  1.00  0.00     0.163 HD
BRANCH   5   7
ATOM      7  C   UNL     1       2.937   1.151  -0.720  1.00  0.00     0.039 A 
ATOM      8  C   UNL     1       4.091   0.841  -1.446  1.00  0.00     0.014 A 
ATOM      9  C   UNL     1       2.351   2.414  -0.830  1.00  0.00     0.014 A 
ATOM     10  C   UNL     1       4.713   1.825  -2.217  1.00  0.00     0.010 A 
ATOM     11  C   UNL     1       2.956   3.387  -1.628  1.00  0.00     0.010 A 
ATOM     12  C   UNL     1       4.155   3.109  -2.307  1.00  0.00    -0.014 A 
BRANCH  12  13
ATOM     13  C   UNL     1       4.807   4.173  -3.111  1.00  0.00     0.031 A 
ATOM     14  C   UNL     1       5.419   5.366  -2.432  1.00  0.00     0.074 A 
ATOM     15  C   UNL     1       4.800   4.098  -4.455  1.00  0.00     0.049 A 
ATOM     16  N   UNL     1       5.913   6.458  -2.959  1.00  0.00    -0.248 NA
ATOM     17  C   UNL     1       5.471   5.328  -0.963  1.00  0.00     0.031 C 
ATOM     18  C   UNL     1       4.244   2.993  -5.233  1.00  0.00     0.029 A 
ATOM     19  N   UNL     1       5.250   4.985  -5.401  1.00  0.00    -0.354 N 
ATOM     20  C   UNL     1       6.312   7.248  -1.889  1.00  0.00     0.074 A 
ATOM     21  C   UNL     1       5.985   6.517  -0.682  1.00  0.00     0.031 C 
ATOM     22  C   UNL     1       4.372   3.272  -6.540  1.00  0.00     0.029 A 
ATOM     23  C   UNL     1       4.972   4.596  -6.688  1.00  0.00     0.049 A 
ATOM     24  H   UNL     1       5.725   5.818  -5.179  1.00  0.00     0.167 HD
ATOM     25  C   UNL     1       6.897   8.470  -1.911  1.00  0.00     0.037 A 
ATOM     26  C   UNL     1       5.143   5.245  -7.855  1.00  0.00     0.037 A 
ATOM     27  C   UNL     1       7.224   9.192  -3.114  1.00  0.00     0.049 A 
ATOM     28  C   UNL     1       5.753   6.618  -7.858  1.00  0.00     0.074 A 
ATOM     29  C   UNL     1       7.854  10.418  -3.240  1.00  0.00     0.029 A 
ATOM     30  N   UNL     1       6.934   8.758  -4.399  1.00  0.00    -0.354 N 
ATOM     31  N   UNL     1       6.157   7.342  -6.843  1.00  0.00    -0.248 NA
ATOM     32  C   UNL     1       5.931   7.264  -9.166  1.00  0.00     0.031 C 
ATOM     33  C   UNL     1       7.902  10.748  -4.599  1.00  0.00     0.029 A 
ATOM     34  C   UNL     1       7.350   9.704  -5.323  1.00  0.00     0.049 A 
ATOM     35  H   UNL     1       6.498   7.904  -4.622  1.00  0.00     0.167 HD
ATOM     36  C   UNL     1       6.663   8.515  -7.388  1.00  0.00     0.074 A 
ATOM     37  C   UNL     1       6.514   8.406  -8.825  1.00  0.00     0.031 C 
ATOM     38  C   UNL     1       7.207   9.581  -6.752  1.00  0.00     0.037 A 
BRANCH  25  39
ATOM     39  C   UNL     1       7.190   9.119  -0.589  1.00  0.00     0.057 A 
ATOM     40  C   UNL     1       8.198   8.650   0.264  1.00  0.00     0.134 A 
ATOM     41  C   UNL     1       6.463  10.241  -0.170  1.00  0.00     0.134 A 
ATOM     42  F   UNL     1       8.925   7.572  -0.071  1.00  0.00    -0.206 F 
ATOM     43  C   UNL     1       8.451   9.253   1.497  1.00  0.00     0.040 A 
ATOM     44  C   UNL     1       6.724  10.869   1.049  1.00  0.00     0.040 A 
ATOM     45  F   UNL     1       5.489  10.748  -0.941  1.00  0.00    -0.206 F 
ATOM     46  C   UNL     1       7.715  10.369   1.891  1.00  0.00     0.006 A 
ENDBRANCH  25  39
BRANCH  26  47
ATOM     47  C   UNL     1       4.712   4.594  -9.116  1.00  0.00     0.057 A 
ATOM     48  C   UNL     1       5.646   4.087 -10.024  1.00  0.00     0.134 A 
ATOM     49  C   UNL     1       3.355   4.423  -9.418  1.00  0.00     0.134 A 
ATOM     50  F   UNL     1       6.959   4.237  -9.796  1.00  0.00    -0.206 F 
ATOM     51  C   UNL     1       5.248   3.432 -11.190  1.00  0.00     0.040 A 
ATOM     52  C   UNL     1       2.943   3.750 -10.568  1.00  0.00     0.040 A 
ATOM     53  F   UNL     1       2.412   4.883  -8.582  1.00  0.00    -0.206 F 
ATOM     54  C   UNL     1       3.892   3.253 -11.459  1.00  0.00     0.006 A 
ENDBRANCH  26  47
BRANCH  38  55
ATOM     55  C   UNL     1       7.731  10.702  -7.601  1.00  0.00     0.057 A 
ATOM     56  C   UNL     1       6.878  11.615  -8.233  1.00  0.00     0.134 A 
ATOM     57  C   UNL     1       9.111  10.908  -7.728  1.00  0.00     0.134 A 
ATOM     58  F   UNL     1       5.547  11.465  -8.160  1.00  0.00    -0.206 F 
ATOM     59  C   UNL     1       7.381  12.690  -8.969  1.00  0.00     0.040 A 
ATOM     60  C   UNL     1       9.624  11.991  -8.443  1.00  0.00     0.040 A 
ATOM     61  F   UNL     1       9.981  10.073  -7.141  1.00  0.00    -0.206 F 
ATOM     62  C   UNL     1       8.758  12.885  -9.067  1.00  0.00     0.006 A 
ENDBRANCH  38  55
ENDBRANCH  12  13
ENDBRANCH   5   7
ENDBRANCH   2   3
ENDBRANCH   1   2
BRANCH   1  63
ATOM     63  C   UNL     1       3.997  -1.392   3.841  1.00  0.00     0.118 C 
BRANCH  63  64
ATOM     64  N   UNL     1       4.220  -2.806   3.548  1.00  0.00    -0.352 N 
ATOM     65  C   UNL     1       5.008  -3.754   4.184  1.00  0.00     0.253 C 
ATOM     66  H   UNL     1       3.728  -3.144   2.766  1.00  0.00     0.163 HD
ATOM     67  O   UNL     1       4.872  -4.945   3.930  1.00  0.00    -0.269 OA
BRANCH  65  68
ATOM     68  C   UNL     1       5.923  -3.360   5.259  1.00  0.00     0.071 A 
ATOM     69  C   UNL     1       5.250  -2.916   6.422  1.00  0.00     0.018 A 
ATOM     70  C   UNL     1       7.313  -3.487   5.302  1.00  0.00     0.141 A 
ATOM     71  C   UNL     1       5.947  -2.519   7.551  1.00  0.00     0.021 A 
ATOM     72  N   UNL     1       7.986  -3.029   6.415  1.00  0.00    -0.250 NA
ATOM     73  C   UNL     1       7.316  -2.577   7.493  1.00  0.00     0.112 A 
BRANCH  70  74
ATOM     74  C   UNL     1       8.316  -4.221   4.405  1.00  0.00     0.275 C 
ATOM     75  O   UNL     1       9.479  -4.346   4.819  1.00  0.00    -0.267 OA
ATOM     76  N   UNL     1       8.068  -4.940   3.262  1.00  0.00    -0.321 N 
ATOM     77  H   UNL     1       8.635  -5.740   3.176  1.00  0.00     0.170 HD
BRANCH  76  78
ATOM     78  C   UNL     1       7.188  -4.779   2.204  1.00  0.00     0.042 A 
ATOM     79  C   UNL     1       6.689  -5.946   1.605  1.00  0.00     0.033 A 
ATOM     80  C   UNL     1       6.790  -3.524   1.755  1.00  0.00     0.033 A 
ATOM     81  C   UNL     1       5.598  -5.870   0.743  1.00  0.00     0.088 A 
ATOM     82  C   UNL     1       5.738  -3.443   0.847  1.00  0.00     0.088 A 
ATOM     83  C   UNL     1       5.091  -4.611   0.434  1.00  0.00     0.269 A 
BRANCH  83  84
ATOM     84  N   UNL     1       3.765  -4.498  -0.157  1.00  0.00     0.062 N 
ATOM     85  O   UNL     1       3.456  -5.304  -1.042  1.00  0.00    -0.258 OA
ATOM     86  O   UNL     1       3.029  -3.610   0.304  1.00  0.00    -0.258 OA
ENDBRANCH  83  84
ENDBRANCH  76  78
ENDBRANCH  70  74
ENDBRANCH  65  68
ENDBRANCH  63  64
ENDBRANCH   1  63
TORSDOF 13
