REMARK SMILES O=C(NCCCNC(=O)c1oc2cccc3c2c1CCC3)c1ccc(-c2c3nc(c(-c4c(F)cccc4F)c4ccc([nH]4)c(-c4c(F)cccc4F)c4nc(c(-c5c(F)cccc5F)c5ccc2[nH]5)C=C4)C=C3)cc1
REMARK SMILES IDX 4 1 3 2 1 3 2 4 22 6 23 7 75 8 24 9 74 10 25 11 26 12 27 13
REMARK SMILES IDX 68 14 28 15 73 16 67 17 69 18 29 19 72 20 66 21 65 22 30 24
REMARK SMILES IDX 56 25 39 26 55 27 40 28 43 29 54 30 70 31 41 32 42 33 53 35
REMARK SMILES IDX 71 36 44 37 31 38 32 39 37 40 33 41 34 42 36 43 38 44 35 45
REMARK SMILES IDX 57 46 58 47 63 48 59 49 60 50 62 51 64 52 61 53 45 54 46 55
REMARK SMILES IDX 51 56 47 57 48 58 50 59 52 60 49 61 5 62 6 63 7 64 8 65 9 67
REMARK SMILES IDX 10 68 11 69 18 70 12 71 17 72 19 73 13 74 16 75 20 76 14 77
REMARK SMILES IDX 15 78 21 79
REMARK H PARENT 3 5 69 23 43 34 7 66
REMARK Flexibility Score: inf
ROOT
ATOM      1  C   UNL     1       4.616  -0.085   1.021  1.00  0.00     0.118 C 
ENDROOT
BRANCH   1   2
ATOM      2  N   UNL     1       3.179  -0.212   0.871  1.00  0.00    -0.352 N 
ATOM      3  O   UNL     1       1.149  -0.279   0.001  1.00  0.00    -0.269 OA
ATOM      4  C   UNL     1       2.257   0.264  -0.024  1.00  0.00     0.251 C 
ATOM      5  H   UNL     1       2.772  -0.768   1.574  1.00  0.00     0.163 HD
BRANCH   4   6
ATOM      6  C   UNL     1       2.455   1.428  -0.933  1.00  0.00     0.039 A 
ATOM      7  C   UNL     1       3.678   2.007  -1.264  1.00  0.00     0.014 A 
ATOM      8  C   UNL     1       1.280   2.002  -1.463  1.00  0.00     0.014 A 
ATOM      9  C   UNL     1       3.714   3.188  -2.006  1.00  0.00     0.010 A 
ATOM     10  C   UNL     1       1.310   3.173  -2.218  1.00  0.00     0.010 A 
ATOM     11  C   UNL     1       2.529   3.790  -2.461  1.00  0.00    -0.014 A 
BRANCH  11  12
ATOM     12  C   UNL     1       2.649   4.914  -3.390  1.00  0.00     0.031 A 
ATOM     13  C   UNL     1       3.256   4.519  -4.690  1.00  0.00     0.074 A 
ATOM     14  C   UNL     1       2.219   6.179  -3.199  1.00  0.00     0.049 A 
ATOM     15  N   UNL     1       4.449   4.787  -5.104  1.00  0.00    -0.248 NA
ATOM     16  C   UNL     1       2.514   3.594  -5.559  1.00  0.00     0.031 C 
ATOM     17  C   UNL     1       1.357   6.703  -2.140  1.00  0.00     0.029 A 
ATOM     18  N   UNL     1       2.439   7.282  -3.982  1.00  0.00    -0.354 N 
ATOM     19  C   UNL     1       4.552   4.230  -6.376  1.00  0.00     0.074 A 
ATOM     20  C   UNL     1       3.401   3.380  -6.534  1.00  0.00     0.031 C 
ATOM     21  C   UNL     1       0.970   7.964  -2.456  1.00  0.00     0.029 A 
ATOM     22  C   UNL     1       1.664   8.393  -3.661  1.00  0.00     0.049 A 
ATOM     23  H   UNL     1       3.096   7.287  -4.716  1.00  0.00     0.167 HD
ATOM     24  C   UNL     1       5.464   4.704  -7.269  1.00  0.00     0.037 A 
ATOM     25  C   UNL     1       1.587   9.567  -4.347  1.00  0.00     0.037 A 
ATOM     26  C   UNL     1       6.478   5.485  -6.601  1.00  0.00     0.049 A 
ATOM     27  C   UNL     1       2.797   9.674  -5.196  1.00  0.00     0.074 A 
ATOM     28  C   UNL     1       7.415   5.247  -5.615  1.00  0.00     0.029 A 
ATOM     29  N   UNL     1       6.382   6.851  -6.698  1.00  0.00    -0.354 N 
ATOM     30  N   UNL     1       3.992   9.897  -4.733  1.00  0.00    -0.248 NA
ATOM     31  C   UNL     1       2.737   9.114  -6.536  1.00  0.00     0.031 C 
ATOM     32  C   UNL     1       7.463   6.452  -4.851  1.00  0.00     0.029 A 
ATOM     33  C   UNL     1       6.606   7.372  -5.454  1.00  0.00     0.049 A 
ATOM     34  H   UNL     1       6.188   7.363  -7.516  1.00  0.00     0.167 HD
ATOM     35  C   UNL     1       4.812   9.084  -5.497  1.00  0.00     0.074 A 
ATOM     36  C   UNL     1       4.003   8.705  -6.653  1.00  0.00     0.031 C 
ATOM     37  C   UNL     1       5.963   8.569  -4.973  1.00  0.00     0.037 A 
BRANCH  24  38
ATOM     38  C   UNL     1       5.214   4.851  -8.757  1.00  0.00     0.057 A 
ATOM     39  C   UNL     1       3.941   4.827  -9.360  1.00  0.00     0.134 A 
ATOM     40  C   UNL     1       6.241   5.386  -9.560  1.00  0.00     0.134 A 
ATOM     41  F   UNL     1       2.852   4.366  -8.737  1.00  0.00    -0.206 F 
ATOM     42  C   UNL     1       3.692   5.377 -10.621  1.00  0.00     0.040 A 
ATOM     43  C   UNL     1       5.992   5.984 -10.801  1.00  0.00     0.040 A 
ATOM     44  F   UNL     1       7.506   5.446  -9.115  1.00  0.00    -0.206 F 
ATOM     45  C   UNL     1       4.708   5.999 -11.326  1.00  0.00     0.006 A 
ENDBRANCH  24  38
BRANCH  25  46
ATOM     46  C   UNL     1       0.463  10.520  -4.519  1.00  0.00     0.057 A 
ATOM     47  C   UNL     1      -0.869  10.081  -4.492  1.00  0.00     0.134 A 
ATOM     48  C   UNL     1       0.670  11.817  -5.024  1.00  0.00     0.134 A 
ATOM     49  F   UNL     1      -1.175   8.837  -4.096  1.00  0.00    -0.206 F 
ATOM     50  C   UNL     1      -1.928  10.866  -4.965  1.00  0.00     0.040 A 
ATOM     51  C   UNL     1      -0.381  12.612  -5.505  1.00  0.00     0.040 A 
ATOM     52  F   UNL     1       1.909  12.319  -5.132  1.00  0.00    -0.206 F 
ATOM     53  C   UNL     1      -1.685  12.130  -5.489  1.00  0.00     0.006 A 
ENDBRANCH  25  46
BRANCH  37  54
ATOM     54  C   UNL     1       6.473   9.154  -3.687  1.00  0.00     0.057 A 
ATOM     55  C   UNL     1       7.782   9.650  -3.661  1.00  0.00     0.134 A 
ATOM     56  C   UNL     1       5.772   9.145  -2.471  1.00  0.00     0.134 A 
ATOM     57  F   UNL     1       8.531   9.641  -4.775  1.00  0.00    -0.206 F 
ATOM     58  C   UNL     1       8.366  10.130  -2.489  1.00  0.00     0.040 A 
ATOM     59  C   UNL     1       6.333   9.660  -1.298  1.00  0.00     0.040 A 
ATOM     60  F   UNL     1       4.553   8.600  -2.372  1.00  0.00    -0.206 F 
ATOM     61  C   UNL     1       7.636  10.150  -1.304  1.00  0.00     0.006 A 
ENDBRANCH  37  54
ENDBRANCH  11  12
ENDBRANCH   4   6
ENDBRANCH   1   2
BRANCH   1  62
ATOM     62  C   UNL     1       5.095   1.169   1.744  1.00  0.00     0.042 C 
BRANCH  62  63
ATOM     63  C   UNL     1       4.643   1.300   3.193  1.00  0.00     0.118 C 
BRANCH  63  64
ATOM     64  N   UNL     1       5.228   0.316   4.085  1.00  0.00    -0.349 N 
ATOM     65  C   UNL     1       5.890   0.512   5.277  1.00  0.00     0.287 C 
ATOM     66  H   UNL     1       5.140  -0.622   3.799  1.00  0.00     0.163 HD
ATOM     67  O   UNL     1       6.429  -0.481   5.785  1.00  0.00    -0.266 OA
BRANCH  65  68
ATOM     68  C   UNL     1       5.944   1.832   5.862  1.00  0.00     0.195 A 
ATOM     69  O   UNL     1       7.166   2.266   6.358  1.00  0.00    -0.451 OA
ATOM     70  C   UNL     1       4.997   2.826   6.064  1.00  0.00     0.012 A 
ATOM     71  C   UNL     1       7.004   3.550   6.795  1.00  0.00     0.135 A 
ATOM     72  C   UNL     1       5.695   3.916   6.614  1.00  0.00     0.028 A 
ATOM     73  C   UNL     1       3.533   2.969   5.816  1.00  0.00     0.041 C 
ATOM     74  C   UNL     1       7.949   4.412   7.334  1.00  0.00     0.048 A 
ATOM     75  C   UNL     1       5.208   5.177   6.953  1.00  0.00    -0.037 A 
ATOM     76  C   UNL     1       2.935   4.116   6.685  1.00  0.00     0.010 C 
ATOM     77  C   UNL     1       7.480   5.702   7.659  1.00  0.00     0.004 A 
ATOM     78  C   UNL     1       6.138   6.085   7.465  1.00  0.00     0.004 A 
ATOM     79  C   UNL     1       3.756   5.443   6.660  1.00  0.00     0.036 C 
ENDBRANCH  65  68
ENDBRANCH  63  64
ENDBRANCH  62  63
ENDBRANCH   1  62
TORSDOF 10
