REMARK SMILES O=C(COc1ccccc1/C=C1/SC(=O)N(c2ccc(F)cc2)C1=O)NCCCNC(=O)c1ccc(-c2c3nc(c(-c4c(F)cccc4F)c4ccc([nH]4)c(-c4c(F)cccc4F)c4nc(c(-c5c(F)cccc5F)c5ccc2[nH]5)C=C4)C=C3)cc1
REMARK SMILES IDX 27 1 26 2 1 3 2 4 3 6 4 7 5 8 6 9 10 10 7 11 9 12 8 13 11 14
REMARK SMILES IDX 12 15 13 16 24 17 14 18 16 19 25 20 15 21 17 22 18 23 23 24
REMARK SMILES IDX 19 25 22 26 20 27 21 28 28 29 29 30 30 31 31 32 32 34 33 35
REMARK SMILES IDX 34 36 86 37 35 38 85 39 36 40 37 41 38 42 79 43 39 44 84 45
REMARK SMILES IDX 78 46 80 47 40 48 83 49 77 50 76 51 41 53 67 54 50 55 66 56
REMARK SMILES IDX 51 57 54 58 65 59 81 60 52 61 53 62 64 64 82 65 55 66 42 67
REMARK SMILES IDX 43 68 48 69 44 70 45 71 47 72 49 73 46 74 68 75 69 76 74 77
REMARK SMILES IDX 70 78 71 79 73 80 75 81 72 82 56 83 57 84 62 85 58 86 59 87
REMARK SMILES IDX 61 88 63 89 60 90
REMARK H PARENT 26 5 30 33 80 52 54 63
REMARK Flexibility Score: inf
ROOT
ATOM      1  C   UNL     1       2.531   1.805   1.982  1.00  0.00     0.117 C 
ENDROOT
BRANCH   1   2
ATOM      2  N   UNL     1       3.038   0.540   0.383  1.00  0.00    -0.353 N 
ATOM      3  O   UNL     1       2.081  -1.665  -0.244  1.00  0.00    -0.271 OA
ATOM      4  C   UNL     1       2.779  -0.679  -0.461  1.00  0.00     0.257 C 
ATOM      5  H   UNL     1       3.845   0.945  -0.009  1.00  0.00     0.163 HD
BRANCH   4   6
ATOM      6  C   UNL     1       3.510  -0.599  -1.791  1.00  0.00     0.329 C 
BRANCH   6   7
ATOM      7  O   UNL     1       3.889   0.734  -2.062  1.00  0.00    -0.483 OA
BRANCH   7   8
ATOM      8  C   UNL     1       2.991   1.470  -2.803  1.00  0.00     0.127 A 
ATOM      9  C   UNL     1       3.569   1.942  -3.986  1.00  0.00     0.047 A 
ATOM     10  C   UNL     1       1.735   1.964  -2.352  1.00  0.00     0.018 A 
ATOM     11  C   UNL     1       2.958   2.959  -4.705  1.00  0.00     0.004 A 
ATOM     12  C   UNL     1       1.161   3.017  -3.076  1.00  0.00     0.012 A 
ATOM     13  C   UNL     1       1.777   3.521  -4.229  1.00  0.00     0.001 A 
BRANCH  10  14
ATOM     14  C   UNL     1       1.004   1.513  -1.141  1.00  0.00     0.033 C 
ATOM     15  C   UNL     1       1.521   1.721   0.089  1.00  0.00     0.084 C 
ATOM     16  S   UNL     1       1.312   0.019   1.591  1.00  0.00    -0.022 SA
ATOM     17  C   UNL     1       3.311   2.503   0.166  1.00  0.00     0.272 C 
ATOM     18  C   UNL     1       3.618   0.070   2.076  1.00  0.00     0.298 C 
ATOM     19  N   UNL     1       4.364   1.516   1.261  1.00  0.00    -0.236 N 
ATOM     20  O   UNL     1       3.593   3.558  -0.386  1.00  0.00    -0.268 OA
ATOM     21  O   UNL     1       4.131  -0.864   2.680  1.00  0.00    -0.260 OA
BRANCH  19  22
ATOM     22  C   UNL     1       5.743   1.894   1.396  1.00  0.00     0.053 A 
ATOM     23  C   UNL     1       6.175   3.161   0.955  1.00  0.00     0.030 A 
ATOM     24  C   UNL     1       6.691   1.047   1.972  1.00  0.00     0.030 A 
ATOM     25  C   UNL     1       7.503   3.577   1.081  1.00  0.00     0.041 A 
ATOM     26  C   UNL     1       8.028   1.461   2.094  1.00  0.00     0.041 A 
ATOM     27  C   UNL     1       8.421   2.720   1.651  1.00  0.00     0.123 A 
ATOM     28  F   UNL     1       9.697   3.106   1.774  1.00  0.00    -0.207 F 
ENDBRANCH  19  22
ENDBRANCH  10  14
ENDBRANCH   7   8
ENDBRANCH   6   7
ENDBRANCH   4   6
ENDBRANCH   1   2
BRANCH   1  29
ATOM     29  C   UNL     1       2.471   1.497   3.681  1.00  0.00     0.042 C 
BRANCH  29  30
ATOM     30  C   UNL     1       3.734   1.530   4.537  1.00  0.00     0.118 C 
BRANCH  30  31
ATOM     31  N   UNL     1       4.573   2.690   4.345  1.00  0.00    -0.352 N 
ATOM     32  C   UNL     1       5.572   3.116   5.185  1.00  0.00     0.251 C 
ATOM     33  H   UNL     1       4.414   3.225   3.534  1.00  0.00     0.163 HD
ATOM     34  O   UNL     1       6.130   4.190   5.002  1.00  0.00    -0.269 OA
BRANCH  32  35
ATOM     35  C   UNL     1       5.928   2.272   6.341  1.00  0.00     0.039 A 
ATOM     36  C   UNL     1       5.860   2.829   7.617  1.00  0.00     0.014 A 
ATOM     37  C   UNL     1       6.292   0.934   6.158  1.00  0.00     0.014 A 
ATOM     38  C   UNL     1       6.152   2.032   8.720  1.00  0.00     0.010 A 
ATOM     39  C   UNL     1       6.501   0.120   7.264  1.00  0.00     0.010 A 
ATOM     40  C   UNL     1       6.462   0.670   8.551  1.00  0.00    -0.014 A 
BRANCH  40  41
ATOM     41  C   UNL     1       6.776  -0.162   9.733  1.00  0.00     0.031 A 
ATOM     42  C   UNL     1       8.166  -0.697   9.926  1.00  0.00     0.074 A 
ATOM     43  C   UNL     1       5.803  -0.404  10.631  1.00  0.00     0.049 A 
ATOM     44  N   UNL     1       8.668  -1.341  10.947  1.00  0.00    -0.248 NA
ATOM     45  C   UNL     1       9.114  -0.503   8.816  1.00  0.00     0.031 C 
ATOM     46  C   UNL     1       4.406   0.015  10.490  1.00  0.00     0.029 A 
ATOM     47  N   UNL     1       5.839  -1.035  11.845  1.00  0.00    -0.354 N 
ATOM     48  C   UNL     1       9.984  -1.625  10.603  1.00  0.00     0.074 A 
ATOM     49  C   UNL     1      10.183  -1.151   9.253  1.00  0.00     0.031 C 
ATOM     50  C   UNL     1       3.733  -0.315  11.603  1.00  0.00     0.029 A 
ATOM     51  C   UNL     1       4.642  -0.992  12.520  1.00  0.00     0.049 A 
ATOM     52  H   UNL     1       6.644  -1.476  12.201  1.00  0.00     0.167 HD
ATOM     53  C   UNL     1      10.946  -2.201  11.362  1.00  0.00     0.037 A 
ATOM     54  C   UNL     1       4.329  -1.435  13.751  1.00  0.00     0.037 A 
ATOM     55  C   UNL     1      10.721  -2.659  12.707  1.00  0.00     0.049 A 
ATOM     56  C   UNL     1       5.420  -2.051  14.581  1.00  0.00     0.074 A 
ATOM     57  C   UNL     1      11.619  -3.225  13.593  1.00  0.00     0.029 A 
ATOM     58  N   UNL     1       9.495  -2.604  13.359  1.00  0.00    -0.354 N 
ATOM     59  N   UNL     1       6.683  -2.244  14.277  1.00  0.00    -0.248 NA
ATOM     60  C   UNL     1       5.050  -2.494  15.929  1.00  0.00     0.031 C 
ATOM     61  C   UNL     1      10.924  -3.561  14.760  1.00  0.00     0.029 A 
ATOM     62  C   UNL     1       9.608  -3.145  14.628  1.00  0.00     0.049 A 
ATOM     63  H   UNL     1       8.667  -2.235  12.975  1.00  0.00     0.167 HD
ATOM     64  C   UNL     1       7.264  -2.809  15.403  1.00  0.00     0.074 A 
ATOM     65  C   UNL     1       6.219  -2.897  16.405  1.00  0.00     0.031 C 
ATOM     66  C   UNL     1       8.542  -3.224  15.596  1.00  0.00     0.037 A 
BRANCH  53  67
ATOM     67  C   UNL     1      12.310  -2.365  10.749  1.00  0.00     0.057 A 
ATOM     68  C   UNL     1      13.122  -1.265  10.435  1.00  0.00     0.134 A 
ATOM     69  C   UNL     1      12.824  -3.638  10.472  1.00  0.00     0.134 A 
ATOM     70  F   UNL     1      12.689  -0.014  10.659  1.00  0.00    -0.206 F 
ATOM     71  C   UNL     1      14.376  -1.423   9.840  1.00  0.00     0.040 A 
ATOM     72  C   UNL     1      14.090  -3.810   9.906  1.00  0.00     0.040 A 
ATOM     73  F   UNL     1      12.107  -4.738  10.745  1.00  0.00    -0.206 F 
ATOM     74  C   UNL     1      14.866  -2.700   9.580  1.00  0.00     0.006 A 
ENDBRANCH  53  67
BRANCH  54  75
ATOM     75  C   UNL     1       2.950  -1.266  14.279  1.00  0.00     0.057 A 
ATOM     76  C   UNL     1       2.677  -0.405  15.350  1.00  0.00     0.134 A 
ATOM     77  C   UNL     1       1.866  -1.955  13.721  1.00  0.00     0.134 A 
ATOM     78  F   UNL     1       3.671   0.279  15.935  1.00  0.00    -0.206 F 
ATOM     79  C   UNL     1       1.387  -0.256  15.862  1.00  0.00     0.040 A 
ATOM     80  C   UNL     1       0.565  -1.793  14.203  1.00  0.00     0.040 A 
ATOM     81  F   UNL     1       2.052  -2.784  12.683  1.00  0.00    -0.206 F 
ATOM     82  C   UNL     1       0.325  -0.948  15.284  1.00  0.00     0.006 A 
ENDBRANCH  54  75
BRANCH  66  83
ATOM     83  C   UNL     1       8.867  -3.781  16.952  1.00  0.00     0.057 A 
ATOM     84  C   UNL     1       8.348  -5.005  17.396  1.00  0.00     0.134 A 
ATOM     85  C   UNL     1       9.712  -3.082  17.823  1.00  0.00     0.134 A 
ATOM     86  F   UNL     1       7.525  -5.719  16.613  1.00  0.00    -0.206 F 
ATOM     87  C   UNL     1       8.620  -5.489  18.676  1.00  0.00     0.040 A 
ATOM     88  C   UNL     1      10.021  -3.574  19.090  1.00  0.00     0.040 A 
ATOM     89  F   UNL     1      10.255  -1.912  17.454  1.00  0.00    -0.206 F 
ATOM     90  C   UNL     1       9.462  -4.774  19.525  1.00  0.00     0.006 A 
ENDBRANCH  66  83
ENDBRANCH  40  41
ENDBRANCH  32  35
ENDBRANCH  30  31
ENDBRANCH  29  30
ENDBRANCH   1  29
TORSDOF 14
