REMARK SMILES CC[C@@](C)(NC(=O)c1cccc(Br)c1C)C(=O)NCCCNC(=O)c1ccc(-c2c3nc(c(-c4c(F)cccc4F)c4ccc([nH]4)c(-c4c(F)cccc4F)c4nc(c(-c5c(F)cccc5F)c5ccc2[nH]5)C=C4)C=C3)cc1
REMARK SMILES IDX 20 1 19 2 18 3 16 4 17 5 3 7 4 8 2 9 1 10 5 11 6 12 7 14
REMARK SMILES IDX 8 15 9 16 14 17 10 18 12 19 15 20 11 21 13 22 21 23 22 24
REMARK SMILES IDX 23 25 24 27 25 28 26 29 78 30 27 31 77 32 28 33 29 34 30 35
REMARK SMILES IDX 71 36 31 37 76 38 70 39 72 40 32 41 75 42 69 43 68 44 33 46
REMARK SMILES IDX 59 47 42 48 58 49 43 50 46 51 57 52 73 53 44 54 45 55 56 57
REMARK SMILES IDX 74 58 47 59 34 60 35 61 40 62 36 63 37 64 39 65 41 66 38 67
REMARK SMILES IDX 60 68 61 69 66 70 62 71 63 72 65 73 67 74 64 75 48 76 49 77
REMARK SMILES IDX 54 78 50 79 51 80 53 81 55 82 52 83
REMARK H PARENT 18 6 5 13 22 26 72 45 46 56
REMARK Flexibility Score: inf
ROOT
ATOM      1  C   UNL     1       2.766   4.891   4.271  1.00  0.00     0.042 C 
ENDROOT
BRANCH   1   2
ATOM      2  C   UNL     1       2.495   4.278   2.859  1.00  0.00     0.117 C 
BRANCH   2   3
ATOM      3  N   UNL     1       3.043   2.962   2.510  1.00  0.00    -0.354 N 
ATOM      4  C   UNL     1       2.579   1.784   1.978  1.00  0.00     0.245 C 
ATOM      5  O   UNL     1       3.479   1.100   1.462  1.00  0.00    -0.272 OA
ATOM      6  H   UNL     1       4.005   2.910   2.711  1.00  0.00     0.163 HD
BRANCH   4   7
ATOM      7  C   UNL     1       1.102   1.194   2.022  1.00  0.00     0.116 C 
ATOM      8  C   UNL     1       0.089   2.235   1.509  1.00  0.00     0.045 C 
BRANCH   7   9
ATOM      9  C   UNL     1       1.004  -0.076   1.091  1.00  0.00     0.035 C 
ATOM     10  C   UNL     1       1.121   0.133  -0.417  1.00  0.00     0.007 C 
ENDBRANCH   7   9
BRANCH   7  11
ATOM     11  N   UNL     1       0.597   0.726   3.366  1.00  0.00    -0.338 N 
ATOM     12  C   UNL     1       1.022  -0.334   4.152  1.00  0.00     0.252 C 
ATOM     13  H   UNL     1      -0.145   1.253   3.740  1.00  0.00     0.164 HD
ATOM     14  O   UNL     1       0.184  -1.065   4.671  1.00  0.00    -0.269 OA
BRANCH  12  15
ATOM     15  C   UNL     1       2.461  -0.549   4.450  1.00  0.00     0.043 A 
ATOM     16  C   UNL     1       2.954  -1.841   4.666  1.00  0.00     0.014 A 
ATOM     17  C   UNL     1       3.294   0.534   4.737  1.00  0.00    -0.024 A 
ATOM     18  C   UNL     1       4.305  -2.037   4.962  1.00  0.00     0.002 A 
ATOM     19  C   UNL     1       4.677   0.321   4.725  1.00  0.00     0.021 A 
ATOM     20  C   UNL     1       2.642   1.730   5.371  1.00  0.00     0.046 C 
ATOM     21  C   UNL     1       5.181  -0.963   4.893  1.00  0.00     0.016 A 
ATOM     22  Br  UNL     1       5.960   1.642   4.292  1.00  0.00    -0.051 Br
ENDBRANCH  12  15
ENDBRANCH   7  11
ENDBRANCH   4   7
ENDBRANCH   2   3
ENDBRANCH   1   2
BRANCH   1  23
ATOM     23  C   UNL     1       4.073   4.640   5.046  1.00  0.00     0.118 C 
BRANCH  23  24
ATOM     24  N   UNL     1       5.132   5.614   4.899  1.00  0.00    -0.352 N 
ATOM     25  C   UNL     1       6.034   6.077   5.838  1.00  0.00     0.251 C 
ATOM     26  H   UNL     1       5.225   6.003   3.999  1.00  0.00     0.163 HD
ATOM     27  O   UNL     1       6.827   6.959   5.513  1.00  0.00    -0.269 OA
BRANCH  25  28
ATOM     28  C   UNL     1       6.085   5.575   7.244  1.00  0.00     0.039 A 
ATOM     29  C   UNL     1       6.071   6.518   8.282  1.00  0.00     0.014 A 
ATOM     30  C   UNL     1       6.337   4.236   7.562  1.00  0.00     0.014 A 
ATOM     31  C   UNL     1       6.293   6.130   9.615  1.00  0.00     0.010 A 
ATOM     32  C   UNL     1       6.543   3.844   8.903  1.00  0.00     0.010 A 
ATOM     33  C   UNL     1       6.540   4.788   9.947  1.00  0.00    -0.014 A 
BRANCH  33  34
ATOM     34  C   UNL     1       6.827   4.407  11.369  1.00  0.00     0.031 A 
ATOM     35  C   UNL     1       8.215   3.998  11.805  1.00  0.00     0.074 A 
ATOM     36  C   UNL     1       5.849   4.447  12.298  1.00  0.00     0.049 A 
ATOM     37  N   UNL     1       8.658   3.701  13.005  1.00  0.00    -0.248 NA
ATOM     38  C   UNL     1       9.235   3.895  10.753  1.00  0.00     0.031 C 
ATOM     39  C   UNL     1       4.452   4.789  12.035  1.00  0.00     0.029 A 
ATOM     40  N   UNL     1       5.880   4.204  13.653  1.00  0.00    -0.354 N 
ATOM     41  C   UNL     1      10.001   3.372  12.851  1.00  0.00     0.074 A 
ATOM     42  C   UNL     1      10.288   3.466  11.434  1.00  0.00     0.031 C 
ATOM     43  C   UNL     1       3.765   4.756  13.190  1.00  0.00     0.029 A 
ATOM     44  C   UNL     1       4.667   4.380  14.277  1.00  0.00     0.049 A 
ATOM     45  H   UNL     1       6.696   3.930  14.132  1.00  0.00     0.167 HD
ATOM     46  C   UNL     1      10.919   3.043  13.795  1.00  0.00     0.037 A 
ATOM     47  C   UNL     1       4.316   4.266  15.574  1.00  0.00     0.037 A 
ATOM     48  C   UNL     1      10.656   2.968  15.211  1.00  0.00     0.049 A 
ATOM     49  C   UNL     1       5.354   3.920  16.608  1.00  0.00     0.074 A 
ATOM     50  C   UNL     1      11.541   2.694  16.242  1.00  0.00     0.029 A 
ATOM     51  N   UNL     1       9.416   3.167  15.797  1.00  0.00    -0.354 N 
ATOM     52  N   UNL     1       6.633   3.684  16.449  1.00  0.00    -0.248 NA
ATOM     53  C   UNL     1       4.900   3.839  18.006  1.00  0.00     0.031 C 
ATOM     54  C   UNL     1      10.830   2.696  17.448  1.00  0.00     0.029 A 
ATOM     55  C   UNL     1       9.509   3.009  17.171  1.00  0.00     0.049 A 
ATOM     56  H   UNL     1       8.590   3.389  15.309  1.00  0.00     0.167 HD
ATOM     57  C   UNL     1       7.140   3.454  17.722  1.00  0.00     0.074 A 
ATOM     58  C   UNL     1       6.035   3.592  18.646  1.00  0.00     0.031 C 
ATOM     59  C   UNL     1       8.409   3.154  18.089  1.00  0.00     0.037 A 
BRANCH  46  60
ATOM     60  C   UNL     1      12.315   2.740  13.327  1.00  0.00     0.057 A 
ATOM     61  C   UNL     1      13.171   3.749  12.865  1.00  0.00     0.134 A 
ATOM     62  C   UNL     1      12.824   1.436  13.377  1.00  0.00     0.134 A 
ATOM     63  F   UNL     1      12.746   5.019  12.791  1.00  0.00    -0.206 F 
ATOM     64  C   UNL     1      14.470   3.466  12.438  1.00  0.00     0.040 A 
ATOM     65  C   UNL     1      14.130   1.145  12.976  1.00  0.00     0.040 A 
ATOM     66  F   UNL     1      12.066   0.424  13.825  1.00  0.00    -0.206 F 
ATOM     67  C   UNL     1      14.955   2.161  12.497  1.00  0.00     0.006 A 
ENDBRANCH  46  60
BRANCH  47  68
ATOM     68  C   UNL     1       2.912   4.526  15.987  1.00  0.00     0.057 A 
ATOM     69  C   UNL     1       2.571   5.678  16.707  1.00  0.00     0.134 A 
ATOM     70  C   UNL     1       1.884   3.625  15.687  1.00  0.00     0.134 A 
ATOM     71  F   UNL     1       3.517   6.565  17.047  1.00  0.00    -0.206 F 
ATOM     72  C   UNL     1       1.261   5.919  17.124  1.00  0.00     0.040 A 
ATOM     73  C   UNL     1       0.565   3.864  16.079  1.00  0.00     0.040 A 
ATOM     74  F   UNL     1       2.146   2.502  15.002  1.00  0.00    -0.206 F 
ATOM     75  C   UNL     1       0.252   5.013  16.804  1.00  0.00     0.006 A 
ENDBRANCH  47  68
BRANCH  59  76
ATOM     76  C   UNL     1       8.681   2.981  19.555  1.00  0.00     0.057 A 
ATOM     77  C   UNL     1       8.258   1.845  20.256  1.00  0.00     0.134 A 
ATOM     78  C   UNL     1       9.402   3.948  20.268  1.00  0.00     0.134 A 
ATOM     79  F   UNL     1       7.553   0.887  19.636  1.00  0.00    -0.206 F 
ATOM     80  C   UNL     1       8.524   1.686  21.618  1.00  0.00     0.040 A 
ATOM     81  C   UNL     1       9.692   3.791  21.624  1.00  0.00     0.040 A 
ATOM     82  F   UNL     1       9.842   5.058  19.655  1.00  0.00    -0.206 F 
ATOM     83  C   UNL     1       9.248   2.659  22.305  1.00  0.00     0.006 A 
ENDBRANCH  59  76
ENDBRANCH  33  34
ENDBRANCH  25  28
ENDBRANCH  23  24
ENDBRANCH   1  23
TORSDOF 13
