REMARK SMILES Cc1cc2c(c(C)c1Cl)C=C(C(=O)NCCCNC(=O)c1ccc(-c3c4nc(c(-c5c(F)cccc5F)c5ccc([nH]5)c(-c5c(F)cccc5F)c5nc(c(-c6c(F)cccc6F)c6ccc3[nH]6)C=C5)C=C4)cc1)[C@@H](C(F)(F)F)O2
REMARK SMILES IDX 16 1 15 2 14 3 12 4 13 5 11 7 1 8 2 9 3 10 8 11 4 12 6 13
REMARK SMILES IDX 9 14 5 15 80 16 7 17 10 18 75 19 76 20 77 21 78 22 79 23
REMARK SMILES IDX 17 24 18 25 19 26 20 28 21 29 22 30 74 31 23 32 73 33 24 34
REMARK SMILES IDX 25 35 26 36 67 37 27 38 72 39 66 40 68 41 28 42 71 43 65 44
REMARK SMILES IDX 64 45 29 47 55 48 38 49 54 50 39 51 42 52 53 53 69 54 40 55
REMARK SMILES IDX 41 56 52 58 70 59 43 60 30 61 31 62 36 63 32 64 33 65 35 66
REMARK SMILES IDX 37 67 34 68 56 69 57 70 62 71 58 72 59 73 61 74 63 75 60 76
REMARK SMILES IDX 44 77 45 78 50 79 46 80 47 81 49 82 51 83 48 84
REMARK H PARENT 14 6 18 27 68 46 42 57
REMARK Flexibility Score: inf
ROOT
ATOM      1  C   UNL     1       0.165  -6.036   7.626  1.00  0.00     0.042 C 
ENDROOT
BRANCH   1   2
ATOM      2  C   UNL     1      -1.081  -5.399   7.031  1.00  0.00     0.118 C 
BRANCH   2   3
ATOM      3  N   UNL     1      -1.269  -4.036   7.503  1.00  0.00    -0.352 N 
ATOM      4  C   UNL     1      -1.179  -2.786   6.993  1.00  0.00     0.251 C 
ATOM      5  O   UNL     1      -1.432  -1.876   7.789  1.00  0.00    -0.270 OA
ATOM      6  H   UNL     1      -1.533  -4.018   8.451  1.00  0.00     0.163 HD
BRANCH   4   7
ATOM      7  C   UNL     1      -0.806  -2.460   5.587  1.00  0.00     0.067 C 
ATOM      8  C   UNL     1       0.951   0.120  -0.116  1.00  0.00     0.046 C 
ATOM      9  C   UNL     1       0.466  -0.125   1.287  1.00  0.00    -0.028 A 
ATOM     10  C   UNL     1       0.505  -1.440   1.758  1.00  0.00     0.052 A 
ATOM     11  C   UNL     1       0.045   0.897   2.163  1.00  0.00     0.047 A 
ATOM     12  C   UNL     1       0.103  -1.740   3.053  1.00  0.00     0.128 A 
ATOM     13  C   UNL     1      -0.375   0.602   3.486  1.00  0.00    -0.021 A 
ATOM     14  Cl  UNL     1       0.079   2.540   1.598  1.00  0.00    -0.084 Cl
ATOM     15  C   UNL     1      -0.335  -0.742   3.929  1.00  0.00     0.022 A 
ATOM     16  O   UNL     1       0.218  -3.054   3.405  1.00  0.00    -0.475 OA
ATOM     17  C   UNL     1      -0.850   1.681   4.432  1.00  0.00     0.047 C 
ATOM     18  C   UNL     1      -0.683  -1.152   5.294  1.00  0.00     0.026 C 
ATOM     19  C   UNL     1      -0.592  -3.490   4.522  1.00  0.00     0.314 C 
BRANCH  19  20
ATOM     20  C   UNL     1      -1.909  -4.093   3.997  1.00  0.00     0.429 C 
ATOM     21  F   UNL     1      -1.669  -5.266   3.359  1.00  0.00    -0.167 F 
ATOM     22  F   UNL     1      -2.787  -4.372   4.990  1.00  0.00    -0.167 F 
ATOM     23  F   UNL     1      -2.548  -3.280   3.128  1.00  0.00    -0.167 F 
ENDBRANCH  19  20
ENDBRANCH   4   7
ENDBRANCH   2   3
ENDBRANCH   1   2
BRANCH   1  24
ATOM     24  C   UNL     1      -0.054  -6.479   9.065  1.00  0.00     0.118 C 
BRANCH  24  25
ATOM     25  N   UNL     1      -1.065  -7.530   9.160  1.00  0.00    -0.352 N 
ATOM     26  C   UNL     1      -0.924  -8.876   9.383  1.00  0.00     0.251 C 
ATOM     27  H   UNL     1      -1.994  -7.224   9.046  1.00  0.00     0.163 HD
ATOM     28  O   UNL     1      -1.856  -9.640   9.143  1.00  0.00    -0.269 OA
BRANCH  26  29
ATOM     29  C   UNL     1       0.349  -9.403   9.907  1.00  0.00     0.039 A 
ATOM     30  C   UNL     1       0.851 -10.607   9.410  1.00  0.00     0.014 A 
ATOM     31  C   UNL     1       1.036  -8.710  10.905  1.00  0.00     0.014 A 
ATOM     32  C   UNL     1       2.080 -11.079   9.872  1.00  0.00     0.010 A 
ATOM     33  C   UNL     1       2.304  -9.122  11.284  1.00  0.00     0.010 A 
ATOM     34  C   UNL     1       2.831 -10.320  10.785  1.00  0.00    -0.014 A 
BRANCH  34  35
ATOM     35  C   UNL     1       4.158 -10.774  11.260  1.00  0.00     0.031 A 
ATOM     36  C   UNL     1       4.365 -11.072  12.719  1.00  0.00     0.074 A 
ATOM     37  C   UNL     1       5.182 -10.861  10.391  1.00  0.00     0.049 A 
ATOM     38  N   UNL     1       5.460 -11.421  13.342  1.00  0.00    -0.248 NA
ATOM     39  C   UNL     1       3.193 -10.930  13.601  1.00  0.00     0.031 C 
ATOM     40  C   UNL     1       5.107 -10.553   8.961  1.00  0.00     0.029 A 
ATOM     41  N   UNL     1       6.487 -11.235  10.582  1.00  0.00    -0.354 N 
ATOM     42  C   UNL     1       5.110 -11.535  14.681  1.00  0.00     0.074 A 
ATOM     43  C   UNL     1       3.723 -11.147  14.795  1.00  0.00     0.031 C 
ATOM     44  C   UNL     1       6.302 -10.792   8.397  1.00  0.00     0.029 A 
ATOM     45  C   UNL     1       7.237 -11.228   9.430  1.00  0.00     0.049 A 
ATOM     46  H   UNL     1       6.853 -11.486  11.461  1.00  0.00     0.167 HD
ATOM     47  C   UNL     1       5.867 -11.962  15.717  1.00  0.00     0.037 A 
ATOM     48  C   UNL     1       8.531 -11.540   9.233  1.00  0.00     0.037 A 
ATOM     49  C   UNL     1       7.239 -12.373  15.590  1.00  0.00     0.049 A 
ATOM     50  C   UNL     1       9.360 -11.987  10.405  1.00  0.00     0.074 A 
ATOM     51  C   UNL     1       8.083 -12.864  16.569  1.00  0.00     0.029 A 
ATOM     52  N   UNL     1       7.964 -12.345  14.408  1.00  0.00    -0.354 N 
ATOM     53  N   UNL     1       9.001 -12.144  11.657  1.00  0.00    -0.248 NA
ATOM     54  C   UNL     1      10.770 -12.302  10.140  1.00  0.00     0.031 C 
ATOM     55  C   UNL     1       9.334 -13.090  15.989  1.00  0.00     0.029 A 
ATOM     56  C   UNL     1       9.254 -12.790  14.638  1.00  0.00     0.049 A 
ATOM     57  H   UNL     1       7.613 -12.053  13.536  1.00  0.00     0.167 HD
ATOM     58  C   UNL     1      10.131 -12.599  12.323  1.00  0.00     0.074 A 
ATOM     59  C   UNL     1      11.184 -12.706  11.334  1.00  0.00     0.031 C 
ATOM     60  C   UNL     1      10.284 -12.898  13.636  1.00  0.00     0.037 A 
BRANCH  47  61
ATOM     61  C   UNL     1       5.223 -12.030  17.071  1.00  0.00     0.057 A 
ATOM     62  C   UNL     1       4.239 -12.983  17.368  1.00  0.00     0.134 A 
ATOM     63  C   UNL     1       5.626 -11.174  18.103  1.00  0.00     0.134 A 
ATOM     64  F   UNL     1       3.797 -13.823  16.420  1.00  0.00    -0.206 F 
ATOM     65  C   UNL     1       3.668 -13.071  18.639  1.00  0.00     0.040 A 
ATOM     66  C   UNL     1       5.083 -11.272  19.385  1.00  0.00     0.040 A 
ATOM     67  F   UNL     1       6.566 -10.241  17.887  1.00  0.00    -0.206 F 
ATOM     68  C   UNL     1       4.098 -12.220  19.654  1.00  0.00     0.006 A 
ENDBRANCH  47  61
BRANCH  48  69
ATOM     69  C   UNL     1       9.105 -11.483   7.864  1.00  0.00     0.057 A 
ATOM     70  C   UNL     1       9.454 -12.655   7.183  1.00  0.00     0.134 A 
ATOM     71  C   UNL     1       9.298 -10.268   7.196  1.00  0.00     0.134 A 
ATOM     72  F   UNL     1       9.306 -13.849   7.775  1.00  0.00    -0.206 F 
ATOM     73  C   UNL     1       9.983 -12.621   5.892  1.00  0.00     0.040 A 
ATOM     74  C   UNL     1       9.803 -10.221   5.895  1.00  0.00     0.040 A 
ATOM     75  F   UNL     1       8.975  -9.109   7.789  1.00  0.00    -0.206 F 
ATOM     76  C   UNL     1      10.152 -11.401   5.241  1.00  0.00     0.006 A 
ENDBRANCH  48  69
BRANCH  60  77
ATOM     77  C   UNL     1      11.629 -13.389  14.085  1.00  0.00     0.057 A 
ATOM     78  C   UNL     1      12.727 -12.527  14.193  1.00  0.00     0.134 A 
ATOM     79  C   UNL     1      11.800 -14.716  14.500  1.00  0.00     0.134 A 
ATOM     80  F   UNL     1      12.629 -11.248  13.803  1.00  0.00    -0.206 F 
ATOM     81  C   UNL     1      13.953 -12.971  14.691  1.00  0.00     0.040 A 
ATOM     82  C   UNL     1      13.012 -15.164  15.025  1.00  0.00     0.040 A 
ATOM     83  F   UNL     1      10.783 -15.588  14.434  1.00  0.00    -0.206 F 
ATOM     84  C   UNL     1      14.094 -14.290  15.120  1.00  0.00     0.006 A 
ENDBRANCH  60  77
ENDBRANCH  34  35
ENDBRANCH  26  29
ENDBRANCH  24  25
ENDBRANCH   1  24
TORSDOF 11
