REMARK SMILES O=C(NCCCNC(=O)c1c(F)cccc1NC(=O)c1ccc(Cl)nc1)c1ccc(-c2c3nc(c(-c4c(F)cccc4F)c4ccc([nH]4)c(-c4c(F)cccc4F)c4nc(c(-c5c(F)cccc5F)c5ccc2[nH]5)C=C4)C=C3)cc1
REMARK SMILES IDX 5 1 4 2 3 3 1 4 2 5 27 7 28 8 80 9 29 10 79 11 30 12 31 13
REMARK SMILES IDX 32 14 73 15 33 16 78 17 72 18 74 19 34 20 77 21 71 22 70 23
REMARK SMILES IDX 35 25 61 26 44 27 60 28 45 29 48 30 59 31 75 32 46 33 47 34
REMARK SMILES IDX 58 36 76 37 49 38 36 39 37 40 42 41 38 42 39 43 41 44 43 45
REMARK SMILES IDX 40 46 62 47 63 48 68 49 64 50 65 51 67 52 69 53 66 54 50 55
REMARK SMILES IDX 51 56 56 57 52 58 53 59 55 60 57 61 54 62 6 63 7 64 8 65
REMARK SMILES IDX 9 67 10 68 11 69 16 70 12 71 13 72 15 73 14 74 17 75 18 76
REMARK SMILES IDX 19 78 20 79 21 80 26 81 22 82 25 83 23 84 24 85
REMARK H PARENT 3 6 74 24 48 35 7 66 17 77
REMARK Flexibility Score: inf
ROOT
ATOM      1  C   UNL     1       4.826  -2.386   0.391  1.00  0.00     0.042 C 
ENDROOT
BRANCH   1   2
ATOM      2  C   UNL     1       4.472  -1.250  -0.555  1.00  0.00     0.118 C 
BRANCH   2   3
ATOM      3  N   UNL     1       3.041  -0.978  -0.606  1.00  0.00    -0.352 N 
ATOM      4  O   UNL     1       1.089   0.047  -0.167  1.00  0.00    -0.269 OA
ATOM      5  C   UNL     1       2.313   0.106  -0.174  1.00  0.00     0.251 C 
ATOM      6  H   UNL     1       2.504  -1.691  -1.021  1.00  0.00     0.163 HD
BRANCH   5   7
ATOM      7  C   UNL     1       2.991   1.329   0.311  1.00  0.00     0.039 A 
ATOM      8  C   UNL     1       4.126   1.829  -0.327  1.00  0.00     0.014 A 
ATOM      9  C   UNL     1       2.460   2.008   1.414  1.00  0.00     0.014 A 
ATOM     10  C   UNL     1       4.831   2.885   0.239  1.00  0.00     0.010 A 
ATOM     11  C   UNL     1       3.112   3.137   1.920  1.00  0.00     0.010 A 
ATOM     12  C   UNL     1       4.328   3.558   1.364  1.00  0.00    -0.014 A 
BRANCH  12  13
ATOM     13  C   UNL     1       5.078   4.718   1.911  1.00  0.00     0.031 A 
ATOM     14  C   UNL     1       5.667   4.681   3.294  1.00  0.00     0.074 A 
ATOM     15  C   UNL     1       5.270   5.797   1.127  1.00  0.00     0.049 A 
ATOM     16  N   UNL     1       6.381   5.591   3.909  1.00  0.00    -0.248 NA
ATOM     17  C   UNL     1       5.419   3.473   4.096  1.00  0.00     0.031 C 
ATOM     18  C   UNL     1       4.746   5.951  -0.232  1.00  0.00     0.029 A 
ATOM     19  N   UNL     1       5.978   6.950   1.344  1.00  0.00    -0.354 N 
ATOM     20  C   UNL     1       6.654   5.075   5.169  1.00  0.00     0.074 A 
ATOM     21  C   UNL     1       6.002   3.785   5.245  1.00  0.00     0.031 C 
ATOM     22  C   UNL     1       5.202   7.099  -0.750  1.00  0.00     0.029 A 
ATOM     23  C   UNL     1       5.997   7.792   0.259  1.00  0.00     0.049 A 
ATOM     24  H   UNL     1       6.430   7.155   2.194  1.00  0.00     0.167 HD
ATOM     25  C   UNL     1       7.390   5.622   6.166  1.00  0.00     0.037 A 
ATOM     26  C   UNL     1       6.581   8.992   0.091  1.00  0.00     0.037 A 
ATOM     27  C   UNL     1       8.049   6.900   6.081  1.00  0.00     0.049 A 
ATOM     28  C   UNL     1       7.372   9.588   1.216  1.00  0.00     0.074 A 
ATOM     29  C   UNL     1       8.830   7.531   7.035  1.00  0.00     0.029 A 
ATOM     30  N   UNL     1       8.007   7.742   4.980  1.00  0.00    -0.354 N 
ATOM     31  N   UNL     1       7.624   9.085   2.400  1.00  0.00    -0.248 NA
ATOM     32  C   UNL     1       7.954  10.916   0.988  1.00  0.00     0.031 C 
ATOM     33  C   UNL     1       9.226   8.772   6.526  1.00  0.00     0.029 A 
ATOM     34  C   UNL     1       8.734   8.893   5.236  1.00  0.00     0.049 A 
ATOM     35  H   UNL     1       7.531   7.550   4.140  1.00  0.00     0.167 HD
ATOM     36  C   UNL     1       8.406  10.027   3.054  1.00  0.00     0.074 A 
ATOM     37  C   UNL     1       8.597  11.126   2.129  1.00  0.00     0.031 C 
ATOM     38  C   UNL     1       8.917   9.981   4.308  1.00  0.00     0.037 A 
BRANCH  25  39
ATOM     39  C   UNL     1       7.514   4.845   7.445  1.00  0.00     0.057 A 
ATOM     40  C   UNL     1       6.885   5.290   8.616  1.00  0.00     0.134 A 
ATOM     41  C   UNL     1       8.295   3.685   7.533  1.00  0.00     0.134 A 
ATOM     42  F   UNL     1       6.129   6.398   8.604  1.00  0.00    -0.206 F 
ATOM     43  C   UNL     1       7.032   4.612   9.827  1.00  0.00     0.040 A 
ATOM     44  C   UNL     1       8.429   2.984   8.734  1.00  0.00     0.040 A 
ATOM     45  F   UNL     1       8.914   3.198   6.447  1.00  0.00    -0.206 F 
ATOM     46  C   UNL     1       7.802   3.452   9.887  1.00  0.00     0.006 A 
ENDBRANCH  25  39
BRANCH  26  47
ATOM     47  C   UNL     1       6.447   9.684  -1.214  1.00  0.00     0.057 A 
ATOM     48  C   UNL     1       5.221  10.214  -1.635  1.00  0.00     0.134 A 
ATOM     49  C   UNL     1       7.526   9.766  -2.100  1.00  0.00     0.134 A 
ATOM     50  F   UNL     1       4.147  10.155  -0.834  1.00  0.00    -0.206 F 
ATOM     51  C   UNL     1       5.065  10.775  -2.903  1.00  0.00     0.040 A 
ATOM     52  C   UNL     1       7.390  10.345  -3.362  1.00  0.00     0.040 A 
ATOM     53  F   UNL     1       8.727   9.287  -1.746  1.00  0.00    -0.206 F 
ATOM     54  C   UNL     1       6.153  10.841  -3.771  1.00  0.00     0.006 A 
ENDBRANCH  26  47
BRANCH  38  55
ATOM     55  C   UNL     1       9.755  11.142   4.753  1.00  0.00     0.057 A 
ATOM     56  C   UNL     1      11.141  11.003   4.905  1.00  0.00     0.134 A 
ATOM     57  C   UNL     1       9.185  12.374   5.095  1.00  0.00     0.134 A 
ATOM     58  F   UNL     1      11.746   9.844   4.603  1.00  0.00    -0.206 F 
ATOM     59  C   UNL     1      11.929  12.046   5.391  1.00  0.00     0.040 A 
ATOM     60  C   UNL     1       9.967  13.433   5.561  1.00  0.00     0.040 A 
ATOM     61  F   UNL     1       7.865  12.573   4.961  1.00  0.00    -0.206 F 
ATOM     62  C   UNL     1      11.342  13.267   5.718  1.00  0.00     0.006 A 
ENDBRANCH  38  55
ENDBRANCH  12  13
ENDBRANCH   5   7
ENDBRANCH   2   3
ENDBRANCH   1   2
BRANCH   1  63
ATOM     63  C   UNL     1       4.274  -3.740  -0.030  1.00  0.00     0.118 C 
BRANCH  63  64
ATOM     64  N   UNL     1       4.838  -4.213  -1.289  1.00  0.00    -0.352 N 
ATOM     65  C   UNL     1       5.631  -5.307  -1.541  1.00  0.00     0.256 C 
ATOM     66  H   UNL     1       4.618  -3.666  -2.078  1.00  0.00     0.163 HD
ATOM     67  O   UNL     1       6.135  -5.457  -2.651  1.00  0.00    -0.269 OA
BRANCH  65  68
ATOM     68  C   UNL     1       5.966  -6.247  -0.456  1.00  0.00     0.099 A 
ATOM     69  C   UNL     1       4.933  -6.802   0.306  1.00  0.00     0.138 A 
ATOM     70  C   UNL     1       7.305  -6.569  -0.167  1.00  0.00     0.057 A 
ATOM     71  F   UNL     1       3.650  -6.606  -0.032  1.00  0.00    -0.206 F 
ATOM     72  C   UNL     1       5.204  -7.530   1.456  1.00  0.00     0.040 A 
ATOM     73  C   UNL     1       7.560  -7.208   1.053  1.00  0.00     0.027 A 
ATOM     74  C   UNL     1       6.522  -7.693   1.856  1.00  0.00     0.005 A 
BRANCH  70  75
ATOM     75  N   UNL     1       8.326  -6.239  -1.097  1.00  0.00    -0.321 N 
ATOM     76  C   UNL     1       9.626  -6.678  -1.240  1.00  0.00     0.257 C 
ATOM     77  H   UNL     1       8.054  -5.571  -1.767  1.00  0.00     0.170 HD
ATOM     78  O   UNL     1      10.395  -6.140  -2.034  1.00  0.00    -0.269 OA
BRANCH  76  79
ATOM     79  C   UNL     1      10.120  -7.834  -0.483  1.00  0.00     0.058 A 
ATOM     80  C   UNL     1       9.486  -9.079  -0.526  1.00  0.00     0.018 A 
ATOM     81  C   UNL     1      11.206  -7.663   0.363  1.00  0.00     0.126 A 
ATOM     82  C   UNL     1       9.901 -10.073   0.357  1.00  0.00     0.042 A 
ATOM     83  N   UNL     1      11.624  -8.612   1.235  1.00  0.00    -0.244 NA
ATOM     84  C   UNL     1      10.950  -9.783   1.217  1.00  0.00     0.129 A 
ATOM     85  Cl  UNL     1      11.442 -10.909   2.412  1.00  0.00    -0.062 Cl
ENDBRANCH  76  79
ENDBRANCH  70  75
ENDBRANCH  65  68
ENDBRANCH  63  64
ENDBRANCH   1  63
TORSDOF 12
