REMARK SMILES O=C(C[C@@H]1CN(C(=O)NC[C@H]2C[C@H]3CC[C@@H]2C3)CCO1)NCCCNC(=O)c1ccc(-c2c3nc(c(-c4c(F)cccc4F)c4ccc([nH]4)c(-c4c(F)cccc4F)c4nc(c(-c5c(F)cccc5F)c5ccc2[nH]5)C=C4)C=C3)cc1
REMARK SMILES IDX 22 1 21 2 1 3 2 4 3 6 4 7 5 8 20 9 6 10 19 11 18 12 7 13
REMARK SMILES IDX 8 14 9 15 10 17 11 18 12 19 16 20 13 21 15 22 17 23 14 24
REMARK SMILES IDX 23 25 24 26 25 27 26 28 27 30 28 31 29 32 81 33 30 34 80 35
REMARK SMILES IDX 31 36 32 37 33 38 74 39 34 40 79 41 73 42 75 43 35 44 78 45
REMARK SMILES IDX 72 46 71 47 36 49 62 50 45 51 61 52 46 53 49 54 60 55 76 56
REMARK SMILES IDX 47 57 48 58 59 60 77 61 50 62 37 63 38 64 43 65 39 66 40 67
REMARK SMILES IDX 42 68 44 69 41 70 63 71 64 72 69 73 65 74 66 75 68 76 70 77
REMARK SMILES IDX 67 78 51 79 52 80 57 81 53 82 54 83 56 84 58 85 55 86
REMARK H PARENT 21 5 9 16 25 29 75 48 49 59
REMARK Flexibility Score: inf
ROOT
ATOM      1  C   UNL     1       0.765  -8.341   0.904  1.00  0.00     0.117 C 
ENDROOT
BRANCH   1   2
ATOM      2  N   UNL     1       1.474  -7.450   0.015  1.00  0.00    -0.356 N 
ATOM      3  O   UNL     1       3.592  -8.122   0.571  1.00  0.00    -0.275 OA
ATOM      4  C   UNL     1       2.839  -7.430  -0.109  1.00  0.00     0.222 C 
ATOM      5  H   UNL     1       0.948  -6.824  -0.532  1.00  0.00     0.163 HD
BRANCH   4   6
ATOM      6  C   UNL     1       3.375  -6.369  -1.046  1.00  0.00     0.133 C 
BRANCH   6   7
ATOM      7  C   UNL     1       2.684  -6.175  -2.404  1.00  0.00     0.147 C 
ATOM      8  C   UNL     1       2.365  -4.679  -2.632  1.00  0.00     0.154 C 
ATOM      9  O   UNL     1       1.468  -6.933  -2.538  1.00  0.00    -0.374 OA
ATOM     10  N   UNL     1       1.752  -4.457  -3.941  1.00  0.00    -0.320 N 
ATOM     11  C   UNL     1       0.959  -6.813  -3.877  1.00  0.00     0.182 C 
ATOM     12  C   UNL     1       0.616  -5.357  -4.197  1.00  0.00     0.150 C 
BRANCH  10  13
ATOM     13  C   UNL     1       1.930  -3.429  -4.812  1.00  0.00     0.317 C 
ATOM     14  O   UNL     1       1.152  -3.249  -5.756  1.00  0.00    -0.249 OA
ATOM     15  N   UNL     1       2.931  -2.543  -4.756  1.00  0.00    -0.338 N 
ATOM     16  H   UNL     1       2.798  -1.848  -5.441  1.00  0.00     0.165 HD
BRANCH  15  17
ATOM     17  C   UNL     1       4.147  -2.275  -4.016  1.00  0.00     0.121 C 
BRANCH  17  18
ATOM     18  C   UNL     1       5.426  -2.980  -4.486  1.00  0.00     0.012 C 
ATOM     19  C   UNL     1       5.515  -4.496  -4.248  1.00  0.00     0.009 C 
ATOM     20  C   UNL     1       5.872  -2.846  -5.968  1.00  0.00    -0.006 C 
ATOM     21  C   UNL     1       6.086  -5.031  -5.570  1.00  0.00    -0.011 C 
ATOM     22  C   UNL     1       4.900  -3.486  -6.972  1.00  0.00     0.004 C 
ATOM     23  C   UNL     1       7.002  -3.889  -6.007  1.00  0.00     0.007 C 
ATOM     24  C   UNL     1       4.968  -4.979  -6.626  1.00  0.00     0.004 C 
ENDBRANCH  17  18
ENDBRANCH  15  17
ENDBRANCH  10  13
ENDBRANCH   6   7
ENDBRANCH   4   6
ENDBRANCH   1   2
BRANCH   1  25
ATOM     25  C   UNL     1       0.281  -7.639   2.167  1.00  0.00     0.042 C 
BRANCH  25  26
ATOM     26  C   UNL     1      -0.611  -6.423   1.927  1.00  0.00     0.118 C 
BRANCH  26  27
ATOM     27  N   UNL     1      -1.831  -6.730   1.194  1.00  0.00    -0.352 N 
ATOM     28  C   UNL     1      -3.146  -6.484   1.496  1.00  0.00     0.251 C 
ATOM     29  H   UNL     1      -1.688  -7.193   0.338  1.00  0.00     0.163 HD
ATOM     30  O   UNL     1      -4.023  -6.947   0.764  1.00  0.00    -0.269 OA
BRANCH  28  31
ATOM     31  C   UNL     1      -3.537  -5.700   2.689  1.00  0.00     0.039 A 
ATOM     32  C   UNL     1      -4.654  -6.120   3.420  1.00  0.00     0.014 A 
ATOM     33  C   UNL     1      -2.857  -4.542   3.075  1.00  0.00     0.014 A 
ATOM     34  C   UNL     1      -5.048  -5.419   4.563  1.00  0.00     0.010 A 
ATOM     35  C   UNL     1      -3.206  -3.885   4.257  1.00  0.00     0.010 A 
ATOM     36  C   UNL     1      -4.308  -4.314   5.013  1.00  0.00    -0.014 A 
BRANCH  36  37
ATOM     37  C   UNL     1      -4.676  -3.617   6.273  1.00  0.00     0.031 A 
ATOM     38  C   UNL     1      -5.140  -2.185   6.256  1.00  0.00     0.074 A 
ATOM     39  C   UNL     1      -4.561  -4.266   7.448  1.00  0.00     0.049 A 
ATOM     40  N   UNL     1      -5.504  -1.422   7.257  1.00  0.00    -0.248 NA
ATOM     41  C   UNL     1      -5.177  -1.514   4.948  1.00  0.00     0.031 C 
ATOM     42  C   UNL     1      -4.069  -5.635   7.613  1.00  0.00     0.029 A 
ATOM     43  N   UNL     1      -4.849  -3.862   8.728  1.00  0.00    -0.354 N 
ATOM     44  C   UNL     1      -5.803  -0.184   6.702  1.00  0.00     0.074 A 
ATOM     45  C   UNL     1      -5.527  -0.281   5.285  1.00  0.00     0.031 C 
ATOM     46  C   UNL     1      -4.121  -5.968   8.913  1.00  0.00     0.029 A 
ATOM     47  C   UNL     1      -4.622  -4.830   9.676  1.00  0.00     0.049 A 
ATOM     48  H   UNL     1      -5.188  -2.963   8.946  1.00  0.00     0.167 HD
ATOM     49  C   UNL     1      -6.287   0.925   7.312  1.00  0.00     0.037 A 
ATOM     50  C   UNL     1      -4.801  -4.806  11.010  1.00  0.00     0.037 A 
ATOM     51  C   UNL     1      -6.585   1.018   8.717  1.00  0.00     0.049 A 
ATOM     52  C   UNL     1      -5.357  -3.570  11.659  1.00  0.00     0.074 A 
ATOM     53  C   UNL     1      -7.134   2.080   9.415  1.00  0.00     0.029 A 
ATOM     54  N   UNL     1      -6.360   0.008   9.641  1.00  0.00    -0.354 N 
ATOM     55  N   UNL     1      -5.705  -2.432  11.110  1.00  0.00    -0.248 NA
ATOM     56  C   UNL     1      -5.556  -3.620  13.115  1.00  0.00     0.031 C 
ATOM     57  C   UNL     1      -7.206   1.728  10.768  1.00  0.00     0.029 A 
ATOM     58  C   UNL     1      -6.744   0.429  10.905  1.00  0.00     0.049 A 
ATOM     59  H   UNL     1      -5.984  -0.876   9.430  1.00  0.00     0.167 HD
ATOM     60  C   UNL     1      -6.188  -1.643  12.145  1.00  0.00     0.074 A 
ATOM     61  C   UNL     1      -6.105  -2.438  13.352  1.00  0.00     0.031 C 
ATOM     62  C   UNL     1      -6.659  -0.372  12.099  1.00  0.00     0.037 A 
BRANCH  49  63
ATOM     63  C   UNL     1      -6.533   2.133   6.454  1.00  0.00     0.057 A 
ATOM     64  C   UNL     1      -7.582   2.176   5.525  1.00  0.00     0.134 A 
ATOM     65  C   UNL     1      -5.737   3.279   6.582  1.00  0.00     0.134 A 
ATOM     66  F   UNL     1      -8.374   1.109   5.346  1.00  0.00    -0.206 F 
ATOM     67  C   UNL     1      -7.814   3.305   4.737  1.00  0.00     0.040 A 
ATOM     68  C   UNL     1      -5.976   4.423   5.818  1.00  0.00     0.040 A 
ATOM     69  F   UNL     1      -4.721   3.308   7.457  1.00  0.00    -0.206 F 
ATOM     70  C   UNL     1      -7.013   4.435   4.887  1.00  0.00     0.006 A 
ENDBRANCH  49  63
BRANCH  50  71
ATOM     71  C   UNL     1      -4.489  -6.009  11.822  1.00  0.00     0.057 A 
ATOM     72  C   UNL     1      -5.510  -6.774  12.399  1.00  0.00     0.134 A 
ATOM     73  C   UNL     1      -3.170  -6.418  12.047  1.00  0.00     0.134 A 
ATOM     74  F   UNL     1      -6.793  -6.420  12.234  1.00  0.00    -0.206 F 
ATOM     75  C   UNL     1      -5.231  -7.890  13.189  1.00  0.00     0.040 A 
ATOM     76  C   UNL     1      -2.877  -7.546  12.814  1.00  0.00     0.040 A 
ATOM     77  F   UNL     1      -2.148  -5.732  11.515  1.00  0.00    -0.206 F 
ATOM     78  C   UNL     1      -3.909  -8.281  13.394  1.00  0.00     0.006 A 
ENDBRANCH  50  71
BRANCH  62  79
ATOM     79  C   UNL     1      -7.148   0.222  13.387  1.00  0.00     0.057 A 
ATOM     80  C   UNL     1      -6.269   0.597  14.411  1.00  0.00     0.134 A 
ATOM     81  C   UNL     1      -8.516   0.436  13.599  1.00  0.00     0.134 A 
ATOM     82  F   UNL     1      -4.947   0.406  14.276  1.00  0.00    -0.206 F 
ATOM     83  C   UNL     1      -6.734   1.136  15.611  1.00  0.00     0.040 A 
ATOM     84  C   UNL     1      -8.992   0.998  14.784  1.00  0.00     0.040 A 
ATOM     85  F   UNL     1      -9.412   0.107  12.656  1.00  0.00    -0.206 F 
ATOM     86  C   UNL     1      -8.100   1.342  15.798  1.00  0.00     0.006 A 
ENDBRANCH  62  79
ENDBRANCH  36  37
ENDBRANCH  28  31
ENDBRANCH  26  27
ENDBRANCH  25  26
ENDBRANCH   1  25
TORSDOF 14
