REMARK SMILES O=C(CSc1nc(O)cc(=O)[nH]1)Nc1cccc(C(=O)NCCCNC(=O)c2ccc(-c3c4nc(c(-c5c(F)cccc5F)c5ccc([nH]5)c(-c5c(F)cccc5F)c5nc(c(-c6c(F)cccc6F)c6ccc3[nH]6)C=C5)C=C4)cc2)c1
REMARK SMILES IDX 19 1 20 2 21 3 18 5 14 6 15 7 82 8 16 9 17 10 13 11 1 12
REMARK SMILES IDX 2 13 3 15 4 16 5 17 6 18 12 19 7 20 10 21 9 23 11 24 8 25
REMARK SMILES IDX 22 27 23 28 24 29 25 30 26 31 27 33 28 34 29 35 81 36 30 37
REMARK SMILES IDX 80 38 31 39 32 40 33 41 74 42 34 43 79 44 73 45 75 46 35 47
REMARK SMILES IDX 78 48 72 49 71 50 36 52 62 53 45 54 61 55 46 56 49 57 60 58
REMARK SMILES IDX 76 59 47 60 48 61 59 63 77 64 50 65 37 66 38 67 43 68 39 69
REMARK SMILES IDX 40 70 42 71 44 72 41 73 63 74 64 75 69 76 65 77 66 78 68 79
REMARK SMILES IDX 70 80 67 81 51 82 52 83 57 84 53 85 54 86 56 87 58 88 55 89
REMARK H PARENT 21 4 13 14 12 22 8 26 25 32 75 51 49 62
REMARK Flexibility Score: inf
ROOT
ATOM      1  C   UNL     1      -0.439  -3.860  -1.781  1.00  0.00     0.251 C 
ATOM      2  O   UNL     1      -1.044  -4.924  -1.906  1.00  0.00    -0.269 OA
ATOM      3  N   UNL     1      -0.777  -2.816  -2.616  1.00  0.00    -0.352 N 
ATOM      4  H   UNL     1      -1.515  -3.027  -3.233  1.00  0.00     0.163 HD
ENDROOT
BRANCH   1   5
ATOM      5  C   UNL     1       0.679  -3.775  -0.802  1.00  0.00     0.041 A 
ATOM      6  C   UNL     1       2.309  -2.440   0.383  1.00  0.00     0.041 A 
ATOM      7  C   UNL     1       3.057  -3.591   0.643  1.00  0.00     0.026 A 
ATOM      8  C   UNL     1       1.055  -2.575  -0.205  1.00  0.00     0.040 A 
ATOM      9  C   UNL     1       2.579  -4.843   0.245  1.00  0.00     0.003 A 
ATOM     10  C   UNL     1       1.415  -4.930  -0.518  1.00  0.00     0.014 A 
BRANCH   6  11
ATOM     11  N   UNL     1       2.910  -1.181   0.608  1.00  0.00    -0.325 N 
ATOM     12  O   UNL     1       1.169   0.287   0.094  1.00  0.00    -0.274 OA
ATOM     13  C   UNL     1       2.342   0.069   0.386  1.00  0.00     0.234 C 
ATOM     14  H   UNL     1       3.829  -1.190   0.959  1.00  0.00     0.169 HD
BRANCH  13  15
ATOM     15  C   UNL     1       3.333   1.222   0.439  1.00  0.00     0.178 C 
BRANCH  15  16
ATOM     16  S   UNL     1       4.455   1.104   1.859  1.00  0.00    -0.078 SA
BRANCH  16  17
ATOM     17  C   UNL     1       3.272   1.145   3.130  1.00  0.00     0.172 A 
ATOM     18  N   UNL     1       2.772   2.251   3.563  1.00  0.00    -0.189 NA
ATOM     19  N   UNL     1       2.966  -0.087   3.606  1.00  0.00    -0.301 N 
ATOM     20  C   UNL     1       1.879   2.131   4.591  1.00  0.00     0.218 A 
ATOM     21  C   UNL     1       2.071  -0.258   4.614  1.00  0.00     0.255 A 
ATOM     22  H   UNL     1       3.404  -0.876   3.212  1.00  0.00     0.172 HD
ATOM     23  C   UNL     1       1.492   0.980   5.145  1.00  0.00     0.139 A 
ATOM     24  O   UNL     1       1.779  -1.359   5.056  1.00  0.00    -0.269 OA
BRANCH  20  25
ATOM     25  O   UNL     1       1.376   3.310   5.075  1.00  0.00    -0.493 OA
ATOM     26  H   UNL     1       1.641   4.124   4.694  1.00  0.00     0.295 HD
ENDBRANCH  20  25
ENDBRANCH  16  17
ENDBRANCH  15  16
ENDBRANCH  13  15
ENDBRANCH   6  11
ENDBRANCH   1   5
BRANCH   3  27
ATOM     27  C   UNL     1      -0.258  -1.460  -2.768  1.00  0.00     0.118 C 
BRANCH  27  28
ATOM     28  C   UNL     1       0.241  -1.136  -4.165  1.00  0.00     0.042 C 
BRANCH  28  29
ATOM     29  C   UNL     1      -0.844  -1.062  -5.223  1.00  0.00     0.118 C 
BRANCH  29  30
ATOM     30  N   UNL     1      -1.798   0.016  -4.987  1.00  0.00    -0.352 N 
ATOM     31  C   UNL     1      -1.995   1.209  -5.641  1.00  0.00     0.251 C 
ATOM     32  H   UNL     1      -2.405  -0.137  -4.227  1.00  0.00     0.163 HD
ATOM     33  O   UNL     1      -2.739   2.053  -5.149  1.00  0.00    -0.269 OA
BRANCH  31  34
ATOM     34  C   UNL     1      -1.306   1.500  -6.917  1.00  0.00     0.039 A 
ATOM     35  C   UNL     1      -0.841   2.797  -7.158  1.00  0.00     0.014 A 
ATOM     36  C   UNL     1      -1.136   0.514  -7.889  1.00  0.00     0.014 A 
ATOM     37  C   UNL     1      -0.136   3.077  -8.332  1.00  0.00     0.010 A 
ATOM     38  C   UNL     1      -0.341   0.763  -9.001  1.00  0.00     0.010 A 
ATOM     39  C   UNL     1       0.162   2.050  -9.242  1.00  0.00    -0.014 A 
BRANCH  39  40
ATOM     40  C   UNL     1       0.984   2.293 -10.455  1.00  0.00     0.031 A 
ATOM     41  C   UNL     1       0.407   2.034 -11.821  1.00  0.00     0.074 A 
ATOM     42  C   UNL     1       2.273   2.666 -10.325  1.00  0.00     0.049 A 
ATOM     43  N   UNL     1       0.993   2.086 -12.990  1.00  0.00    -0.248 NA
ATOM     44  C   UNL     1      -1.008   1.631 -11.878  1.00  0.00     0.031 C 
ATOM     45  C   UNL     1       2.964   2.900  -9.055  1.00  0.00     0.029 A 
ATOM     46  N   UNL     1       3.237   2.901 -11.274  1.00  0.00    -0.354 N 
ATOM     47  C   UNL     1       0.027   1.704 -13.914  1.00  0.00     0.074 A 
ATOM     48  C   UNL     1      -1.163   1.365 -13.166  1.00  0.00     0.031 C 
ATOM     49  C   UNL     1       4.231   3.267  -9.304  1.00  0.00     0.029 A 
ATOM     50  C   UNL     1       4.457   3.249 -10.746  1.00  0.00     0.049 A 
ATOM     51  H   UNL     1       3.070   2.826 -12.241  1.00  0.00     0.167 HD
ATOM     52  C   UNL     1       0.115   1.664 -15.264  1.00  0.00     0.037 A 
ATOM     53  C   UNL     1       5.629   3.512 -11.354  1.00  0.00     0.037 A 
ATOM     54  C   UNL     1       1.294   2.029 -16.005  1.00  0.00     0.049 A 
ATOM     55  C   UNL     1       5.704   3.450 -12.855  1.00  0.00     0.074 A 
ATOM     56  C   UNL     1       1.466   2.085 -17.377  1.00  0.00     0.029 A 
ATOM     57  N   UNL     1       2.502   2.398 -15.434  1.00  0.00    -0.354 N 
ATOM     58  N   UNL     1       4.762   3.157 -13.719  1.00  0.00    -0.248 NA
ATOM     59  C   UNL     1       7.003   3.761 -13.467  1.00  0.00     0.031 C 
ATOM     60  C   UNL     1       2.794   2.434 -17.636  1.00  0.00     0.029 A 
ATOM     61  C   UNL     1       3.433   2.657 -16.426  1.00  0.00     0.049 A 
ATOM     62  H   UNL     1       2.673   2.466 -14.467  1.00  0.00     0.167 HD
ATOM     63  C   UNL     1       5.344   3.279 -14.974  1.00  0.00     0.074 A 
ATOM     64  C   UNL     1       6.717   3.687 -14.759  1.00  0.00     0.031 C 
ATOM     65  C   UNL     1       4.793   3.073 -16.195  1.00  0.00     0.037 A 
BRANCH  52  66
ATOM     66  C   UNL     1      -1.097   1.214 -16.029  1.00  0.00     0.057 A 
ATOM     67  C   UNL     1      -2.263   1.989 -16.094  1.00  0.00     0.134 A 
ATOM     68  C   UNL     1      -1.085   0.009 -16.742  1.00  0.00     0.134 A 
ATOM     69  F   UNL     1      -2.347   3.149 -15.425  1.00  0.00    -0.206 F 
ATOM     70  C   UNL     1      -3.381   1.570 -16.817  1.00  0.00     0.040 A 
ATOM     71  C   UNL     1      -2.186  -0.407 -17.494  1.00  0.00     0.040 A 
ATOM     72  F   UNL     1      -0.000  -0.781 -16.730  1.00  0.00    -0.206 F 
ATOM     73  C   UNL     1      -3.341   0.372 -17.527  1.00  0.00     0.006 A 
ENDBRANCH  52  66
BRANCH  53  74
ATOM     74  C   UNL     1       6.826   3.870 -10.550  1.00  0.00     0.057 A 
ATOM     75  C   UNL     1       7.372   5.159 -10.601  1.00  0.00     0.134 A 
ATOM     76  C   UNL     1       7.462   2.935  -9.725  1.00  0.00     0.134 A 
ATOM     77  F   UNL     1       6.819   6.095 -11.385  1.00  0.00    -0.206 F 
ATOM     78  C   UNL     1       8.522   5.496  -9.884  1.00  0.00     0.040 A 
ATOM     79  C   UNL     1       8.595   3.267  -8.980  1.00  0.00     0.040 A 
ATOM     80  F   UNL     1       6.984   1.686  -9.621  1.00  0.00    -0.206 F 
ATOM     81  C   UNL     1       9.134   4.549  -9.066  1.00  0.00     0.006 A 
ENDBRANCH  53  74
BRANCH  65  82
ATOM     82  C   UNL     1       5.659   3.327 -17.395  1.00  0.00     0.057 A 
ATOM     83  C   UNL     1       6.720   2.479 -17.738  1.00  0.00     0.134 A 
ATOM     84  C   UNL     1       5.397   4.410 -18.243  1.00  0.00     0.134 A 
ATOM     85  F   UNL     1       7.032   1.431 -16.961  1.00  0.00    -0.206 F 
ATOM     86  C   UNL     1       7.503   2.714 -18.869  1.00  0.00     0.040 A 
ATOM     87  C   UNL     1       6.153   4.638 -19.393  1.00  0.00     0.040 A 
ATOM     88  F   UNL     1       4.389   5.255 -17.978  1.00  0.00    -0.206 F 
ATOM     89  C   UNL     1       7.215   3.792 -19.705  1.00  0.00     0.006 A 
ENDBRANCH  65  82
ENDBRANCH  39  40
ENDBRANCH  31  34
ENDBRANCH  29  30
ENDBRANCH  28  29
ENDBRANCH  27  28
ENDBRANCH   3  27
TORSDOF 15
