REMARK SMILES O=C(NCCCNC(=O)[C@H](CO)NC(=O)[C@H](Cc1c[nH]c2ccccc12)NC(=O)[C@H](Cc1ccc(O)cc1)NC(=O)c1ccc(F)cc1)c1ccc(-c2c3nc(c(-c4c(F)cccc4F)c4ccc([nH]4)c(-c4c(F)cccc4F)c4nc(c(-c5c(F)cccc5F)c5ccc2[nH]5)C=C4)C=C3)cc1
REMARK SMILES IDX 7 1 8 2 9 3 6 5 5 6 4 7 3 8 1 9 2 10 49 12 50 13 102 14
REMARK SMILES IDX 51 15 101 16 52 17 53 18 54 19 95 20 55 21 100 22 94 23
REMARK SMILES IDX 96 24 56 25 99 26 93 27 92 28 57 30 83 31 66 32 82 33 67 34
REMARK SMILES IDX 70 35 81 36 97 37 68 38 69 39 80 41 98 42 71 43 58 44 59 45
REMARK SMILES IDX 64 46 60 47 61 48 63 49 65 50 62 51 84 52 85 53 90 54 86 55
REMARK SMILES IDX 87 56 89 57 91 58 88 59 72 60 73 61 78 62 74 63 75 64 77 65
REMARK SMILES IDX 79 66 76 67 10 68 13 69 14 70 15 72 16 73 27 74 28 75 29 77
REMARK SMILES IDX 30 78 39 79 40 80 41 82 42 83 43 84 48 85 44 86 47 87 45 88
REMARK SMILES IDX 46 89 31 90 32 91 33 92 38 93 34 94 37 95 35 96 36 97 17 99
REMARK SMILES IDX 18 100 19 101 26 102 20 103 21 104 25 105 22 107 24 108
REMARK SMILES IDX 23 109 11 110 12 111
REMARK H PARENT 7 4 3 11 96 29 70 40 13 71 27 76 39 81 36 98 20 106 12 112
REMARK Flexibility Score: inf
ROOT
ATOM      1  N   UNL     1       1.538  -5.884   4.826  1.00  0.00    -0.354 N 
ATOM      2  C   UNL     1       2.725  -6.080   5.566  1.00  0.00     0.244 C 
ATOM      3  O   UNL     1       3.685  -6.472   4.877  1.00  0.00    -0.273 OA
ATOM      4  H   UNL     1       1.693  -5.996   3.860  1.00  0.00     0.163 HD
ENDROOT
BRANCH   1   5
ATOM      5  C   UNL     1       0.084  -5.546   5.121  1.00  0.00     0.117 C 
BRANCH   5   6
ATOM      6  C   UNL     1      -0.955  -6.006   4.147  1.00  0.00     0.042 C 
BRANCH   6   7
ATOM      7  C   UNL     1      -0.875  -7.491   3.906  1.00  0.00     0.118 C 
BRANCH   7   8
ATOM      8  N   UNL     1      -1.418  -8.340   4.978  1.00  0.00    -0.352 N 
ATOM      9  O   UNL     1      -2.753  -9.864   5.994  1.00  0.00    -0.269 OA
ATOM     10  C   UNL     1      -2.528  -9.145   5.030  1.00  0.00     0.251 C 
ATOM     11  H   UNL     1      -0.889  -8.328   5.808  1.00  0.00     0.163 HD
BRANCH  10  12
ATOM     12  C   UNL     1      -3.498  -9.002   3.950  1.00  0.00     0.039 A 
ATOM     13  C   UNL     1      -3.027  -9.008   2.647  1.00  0.00     0.014 A 
ATOM     14  C   UNL     1      -4.769  -8.536   4.276  1.00  0.00     0.014 A 
ATOM     15  C   UNL     1      -3.674  -8.205   1.736  1.00  0.00     0.010 A 
ATOM     16  C   UNL     1      -5.539  -7.969   3.273  1.00  0.00     0.010 A 
ATOM     17  C   UNL     1      -4.971  -7.754   2.008  1.00  0.00    -0.014 A 
BRANCH  17  18
ATOM     18  C   UNL     1      -5.774  -7.200   0.904  1.00  0.00     0.031 A 
ATOM     19  C   UNL     1      -6.454  -5.875   1.021  1.00  0.00     0.074 A 
ATOM     20  C   UNL     1      -5.927  -7.980  -0.183  1.00  0.00     0.049 A 
ATOM     21  N   UNL     1      -7.343  -5.348   0.223  1.00  0.00    -0.248 NA
ATOM     22  C   UNL     1      -6.117  -5.041   2.186  1.00  0.00     0.031 C 
ATOM     23  C   UNL     1      -5.287  -9.286  -0.385  1.00  0.00     0.029 A 
ATOM     24  N   UNL     1      -6.671  -7.805  -1.315  1.00  0.00    -0.354 N 
ATOM     25  C   UNL     1      -7.712  -4.146   0.810  1.00  0.00     0.074 A 
ATOM     26  C   UNL     1      -6.958  -4.025   2.039  1.00  0.00     0.031 C 
ATOM     27  C   UNL     1      -5.627  -9.771  -1.579  1.00  0.00     0.029 A 
ATOM     28  C   UNL     1      -6.617  -8.884  -2.161  1.00  0.00     0.049 A 
ATOM     29  H   UNL     1      -7.192  -6.991  -1.504  1.00  0.00     0.167 HD
ATOM     30  C   UNL     1      -8.611  -3.245   0.352  1.00  0.00     0.037 A 
ATOM     31  C   UNL     1      -7.338  -9.181  -3.253  1.00  0.00     0.037 A 
ATOM     32  C   UNL     1      -9.339  -3.411  -0.881  1.00  0.00     0.049 A 
ATOM     33  C   UNL     1      -8.369  -8.204  -3.701  1.00  0.00     0.074 A 
ATOM     34  C   UNL     1     -10.238  -2.541  -1.468  1.00  0.00     0.029 A 
ATOM     35  N   UNL     1      -9.268  -4.531  -1.702  1.00  0.00    -0.354 N 
ATOM     36  N   UNL     1      -8.698  -7.059  -3.155  1.00  0.00    -0.248 NA
ATOM     37  C   UNL     1      -9.130  -8.548  -4.904  1.00  0.00     0.031 C 
ATOM     38  C   UNL     1     -10.781  -3.172  -2.589  1.00  0.00     0.029 A 
ATOM     39  C   UNL     1     -10.146  -4.393  -2.764  1.00  0.00     0.049 A 
ATOM     40  H   UNL     1      -8.681  -5.307  -1.551  1.00  0.00     0.167 HD
ATOM     41  C   UNL     1      -9.689  -6.527  -3.962  1.00  0.00     0.074 A 
ATOM     42  C   UNL     1      -9.907  -7.479  -5.034  1.00  0.00     0.031 C 
ATOM     43  C   UNL     1     -10.344  -5.350  -3.827  1.00  0.00     0.037 A 
BRANCH  30  44
ATOM     44  C   UNL     1      -8.899  -2.037   1.198  1.00  0.00     0.057 A 
ATOM     45  C   UNL     1     -10.177  -1.847   1.745  1.00  0.00     0.134 A 
ATOM     46  C   UNL     1      -7.945  -1.040   1.439  1.00  0.00     0.134 A 
ATOM     47  F   UNL     1     -11.145  -2.755   1.550  1.00  0.00    -0.206 F 
ATOM     48  C   UNL     1     -10.495  -0.711   2.491  1.00  0.00     0.040 A 
ATOM     49  C   UNL     1      -8.241   0.083   2.216  1.00  0.00     0.040 A 
ATOM     50  F   UNL     1      -6.700  -1.156   0.953  1.00  0.00    -0.206 F 
ATOM     51  C   UNL     1      -9.522   0.254   2.736  1.00  0.00     0.006 A 
ENDBRANCH  30  44
BRANCH  31  52
ATOM     52  C   UNL     1      -7.070 -10.462  -3.946  1.00  0.00     0.057 A 
ATOM     53  C   UNL     1      -7.355 -11.696  -3.340  1.00  0.00     0.134 A 
ATOM     54  C   UNL     1      -6.371 -10.480  -5.155  1.00  0.00     0.134 A 
ATOM     55  F   UNL     1      -7.985 -11.740  -2.156  1.00  0.00    -0.206 F 
ATOM     56  C   UNL     1      -6.918 -12.898  -3.894  1.00  0.00     0.040 A 
ATOM     57  C   UNL     1      -5.955 -11.678  -5.736  1.00  0.00     0.040 A 
ATOM     58  F   UNL     1      -6.063  -9.330  -5.771  1.00  0.00    -0.206 F 
ATOM     59  C   UNL     1      -6.215 -12.890  -5.097  1.00  0.00     0.006 A 
ENDBRANCH  31  52
BRANCH  43  60
ATOM     60  C   UNL     1     -11.344  -4.982  -4.880  1.00  0.00     0.057 A 
ATOM     61  C   UNL     1     -11.097  -3.894  -5.729  1.00  0.00     0.134 A 
ATOM     62  C   UNL     1     -12.602  -5.590  -4.948  1.00  0.00     0.134 A 
ATOM     63  F   UNL     1      -9.911  -3.268  -5.705  1.00  0.00    -0.206 F 
ATOM     64  C   UNL     1     -12.087  -3.388  -6.569  1.00  0.00     0.040 A 
ATOM     65  C   UNL     1     -13.590  -5.112  -5.810  1.00  0.00     0.040 A 
ATOM     66  F   UNL     1     -12.891  -6.647  -4.174  1.00  0.00    -0.206 F 
ATOM     67  C   UNL     1     -13.340  -3.995  -6.606  1.00  0.00     0.006 A 
ENDBRANCH  43  60
ENDBRANCH  17  18
ENDBRANCH  10  12
ENDBRANCH   7   8
ENDBRANCH   6   7
ENDBRANCH   5   6
ENDBRANCH   1   5
BRANCH   2  68
ATOM     68  C   UNL     1       3.079  -5.625   7.343  1.00  0.00     0.197 C 
BRANCH  68  69
ATOM     69  N   UNL     1       4.352  -4.700   6.798  1.00  0.00    -0.340 N 
ATOM     70  C   UNL     1       5.411  -4.099   7.405  1.00  0.00     0.243 C 
ATOM     71  H   UNL     1       4.334  -4.557   5.824  1.00  0.00     0.164 HD
ATOM     72  O   UNL     1       6.254  -3.595   6.656  1.00  0.00    -0.273 OA
BRANCH  70  73
ATOM     73  C   UNL     1       5.557  -4.002   8.953  1.00  0.00     0.175 C 
BRANCH  73  74
ATOM     74  N   UNL     1       5.202  -2.814   9.728  1.00  0.00    -0.342 N 
ATOM     75  C   UNL     1       5.830  -2.480  10.909  1.00  0.00     0.243 C 
ATOM     76  H   UNL     1       4.485  -2.228   9.393  1.00  0.00     0.164 HD
ATOM     77  O   UNL     1       5.173  -2.034  11.852  1.00  0.00    -0.273 OA
BRANCH  75  78
ATOM     78  C   UNL     1       7.370  -2.606  10.978  1.00  0.00     0.176 C 
BRANCH  78  79
ATOM     79  N   UNL     1       7.723  -4.046  11.081  1.00  0.00    -0.340 N 
ATOM     80  C   UNL     1       7.833  -4.893  12.147  1.00  0.00     0.251 C 
ATOM     81  H   UNL     1       7.915  -4.472  10.214  1.00  0.00     0.164 HD
ATOM     82  O   UNL     1       7.678  -6.099  11.973  1.00  0.00    -0.269 OA
BRANCH  80  83
ATOM     83  C   UNL     1       8.377  -4.396  13.412  1.00  0.00     0.040 A 
ATOM     84  C   UNL     1       7.779  -3.373  14.145  1.00  0.00     0.017 A 
ATOM     85  C   UNL     1       9.602  -4.953  13.809  1.00  0.00     0.017 A 
ATOM     86  C   UNL     1       8.469  -2.832  15.227  1.00  0.00     0.040 A 
ATOM     87  C   UNL     1      10.279  -4.417  14.898  1.00  0.00     0.040 A 
ATOM     88  C   UNL     1       9.717  -3.345  15.581  1.00  0.00     0.123 A 
ATOM     89  F   UNL     1      10.392  -2.789  16.594  1.00  0.00    -0.207 F 
ENDBRANCH  80  83
ENDBRANCH  78  79
BRANCH  78  90
ATOM     90  C   UNL     1       8.049  -1.847   9.782  1.00  0.00     0.070 C 
BRANCH  90  91
ATOM     91  C   UNL     1       7.180  -0.858   8.994  1.00  0.00    -0.045 A 
ATOM     92  C   UNL     1       7.098  -0.989   7.599  1.00  0.00     0.007 A 
ATOM     93  C   UNL     1       6.283   0.024   9.623  1.00  0.00     0.007 A 
ATOM     94  C   UNL     1       6.009  -0.464   6.892  1.00  0.00     0.046 A 
ATOM     95  C   UNL     1       5.175   0.521   8.922  1.00  0.00     0.046 A 
ATOM     96  C   UNL     1       5.019   0.226   7.575  1.00  0.00     0.115 A 
BRANCH  96  97
ATOM     97  O   UNL     1       3.852   0.583   6.965  1.00  0.00    -0.508 OA
ATOM     98  H   UNL     1       3.722   0.394   6.056  1.00  0.00     0.293 HD
ENDBRANCH  96  97
ENDBRANCH  90  91
ENDBRANCH  78  90
ENDBRANCH  75  78
ENDBRANCH  73  74
BRANCH  73  99
ATOM     99  C   UNL     1       4.870  -5.125   9.681  1.00  0.00     0.072 C 
BRANCH  99 100
ATOM    100  C   UNL     1       3.467  -5.098   9.216  1.00  0.00    -0.020 A 
ATOM    101  C   UNL     1       2.703  -3.876   8.156  1.00  0.00     0.087 A 
ATOM    102  C   UNL     1       2.602  -6.768   8.987  1.00  0.00     0.003 A 
ATOM    103  N   UNL     1       1.463  -4.797   7.101  1.00  0.00    -0.361 N 
ATOM    104  C   UNL     1       1.460  -6.609   7.643  1.00  0.00     0.046 A 
ATOM    105  C   UNL     1       2.882  -8.026   9.520  1.00  0.00     0.010 A 
ATOM    106  H   UNL     1       0.908  -4.406   6.388  1.00  0.00     0.166 HD
ATOM    107  C   UNL     1       1.178  -7.861   7.062  1.00  0.00     0.026 A 
ATOM    108  C   UNL     1       2.323  -9.136   8.893  1.00  0.00     0.001 A 
ATOM    109  C   UNL     1       1.564  -9.057   7.710  1.00  0.00     0.002 A 
ENDBRANCH  99 100
ENDBRANCH  73  99
ENDBRANCH  70  73
ENDBRANCH  68  69
BRANCH  68 110
ATOM    110  C   UNL     1       1.498  -5.132   8.909  1.00  0.00     0.191 C 
BRANCH 110 111
ATOM    111  O   UNL     1       0.251  -4.085   8.663  1.00  0.00    -0.394 OA
ATOM    112  H   UNL     1       0.597  -3.182   8.590  1.00  0.00     0.210 HD
ENDBRANCH 110 111
ENDBRANCH  68 110
ENDBRANCH   2  68
TORSDOF 23
