REMARK SMILES NC(=O)c1cc(NC(=O)/C=C\C(=O)NCCCNC(=O)c2ccc(-c3c4nc(c(-c5c(F)cccc5F)c5ccc([nH]5)c(-c5c(F)cccc5F)c5nc(c(-c6c(F)cccc6F)c6ccc3[nH]6)C=C5)C=C4)cc2)ccc1N1CCOCC1
REMARK SMILES IDX 15 1 14 2 12 3 13 4 11 6 10 7 8 8 7 9 9 11 6 12 4 13 5 14
REMARK SMILES IDX 77 15 76 16 75 17 2 18 1 19 3 22 78 23 79 24 83 25 80 26
REMARK SMILES IDX 82 27 81 28 16 29 17 30 18 31 19 32 20 34 21 35 22 36 74 37
REMARK SMILES IDX 23 38 73 39 24 40 25 41 26 42 67 43 27 44 72 45 66 46 68 47
REMARK SMILES IDX 28 48 71 49 65 50 64 51 29 53 55 54 38 55 54 56 39 57 42 58
REMARK SMILES IDX 53 59 69 60 40 61 41 62 52 64 70 65 43 66 30 67 31 68 36 69
REMARK SMILES IDX 32 70 33 71 35 72 37 73 34 74 56 75 57 76 62 77 58 78 59 79
REMARK SMILES IDX 61 80 63 81 60 82 44 83 45 84 50 85 46 86 47 87 49 88 51 89
REMARK SMILES IDX 48 90
REMARK H PARENT 14 5 7 10 1 20 1 21 18 33 68 52 42 63
REMARK Flexibility Score: inf
ROOT
ATOM      1  C   UNL     1       0.293  -2.451   5.537  1.00  0.00     0.118 C 
ENDROOT
BRANCH   1   2
ATOM      2  N   UNL     1       1.143  -2.111   4.098  1.00  0.00    -0.352 N 
ATOM      3  C   UNL     1       1.294  -2.581   2.189  1.00  0.00     0.244 C 
ATOM      4  O   UNL     1       2.132  -2.215   1.316  1.00  0.00    -0.270 OA
ATOM      5  H   UNL     1       1.812  -1.417   4.296  1.00  0.00     0.163 HD
BRANCH   3   6
ATOM      6  C   UNL     1       0.222  -3.501   1.191  1.00  0.00     0.077 C 
ATOM      7  C   UNL     1      -0.514  -4.632   1.260  1.00  0.00     0.077 C 
BRANCH   7   8
ATOM      8  C   UNL     1      -0.541  -5.599   2.390  1.00  0.00     0.248 C 
ATOM      9  N   UNL     1       0.285  -5.285   3.420  1.00  0.00    -0.322 N 
ATOM     10  H   UNL     1       0.604  -5.980   4.040  1.00  0.00     0.170 HD
ATOM     11  O   UNL     1      -1.155  -6.654   2.317  1.00  0.00    -0.270 OA
BRANCH   9  12
ATOM     12  C   UNL     1       0.669  -3.967   3.579  1.00  0.00     0.042 A 
ATOM     13  C   UNL     1       0.075  -0.947   2.805  1.00  0.00     0.064 A 
ATOM     14  C   UNL     1      -0.556  -2.616   3.201  1.00  0.00     0.042 A 
ATOM     15  C   UNL     1       1.862  -0.577   2.865  1.00  0.00     0.050 A 
ATOM     16  C   UNL     1       3.039  -1.914   3.335  1.00  0.00     0.029 A 
ATOM     17  C   UNL     1       2.450  -3.601   3.650  1.00  0.00     0.028 A 
BRANCH  13  18
ATOM     18  C   UNL     1      -0.775  -0.296   1.788  1.00  0.00     0.250 C 
ATOM     19  N   UNL     1      -0.164  -0.169   0.573  1.00  0.00    -0.366 N 
ATOM     20  H   UNL     1      -0.643   0.252  -0.177  1.00  0.00     0.159 HD
ATOM     21  H   UNL     1       0.755  -0.499   0.448  1.00  0.00     0.159 HD
ATOM     22  O   UNL     1      -1.954  -0.047   1.979  1.00  0.00    -0.269 OA
ENDBRANCH  13  18
BRANCH  15  23
ATOM     23  N   UNL     1       2.404   0.602   2.334  1.00  0.00    -0.366 N 
ATOM     24  C   UNL     1       1.678   1.862   2.067  1.00  0.00     0.145 C 
ATOM     25  C   UNL     1       3.813   0.647   1.902  1.00  0.00     0.145 C 
ATOM     26  C   UNL     1       1.917   2.347   0.613  1.00  0.00     0.181 C 
ATOM     27  C   UNL     1       3.909   1.115   0.443  1.00  0.00     0.181 C 
ATOM     28  O   UNL     1       3.314   2.409   0.280  1.00  0.00    -0.378 OA
ENDBRANCH  15  23
ENDBRANCH   9  12
ENDBRANCH   7   8
ENDBRANCH   3   6
ENDBRANCH   1   2
BRANCH   1  29
ATOM     29  C   UNL     1       0.477  -3.797   6.307  1.00  0.00     0.042 C 
BRANCH  29  30
ATOM     30  C   UNL     1       1.884  -4.135   6.792  1.00  0.00     0.118 C 
BRANCH  30  31
ATOM     31  N   UNL     1       2.138  -3.524   8.080  1.00  0.00    -0.352 N 
ATOM     32  C   UNL     1       2.637  -4.123   9.206  1.00  0.00     0.251 C 
ATOM     33  H   UNL     1       1.927  -2.565   8.155  1.00  0.00     0.163 HD
ATOM     34  O   UNL     1       2.433  -3.620  10.306  1.00  0.00    -0.269 OA
BRANCH  32  35
ATOM     35  C   UNL     1       3.436  -5.365   9.098  1.00  0.00     0.039 A 
ATOM     36  C   UNL     1       3.251  -6.367  10.053  1.00  0.00     0.014 A 
ATOM     37  C   UNL     1       4.432  -5.500   8.123  1.00  0.00     0.014 A 
ATOM     38  C   UNL     1       4.068  -7.498  10.040  1.00  0.00     0.010 A 
ATOM     39  C   UNL     1       5.213  -6.657   8.079  1.00  0.00     0.010 A 
ATOM     40  C   UNL     1       5.056  -7.656   9.052  1.00  0.00    -0.014 A 
BRANCH  40  41
ATOM     41  C   UNL     1       5.937  -8.853   9.059  1.00  0.00     0.031 A 
ATOM     42  C   UNL     1       7.415  -8.713   9.316  1.00  0.00     0.074 A 
ATOM     43  C   UNL     1       5.403 -10.069   8.836  1.00  0.00     0.049 A 
ATOM     44  N   UNL     1       8.337  -9.642   9.364  1.00  0.00    -0.248 NA
ATOM     45  C   UNL     1       7.928  -7.351   9.532  1.00  0.00     0.031 C 
ATOM     46  C   UNL     1       3.992 -10.329   8.547  1.00  0.00     0.029 A 
ATOM     47  N   UNL     1       5.980 -11.314   8.819  1.00  0.00    -0.354 N 
ATOM     48  C   UNL     1       9.531  -8.980   9.620  1.00  0.00     0.074 A 
ATOM     49  C   UNL     1       9.230  -7.565   9.653  1.00  0.00     0.031 C 
ATOM     50  C   UNL     1       3.808 -11.652   8.409  1.00  0.00     0.029 A 
ATOM     51  C   UNL     1       5.092 -12.329   8.553  1.00  0.00     0.049 A 
ATOM     52  H   UNL     1       6.939 -11.466   8.983  1.00  0.00     0.167 HD
ATOM     53  C   UNL     1      10.762  -9.504   9.834  1.00  0.00     0.037 A 
ATOM     54  C   UNL     1       5.293 -13.654   8.423  1.00  0.00     0.037 A 
ATOM     55  C   UNL     1      11.056 -10.914   9.802  1.00  0.00     0.049 A 
ATOM     56  C   UNL     1       6.681 -14.203   8.617  1.00  0.00     0.074 A 
ATOM     57  C   UNL     1      12.264 -11.548  10.035  1.00  0.00     0.029 A 
ATOM     58  N   UNL     1      10.133 -11.908   9.514  1.00  0.00    -0.354 N 
ATOM     59  N   UNL     1       7.789 -13.569   8.919  1.00  0.00    -0.248 NA
ATOM     60  C   UNL     1       6.846 -15.655   8.460  1.00  0.00     0.031 C 
ATOM     61  C   UNL     1      12.087 -12.918   9.824  1.00  0.00     0.029 A 
ATOM     62  C   UNL     1      10.752 -13.148   9.534  1.00  0.00     0.049 A 
ATOM     63  H   UNL     1       9.179 -11.756   9.323  1.00  0.00     0.167 HD
ATOM     64  C   UNL     1       8.771 -14.546   9.021  1.00  0.00     0.074 A 
ATOM     65  C   UNL     1       8.124 -15.816   8.772  1.00  0.00     0.031 C 
ATOM     66  C   UNL     1      10.092 -14.406   9.294  1.00  0.00     0.037 A 
BRANCH  53  67
ATOM     67  C   UNL     1      11.890  -8.554  10.125  1.00  0.00     0.057 A 
ATOM     68  C   UNL     1      11.958  -7.833  11.325  1.00  0.00     0.134 A 
ATOM     69  C   UNL     1      12.953  -8.405   9.225  1.00  0.00     0.134 A 
ATOM     70  F   UNL     1      10.970  -7.921  12.229  1.00  0.00    -0.206 F 
ATOM     71  C   UNL     1      13.030  -6.984  11.609  1.00  0.00     0.040 A 
ATOM     72  C   UNL     1      14.046  -7.584   9.512  1.00  0.00     0.040 A 
ATOM     73  F   UNL     1      12.959  -9.071   8.060  1.00  0.00    -0.206 F 
ATOM     74  C   UNL     1      14.083  -6.866  10.705  1.00  0.00     0.006 A 
ENDBRANCH  53  67
BRANCH  54  75
ATOM     75  C   UNL     1       4.162 -14.557   8.081  1.00  0.00     0.057 A 
ATOM     76  C   UNL     1       3.719 -15.544   8.970  1.00  0.00     0.134 A 
ATOM     77  C   UNL     1       3.524 -14.483   6.836  1.00  0.00     0.134 A 
ATOM     78  F   UNL     1       4.297 -15.678  10.173  1.00  0.00    -0.206 F 
ATOM     79  C   UNL     1       2.714 -16.448   8.620  1.00  0.00     0.040 A 
ATOM     80  C   UNL     1       2.493 -15.356   6.487  1.00  0.00     0.040 A 
ATOM     81  F   UNL     1       3.890 -13.554   5.941  1.00  0.00    -0.206 F 
ATOM     82  C   UNL     1       2.096 -16.352   7.375  1.00  0.00     0.006 A 
ENDBRANCH  54  75
BRANCH  66  83
ATOM     83  C   UNL     1      10.915 -15.660   9.385  1.00  0.00     0.057 A 
ATOM     84  C   UNL     1      11.199 -16.449   8.263  1.00  0.00     0.134 A 
ATOM     85  C   UNL     1      11.457 -16.065  10.612  1.00  0.00     0.134 A 
ATOM     86  F   UNL     1      10.703 -16.125   7.059  1.00  0.00    -0.206 F 
ATOM     87  C   UNL     1      11.963 -17.613   8.364  1.00  0.00     0.040 A 
ATOM     88  C   UNL     1      12.254 -17.206  10.719  1.00  0.00     0.040 A 
ATOM     89  F   UNL     1      11.237 -15.350  11.725  1.00  0.00    -0.206 F 
ATOM     90  C   UNL     1      12.499 -17.990   9.594  1.00  0.00     0.006 A 
ENDBRANCH  66  83
ENDBRANCH  40  41
ENDBRANCH  32  35
ENDBRANCH  30  31
ENDBRANCH  29  30
ENDBRANCH   1  29
TORSDOF 14
