REMARK SMILES O=C(CC1(NC(=O)c2csc(-c3ccsc3)n2)CCC1)NCCCNC(=O)c1ccc(-c2c3nc(c(-c4c(F)cccc4F)c4ccc([nH]4)c(-c4c(F)cccc4F)c4nc(c(-c5c(F)cccc5F)c5ccc2[nH]5)C=C4)C=C3)cc1
REMARK SMILES IDX 22 1 21 2 1 3 2 4 3 6 4 7 18 8 20 9 19 10 5 11 6 12 7 14
REMARK SMILES IDX 8 15 9 16 17 17 10 18 11 19 12 20 13 21 16 22 14 23 15 24
REMARK SMILES IDX 23 25 24 26 25 27 26 28 27 30 28 31 29 32 81 33 30 34 80 35
REMARK SMILES IDX 31 36 32 37 33 38 74 39 34 40 79 41 73 42 75 43 35 44 78 45
REMARK SMILES IDX 72 46 71 47 36 49 62 50 45 51 61 52 46 53 49 54 60 55 76 56
REMARK SMILES IDX 47 57 48 58 59 60 77 61 50 62 37 63 38 64 43 65 39 66 40 67
REMARK SMILES IDX 42 68 44 69 41 70 63 71 64 72 69 73 65 74 66 75 68 76 70 77
REMARK SMILES IDX 67 78 51 79 52 80 57 81 53 82 54 83 56 84 58 85 55 86
REMARK H PARENT 21 5 5 13 25 29 75 48 49 59
REMARK Flexibility Score: inf
ROOT
ATOM      1  C   UNL     1       2.527   2.978  -1.002  1.00  0.00     0.117 C 
ENDROOT
BRANCH   1   2
ATOM      2  N   UNL     1       3.312   1.776  -0.819  1.00  0.00    -0.356 N 
ATOM      3  O   UNL     1       1.599   0.736   0.223  1.00  0.00    -0.275 OA
ATOM      4  C   UNL     1       2.766   0.711  -0.151  1.00  0.00     0.222 C 
ATOM      5  H   UNL     1       4.229   1.724  -1.171  1.00  0.00     0.163 HD
BRANCH   4   6
ATOM      6  C   UNL     1       3.711  -0.438   0.098  1.00  0.00     0.128 C 
BRANCH   6   7
ATOM      7  C   UNL     1       3.819  -1.467  -1.020  1.00  0.00     0.049 C 
ATOM      8  C   UNL     1       4.875  -0.963  -2.064  1.00  0.00     0.029 C 
ATOM      9  C   UNL     1       4.772  -2.671  -0.753  1.00  0.00     0.029 C 
ATOM     10  C   UNL     1       5.538  -2.342  -2.046  1.00  0.00     0.005 C 
BRANCH   7  11
ATOM     11  N   UNL     1       2.570  -1.912  -1.691  1.00  0.00    -0.345 N 
ATOM     12  C   UNL     1       1.292  -2.263  -1.297  1.00  0.00     0.271 C 
ATOM     13  H   UNL     1       2.681  -1.972  -2.667  1.00  0.00     0.164 HD
ATOM     14  O   UNL     1       0.550  -2.665  -2.200  1.00  0.00    -0.267 OA
BRANCH  12  15
ATOM     15  C   UNL     1       0.780  -2.067   0.062  1.00  0.00     0.139 A 
ATOM     16  C   UNL     1      -0.565  -1.797   0.280  1.00  0.00     0.101 A 
ATOM     17  N   UNL     1       1.541  -2.056   1.227  1.00  0.00    -0.231 NA
ATOM     18  S   UNL     1      -0.786  -1.140   1.846  1.00  0.00    -0.122 S 
ATOM     19  C   UNL     1       0.893  -1.345   2.135  1.00  0.00     0.125 A 
BRANCH  19  20
ATOM     20  C   UNL     1       1.645  -0.595   3.201  1.00  0.00     0.021 A 
ATOM     21  C   UNL     1       1.396   0.767   3.567  1.00  0.00     0.023 A 
ATOM     22  C   UNL     1       2.772  -1.093   3.816  1.00  0.00     0.076 A 
ATOM     23  C   UNL     1       2.369   1.263   4.407  1.00  0.00     0.065 A 
ATOM     24  S   UNL     1       3.520   0.069   4.828  1.00  0.00    -0.152 S 
ENDBRANCH  19  20
ENDBRANCH  12  15
ENDBRANCH   7  11
ENDBRANCH   6   7
ENDBRANCH   4   6
ENDBRANCH   1   2
BRANCH   1  25
ATOM     25  C   UNL     1       2.609   3.885   0.222  1.00  0.00     0.042 C 
BRANCH  25  26
ATOM     26  C   UNL     1       4.040   4.212   0.629  1.00  0.00     0.118 C 
BRANCH  26  27
ATOM     27  N   UNL     1       4.828   4.713  -0.489  1.00  0.00    -0.352 N 
ATOM     28  C   UNL     1       5.598   5.839  -0.575  1.00  0.00     0.251 C 
ATOM     29  H   UNL     1       4.802   4.160  -1.303  1.00  0.00     0.163 HD
ATOM     30  O   UNL     1       6.026   6.214  -1.660  1.00  0.00    -0.269 OA
BRANCH  28  31
ATOM     31  C   UNL     1       5.909   6.592   0.651  1.00  0.00     0.039 A 
ATOM     32  C   UNL     1       5.827   7.985   0.623  1.00  0.00     0.014 A 
ATOM     33  C   UNL     1       6.305   5.920   1.812  1.00  0.00     0.014 A 
ATOM     34  C   UNL     1       6.130   8.707   1.773  1.00  0.00     0.010 A 
ATOM     35  C   UNL     1       6.526   6.637   2.979  1.00  0.00     0.010 A 
ATOM     36  C   UNL     1       6.476   8.037   2.958  1.00  0.00    -0.014 A 
BRANCH  36  37
ATOM     37  C   UNL     1       6.858   8.799   4.166  1.00  0.00     0.031 A 
ATOM     38  C   UNL     1       8.270   8.726   4.675  1.00  0.00     0.074 A 
ATOM     39  C   UNL     1       5.931   9.534   4.807  1.00  0.00     0.049 A 
ATOM     40  N   UNL     1       8.811   9.329   5.702  1.00  0.00    -0.248 NA
ATOM     41  C   UNL     1       9.191   7.832   3.952  1.00  0.00     0.031 C 
ATOM     42  C   UNL     1       4.518   9.626   4.436  1.00  0.00     0.029 A 
ATOM     43  N   UNL     1       6.043  10.348   5.903  1.00  0.00    -0.354 N 
ATOM     44  C   UNL     1      10.124   8.877   5.753  1.00  0.00     0.074 A 
ATOM     45  C   UNL     1      10.281   7.901   4.700  1.00  0.00     0.031 C 
ATOM     46  C   UNL     1       3.902  10.483   5.268  1.00  0.00     0.029 A 
ATOM     47  C   UNL     1       4.872  10.980   6.238  1.00  0.00     0.049 A 
ATOM     48  H   UNL     1       6.884  10.469   6.402  1.00  0.00     0.167 HD
ATOM     49  C   UNL     1      11.119   9.267   6.584  1.00  0.00     0.037 A 
ATOM     50  C   UNL     1       4.620  11.874   7.211  1.00  0.00     0.037 A 
ATOM     51  C   UNL     1      10.960  10.265   7.607  1.00  0.00     0.049 A 
ATOM     52  C   UNL     1       5.752  12.325   8.092  1.00  0.00     0.074 A 
ATOM     53  C   UNL     1      11.910  10.773   8.475  1.00  0.00     0.029 A 
ATOM     54  N   UNL     1       9.767  10.912   7.893  1.00  0.00    -0.354 N 
ATOM     55  N   UNL     1       7.006  11.943   8.087  1.00  0.00    -0.248 NA
ATOM     56  C   UNL     1       5.436  13.346   9.098  1.00  0.00     0.031 C 
ATOM     57  C   UNL     1      11.283  11.708   9.307  1.00  0.00     0.029 A 
ATOM     58  C   UNL     1       9.954  11.813   8.927  1.00  0.00     0.049 A 
ATOM     59  H   UNL     1       8.914  10.755   7.428  1.00  0.00     0.167 HD
ATOM     60  C   UNL     1       7.638  12.700   9.066  1.00  0.00     0.074 A 
ATOM     61  C   UNL     1       6.628  13.573   9.631  1.00  0.00     0.031 C 
ATOM     62  C   UNL     1       8.934  12.677   9.463  1.00  0.00     0.037 A 
BRANCH  49  63
ATOM     63  C   UNL     1      12.460   8.618   6.404  1.00  0.00     0.057 A 
ATOM     64  C   UNL     1      13.256   8.867   5.277  1.00  0.00     0.134 A 
ATOM     65  C   UNL     1      12.966   7.738   7.368  1.00  0.00     0.134 A 
ATOM     66  F   UNL     1      12.823   9.686   4.306  1.00  0.00    -0.206 F 
ATOM     67  C   UNL     1      14.492   8.242   5.101  1.00  0.00     0.040 A 
ATOM     68  C   UNL     1      14.214   7.128   7.217  1.00  0.00     0.040 A 
ATOM     69  F   UNL     1      12.258   7.455   8.471  1.00  0.00    -0.206 F 
ATOM     70  C   UNL     1      14.976   7.374   6.077  1.00  0.00     0.006 A 
ENDBRANCH  49  63
BRANCH  50  71
ATOM     71  C   UNL     1       3.259  12.446   7.361  1.00  0.00     0.057 A 
ATOM     72  C   UNL     1       2.995  13.779   7.024  1.00  0.00     0.134 A 
ATOM     73  C   UNL     1       2.193  11.679   7.843  1.00  0.00     0.134 A 
ATOM     74  F   UNL     1       3.980  14.567   6.568  1.00  0.00    -0.206 F 
ATOM     75  C   UNL     1       1.726  14.337   7.185  1.00  0.00     0.040 A 
ATOM     76  C   UNL     1       0.913  12.217   7.986  1.00  0.00     0.040 A 
ATOM     77  F   UNL     1       2.377  10.392   8.170  1.00  0.00    -0.206 F 
ATOM     78  C   UNL     1       0.679  13.553   7.664  1.00  0.00     0.006 A 
ENDBRANCH  50  71
BRANCH  62  79
ATOM     79  C   UNL     1       9.334  13.656  10.527  1.00  0.00     0.057 A 
ATOM     80  C   UNL     1       8.931  13.508  11.859  1.00  0.00     0.134 A 
ATOM     81  C   UNL     1      10.149  14.751  10.212  1.00  0.00     0.134 A 
ATOM     82  F   UNL     1       8.141  12.486  12.222  1.00  0.00    -0.206 F 
ATOM     83  C   UNL     1       9.296  14.435  12.836  1.00  0.00     0.040 A 
ATOM     84  C   UNL     1      10.543  15.668  11.185  1.00  0.00     0.040 A 
ATOM     85  F   UNL     1      10.578  14.943   8.955  1.00  0.00    -0.206 F 
ATOM     86  C   UNL     1      10.109  15.516  12.501  1.00  0.00     0.006 A 
ENDBRANCH  62  79
ENDBRANCH  36  37
ENDBRANCH  28  31
ENDBRANCH  26  27
ENDBRANCH  25  26
ENDBRANCH   1  25
TORSDOF 14
