REMARK SMILES C#CC[N@@H+](CC(=O)NCCCNC(=O)c1ccc(-c2c3nc(c(-c4c(F)cccc4F)c4ccc([nH]4)c(-c4c(F)cccc4F)c4nc(c(-c5c(F)cccc5F)c5ccc2[nH]5)C=C4)C=C3)cc1)CC(=O)NC(=O)NC
REMARK SMILES IDX 9 1 8 2 6 3 7 4 5 6 4 7 3 9 2 10 1 11 69 12 70 13 71 14
REMARK SMILES IDX 72 15 73 16 74 18 75 19 76 20 10 22 11 23 12 24 13 25 14 27
REMARK SMILES IDX 15 28 16 29 68 30 17 31 67 32 18 33 19 34 20 35 61 36 21 37
REMARK SMILES IDX 66 38 60 39 62 40 22 41 65 42 59 43 58 44 23 46 49 47 32 48
REMARK SMILES IDX 48 49 33 50 36 51 47 52 63 53 34 54 35 55 46 57 64 58 37 59
REMARK SMILES IDX 24 60 25 61 30 62 26 63 27 64 29 65 31 66 28 67 50 68 51 69
REMARK SMILES IDX 56 70 52 71 53 72 55 73 57 74 54 75 38 76 39 77 44 78 40 79
REMARK SMILES IDX 41 80 43 81 45 82 42 83
REMARK H PARENT 8 5 4 8 72 17 75 21 12 26 62 45 36 56
REMARK Flexibility Score: inf
ROOT
ATOM      1  C   UNL     1      -4.062  -0.161  -2.437  1.00  0.00     0.118 C 
ENDROOT
BRANCH   1   2
ATOM      2  N   UNL     1      -4.603  -1.050  -1.417  1.00  0.00    -0.351 N 
ATOM      3  C   UNL     1      -4.747  -0.980  -0.064  1.00  0.00     0.275 C 
ATOM      4  O   UNL     1      -5.473  -1.845   0.436  1.00  0.00    -0.269 OA
ATOM      5  H   UNL     1      -4.941  -1.895  -1.791  1.00  0.00     0.163 HD
BRANCH   3   6
ATOM      6  C   UNL     1      -4.102   0.098   0.835  1.00  0.00     0.364 C 
BRANCH   6   7
ATOM      7  N   UNL     1      -2.664  -0.085   1.194  1.00  0.00    -0.309 N 
ATOM      8  H   UNL     1      -2.425   0.695   1.806  1.00  0.00     0.349 HD
BRANCH   7   9
ATOM      9  C   UNL     1      -1.900  -0.060  -0.024  1.00  0.00     0.354 C 
BRANCH   9  10
ATOM     10  C   UNL     1      -0.380  -0.060  -0.024  1.00  0.00    -0.047 C 
ATOM     11  C   UNL     1       0.924  -0.060  -0.024  1.00  0.00     0.010 C 
ENDBRANCH   9  10
ENDBRANCH   7   9
BRANCH   7  12
ATOM     12  C   UNL     1      -2.310  -1.214   2.074  1.00  0.00     0.365 C 
BRANCH  12  13
ATOM     13  C   UNL     1      -3.053  -2.524   1.907  1.00  0.00     0.283 C 
ATOM     14  O   UNL     1      -2.829  -3.253   0.933  1.00  0.00    -0.268 OA
ATOM     15  N   UNL     1      -3.939  -2.951   2.882  1.00  0.00    -0.273 N 
ATOM     16  C   UNL     1      -5.038  -2.354   3.419  1.00  0.00     0.321 C 
ATOM     17  H   UNL     1      -3.739  -3.842   3.250  1.00  0.00     0.175 HD
ATOM     18  O   UNL     1      -6.136  -2.906   3.317  1.00  0.00    -0.248 OA
ATOM     19  N   UNL     1      -4.985  -1.198   4.102  1.00  0.00    -0.341 N 
ATOM     20  C   UNL     1      -3.907  -0.557   4.811  1.00  0.00     0.144 C 
ATOM     21  H   UNL     1      -5.834  -0.700   4.122  1.00  0.00     0.165 HD
ENDBRANCH  12  13
ENDBRANCH   7  12
ENDBRANCH   6   7
ENDBRANCH   3   6
ENDBRANCH   1   2
BRANCH   1  22
ATOM     22  C   UNL     1      -2.810  -0.685  -3.165  1.00  0.00     0.042 C 
BRANCH  22  23
ATOM     23  C   UNL     1      -2.852  -2.152  -3.593  1.00  0.00     0.118 C 
BRANCH  23  24
ATOM     24  N   UNL     1      -3.431  -2.292  -4.917  1.00  0.00    -0.352 N 
ATOM     25  C   UNL     1      -2.793  -2.502  -6.115  1.00  0.00     0.251 C 
ATOM     26  H   UNL     1      -4.412  -2.227  -4.961  1.00  0.00     0.163 HD
ATOM     27  O   UNL     1      -3.378  -2.250  -7.165  1.00  0.00    -0.269 OA
BRANCH  25  28
ATOM     28  C   UNL     1      -1.413  -3.042  -6.160  1.00  0.00     0.039 A 
ATOM     29  C   UNL     1      -0.515  -2.526  -7.101  1.00  0.00     0.014 A 
ATOM     30  C   UNL     1      -1.032  -4.126  -5.362  1.00  0.00     0.014 A 
ATOM     31  C   UNL     1       0.760  -3.087  -7.237  1.00  0.00     0.010 A 
ATOM     32  C   UNL     1       0.258  -4.651  -5.461  1.00  0.00     0.010 A 
ATOM     33  C   UNL     1       1.157  -4.157  -6.419  1.00  0.00    -0.014 A 
BRANCH  33  34
ATOM     34  C   UNL     1       2.478  -4.815  -6.603  1.00  0.00     0.031 A 
ATOM     35  C   UNL     1       2.547  -6.234  -7.106  1.00  0.00     0.074 A 
ATOM     36  C   UNL     1       3.612  -4.167  -6.276  1.00  0.00     0.049 A 
ATOM     37  N   UNL     1       3.591  -7.008  -7.268  1.00  0.00    -0.248 NA
ATOM     38  C   UNL     1       1.268  -6.876  -7.449  1.00  0.00     0.031 C 
ATOM     39  C   UNL     1       3.685  -2.808  -5.738  1.00  0.00     0.029 A 
ATOM     40  N   UNL     1       4.922  -4.573  -6.337  1.00  0.00    -0.354 N 
ATOM     41  C   UNL     1       3.093  -8.232  -7.696  1.00  0.00     0.074 A 
ATOM     42  C   UNL     1       1.653  -8.111  -7.740  1.00  0.00     0.031 C 
ATOM     43  C   UNL     1       4.973  -2.491  -5.524  1.00  0.00     0.029 A 
ATOM     44  C   UNL     1       5.813  -3.629  -5.887  1.00  0.00     0.049 A 
ATOM     45  H   UNL     1       5.197  -5.457  -6.672  1.00  0.00     0.167 HD
ATOM     46  C   UNL     1       3.774  -9.352  -8.038  1.00  0.00     0.037 A 
ATOM     47  C   UNL     1       7.154  -3.678  -5.774  1.00  0.00     0.037 A 
ATOM     48  C   UNL     1       5.208  -9.460  -8.049  1.00  0.00     0.049 A 
ATOM     49  C   UNL     1       7.890  -4.917  -6.204  1.00  0.00     0.074 A 
ATOM     50  C   UNL     1       5.991 -10.524  -8.465  1.00  0.00     0.029 A 
ATOM     51  N   UNL     1       6.076  -8.464  -7.630  1.00  0.00    -0.354 N 
ATOM     52  N   UNL     1       7.409  -6.043  -6.672  1.00  0.00    -0.248 NA
ATOM     53  C   UNL     1       9.357  -4.889  -6.098  1.00  0.00     0.031 C 
ATOM     54  C   UNL     1       7.333 -10.182  -8.270  1.00  0.00     0.029 A 
ATOM     55  C   UNL     1       7.386  -8.893  -7.763  1.00  0.00     0.049 A 
ATOM     56  H   UNL     1       5.802  -7.582  -7.288  1.00  0.00     0.167 HD
ATOM     57  C   UNL     1       8.511  -6.846  -6.937  1.00  0.00     0.074 A 
ATOM     58  C   UNL     1       9.686  -6.075  -6.590  1.00  0.00     0.031 C 
ATOM     59  C   UNL     1       8.545  -8.111  -7.423  1.00  0.00     0.037 A 
BRANCH  46  60
ATOM     60  C   UNL     1       2.973 -10.557  -8.437  1.00  0.00     0.057 A 
ATOM     61  C   UNL     1       2.305 -10.627  -9.666  1.00  0.00     0.134 A 
ATOM     62  C   UNL     1       2.902 -11.676  -7.598  1.00  0.00     0.134 A 
ATOM     63  F   UNL     1       2.326  -9.585 -10.511  1.00  0.00    -0.206 F 
ATOM     64  C   UNL     1       1.576 -11.758 -10.037  1.00  0.00     0.040 A 
ATOM     65  C   UNL     1       2.194 -12.821  -7.967  1.00  0.00     0.040 A 
ATOM     66  F   UNL     1       3.525 -11.677  -6.409  1.00  0.00    -0.206 F 
ATOM     67  C   UNL     1       1.524 -12.862  -9.188  1.00  0.00     0.006 A 
ENDBRANCH  46  60
BRANCH  47  68
ATOM     68  C   UNL     1       7.896  -2.506  -5.248  1.00  0.00     0.057 A 
ATOM     69  C   UNL     1       8.670  -1.704  -6.093  1.00  0.00     0.134 A 
ATOM     70  C   UNL     1       7.855  -2.165  -3.891  1.00  0.00     0.134 A 
ATOM     71  F   UNL     1       8.764  -1.994  -7.399  1.00  0.00    -0.206 F 
ATOM     72  C   UNL     1       9.392  -0.612  -5.606  1.00  0.00     0.040 A 
ATOM     73  C   UNL     1       8.555  -1.065  -3.394  1.00  0.00     0.040 A 
ATOM     74  F   UNL     1       7.127  -2.893  -3.032  1.00  0.00    -0.206 F 
ATOM     75  C   UNL     1       9.331  -0.288  -4.253  1.00  0.00     0.006 A 
ENDBRANCH  47  68
BRANCH  59  76
ATOM     76  C   UNL     1       9.893  -8.729  -7.633  1.00  0.00     0.057 A 
ATOM     77  C   UNL     1      10.663  -9.196  -6.561  1.00  0.00     0.134 A 
ATOM     78  C   UNL     1      10.408  -8.898  -8.924  1.00  0.00     0.134 A 
ATOM     79  F   UNL     1      10.230  -9.051  -5.299  1.00  0.00    -0.206 F 
ATOM     80  C   UNL     1      11.907  -9.795  -6.765  1.00  0.00     0.040 A 
ATOM     81  C   UNL     1      11.640  -9.514  -9.142  1.00  0.00     0.040 A 
ATOM     82  F   UNL     1       9.715  -8.478  -9.994  1.00  0.00    -0.206 F 
ATOM     83  C   UNL     1      12.395  -9.961  -8.060  1.00  0.00     0.006 A 
ENDBRANCH  59  76
ENDBRANCH  33  34
ENDBRANCH  25  28
ENDBRANCH  23  24
ENDBRANCH  22  23
ENDBRANCH   1  22
TORSDOF 15
