REMARK SMILES Cc1ccc(OC2(C(=O)NCCCNC(=O)c3ccc(-c4c5nc(c(-c6c(F)cccc6F)c6ccc([nH]6)c(-c6c(F)cccc6F)c6nc(c(-c7c(F)cccc7F)c7ccc4[nH]7)C=C6)C=C5)cc3)CC[NH+](C[C@@H]3CC=CCC3)CC2)cn1
REMARK SMILES IDX 12 1 11 2 10 3 8 4 9 5 7 7 71 8 82 9 72 10 81 11 73 12 6 14
REMARK SMILES IDX 5 15 1 16 2 17 3 18 84 19 4 20 83 21 74 22 75 23 76 24 80 25
REMARK SMILES IDX 77 26 79 27 78 28 13 29 14 30 15 31 16 33 17 34 18 35 70 36
REMARK SMILES IDX 19 37 69 38 20 39 21 40 22 41 63 42 23 43 68 44 62 45 64 46
REMARK SMILES IDX 24 47 67 48 61 49 60 50 25 52 51 53 34 54 50 55 35 56 38 57
REMARK SMILES IDX 49 58 65 59 36 60 37 61 48 63 66 64 39 65 26 66 27 67 32 68
REMARK SMILES IDX 28 69 29 70 31 71 33 72 30 73 52 74 53 75 58 76 54 77 55 78
REMARK SMILES IDX 57 79 59 80 56 81 40 82 41 83 46 84 42 85 43 86 45 87 47 88
REMARK SMILES IDX 44 89
REMARK H PARENT 10 6 73 13 14 32 64 51 38 62
REMARK Flexibility Score: inf
ROOT
ATOM      1  C   UNL     1       0.697  -5.546  -7.380  1.00  0.00     0.042 C 
ENDROOT
BRANCH   1   2
ATOM      2  C   UNL     1       1.733  -6.303  -6.530  1.00  0.00     0.118 C 
BRANCH   2   3
ATOM      3  N   UNL     1       2.718  -5.481  -5.825  1.00  0.00    -0.353 N 
ATOM      4  C   UNL     1       2.818  -4.977  -4.553  1.00  0.00     0.264 C 
ATOM      5  O   UNL     1       3.943  -4.554  -4.252  1.00  0.00    -0.270 OA
ATOM      6  H   UNL     1       3.483  -5.233  -6.393  1.00  0.00     0.163 HD
BRANCH   4   7
ATOM      7  C   UNL     1       1.635  -4.898  -3.530  1.00  0.00     0.197 C 
ATOM      8  C   UNL     1       0.362  -4.516  -4.252  1.00  0.00     0.120 C 
ATOM      9  C   UNL     1       1.381  -6.275  -2.868  1.00  0.00     0.120 C 
ATOM     10  C   UNL     1      -0.872  -4.508  -3.391  1.00  0.00     0.267 C 
ATOM     11  C   UNL     1       0.063  -6.286  -2.050  1.00  0.00     0.267 C 
ATOM     12  N   UNL     1      -1.079  -5.845  -2.862  1.00  0.00    -0.334 N 
ATOM     13  H   UNL     1      -1.100  -6.486  -3.656  1.00  0.00     0.348 HD
BRANCH   7  14
ATOM     14  O   UNL     1       2.011  -4.065  -2.410  1.00  0.00    -0.475 OA
BRANCH  14  15
ATOM     15  C   UNL     1       2.014  -2.710  -2.330  1.00  0.00     0.139 A 
ATOM     16  C   UNL     1       2.016   1.368  -1.038  1.00  0.00     0.066 C 
ATOM     17  C   UNL     1       2.034  -0.046  -1.536  1.00  0.00     0.038 A 
ATOM     18  C   UNL     1       1.076  -0.485  -2.437  1.00  0.00     0.027 A 
ATOM     19  N   UNL     1       3.006  -0.860  -1.074  1.00  0.00    -0.258 NA
ATOM     20  C   UNL     1       1.076  -1.825  -2.836  1.00  0.00     0.050 A 
ATOM     21  C   UNL     1       2.966  -2.160  -1.474  1.00  0.00     0.157 A 
ENDBRANCH  14  15
ENDBRANCH   7  14
BRANCH  12  22
ATOM     22  C   UNL     1      -2.411  -6.057  -2.273  1.00  0.00     0.266 C 
BRANCH  22  23
ATOM     23  C   UNL     1      -3.175  -4.938  -1.501  1.00  0.00     0.048 C 
ATOM     24  C   UNL     1      -3.742  -3.801  -2.398  1.00  0.00     0.036 C 
ATOM     25  C   UNL     1      -2.404  -4.455  -0.260  1.00  0.00     0.014 C 
ATOM     26  C   UNL     1      -3.394  -2.401  -1.979  1.00  0.00    -0.031 C 
ATOM     27  C   UNL     1      -2.966  -3.165   0.330  1.00  0.00     0.027 C 
ATOM     28  C   UNL     1      -3.054  -2.102  -0.719  1.00  0.00    -0.031 C 
ENDBRANCH  22  23
ENDBRANCH  12  22
ENDBRANCH   4   7
ENDBRANCH   2   3
ENDBRANCH   1   2
BRANCH   1  29
ATOM     29  C   UNL     1       1.250  -4.754  -8.554  1.00  0.00     0.118 C 
BRANCH  29  30
ATOM     30  N   UNL     1       1.461  -5.587  -9.720  1.00  0.00    -0.352 N 
ATOM     31  C   UNL     1       0.662  -5.852 -10.803  1.00  0.00     0.251 C 
ATOM     32  H   UNL     1       2.333  -6.044  -9.739  1.00  0.00     0.163 HD
ATOM     33  O   UNL     1       0.968  -6.809 -11.523  1.00  0.00    -0.269 OA
BRANCH  31  34
ATOM     34  C   UNL     1      -0.546  -5.056 -11.151  1.00  0.00     0.039 A 
ATOM     35  C   UNL     1      -1.599  -5.713 -11.804  1.00  0.00     0.014 A 
ATOM     36  C   UNL     1      -0.624  -3.670 -10.983  1.00  0.00     0.014 A 
ATOM     37  C   UNL     1      -2.711  -5.001 -12.268  1.00  0.00     0.010 A 
ATOM     38  C   UNL     1      -1.769  -2.968 -11.380  1.00  0.00     0.010 A 
ATOM     39  C   UNL     1      -2.814  -3.619 -12.052  1.00  0.00    -0.014 A 
BRANCH  39  40
ATOM     40  C   UNL     1      -3.982  -2.847 -12.564  1.00  0.00     0.031 A 
ATOM     41  C   UNL     1      -3.801  -1.802 -13.635  1.00  0.00     0.074 A 
ATOM     42  C   UNL     1      -5.208  -3.058 -12.048  1.00  0.00     0.049 A 
ATOM     43  N   UNL     1      -4.691  -1.005 -14.175  1.00  0.00    -0.248 NA
ATOM     44  C   UNL     1      -2.437  -1.610 -14.149  1.00  0.00     0.031 C 
ATOM     45  C   UNL     1      -5.525  -4.008 -10.982  1.00  0.00     0.029 A 
ATOM     46  N   UNL     1      -6.417  -2.478 -12.348  1.00  0.00    -0.354 N 
ATOM     47  C   UNL     1      -3.993  -0.205 -15.072  1.00  0.00     0.074 A 
ATOM     48  C   UNL     1      -2.599  -0.585 -14.973  1.00  0.00     0.031 C 
ATOM     49  C   UNL     1      -6.842  -3.960 -10.729  1.00  0.00     0.029 A 
ATOM     50  C   UNL     1      -7.459  -2.957 -11.593  1.00  0.00     0.049 A 
ATOM     51  H   UNL     1      -6.525  -1.784 -13.038  1.00  0.00     0.167 HD
ATOM     52  C   UNL     1      -4.466   0.745 -15.914  1.00  0.00     0.037 A 
ATOM     53  C   UNL     1      -8.765  -2.627 -11.591  1.00  0.00     0.037 A 
ATOM     54  C   UNL     1      -5.854   1.102 -16.046  1.00  0.00     0.049 A 
ATOM     55  C   UNL     1      -9.273  -1.587 -12.549  1.00  0.00     0.074 A 
ATOM     56  C   UNL     1      -6.436   1.999 -16.927  1.00  0.00     0.029 A 
ATOM     57  N   UNL     1      -6.881   0.579 -15.275  1.00  0.00    -0.354 N 
ATOM     58  N   UNL     1      -8.608  -0.883 -13.431  1.00  0.00    -0.248 NA
ATOM     59  C   UNL     1     -10.715  -1.302 -12.514  1.00  0.00     0.031 C 
ATOM     60  C   UNL     1      -7.810   2.044 -16.664  1.00  0.00     0.029 A 
ATOM     61  C   UNL     1      -8.089   1.148 -15.645  1.00  0.00     0.049 A 
ATOM     62  H   UNL     1      -6.768  -0.098 -14.569  1.00  0.00     0.167 HD
ATOM     63  C   UNL     1      -9.548  -0.082 -14.066  1.00  0.00     0.074 A 
ATOM     64  C   UNL     1     -10.834  -0.399 -13.479  1.00  0.00     0.031 C 
ATOM     65  C   UNL     1      -9.361   0.833 -15.048  1.00  0.00     0.037 A 
BRANCH  52  66
ATOM     66  C   UNL     1      -3.463   1.471 -16.764  1.00  0.00     0.057 A 
ATOM     67  C   UNL     1      -2.818   0.850 -17.842  1.00  0.00     0.134 A 
ATOM     68  C   UNL     1      -3.152   2.814 -16.513  1.00  0.00     0.134 A 
ATOM     69  F   UNL     1      -3.064  -0.437 -18.130  1.00  0.00    -0.206 F 
ATOM     70  C   UNL     1      -1.876   1.527 -18.618  1.00  0.00     0.040 A 
ATOM     71  C   UNL     1      -2.230   3.509 -17.298  1.00  0.00     0.040 A 
ATOM     72  F   UNL     1      -3.739   3.472 -15.502  1.00  0.00    -0.206 F 
ATOM     73  C   UNL     1      -1.583   2.862 -18.349  1.00  0.00     0.006 A 
ENDBRANCH  52  66
BRANCH  53  74
ATOM     74  C   UNL     1      -9.690  -3.317 -10.660  1.00  0.00     0.057 A 
ATOM     75  C   UNL     1     -10.588  -4.285 -11.122  1.00  0.00     0.134 A 
ATOM     76  C   UNL     1      -9.680  -3.044  -9.287  1.00  0.00     0.134 A 
ATOM     77  F   UNL     1     -10.655  -4.572 -12.430  1.00  0.00    -0.206 F 
ATOM     78  C   UNL     1     -11.448  -4.956 -10.252  1.00  0.00     0.040 A 
ATOM     79  C   UNL     1     -10.521  -3.722  -8.403  1.00  0.00     0.040 A 
ATOM     80  F   UNL     1      -8.836  -2.131  -8.784  1.00  0.00    -0.206 F 
ATOM     81  C   UNL     1     -11.410  -4.680  -8.887  1.00  0.00     0.006 A 
ENDBRANCH  53  74
BRANCH  65  82
ATOM     82  C   UNL     1     -10.576   1.551 -15.554  1.00  0.00     0.057 A 
ATOM     83  C   UNL     1     -11.197   2.561 -14.808  1.00  0.00     0.134 A 
ATOM     84  C   UNL     1     -11.113   1.250 -16.812  1.00  0.00     0.134 A 
ATOM     85  F   UNL     1     -10.738   2.885 -13.590  1.00  0.00    -0.206 F 
ATOM     86  C   UNL     1     -12.321   3.235 -15.288  1.00  0.00     0.040 A 
ATOM     87  C   UNL     1     -12.225   1.931 -17.311  1.00  0.00     0.040 A 
ATOM     88  F   UNL     1     -10.562   0.297 -17.578  1.00  0.00    -0.206 F 
ATOM     89  C   UNL     1     -12.835   2.923 -16.546  1.00  0.00     0.006 A 
ENDBRANCH  65  82
ENDBRANCH  39  40
ENDBRANCH  31  34
ENDBRANCH  29  30
ENDBRANCH   1  29
TORSDOF 14
