REMARK SMILES Cc1ccccc1[C@@H]1[NH2+][C@@H](C(=O)NCCCNC(=O)c2ccc(-c3c4nc(c(-c5c(F)cccc5F)c5ccc([nH]5)c(-c5c(F)cccc5F)c5nc(c(-c6c(F)cccc6F)c6ccc3[nH]6)C=C5)C=C4)cc2)CC2=c3ccccc3=N[C@H]21
REMARK SMILES IDX 15 1 14 2 13 3 11 4 12 5 10 7 8 8 9 9 83 10 75 13 82 14
REMARK SMILES IDX 74 15 76 16 81 17 77 18 80 19 78 20 79 21 7 22 1 23 2 24
REMARK SMILES IDX 3 25 4 26 6 27 5 28 16 29 17 30 18 31 19 33 20 34 21 35
REMARK SMILES IDX 73 36 22 37 72 38 23 39 24 40 25 41 66 42 26 43 71 44 65 45
REMARK SMILES IDX 67 46 27 47 70 48 64 49 63 50 28 52 54 53 37 54 53 55 38 56
REMARK SMILES IDX 41 57 52 58 68 59 39 60 40 61 51 63 69 64 42 65 29 66 30 67
REMARK SMILES IDX 35 68 31 69 32 70 34 71 36 72 33 73 55 74 56 75 61 76 57 77
REMARK SMILES IDX 58 78 60 79 62 80 59 81 43 82 44 83 49 84 45 85 46 86 48 87
REMARK SMILES IDX 50 88 47 89
REMARK H PARENT 13 6 9 11 9 12 17 32 67 51 41 62
REMARK Flexibility Score: inf
ROOT
ATOM      1  C   UNL     1      -3.404   6.618   0.508  1.00  0.00     0.042 C 
ENDROOT
BRANCH   1   2
ATOM      2  C   UNL     1      -4.127   5.320   0.154  1.00  0.00     0.118 C 
BRANCH   2   3
ATOM      3  N   UNL     1      -3.555   4.536  -0.939  1.00  0.00    -0.351 N 
ATOM      4  C   UNL     1      -2.458   3.712  -0.987  1.00  0.00     0.278 C 
ATOM      5  O   UNL     1      -2.556   2.721  -1.722  1.00  0.00    -0.268 OA
ATOM      6  H   UNL     1      -4.043   4.612  -1.791  1.00  0.00     0.163 HD
BRANCH   4   7
ATOM      7  C   UNL     1      -1.083   4.091  -0.357  1.00  0.00     0.277 C 
ATOM      8  C   UNL     1       0.662   2.325   0.356  1.00  0.00     0.243 C 
ATOM      9  N   UNL     1      -0.053   3.071  -0.713  1.00  0.00    -0.327 N 
ATOM     10  C   UNL     1       0.621   2.882   1.813  1.00  0.00     0.196 C 
ATOM     11  H   UNL     1      -0.518   2.375  -1.296  1.00  0.00     0.347 HD
ATOM     12  H   UNL     1       0.686   3.627  -1.142  1.00  0.00     0.347 HD
ATOM     13  C   UNL     1      -0.703   3.513   2.040  1.00  0.00    -0.024 C 
ATOM     14  N   UNL     1       0.699   1.818   2.866  1.00  0.00    -0.270 NA
ATOM     15  C   UNL     1      -1.087   4.565   1.092  1.00  0.00     0.109 C 
ATOM     16  C   UNL     1      -1.369   2.967   3.044  1.00  0.00     0.002 A 
ATOM     17  C   UNL     1      -0.413   1.960   3.525  1.00  0.00     0.066 A 
ATOM     18  C   UNL     1      -2.664   3.136   3.609  1.00  0.00     0.010 A 
ATOM     19  C   UNL     1      -0.834   1.210   4.729  1.00  0.00     0.028 A 
ATOM     20  C   UNL     1      -2.999   2.381   4.667  1.00  0.00     0.001 A 
ATOM     21  C   UNL     1      -2.055   1.439   5.247  1.00  0.00     0.002 A 
BRANCH   8  22
ATOM     22  C   UNL     1       2.129   2.107  -0.049  1.00  0.00     0.015 A 
ATOM     23  C   UNL     1       2.679   4.619  -0.309  1.00  0.00     0.045 C 
ATOM     24  C   UNL     1       3.043   3.158  -0.320  1.00  0.00    -0.042 A 
ATOM     25  C   UNL     1       4.400   2.851  -0.540  1.00  0.00     0.004 A 
ATOM     26  C   UNL     1       4.854   1.535  -0.540  1.00  0.00     0.000 A 
ATOM     27  C   UNL     1       2.611   0.781  -0.075  1.00  0.00     0.010 A 
ATOM     28  C   UNL     1       3.956   0.499  -0.321  1.00  0.00     0.001 A 
ENDBRANCH   8  22
ENDBRANCH   4   7
ENDBRANCH   2   3
ENDBRANCH   1   2
BRANCH   1  29
ATOM     29  C   UNL     1      -4.133   7.890   0.109  1.00  0.00     0.118 C 
BRANCH  29  30
ATOM     30  N   UNL     1      -4.665   8.641   1.251  1.00  0.00    -0.352 N 
ATOM     31  C   UNL     1      -5.162   9.938   1.278  1.00  0.00     0.251 C 
ATOM     32  H   UNL     1      -4.670   8.163   2.112  1.00  0.00     0.163 HD
ATOM     33  O   UNL     1      -5.699  10.387   2.276  1.00  0.00    -0.269 OA
BRANCH  31  34
ATOM     34  C   UNL     1      -5.138  10.713   0.017  1.00  0.00     0.039 A 
ATOM     35  C   UNL     1      -6.364  11.092  -0.531  1.00  0.00     0.014 A 
ATOM     36  C   UNL     1      -3.973  10.745  -0.741  1.00  0.00     0.014 A 
ATOM     37  C   UNL     1      -6.467  11.217  -1.912  1.00  0.00     0.010 A 
ATOM     38  C   UNL     1      -4.097  10.752  -2.117  1.00  0.00     0.010 A 
ATOM     39  C   UNL     1      -5.359  10.904  -2.702  1.00  0.00    -0.014 A 
BRANCH  39  40
ATOM     40  C   UNL     1      -5.483  10.536  -4.111  1.00  0.00     0.031 A 
ATOM     41  C   UNL     1      -4.946  11.399  -5.180  1.00  0.00     0.074 A 
ATOM     42  C   UNL     1      -6.050   9.355  -4.452  1.00  0.00     0.049 A 
ATOM     43  N   UNL     1      -5.390  11.399  -6.393  1.00  0.00    -0.248 NA
ATOM     44  C   UNL     1      -3.869  12.354  -4.957  1.00  0.00     0.031 C 
ATOM     45  C   UNL     1      -6.045   8.713  -5.766  1.00  0.00     0.029 A 
ATOM     46  N   UNL     1      -6.961   8.596  -3.702  1.00  0.00    -0.354 N 
ATOM     47  C   UNL     1      -4.509  12.122  -7.157  1.00  0.00     0.074 A 
ATOM     48  C   UNL     1      -3.609  12.742  -6.209  1.00  0.00     0.031 C 
ATOM     49  C   UNL     1      -7.102   7.891  -5.846  1.00  0.00     0.029 A 
ATOM     50  C   UNL     1      -7.886   8.079  -4.640  1.00  0.00     0.049 A 
ATOM     51  H   UNL     1      -6.957   8.454  -2.728  1.00  0.00     0.167 HD
ATOM     52  C   UNL     1      -4.547  12.027  -8.516  1.00  0.00     0.037 A 
ATOM     53  C   UNL     1      -9.206   8.423  -4.594  1.00  0.00     0.037 A 
ATOM     54  C   UNL     1      -5.619  11.155  -8.987  1.00  0.00     0.049 A 
ATOM     55  C   UNL     1      -9.735   9.094  -5.846  1.00  0.00     0.074 A 
ATOM     56  C   UNL     1      -5.679   9.849  -9.448  1.00  0.00     0.029 A 
ATOM     57  N   UNL     1      -6.930  11.533  -8.762  1.00  0.00    -0.354 N 
ATOM     58  N   UNL     1      -9.010   9.404  -6.884  1.00  0.00    -0.248 NA
ATOM     59  C   UNL     1     -11.114   9.574  -5.969  1.00  0.00     0.031 C 
ATOM     60  C   UNL     1      -7.045   9.458  -9.517  1.00  0.00     0.029 A 
ATOM     61  C   UNL     1      -7.814  10.524  -9.089  1.00  0.00     0.049 A 
ATOM     62  H   UNL     1      -7.199  12.412  -8.411  1.00  0.00     0.167 HD
ATOM     63  C   UNL     1      -9.756  10.168  -7.745  1.00  0.00     0.074 A 
ATOM     64  C   UNL     1     -11.069  10.240  -7.135  1.00  0.00     0.031 C 
ATOM     65  C   UNL     1      -9.232  10.738  -8.867  1.00  0.00     0.037 A 
BRANCH  52  66
ATOM     66  C   UNL     1      -3.433  12.548  -9.385  1.00  0.00     0.057 A 
ATOM     67  C   UNL     1      -3.015  11.854 -10.534  1.00  0.00     0.134 A 
ATOM     68  C   UNL     1      -2.701  13.714  -9.104  1.00  0.00     0.134 A 
ATOM     69  F   UNL     1      -3.679  10.787 -10.996  1.00  0.00    -0.206 F 
ATOM     70  C   UNL     1      -1.877  12.214 -11.265  1.00  0.00     0.040 A 
ATOM     71  C   UNL     1      -1.526  14.054  -9.789  1.00  0.00     0.040 A 
ATOM     72  F   UNL     1      -3.112  14.585  -8.171  1.00  0.00    -0.206 F 
ATOM     73  C   UNL     1      -1.100  13.290 -10.865  1.00  0.00     0.006 A 
ENDBRANCH  52  66
BRANCH  53  74
ATOM     74  C   UNL     1      -9.689   8.706  -3.217  1.00  0.00     0.057 A 
ATOM     75  C   UNL     1      -9.617   7.692  -2.244  1.00  0.00     0.134 A 
ATOM     76  C   UNL     1      -9.899  10.010  -2.761  1.00  0.00     0.134 A 
ATOM     77  F   UNL     1      -9.410   6.416  -2.611  1.00  0.00    -0.206 F 
ATOM     78  C   UNL     1      -9.640   7.977  -0.878  1.00  0.00     0.040 A 
ATOM     79  C   UNL     1      -9.945  10.305  -1.395  1.00  0.00     0.040 A 
ATOM     80  F   UNL     1      -9.949  11.037  -3.622  1.00  0.00    -0.206 F 
ATOM     81  C   UNL     1      -9.778   9.293  -0.450  1.00  0.00     0.006 A 
ENDBRANCH  53  74
BRANCH  65  82
ATOM     82  C   UNL     1     -10.025  11.570  -9.834  1.00  0.00     0.057 A 
ATOM     83  C   UNL     1     -11.301  11.201 -10.282  1.00  0.00     0.134 A 
ATOM     84  C   UNL     1      -9.476  12.718 -10.441  1.00  0.00     0.134 A 
ATOM     85  F   UNL     1     -11.896  10.087  -9.832  1.00  0.00    -0.206 F 
ATOM     86  C   UNL     1     -12.005  11.952 -11.232  1.00  0.00     0.040 A 
ATOM     87  C   UNL     1     -10.148  13.448 -11.424  1.00  0.00     0.040 A 
ATOM     88  F   UNL     1      -8.271  13.192 -10.090  1.00  0.00    -0.206 F 
ATOM     89  C   UNL     1     -11.424  13.074 -11.814  1.00  0.00     0.006 A 
ENDBRANCH  65  82
ENDBRANCH  39  40
ENDBRANCH  31  34
ENDBRANCH  29  30
ENDBRANCH   1  29
TORSDOF 11
