REMARK SMILES CCOc1ccc2[nH]c(C)c/c(=N\c3cccc(C(=O)NCCCNC(=O)c4ccc(-c5c6nc(c(-c7c(F)cccc7F)c7ccc([nH]7)c(-c7c(F)cccc7F)c7nc(c(-c8c(F)cccc8F)c8ccc5[nH]8)C=C7)C=C6)cc4)c3)c2c1
REMARK SMILES IDX 22 1 21 2 19 3 20 4 18 6 14 7 15 8 82 9 16 10 17 11 13 12
REMARK SMILES IDX 4 13 5 14 84 15 6 16 83 17 7 18 12 19 8 20 11 21 9 22 10 24
REMARK SMILES IDX 3 25 2 26 1 27 23 28 24 29 25 30 26 31 27 33 28 34 29 35
REMARK SMILES IDX 81 36 30 37 80 38 31 39 32 40 33 41 74 42 34 43 79 44 73 45
REMARK SMILES IDX 75 46 35 47 78 48 72 49 71 50 36 52 62 53 45 54 61 55 46 56
REMARK SMILES IDX 49 57 60 58 76 59 47 60 48 61 59 63 77 64 50 65 37 66 38 67
REMARK SMILES IDX 43 68 39 69 40 70 42 71 44 72 41 73 63 74 64 75 69 76 65 77
REMARK SMILES IDX 66 78 68 79 70 80 67 81 51 82 52 83 57 84 53 85 54 86 56 87
REMARK SMILES IDX 58 88 55 89
REMARK H PARENT 21 5 8 23 25 32 75 51 49 62
REMARK Flexibility Score: inf
ROOT
ATOM      1  C   UNL     1       3.804   3.629  -7.820  1.00  0.00     0.118 C 
ENDROOT
BRANCH   1   2
ATOM      2  N   UNL     1       4.565   3.412  -9.043  1.00  0.00    -0.352 N 
ATOM      3  C   UNL     1       5.106   2.330  -9.691  1.00  0.00     0.251 C 
ATOM      4  O   UNL     1       5.695   2.577 -10.748  1.00  0.00    -0.269 OA
ATOM      5  H   UNL     1       4.733   4.253  -9.526  1.00  0.00     0.163 HD
BRANCH   3   6
ATOM      6  C   UNL     1       5.085   0.920  -9.205  1.00  0.00     0.041 A 
ATOM      7  C   UNL     1       4.482  -0.822  -7.622  1.00  0.00     0.064 A 
ATOM      8  C   UNL     1       5.304  -1.735  -8.281  1.00  0.00     0.028 A 
ATOM      9  C   UNL     1       4.288   0.445  -8.172  1.00  0.00     0.042 A 
ATOM     10  C   UNL     1       6.043  -1.321  -9.388  1.00  0.00     0.003 A 
ATOM     11  C   UNL     1       5.963   0.008  -9.819  1.00  0.00     0.014 A 
BRANCH   7  12
ATOM     12  N   UNL     1       3.918  -1.056  -6.355  1.00  0.00    -0.248 NA
ATOM     13  C   UNL     1       2.244  -1.005  -2.408  1.00  0.00     0.120 A 
ATOM     14  C   UNL     1       3.079  -1.353  -1.347  1.00  0.00     0.048 A 
ATOM     15  C   UNL     1       2.744  -0.944  -3.710  1.00  0.00     0.059 A 
ATOM     16  C   UNL     1       4.439  -1.560  -1.566  1.00  0.00     0.030 A 
ATOM     17  C   UNL     1       4.111  -1.169  -3.934  1.00  0.00     0.027 A 
ATOM     18  C   UNL     1       4.969  -1.455  -2.853  1.00  0.00     0.048 A 
ATOM     19  C   UNL     1       4.703  -1.080  -5.310  1.00  0.00     0.075 A 
ATOM     20  N   UNL     1       6.346  -1.598  -3.054  1.00  0.00    -0.359 N 
ATOM     21  C   UNL     1       6.208  -1.017  -5.352  1.00  0.00     0.050 A 
ATOM     22  C   UNL     1       6.931  -1.328  -4.265  1.00  0.00     0.014 A 
ATOM     23  H   UNL     1       6.910  -1.899  -2.305  1.00  0.00     0.166 HD
ATOM     24  C   UNL     1       8.430  -1.409  -4.335  1.00  0.00     0.064 C 
BRANCH  13  25
ATOM     25  O   UNL     1       0.902  -0.834  -2.203  1.00  0.00    -0.494 OA
BRANCH  25  26
ATOM     26  C   UNL     1       0.580   0.383  -1.514  1.00  0.00     0.226 C 
ATOM     27  C   UNL     1       0.522   0.195  -0.004  1.00  0.00     0.049 C 
ENDBRANCH  25  26
ENDBRANCH  13  25
ENDBRANCH   7  12
ENDBRANCH   3   6
ENDBRANCH   1   2
BRANCH   1  28
ATOM     28  C   UNL     1       4.524   4.506  -6.809  1.00  0.00     0.042 C 
BRANCH  28  29
ATOM     29  C   UNL     1       4.668   5.953  -7.248  1.00  0.00     0.118 C 
BRANCH  29  30
ATOM     30  N   UNL     1       3.387   6.644  -7.373  1.00  0.00    -0.352 N 
ATOM     31  C   UNL     1       2.754   7.560  -6.564  1.00  0.00     0.251 C 
ATOM     32  H   UNL     1       2.883   6.411  -8.187  1.00  0.00     0.163 HD
ATOM     33  O   UNL     1       1.590   7.865  -6.793  1.00  0.00    -0.269 OA
BRANCH  31  34
ATOM     34  C   UNL     1       3.450   8.152  -5.398  1.00  0.00     0.039 A 
ATOM     35  C   UNL     1       4.800   8.480  -5.459  1.00  0.00     0.014 A 
ATOM     36  C   UNL     1       2.735   8.394  -4.220  1.00  0.00     0.014 A 
ATOM     37  C   UNL     1       5.484   8.805  -4.297  1.00  0.00     0.010 A 
ATOM     38  C   UNL     1       3.402   8.858  -3.080  1.00  0.00     0.010 A 
ATOM     39  C   UNL     1       4.797   9.001  -3.089  1.00  0.00    -0.014 A 
BRANCH  39  40
ATOM     40  C   UNL     1       5.573   9.348  -1.869  1.00  0.00     0.031 A 
ATOM     41  C   UNL     1       5.561   8.452  -0.658  1.00  0.00     0.074 A 
ATOM     42  C   UNL     1       6.359  10.443  -1.881  1.00  0.00     0.049 A 
ATOM     43  N   UNL     1       6.222   8.574   0.467  1.00  0.00    -0.248 NA
ATOM     44  C   UNL     1       4.684   7.272  -0.708  1.00  0.00     0.031 C 
ATOM     45  C   UNL     1       6.452  11.400  -2.986  1.00  0.00     0.029 A 
ATOM     46  N   UNL     1       7.252  10.918  -0.956  1.00  0.00    -0.354 N 
ATOM     47  C   UNL     1       5.820   7.510   1.265  1.00  0.00     0.074 A 
ATOM     48  C   UNL     1       4.833   6.769   0.509  1.00  0.00     0.031 C 
ATOM     49  C   UNL     1       7.398  12.307  -2.705  1.00  0.00     0.029 A 
ATOM     50  C   UNL     1       7.925  12.041  -1.372  1.00  0.00     0.049 A 
ATOM     51  H   UNL     1       7.396  10.496  -0.078  1.00  0.00     0.167 HD
ATOM     52  C   UNL     1       6.240   7.173   2.509  1.00  0.00     0.037 A 
ATOM     53  C   UNL     1       8.853  12.787  -0.747  1.00  0.00     0.037 A 
ATOM     54  C   UNL     1       7.240   7.896   3.252  1.00  0.00     0.049 A 
ATOM     55  C   UNL     1       9.296  12.399   0.631  1.00  0.00     0.074 A 
ATOM     56  C   UNL     1       7.764   7.612   4.501  1.00  0.00     0.029 A 
ATOM     57  N   UNL     1       7.868   9.053   2.811  1.00  0.00    -0.354 N 
ATOM     58  N   UNL     1       8.924  11.375   1.360  1.00  0.00    -0.248 NA
ATOM     59  C   UNL     1      10.282  13.275   1.277  1.00  0.00     0.031 C 
ATOM     60  C   UNL     1       8.675   8.621   4.836  1.00  0.00     0.029 A 
ATOM     61  C   UNL     1       8.754   9.509   3.775  1.00  0.00     0.049 A 
ATOM     62  H   UNL     1       7.708   9.486   1.942  1.00  0.00     0.167 HD
ATOM     63  C   UNL     1       9.629  11.482   2.551  1.00  0.00     0.074 A 
ATOM     64  C   UNL     1      10.476  12.652   2.431  1.00  0.00     0.031 C 
ATOM     65  C   UNL     1       9.575  10.687   3.647  1.00  0.00     0.037 A 
BRANCH  52  66
ATOM     66  C   UNL     1       5.588   5.982   3.154  1.00  0.00     0.057 A 
ATOM     67  C   UNL     1       4.709   6.150   4.232  1.00  0.00     0.134 A 
ATOM     68  C   UNL     1       5.821   4.673   2.712  1.00  0.00     0.134 A 
ATOM     69  F   UNL     1       4.446   7.375   4.712  1.00  0.00    -0.206 F 
ATOM     70  C   UNL     1       4.079   5.062   4.840  1.00  0.00     0.040 A 
ATOM     71  C   UNL     1       5.176   3.579   3.294  1.00  0.00     0.040 A 
ATOM     72  F   UNL     1       6.640   4.440   1.675  1.00  0.00    -0.206 F 
ATOM     73  C   UNL     1       4.304   3.772   4.363  1.00  0.00     0.006 A 
ENDBRANCH  52  66
BRANCH  53  74
ATOM     74  C   UNL     1       9.404  13.988  -1.423  1.00  0.00     0.057 A 
ATOM     75  C   UNL     1       8.608  15.118  -1.652  1.00  0.00     0.134 A 
ATOM     76  C   UNL     1      10.727  14.027  -1.874  1.00  0.00     0.134 A 
ATOM     77  F   UNL     1       7.329  15.137  -1.251  1.00  0.00    -0.206 F 
ATOM     78  C   UNL     1       9.102  16.236  -2.323  1.00  0.00     0.040 A 
ATOM     79  C   UNL     1      11.243  15.151  -2.522  1.00  0.00     0.040 A 
ATOM     80  F   UNL     1      11.543  12.983  -1.668  1.00  0.00    -0.206 F 
ATOM     81  C   UNL     1      10.426  16.256  -2.755  1.00  0.00     0.006 A 
ENDBRANCH  53  74
BRANCH  65  82
ATOM     82  C   UNL     1      10.463  11.065   4.796  1.00  0.00     0.057 A 
ATOM     83  C   UNL     1      11.598  10.306   5.103  1.00  0.00     0.134 A 
ATOM     84  C   UNL     1      10.195  12.183   5.596  1.00  0.00     0.134 A 
ATOM     85  F   UNL     1      11.909   9.220   4.379  1.00  0.00    -0.206 F 
ATOM     86  C   UNL     1      12.439  10.649   6.163  1.00  0.00     0.040 A 
ATOM     87  C   UNL     1      11.042  12.551   6.643  1.00  0.00     0.040 A 
ATOM     88  F   UNL     1       9.132  12.962   5.342  1.00  0.00    -0.206 F 
ATOM     89  C   UNL     1      12.166  11.780   6.931  1.00  0.00     0.006 A 
ENDBRANCH  65  82
ENDBRANCH  39  40
ENDBRANCH  31  34
ENDBRANCH  29  30
ENDBRANCH  28  29
ENDBRANCH   1  28
TORSDOF 13
