REMARK SMILES Cn1cc(C(=O)NCCCNC(=O)c2ccc(-c3c4nc(c(-c5c(F)cccc5F)c5ccc([nH]5)c(-c5c(F)cccc5F)c5nc(c(-c6c(F)cccc6F)c6ccc3[nH]6)C=C5)C=C4)cc2)c(C(=O)Nc2ccc(-c3nc4cc(Cl)ccc4o3)cc2)n1
REMARK SMILES IDX 8 1 7 2 5 3 6 4 4 6 1 7 2 8 3 9 88 10 68 11 69 12 70 13
REMARK SMILES IDX 71 14 72 16 73 17 87 18 74 19 86 20 75 21 76 22 77 23 85 24
REMARK SMILES IDX 78 25 84 26 79 27 83 28 80 29 82 30 81 31 9 32 10 33 11 34
REMARK SMILES IDX 12 35 13 37 14 38 15 39 67 40 16 41 66 42 17 43 18 44 19 45
REMARK SMILES IDX 60 46 20 47 65 48 59 49 61 50 21 51 64 52 58 53 57 54 22 56
REMARK SMILES IDX 48 57 31 58 47 59 32 60 35 61 46 62 62 63 33 64 34 65 45 67
REMARK SMILES IDX 63 68 36 69 23 70 24 71 29 72 25 73 26 74 28 75 30 76 27 77
REMARK SMILES IDX 49 78 50 79 55 80 51 81 52 82 54 83 56 84 53 85 37 86 38 87
REMARK SMILES IDX 43 88 39 89 40 90 42 91 44 92 41 93
REMARK H PARENT 7 5 71 15 11 36 61 55 35 66
REMARK Flexibility Score: inf
ROOT
ATOM      1  C   UNL     1       0.466  -3.919   1.116  1.00  0.00     0.118 C 
ENDROOT
BRANCH   1   2
ATOM      2  N   UNL     1       1.570  -3.050   1.482  1.00  0.00    -0.352 N 
ATOM      3  C   UNL     1       1.759  -1.692   1.397  1.00  0.00     0.255 C 
ATOM      4  O   UNL     1       2.672  -1.222   2.083  1.00  0.00    -0.269 OA
ATOM      5  H   UNL     1       2.337  -3.530   1.869  1.00  0.00     0.163 HD
BRANCH   3   6
ATOM      6  C   UNL     1       0.956  -0.843   0.532  1.00  0.00     0.090 A 
ATOM      7  C   UNL     1      -2.023   0.501  -1.002  1.00  0.00     0.173 C 
ATOM      8  N   UNL     1      -0.706   0.127  -0.544  1.00  0.00    -0.274 N 
ATOM      9  C   UNL     1      -0.371  -0.987   0.162  1.00  0.00     0.123 A 
ATOM     10  N   UNL     1       0.314   0.963  -0.740  1.00  0.00    -0.167 NA
ATOM     11  C   UNL     1       1.338   0.429  -0.042  1.00  0.00     0.163 A 
BRANCH  11  12
ATOM     12  C   UNL     1       2.576   1.223   0.122  1.00  0.00     0.276 C 
ATOM     13  O   UNL     1       2.530   2.430   0.385  1.00  0.00    -0.267 OA
ATOM     14  N   UNL     1       3.829   0.653   0.072  1.00  0.00    -0.321 N 
ATOM     15  H   UNL     1       4.545   1.229   0.427  1.00  0.00     0.170 HD
BRANCH  14  16
ATOM     16  C   UNL     1       4.274  -0.588  -0.387  1.00  0.00     0.041 A 
ATOM     17  C   UNL     1       5.396  -1.126   0.251  1.00  0.00     0.027 A 
ATOM     18  C   UNL     1       3.651  -1.304  -1.408  1.00  0.00     0.027 A 
ATOM     19  C   UNL     1       5.792  -2.436  -0.013  1.00  0.00     0.016 A 
ATOM     20  C   UNL     1       4.087  -2.598  -1.714  1.00  0.00     0.016 A 
ATOM     21  C   UNL     1       5.114  -3.198  -0.970  1.00  0.00     0.037 A 
BRANCH  21  22
ATOM     22  C   UNL     1       5.391  -4.618  -1.109  1.00  0.00     0.227 A 
ATOM     23  N   UNL     1       5.481  -5.373  -2.189  1.00  0.00    -0.209 NA
ATOM     24  O   UNL     1       5.399  -5.311   0.077  1.00  0.00    -0.436 OA
ATOM     25  C   UNL     1       5.598  -6.647  -1.683  1.00  0.00     0.111 A 
ATOM     26  C   UNL     1       5.508  -6.614  -0.301  1.00  0.00     0.155 A 
ATOM     27  C   UNL     1       5.740  -7.883  -2.325  1.00  0.00     0.053 A 
ATOM     28  C   UNL     1       5.507  -7.729   0.524  1.00  0.00     0.051 A 
ATOM     29  C   UNL     1       5.741  -9.033  -1.523  1.00  0.00     0.043 A 
ATOM     30  C   UNL     1       5.616  -8.962  -0.130  1.00  0.00     0.024 A 
ATOM     31  Cl  UNL     1       5.884 -10.577  -2.275  1.00  0.00    -0.084 Cl
ENDBRANCH  21  22
ENDBRANCH  14  16
ENDBRANCH  11  12
ENDBRANCH   3   6
ENDBRANCH   1   2
BRANCH   1  32
ATOM     32  C   UNL     1       0.397  -4.351  -0.348  1.00  0.00     0.042 C 
BRANCH  32  33
ATOM     33  C   UNL     1       1.525  -5.260  -0.841  1.00  0.00     0.118 C 
BRANCH  33  34
ATOM     34  N   UNL     1       1.715  -6.460  -0.047  1.00  0.00    -0.352 N 
ATOM     35  C   UNL     1       1.759  -7.793  -0.364  1.00  0.00     0.251 C 
ATOM     36  H   UNL     1       1.837  -6.280   0.913  1.00  0.00     0.163 HD
ATOM     37  O   UNL     1       1.889  -8.597   0.559  1.00  0.00    -0.269 OA
BRANCH  35  38
ATOM     38  C   UNL     1       1.646  -8.313  -1.751  1.00  0.00     0.039 A 
ATOM     39  C   UNL     1       0.985  -9.538  -1.929  1.00  0.00     0.014 A 
ATOM     40  C   UNL     1       2.251  -7.704  -2.853  1.00  0.00     0.014 A 
ATOM     41  C   UNL     1       0.888 -10.122  -3.197  1.00  0.00     0.010 A 
ATOM     42  C   UNL     1       2.142  -8.278  -4.126  1.00  0.00     0.010 A 
ATOM     43  C   UNL     1       1.454  -9.487  -4.309  1.00  0.00    -0.014 A 
BRANCH  43  44
ATOM     44  C   UNL     1       1.294 -10.048  -5.672  1.00  0.00     0.031 A 
ATOM     45  C   UNL     1       2.406 -10.805  -6.335  1.00  0.00     0.074 A 
ATOM     46  C   UNL     1       0.149  -9.822  -6.342  1.00  0.00     0.049 A 
ATOM     47  N   UNL     1       2.480 -11.255  -7.562  1.00  0.00    -0.248 NA
ATOM     48  C   UNL     1       3.590 -11.088  -5.514  1.00  0.00     0.031 C 
ATOM     49  C   UNL     1      -1.009  -9.100  -5.815  1.00  0.00     0.029 A 
ATOM     50  N   UNL     1      -0.216 -10.157  -7.622  1.00  0.00    -0.354 N 
ATOM     51  C   UNL     1       3.723 -11.862  -7.668  1.00  0.00     0.074 A 
ATOM     52  C   UNL     1       4.372 -11.720  -6.380  1.00  0.00     0.031 C 
ATOM     53  C   UNL     1      -1.948  -9.024  -6.772  1.00  0.00     0.029 A 
ATOM     54  C   UNL     1      -1.448  -9.672  -7.982  1.00  0.00     0.049 A 
ATOM     55  H   UNL     1       0.350 -10.693  -8.222  1.00  0.00     0.167 HD
ATOM     56  C   UNL     1       4.273 -12.481  -8.740  1.00  0.00     0.037 A 
ATOM     57  C   UNL     1      -2.093  -9.718  -9.162  1.00  0.00     0.037 A 
ATOM     58  C   UNL     1       3.631 -12.644 -10.018  1.00  0.00     0.049 A 
ATOM     59  C   UNL     1      -1.460 -10.399 -10.337  1.00  0.00     0.074 A 
ATOM     60  C   UNL     1       4.106 -13.290 -11.148  1.00  0.00     0.029 A 
ATOM     61  N   UNL     1       2.375 -12.156 -10.336  1.00  0.00    -0.354 N 
ATOM     62  N   UNL     1      -0.288 -10.977 -10.420  1.00  0.00    -0.248 NA
ATOM     63  C   UNL     1      -2.239 -10.430 -11.584  1.00  0.00     0.031 C 
ATOM     64  C   UNL     1       3.139 -13.181 -12.156  1.00  0.00     0.029 A 
ATOM     65  C   UNL     1       2.061 -12.477 -11.647  1.00  0.00     0.049 A 
ATOM     66  H   UNL     1       1.791 -11.655  -9.722  1.00  0.00     0.167 HD
ATOM     67  C   UNL     1      -0.190 -11.447 -11.721  1.00  0.00     0.074 A 
ATOM     68  C   UNL     1      -1.422 -11.091 -12.394  1.00  0.00     0.031 C 
ATOM     69  C   UNL     1       0.833 -12.117 -12.303  1.00  0.00     0.037 A 
BRANCH  56  70
ATOM     70  C   UNL     1       5.656 -13.026  -8.578  1.00  0.00     0.057 A 
ATOM     71  C   UNL     1       5.884 -14.278  -7.997  1.00  0.00     0.134 A 
ATOM     72  C   UNL     1       6.764 -12.311  -9.047  1.00  0.00     0.134 A 
ATOM     73  F   UNL     1       4.860 -15.004  -7.525  1.00  0.00    -0.206 F 
ATOM     74  C   UNL     1       7.173 -14.799  -7.881  1.00  0.00     0.040 A 
ATOM     75  C   UNL     1       8.057 -12.825  -8.944  1.00  0.00     0.040 A 
ATOM     76  F   UNL     1       6.606 -11.105  -9.614  1.00  0.00    -0.206 F 
ATOM     77  C   UNL     1       8.264 -14.073  -8.358  1.00  0.00     0.006 A 
ENDBRANCH  56  70
BRANCH  57  78
ATOM     78  C   UNL     1      -3.415  -9.068  -9.289  1.00  0.00     0.057 A 
ATOM     79  C   UNL     1      -4.595  -9.813  -9.220  1.00  0.00     0.134 A 
ATOM     80  C   UNL     1      -3.523  -7.684  -9.462  1.00  0.00     0.134 A 
ATOM     81  F   UNL     1      -4.546 -11.144  -9.071  1.00  0.00    -0.206 F 
ATOM     82  C   UNL     1      -5.845  -9.201  -9.319  1.00  0.00     0.040 A 
ATOM     83  C   UNL     1      -4.766  -7.059  -9.553  1.00  0.00     0.040 A 
ATOM     84  F   UNL     1      -2.421  -6.923  -9.533  1.00  0.00    -0.206 F 
ATOM     85  C   UNL     1      -5.932  -7.819  -9.482  1.00  0.00     0.006 A 
ENDBRANCH  57  78
BRANCH  69  86
ATOM     86  C   UNL     1       0.653 -12.517 -13.733  1.00  0.00     0.057 A 
ATOM     87  C   UNL     1       0.930 -11.627 -14.777  1.00  0.00     0.134 A 
ATOM     88  C   UNL     1       0.221 -13.805 -14.068  1.00  0.00     0.134 A 
ATOM     89  F   UNL     1       1.335 -10.375 -14.514  1.00  0.00    -0.206 F 
ATOM     90  C   UNL     1       0.776 -12.005 -16.111  1.00  0.00     0.040 A 
ATOM     91  C   UNL     1       0.070 -14.196 -15.399  1.00  0.00     0.040 A 
ATOM     92  F   UNL     1      -0.063 -14.698 -13.109  1.00  0.00    -0.206 F 
ATOM     93  C   UNL     1       0.347 -13.294 -16.425  1.00  0.00     0.006 A 
ENDBRANCH  69  86
ENDBRANCH  43  44
ENDBRANCH  35  38
ENDBRANCH  33  34
ENDBRANCH  32  33
ENDBRANCH   1  32
TORSDOF 13
