REMARK SMILES CCCC#C[C@](C)(O)C[NH2+][C@H](C)C(=O)NCCCNC(=O)c1ccc(-c2c3nc(c(-c4c(F)cccc4F)c4ccc([nH]4)c(-c4c(F)cccc4F)c4nc(c(-c5c(F)cccc5F)c5ccc2[nH]5)C=C4)C=C3)cc1
REMARK SMILES IDX 13 1 14 2 15 3 11 5 12 6 10 7 9 10 6 11 7 12 5 13 4 14 3 15
REMARK SMILES IDX 2 16 1 17 8 18 16 20 17 21 18 22 19 23 20 24 21 26 22 27
REMARK SMILES IDX 23 28 75 29 24 30 74 31 25 32 26 33 27 34 68 35 28 36 73 37
REMARK SMILES IDX 67 38 69 39 29 40 72 41 66 42 65 43 30 45 56 46 39 47 55 48
REMARK SMILES IDX 40 49 43 50 54 51 70 52 41 53 42 54 53 56 71 57 44 58 31 59
REMARK SMILES IDX 32 60 37 61 33 62 34 63 36 64 38 65 35 66 57 67 58 68 63 69
REMARK SMILES IDX 59 70 60 71 62 72 64 73 61 74 45 75 46 76 51 77 47 78 48 79
REMARK SMILES IDX 50 80 52 81 49 82
REMARK H PARENT 15 4 10 8 10 9 8 19 19 25 69 44 43 55
REMARK Flexibility Score: inf
ROOT
ATOM      1  C   UNL     1      -1.490  -4.246  -0.607  1.00  0.00     0.277 C 
ATOM      2  O   UNL     1      -1.984  -3.955   0.487  1.00  0.00    -0.268 OA
ATOM      3  N   UNL     1      -0.457  -5.141  -0.609  1.00  0.00    -0.351 N 
ATOM      4  H   UNL     1      -0.141  -5.419   0.281  1.00  0.00     0.163 HD
ENDROOT
BRANCH   1   5
ATOM      5  C   UNL     1      -1.990  -3.571  -1.909  1.00  0.00     0.269 C 
ATOM      6  C   UNL     1      -0.969  -2.539  -2.386  1.00  0.00     0.086 C 
BRANCH   5   7
ATOM      7  N   UNL     1      -2.475  -4.601  -2.842  1.00  0.00    -0.333 N 
ATOM      8  H   UNL     1      -2.273  -5.507  -2.419  1.00  0.00     0.347 HD
ATOM      9  H   UNL     1      -3.460  -4.370  -2.973  1.00  0.00     0.347 HD
BRANCH   7  10
ATOM     10  C   UNL     1      -1.935  -4.632  -4.203  1.00  0.00     0.310 C 
BRANCH  10  11
ATOM     11  C   UNL     1      -2.112  -6.020  -4.904  1.00  0.00     0.171 C 
ATOM     12  C   UNL     1      -2.073  -7.249  -3.985  1.00  0.00     0.063 C 
BRANCH  11  13
ATOM     13  C   UNL     1      -1.058  -6.182  -5.932  1.00  0.00    -0.063 C 
ATOM     14  C   UNL     1      -0.265  -6.325  -6.957  1.00  0.00    -0.100 C 
BRANCH  14  15
ATOM     15  C   UNL     1       0.660  -6.493  -8.152  1.00  0.00     0.089 C 
BRANCH  15  16
ATOM     16  C   UNL     1       1.600  -5.295  -8.285  1.00  0.00     0.010 C 
ATOM     17  C   UNL     1       2.534  -5.127  -7.091  1.00  0.00     0.005 C 
ENDBRANCH  15  16
ENDBRANCH  14  15
ENDBRANCH  11  13
BRANCH  11  18
ATOM     18  O   UNL     1      -3.394  -6.007  -5.548  1.00  0.00    -0.372 OA
ATOM     19  H   UNL     1      -4.090  -5.901  -4.881  1.00  0.00     0.212 HD
ENDBRANCH  11  18
ENDBRANCH  10  11
ENDBRANCH   7  10
ENDBRANCH   5   7
ENDBRANCH   1   5
BRANCH   3  20
ATOM     20  C   UNL     1       0.240  -5.739  -1.725  1.00  0.00     0.118 C 
BRANCH  20  21
ATOM     21  C   UNL     1       1.687  -5.301  -1.834  1.00  0.00     0.042 C 
BRANCH  21  22
ATOM     22  C   UNL     1       2.572  -5.943  -0.782  1.00  0.00     0.118 C 
BRANCH  22  23
ATOM     23  N   UNL     1       2.647  -7.393  -0.929  1.00  0.00    -0.352 N 
ATOM     24  C   UNL     1       3.716  -8.207  -1.212  1.00  0.00     0.251 C 
ATOM     25  H   UNL     1       1.792  -7.864  -0.804  1.00  0.00     0.163 HD
ATOM     26  O   UNL     1       3.529  -9.383  -1.497  1.00  0.00    -0.269 OA
BRANCH  24  27
ATOM     27  C   UNL     1       5.088  -7.660  -1.191  1.00  0.00     0.039 A 
ATOM     28  C   UNL     1       6.003  -8.084  -2.158  1.00  0.00     0.014 A 
ATOM     29  C   UNL     1       5.474  -6.736  -0.218  1.00  0.00     0.014 A 
ATOM     30  C   UNL     1       7.280  -7.522  -2.191  1.00  0.00     0.010 A 
ATOM     31  C   UNL     1       6.701  -6.096  -0.323  1.00  0.00     0.010 A 
ATOM     32  C   UNL     1       7.623  -6.492  -1.300  1.00  0.00    -0.014 A 
BRANCH  32  33
ATOM     33  C   UNL     1       8.945  -5.822  -1.361  1.00  0.00     0.031 A 
ATOM     34  C   UNL     1       9.872  -5.876  -0.179  1.00  0.00     0.074 A 
ATOM     35  C   UNL     1       9.276  -5.102  -2.450  1.00  0.00     0.049 A 
ATOM     36  N   UNL     1      11.035  -5.300  -0.012  1.00  0.00    -0.248 NA
ATOM     37  C   UNL     1       9.415  -6.653   0.985  1.00  0.00     0.031 C 
ATOM     38  C   UNL     1       8.438  -4.929  -3.639  1.00  0.00     0.029 A 
ATOM     39  N   UNL     1      10.405  -4.375  -2.730  1.00  0.00    -0.354 N 
ATOM     40  C   UNL     1      11.436  -5.628   1.277  1.00  0.00     0.074 A 
ATOM     41  C   UNL     1      10.364  -6.394   1.871  1.00  0.00     0.031 C 
ATOM     42  C   UNL     1       9.098  -4.179  -4.535  1.00  0.00     0.029 A 
ATOM     43  C   UNL     1      10.382  -3.781  -3.968  1.00  0.00     0.049 A 
ATOM     44  H   UNL     1      11.159  -4.288  -2.104  1.00  0.00     0.167 HD
ATOM     45  C   UNL     1      12.603  -5.340   1.900  1.00  0.00     0.037 A 
ATOM     46  C   UNL     1      11.294  -2.999  -4.576  1.00  0.00     0.037 A 
ATOM     47  C   UNL     1      13.674  -4.593   1.295  1.00  0.00     0.049 A 
ATOM     48  C   UNL     1      12.576  -2.679  -3.860  1.00  0.00     0.074 A 
ATOM     49  C   UNL     1      14.923  -4.303   1.812  1.00  0.00     0.029 A 
ATOM     50  N   UNL     1      13.615  -4.009   0.037  1.00  0.00    -0.354 N 
ATOM     51  N   UNL     1      12.978  -3.060  -2.671  1.00  0.00    -0.248 NA
ATOM     52  C   UNL     1      13.534  -1.823  -4.573  1.00  0.00     0.031 C 
ATOM     53  C   UNL     1      15.599  -3.494   0.892  1.00  0.00     0.029 A 
ATOM     54  C   UNL     1      14.795  -3.332  -0.225  1.00  0.00     0.049 A 
ATOM     55  H   UNL     1      12.848  -4.067  -0.577  1.00  0.00     0.167 HD
ATOM     56  C   UNL     1      14.245  -2.515  -2.504  1.00  0.00     0.074 A 
ATOM     57  C   UNL     1      14.549  -1.789  -3.720  1.00  0.00     0.031 C 
ATOM     58  C   UNL     1      15.082  -2.611  -1.441  1.00  0.00     0.037 A 
BRANCH  45  59
ATOM     59  C   UNL     1      12.769  -5.832   3.311  1.00  0.00     0.057 A 
ATOM     60  C   UNL     1      12.860  -7.198   3.617  1.00  0.00     0.134 A 
ATOM     61  C   UNL     1      12.835  -4.929   4.379  1.00  0.00     0.134 A 
ATOM     62  F   UNL     1      12.791  -8.120   2.644  1.00  0.00    -0.206 F 
ATOM     63  C   UNL     1      12.966  -7.647   4.935  1.00  0.00     0.040 A 
ATOM     64  C   UNL     1      12.976  -5.365   5.698  1.00  0.00     0.040 A 
ATOM     65  F   UNL     1      12.762  -3.607   4.160  1.00  0.00    -0.206 F 
ATOM     66  C   UNL     1      13.029  -6.728   5.980  1.00  0.00     0.006 A 
ENDBRANCH  45  59
BRANCH  46  67
ATOM     67  C   UNL     1      11.041  -2.502  -5.951  1.00  0.00     0.057 A 
ATOM     68  C   UNL     1      11.771  -2.996  -7.038  1.00  0.00     0.134 A 
ATOM     69  C   UNL     1      10.059  -1.540  -6.216  1.00  0.00     0.134 A 
ATOM     70  F   UNL     1      12.736  -3.907  -6.846  1.00  0.00    -0.206 F 
ATOM     71  C   UNL     1      11.543  -2.542  -8.339  1.00  0.00     0.040 A 
ATOM     72  C   UNL     1       9.803  -1.096  -7.515  1.00  0.00     0.040 A 
ATOM     73  F   UNL     1       9.318  -1.035  -5.219  1.00  0.00    -0.206 F 
ATOM     74  C   UNL     1      10.551  -1.594  -8.580  1.00  0.00     0.006 A 
ENDBRANCH  46  67
BRANCH  58  75
ATOM     75  C   UNL     1      16.421  -1.942  -1.559  1.00  0.00     0.057 A 
ATOM     76  C   UNL     1      16.559  -0.548  -1.542  1.00  0.00     0.134 A 
ATOM     77  C   UNL     1      17.592  -2.706  -1.652  1.00  0.00     0.134 A 
ATOM     78  F   UNL     1      15.477   0.242  -1.468  1.00  0.00    -0.206 F 
ATOM     79  C   UNL     1      17.811   0.061  -1.637  1.00  0.00     0.040 A 
ATOM     80  C   UNL     1      18.851  -2.109  -1.717  1.00  0.00     0.040 A 
ATOM     81  F   UNL     1      17.532  -4.046  -1.665  1.00  0.00    -0.206 F 
ATOM     82  C   UNL     1      18.962  -0.720  -1.717  1.00  0.00     0.006 A 
ENDBRANCH  58  75
ENDBRANCH  32  33
ENDBRANCH  24  27
ENDBRANCH  22  23
ENDBRANCH  21  22
ENDBRANCH  20  21
ENDBRANCH   3  20
TORSDOF 17
