REMARK SMILES C[C@H]1CC=C(C2=NN=C(C(=O)NCCCNC(=O)c3ccc(-c4c5nc(c(-c6c(F)cccc6F)c6ccc([nH]6)c(-c6c(F)cccc6F)c6nc(c(-c7c(F)cccc7F)c7ccc4[nH]7)C=C6)C=C5)cc3)C2)O1
REMARK SMILES IDX 14 1 13 2 12 3 10 4 11 5 9 7 6 8 7 9 73 10 8 11 5 12 1 13
REMARK SMILES IDX 2 14 3 15 74 16 4 17 15 18 16 19 17 20 18 22 19 23 20 24
REMARK SMILES IDX 72 25 21 26 71 27 22 28 23 29 24 30 65 31 25 32 70 33 64 34
REMARK SMILES IDX 66 35 26 36 69 37 63 38 62 39 27 41 53 42 36 43 52 44 37 45
REMARK SMILES IDX 40 46 51 47 67 48 38 49 39 50 50 52 68 53 41 54 28 55 29 56
REMARK SMILES IDX 34 57 30 58 31 59 33 60 35 61 32 62 54 63 55 64 60 65 56 66
REMARK SMILES IDX 57 67 59 68 61 69 58 70 42 71 43 72 48 73 44 74 45 75 47 76
REMARK SMILES IDX 49 77 46 78
REMARK H PARENT 12 6 16 21 66 40 40 51
REMARK Flexibility Score: inf
ROOT
ATOM      1  C   UNL     1       3.713   8.589  -4.181  1.00  0.00     0.042 C 
ENDROOT
BRANCH   1   2
ATOM      2  C   UNL     1       4.664   7.641  -3.446  1.00  0.00     0.118 C 
BRANCH   2   3
ATOM      3  N   UNL     1       4.354   7.531  -2.026  1.00  0.00    -0.351 N 
ATOM      4  C   UNL     1       3.659   6.562  -1.345  1.00  0.00     0.267 C 
ATOM      5  O   UNL     1       3.511   6.640  -0.129  1.00  0.00    -0.268 OA
ATOM      6  H   UNL     1       4.697   8.266  -1.468  1.00  0.00     0.163 HD
BRANCH   4   7
ATOM      7  C   UNL     1       3.089   5.357  -2.040  1.00  0.00     0.134 C 
ATOM      8  C   UNL     1       2.229   3.331  -2.399  1.00  0.00     0.111 C 
ATOM      9  N   UNL     1       2.499   3.870  -3.550  1.00  0.00    -0.151 NA
ATOM     10  C   UNL     1       2.537   4.226  -1.244  1.00  0.00     0.126 C 
ATOM     11  N   UNL     1       3.025   5.173  -3.323  1.00  0.00    -0.149 NA
BRANCH   8  12
ATOM     12  C   UNL     1       1.703   1.974  -2.194  1.00  0.00     0.139 C 
ATOM     13  C   UNL     1      -0.883  -0.103  -1.376  1.00  0.00     0.053 C 
ATOM     14  C   UNL     1       0.590   0.267  -1.280  1.00  0.00     0.174 C 
ATOM     15  C   UNL     1       1.402  -0.272  -2.465  1.00  0.00     0.076 C 
ATOM     16  O   UNL     1       0.729   1.709  -1.242  1.00  0.00    -0.489 OA
ATOM     17  C   UNL     1       2.151   0.929  -2.883  1.00  0.00     0.025 C 
ENDBRANCH   8  12
ENDBRANCH   4   7
ENDBRANCH   2   3
ENDBRANCH   1   2
BRANCH   1  18
ATOM     18  C   UNL     1       4.007  10.054  -3.877  1.00  0.00     0.118 C 
BRANCH  18  19
ATOM     19  N   UNL     1       5.301  10.492  -4.406  1.00  0.00    -0.352 N 
ATOM     20  C   UNL     1       5.931  11.716  -4.278  1.00  0.00     0.251 C 
ATOM     21  H   UNL     1       5.793   9.818  -4.928  1.00  0.00     0.163 HD
ATOM     22  O   UNL     1       6.849  12.026  -5.016  1.00  0.00    -0.269 OA
BRANCH  20  23
ATOM     23  C   UNL     1       5.463  12.656  -3.241  1.00  0.00     0.039 A 
ATOM     24  C   UNL     1       5.340  14.020  -3.523  1.00  0.00     0.014 A 
ATOM     25  C   UNL     1       5.119  12.156  -1.990  1.00  0.00     0.014 A 
ATOM     26  C   UNL     1       4.771  14.858  -2.566  1.00  0.00     0.010 A 
ATOM     27  C   UNL     1       4.434  12.952  -1.104  1.00  0.00     0.010 A 
ATOM     28  C   UNL     1       4.289  14.312  -1.367  1.00  0.00    -0.014 A 
BRANCH  28  29
ATOM     29  C   UNL     1       3.497  15.126  -0.445  1.00  0.00     0.031 A 
ATOM     30  C   UNL     1       2.303  15.767  -1.062  1.00  0.00     0.074 A 
ATOM     31  C   UNL     1       3.670  15.106   0.896  1.00  0.00     0.049 A 
ATOM     32  N   UNL     1       2.068  17.028  -1.210  1.00  0.00    -0.248 NA
ATOM     33  C   UNL     1       1.295  14.899  -1.697  1.00  0.00     0.031 C 
ATOM     34  C   UNL     1       4.596  14.257   1.657  1.00  0.00     0.029 A 
ATOM     35  N   UNL     1       2.977  15.752   1.881  1.00  0.00    -0.354 N 
ATOM     36  C   UNL     1       0.784  17.117  -1.747  1.00  0.00     0.074 A 
ATOM     37  C   UNL     1       0.444  15.796  -2.201  1.00  0.00     0.031 C 
ATOM     38  C   UNL     1       4.247  14.258   2.961  1.00  0.00     0.029 A 
ATOM     39  C   UNL     1       3.206  15.249   3.157  1.00  0.00     0.049 A 
ATOM     40  H   UNL     1       2.368  16.505   1.702  1.00  0.00     0.167 HD
ATOM     41  C   UNL     1       0.005  18.206  -1.498  1.00  0.00     0.037 A 
ATOM     42  C   UNL     1       2.606  15.619   4.313  1.00  0.00     0.037 A 
ATOM     43  C   UNL     1       0.791  19.273  -0.932  1.00  0.00     0.049 A 
ATOM     44  C   UNL     1       2.030  16.963   4.114  1.00  0.00     0.074 A 
ATOM     45  C   UNL     1       1.683  20.220  -1.379  1.00  0.00     0.029 A 
ATOM     46  N   UNL     1       0.931  19.184   0.426  1.00  0.00    -0.354 N 
ATOM     47  N   UNL     1       2.751  18.037   3.957  1.00  0.00    -0.248 NA
ATOM     48  C   UNL     1       0.619  17.099   3.770  1.00  0.00     0.031 C 
ATOM     49  C   UNL     1       2.479  20.582  -0.251  1.00  0.00     0.029 A 
ATOM     50  C   UNL     1       2.032  19.870   0.859  1.00  0.00     0.049 A 
ATOM     51  H   UNL     1       0.318  18.689   1.016  1.00  0.00     0.167 HD
ATOM     52  C   UNL     1       2.006  18.816   3.097  1.00  0.00     0.074 A 
ATOM     53  C   UNL     1       0.648  18.296   3.178  1.00  0.00     0.031 C 
ATOM     54  C   UNL     1       2.617  19.575   2.146  1.00  0.00     0.037 A 
BRANCH  41  55
ATOM     55  C   UNL     1      -1.498  18.181  -1.278  1.00  0.00     0.057 A 
ATOM     56  C   UNL     1      -2.174  19.403  -1.080  1.00  0.00     0.134 A 
ATOM     57  C   UNL     1      -2.239  17.034  -0.931  1.00  0.00     0.134 A 
ATOM     58  F   UNL     1      -1.583  20.573  -1.365  1.00  0.00    -0.206 F 
ATOM     59  C   UNL     1      -3.451  19.477  -0.505  1.00  0.00     0.040 A 
ATOM     60  C   UNL     1      -3.533  17.096  -0.402  1.00  0.00     0.040 A 
ATOM     61  F   UNL     1      -1.723  15.802  -0.982  1.00  0.00    -0.206 F 
ATOM     62  C   UNL     1      -4.132  18.320  -0.155  1.00  0.00     0.006 A 
ENDBRANCH  41  55
BRANCH  42  63
ATOM     63  C   UNL     1       2.384  14.858   5.558  1.00  0.00     0.057 A 
ATOM     64  C   UNL     1       2.177  15.510   6.781  1.00  0.00     0.134 A 
ATOM     65  C   UNL     1       2.085  13.487   5.523  1.00  0.00     0.134 A 
ATOM     66  F   UNL     1       2.416  16.824   6.902  1.00  0.00    -0.206 F 
ATOM     67  C   UNL     1       1.657  14.847   7.898  1.00  0.00     0.040 A 
ATOM     68  C   UNL     1       1.568  12.810   6.633  1.00  0.00     0.040 A 
ATOM     69  F   UNL     1       2.200  12.786   4.385  1.00  0.00    -0.206 F 
ATOM     70  C   UNL     1       1.334  13.495   7.820  1.00  0.00     0.006 A 
ENDBRANCH  42  63
BRANCH  54  71
ATOM     71  C   UNL     1       4.041  19.962   2.391  1.00  0.00     0.057 A 
ATOM     72  C   UNL     1       5.120  19.068   2.392  1.00  0.00     0.134 A 
ATOM     73  C   UNL     1       4.333  21.316   2.582  1.00  0.00     0.134 A 
ATOM     74  F   UNL     1       4.941  17.764   2.147  1.00  0.00    -0.206 F 
ATOM     75  C   UNL     1       6.429  19.501   2.617  1.00  0.00     0.040 A 
ATOM     76  C   UNL     1       5.639  21.766   2.776  1.00  0.00     0.040 A 
ATOM     77  F   UNL     1       3.350  22.229   2.556  1.00  0.00    -0.206 F 
ATOM     78  C   UNL     1       6.692  20.855   2.805  1.00  0.00     0.006 A 
ENDBRANCH  54  71
ENDBRANCH  28  29
ENDBRANCH  20  23
ENDBRANCH  18  19
ENDBRANCH   1  18
TORSDOF 11
