REMARK SMILES CC(C)[C@H]([NH2+]Cc1ccc(O)cn1)C(=O)NCCCNC(=O)c1ccc(-c2c3nc(c(-c4c(F)cccc4F)c4ccc([nH]4)c(-c4c(F)cccc4F)c4nc(c(-c5c(F)cccc5F)c5ccc2[nH]5)C=C4)C=C3)cc1
REMARK SMILES IDX 17 1 16 2 14 3 15 4 4 6 2 7 1 8 3 9 5 10 6 13 7 14 8 15
REMARK SMILES IDX 13 16 9 17 12 18 10 19 11 20 18 22 19 23 20 24 21 25 22 27
REMARK SMILES IDX 23 28 24 29 76 30 25 31 75 32 26 33 27 34 28 35 69 36 29 37
REMARK SMILES IDX 74 38 68 39 70 40 30 41 73 42 67 43 66 44 31 46 57 47 40 48
REMARK SMILES IDX 56 49 41 50 44 51 55 52 71 53 42 54 43 55 54 57 72 58 45 59
REMARK SMILES IDX 32 60 33 61 38 62 34 63 35 64 37 65 39 66 36 67 58 68 59 69
REMARK SMILES IDX 64 70 60 71 61 72 63 73 65 74 62 75 46 76 47 77 52 78 48 79
REMARK SMILES IDX 49 80 51 81 53 82 50 83
REMARK H PARENT 16 5 5 11 5 12 11 21 20 26 70 45 44 56
REMARK Flexibility Score: inf
ROOT
ATOM      1  C   UNL     1      -0.275   4.202   0.191  1.00  0.00     0.118 C 
ENDROOT
BRANCH   1   2
ATOM      2  N   UNL     1      -1.143   3.739  -0.870  1.00  0.00    -0.351 N 
ATOM      3  C   UNL     1      -1.523   2.492  -1.261  1.00  0.00     0.278 C 
ATOM      4  O   UNL     1      -2.344   2.436  -2.185  1.00  0.00    -0.268 OA
ATOM      5  H   UNL     1      -1.533   4.463  -1.412  1.00  0.00     0.163 HD
BRANCH   3   6
ATOM      6  C   UNL     1      -1.024   1.191  -0.578  1.00  0.00     0.275 C 
BRANCH   6   7
ATOM      7  C   UNL     1      -1.737   0.861   0.767  1.00  0.00     0.051 C 
ATOM      8  C   UNL     1      -1.308   1.665   1.994  1.00  0.00     0.014 C 
ATOM      9  C   UNL     1      -3.263   0.950   0.628  1.00  0.00     0.014 C 
ENDBRANCH   6   7
BRANCH   6  10
ATOM     10  N   UNL     1       0.449   1.172  -0.573  1.00  0.00    -0.331 N 
ATOM     11  H   UNL     1       0.772   1.748   0.204  1.00  0.00     0.347 HD
ATOM     12  H   UNL     1       0.745   1.525  -1.483  1.00  0.00     0.347 HD
BRANCH  10  13
ATOM     13  C   UNL     1       1.041  -0.161  -0.432  1.00  0.00     0.318 C 
BRANCH  13  14
ATOM     14  C   UNL     1       2.560  -0.074  -0.452  1.00  0.00     0.095 A 
ATOM     15  C   UNL     1       3.233   0.576   0.588  1.00  0.00     0.033 A 
ATOM     16  N   UNL     1       3.210  -0.573  -1.532  1.00  0.00    -0.251 NA
ATOM     17  C   UNL     1       4.612   0.757   0.501  1.00  0.00     0.050 A 
ATOM     18  C   UNL     1       4.551  -0.390  -1.588  1.00  0.00     0.157 A 
ATOM     19  C   UNL     1       5.279   0.271  -0.613  1.00  0.00     0.133 A 
BRANCH  19  20
ATOM     20  O   UNL     1       6.621   0.435  -0.771  1.00  0.00    -0.506 OA
ATOM     21  H   UNL     1       7.119   0.881  -0.115  1.00  0.00     0.293 HD
ENDBRANCH  19  20
ENDBRANCH  13  14
ENDBRANCH  10  13
ENDBRANCH   6  10
ENDBRANCH   3   6
ENDBRANCH   1   2
BRANCH   1  22
ATOM     22  C   UNL     1       0.931   4.970  -0.321  1.00  0.00     0.042 C 
BRANCH  22  23
ATOM     23  C   UNL     1       0.568   6.314  -0.932  1.00  0.00     0.118 C 
BRANCH  23  24
ATOM     24  N   UNL     1      -0.067   7.213   0.028  1.00  0.00    -0.352 N 
ATOM     25  C   UNL     1       0.399   8.357   0.629  1.00  0.00     0.251 C 
ATOM     26  H   UNL     1      -0.981   6.957   0.288  1.00  0.00     0.163 HD
ATOM     27  O   UNL     1      -0.214   8.840   1.577  1.00  0.00    -0.269 OA
BRANCH  25  28
ATOM     28  C   UNL     1       1.643   8.995   0.154  1.00  0.00     0.039 A 
ATOM     29  C   UNL     1       2.537   9.531   1.086  1.00  0.00     0.014 A 
ATOM     30  C   UNL     1       1.924   9.079  -1.210  1.00  0.00     0.014 A 
ATOM     31  C   UNL     1       3.749  10.071   0.650  1.00  0.00     0.010 A 
ATOM     32  C   UNL     1       3.172   9.515  -1.633  1.00  0.00     0.010 A 
ATOM     33  C   UNL     1       4.096  10.023  -0.709  1.00  0.00    -0.014 A 
BRANCH  33  34
ATOM     34  C   UNL     1       5.404  10.519  -1.206  1.00  0.00     0.031 A 
ATOM     35  C   UNL     1       5.442  11.638  -2.212  1.00  0.00     0.074 A 
ATOM     36  C   UNL     1       6.543   9.911  -0.822  1.00  0.00     0.049 A 
ATOM     37  N   UNL     1       6.461  12.117  -2.879  1.00  0.00    -0.248 NA
ATOM     38  C   UNL     1       4.157  12.280  -2.536  1.00  0.00     0.031 C 
ATOM     39  C   UNL     1       6.636   8.789   0.115  1.00  0.00     0.029 A 
ATOM     40  N   UNL     1       7.846  10.145  -1.186  1.00  0.00    -0.354 N 
ATOM     41  C   UNL     1       5.936  13.097  -3.713  1.00  0.00     0.074 A 
ATOM     42  C   UNL     1       4.504  13.102  -3.515  1.00  0.00     0.031 C 
ATOM     43  C   UNL     1       7.927   8.451   0.272  1.00  0.00     0.029 A 
ATOM     44  C   UNL     1       8.747   9.299  -0.586  1.00  0.00     0.049 A 
ATOM     45  H   UNL     1       8.109  10.852  -1.818  1.00  0.00     0.167 HD
ATOM     46  C   UNL     1       6.590  13.939  -4.547  1.00  0.00     0.037 A 
ATOM     47  C   UNL     1      10.084   9.213  -0.723  1.00  0.00     0.037 A 
ATOM     48  C   UNL     1       8.018  13.957  -4.715  1.00  0.00     0.049 A 
ATOM     49  C   UNL     1      10.785  10.155  -1.663  1.00  0.00     0.074 A 
ATOM     50  C   UNL     1       8.783  14.792  -5.510  1.00  0.00     0.029 A 
ATOM     51  N   UNL     1       8.897  13.106  -4.063  1.00  0.00    -0.354 N 
ATOM     52  N   UNL     1      10.279  11.102  -2.415  1.00  0.00    -0.248 NA
ATOM     53  C   UNL     1      12.244  10.018  -1.770  1.00  0.00     0.031 C 
ATOM     54  C   UNL     1      10.125  14.430  -5.357  1.00  0.00     0.029 A 
ATOM     55  C   UNL     1      10.197  13.395  -4.439  1.00  0.00     0.049 A 
ATOM     56  H   UNL     1       8.635  12.401  -3.428  1.00  0.00     0.167 HD
ATOM     57  C   UNL     1      11.359  11.697  -3.054  1.00  0.00     0.074 A 
ATOM     58  C   UNL     1      12.548  11.010  -2.594  1.00  0.00     0.031 C 
ATOM     59  C   UNL     1      11.367  12.718  -3.944  1.00  0.00     0.037 A 
BRANCH  46  60
ATOM     60  C   UNL     1       5.766  14.927  -5.319  1.00  0.00     0.057 A 
ATOM     61  C   UNL     1       5.145  16.013  -4.688  1.00  0.00     0.134 A 
ATOM     62  C   UNL     1       5.620  14.815  -6.706  1.00  0.00     0.134 A 
ATOM     63  F   UNL     1       5.234  16.169  -3.358  1.00  0.00    -0.206 F 
ATOM     64  C   UNL     1       4.388  16.939  -5.406  1.00  0.00     0.040 A 
ATOM     65  C   UNL     1       4.887  15.750  -7.439  1.00  0.00     0.040 A 
ATOM     66  F   UNL     1       6.192  13.801  -7.373  1.00  0.00    -0.206 F 
ATOM     67  C   UNL     1       4.264  16.813  -6.788  1.00  0.00     0.006 A 
ENDBRANCH  46  60
BRANCH  47  68
ATOM     68  C   UNL     1      10.860   8.218   0.061  1.00  0.00     0.057 A 
ATOM     69  C   UNL     1      11.731   8.628   1.077  1.00  0.00     0.134 A 
ATOM     70  C   UNL     1      10.783   6.846  -0.207  1.00  0.00     0.134 A 
ATOM     71  F   UNL     1      11.861   9.931   1.369  1.00  0.00    -0.206 F 
ATOM     72  C   UNL     1      12.521   7.715   1.777  1.00  0.00     0.040 A 
ATOM     73  C   UNL     1      11.549   5.920   0.502  1.00  0.00     0.040 A 
ATOM     74  F   UNL     1       9.959   6.387  -1.160  1.00  0.00    -0.206 F 
ATOM     75  C   UNL     1      12.430   6.355   1.490  1.00  0.00     0.006 A 
ENDBRANCH  47  68
BRANCH  59  76
ATOM     76  C   UNL     1      12.704  13.193  -4.430  1.00  0.00     0.057 A 
ATOM     77  C   UNL     1      13.464  12.454  -5.344  1.00  0.00     0.134 A 
ATOM     78  C   UNL     1      13.213  14.428  -4.008  1.00  0.00     0.134 A 
ATOM     79  F   UNL     1      13.036  11.257  -5.774  1.00  0.00    -0.206 F 
ATOM     80  C   UNL     1      14.696  12.918  -5.807  1.00  0.00     0.040 A 
ATOM     81  C   UNL     1      14.431  14.913  -4.483  1.00  0.00     0.040 A 
ATOM     82  F   UNL     1      12.528  15.187  -3.140  1.00  0.00    -0.206 F 
ATOM     83  C   UNL     1      15.179  14.154  -5.382  1.00  0.00     0.006 A 
ENDBRANCH  59  76
ENDBRANCH  33  34
ENDBRANCH  25  28
ENDBRANCH  23  24
ENDBRANCH  22  23
ENDBRANCH   1  22
TORSDOF 15
