REMARK SMILES C[C@@H](C(=O)NCCCNC(=O)c1ccc(-c2c3nc(c(-c4c(F)cccc4F)c4ccc([nH]4)c(-c4c(F)cccc4F)c4nc(c(-c5c(F)cccc5F)c5ccc2[nH]5)C=C4)C=C3)cc1)N1C(=O)/C(=C/c2ccc(N(C)C)cc2)SC1=S
REMARK SMILES IDX 6 1 5 2 3 3 4 4 2 6 1 7 66 8 67 9 81 10 68 11 69 12 80 13
REMARK SMILES IDX 82 14 70 15 71 16 72 17 79 18 73 19 78 20 74 21 75 22 76 23
REMARK SMILES IDX 77 24 7 25 8 26 9 27 10 28 11 30 12 31 13 32 65 33 14 34
REMARK SMILES IDX 64 35 15 36 16 37 17 38 58 39 18 40 63 41 57 42 59 43 19 44
REMARK SMILES IDX 62 45 56 46 55 47 20 49 46 50 29 51 45 52 30 53 33 54 44 55
REMARK SMILES IDX 60 56 31 57 32 58 43 60 61 61 34 62 21 63 22 64 27 65 23 66
REMARK SMILES IDX 24 67 26 68 28 69 25 70 47 71 48 72 53 73 49 74 50 75 52 76
REMARK SMILES IDX 54 77 51 78 35 79 36 80 41 81 37 82 38 83 40 84 42 85 39 86
REMARK H PARENT 5 5 9 29 59 48 33 59
REMARK Flexibility Score: inf
ROOT
ATOM      1  C   UNL     1       3.272   1.872   1.110  1.00  0.00     0.117 C 
ENDROOT
BRANCH   1   2
ATOM      2  N   UNL     1       2.195   2.559   0.412  1.00  0.00    -0.354 N 
ATOM      3  C   UNL     1       0.916   2.143   0.157  1.00  0.00     0.242 C 
ATOM      4  O   UNL     1       0.253   2.774  -0.668  1.00  0.00    -0.273 OA
ATOM      5  H   UNL     1       2.420   3.455   0.074  1.00  0.00     0.163 HD
BRANCH   3   6
ATOM      6  C   UNL     1       0.372   0.886   0.868  1.00  0.00     0.178 C 
ATOM      7  C   UNL     1       0.850  -0.289  -0.000  1.00  0.00     0.042 C 
BRANCH   6   8
ATOM      8  N   UNL     1      -1.101   0.971   1.040  1.00  0.00    -0.281 N 
ATOM      9  C   UNL     1      -1.891  -0.157   0.926  1.00  0.00     0.266 C 
ATOM     10  C   UNL     1      -1.754   2.046   1.623  1.00  0.00     0.149 C 
ATOM     11  O   UNL     1      -1.511  -1.320   0.822  1.00  0.00    -0.268 OA
ATOM     12  C   UNL     1      -3.326   0.181   1.062  1.00  0.00     0.081 C 
ATOM     13  S   UNL     1      -3.500   1.824   1.495  1.00  0.00    -0.054 SA
ATOM     14  S   UNL     1      -1.108   3.370   2.411  1.00  0.00    -0.052 S 
ATOM     15  C   UNL     1      -4.271  -0.747   0.866  1.00  0.00     0.029 C 
BRANCH  15  16
ATOM     16  C   UNL     1      -5.711  -0.511   0.874  1.00  0.00    -0.024 A 
ATOM     17  C   UNL     1      -6.512  -0.996   1.901  1.00  0.00     0.010 A 
ATOM     18  C   UNL     1      -6.309   0.160  -0.188  1.00  0.00     0.010 A 
ATOM     19  C   UNL     1      -7.902  -0.801   1.864  1.00  0.00     0.026 A 
ATOM     20  C   UNL     1      -7.697   0.338  -0.217  1.00  0.00     0.026 A 
ATOM     21  C   UNL     1      -8.542  -0.135   0.804  1.00  0.00     0.036 A 
BRANCH  21  22
ATOM     22  N   UNL     1      -9.921   0.027   0.739  1.00  0.00    -0.378 N 
ATOM     23  C   UNL     1     -10.812  -0.394   1.813  1.00  0.00     0.143 C 
ATOM     24  C   UNL     1     -10.511   0.877  -0.291  1.00  0.00     0.143 C 
ENDBRANCH  21  22
ENDBRANCH  15  16
ENDBRANCH   6   8
ENDBRANCH   3   6
ENDBRANCH   1   2
BRANCH   1  25
ATOM     25  C   UNL     1       4.310   1.327   0.129  1.00  0.00     0.042 C 
BRANCH  25  26
ATOM     26  C   UNL     1       5.084   2.409  -0.616  1.00  0.00     0.118 C 
BRANCH  26  27
ATOM     27  N   UNL     1       6.036   3.098   0.239  1.00  0.00    -0.352 N 
ATOM     28  C   UNL     1       7.386   3.283   0.062  1.00  0.00     0.251 C 
ATOM     29  H   UNL     1       5.661   3.488   1.061  1.00  0.00     0.163 HD
ATOM     30  O   UNL     1       8.066   3.737   0.977  1.00  0.00    -0.269 OA
BRANCH  28  31
ATOM     31  C   UNL     1       8.029   2.910  -1.218  1.00  0.00     0.039 A 
ATOM     32  C   UNL     1       9.235   2.205  -1.185  1.00  0.00     0.014 A 
ATOM     33  C   UNL     1       7.458   3.264  -2.444  1.00  0.00     0.014 A 
ATOM     34  C   UNL     1       9.834   1.794  -2.378  1.00  0.00     0.010 A 
ATOM     35  C   UNL     1       8.023   2.802  -3.631  1.00  0.00     0.010 A 
ATOM     36  C   UNL     1       9.214   2.059  -3.610  1.00  0.00    -0.014 A 
BRANCH  36  37
ATOM     37  C   UNL     1       9.781   1.554  -4.885  1.00  0.00     0.031 A 
ATOM     38  C   UNL     1      10.287   2.516  -5.923  1.00  0.00     0.074 A 
ATOM     39  C   UNL     1       9.762   0.232  -5.144  1.00  0.00     0.049 A 
ATOM     40  N   UNL     1      10.714   2.273  -7.136  1.00  0.00    -0.248 NA
ATOM     41  C   UNL     1      10.290   3.942  -5.559  1.00  0.00     0.031 C 
ATOM     42  C   UNL     1       9.258  -0.801  -4.237  1.00  0.00     0.029 A 
ATOM     43  N   UNL     1      10.156  -0.467  -6.258  1.00  0.00    -0.354 N 
ATOM     44  C   UNL     1      11.012   3.512  -7.688  1.00  0.00     0.074 A 
ATOM     45  C   UNL     1      10.690   4.508  -6.689  1.00  0.00     0.031 C 
ATOM     46  C   UNL     1       9.379  -2.001  -4.828  1.00  0.00     0.029 A 
ATOM     47  C   UNL     1       9.931  -1.820  -6.167  1.00  0.00     0.049 A 
ATOM     48  H   UNL     1      10.561  -0.040  -7.047  1.00  0.00     0.167 HD
ATOM     49  C   UNL     1      11.521   3.791  -8.911  1.00  0.00     0.037 A 
ATOM     50  C   UNL     1      10.129  -2.801  -7.067  1.00  0.00     0.037 A 
ATOM     51  C   UNL     1      11.882   2.797  -9.887  1.00  0.00     0.049 A 
ATOM     52  C   UNL     1      10.693  -2.461  -8.418  1.00  0.00     0.074 A 
ATOM     53  C   UNL     1      12.498   2.979 -11.114  1.00  0.00     0.029 A 
ATOM     54  N   UNL     1      11.655   1.437  -9.751  1.00  0.00    -0.354 N 
ATOM     55  N   UNL     1      11.045  -1.293  -8.895  1.00  0.00    -0.248 NA
ATOM     56  C   UNL     1      10.884  -3.577  -9.357  1.00  0.00     0.031 C 
ATOM     57  C   UNL     1      12.607   1.732 -11.737  1.00  0.00     0.029 A 
ATOM     58  C   UNL     1      12.091   0.771 -10.884  1.00  0.00     0.049 A 
ATOM     59  H   UNL     1      11.245   1.008  -8.965  1.00  0.00     0.167 HD
ATOM     60  C   UNL     1      11.518  -1.534 -10.178  1.00  0.00     0.074 A 
ATOM     61  C   UNL     1      11.420  -2.961 -10.402  1.00  0.00     0.031 C 
ATOM     62  C   UNL     1      11.991  -0.650 -11.090  1.00  0.00     0.037 A 
BRANCH  49  63
ATOM     63  C   UNL     1      11.724   5.233  -9.268  1.00  0.00     0.057 A 
ATOM     64  C   UNL     1      12.762   5.992  -8.714  1.00  0.00     0.134 A 
ATOM     65  C   UNL     1      10.905   5.852 -10.222  1.00  0.00     0.134 A 
ATOM     66  F   UNL     1      13.574   5.460  -7.789  1.00  0.00    -0.206 F 
ATOM     67  C   UNL     1      12.968   7.322  -9.083  1.00  0.00     0.040 A 
ATOM     68  C   UNL     1      11.115   7.174 -10.614  1.00  0.00     0.040 A 
ATOM     69  F   UNL     1       9.897   5.177 -10.795  1.00  0.00    -0.206 F 
ATOM     70  C   UNL     1      12.147   7.915 -10.041  1.00  0.00     0.006 A 
ENDBRANCH  49  63
BRANCH  50  71
ATOM     71  C   UNL     1       9.791  -4.204  -6.724  1.00  0.00     0.057 A 
ATOM     72  C   UNL     1      10.794  -5.156  -6.512  1.00  0.00     0.134 A 
ATOM     73  C   UNL     1       8.462  -4.630  -6.616  1.00  0.00     0.134 A 
ATOM     74  F   UNL     1      12.085  -4.811  -6.623  1.00  0.00    -0.206 F 
ATOM     75  C   UNL     1      10.489  -6.487  -6.223  1.00  0.00     0.040 A 
ATOM     76  C   UNL     1       8.142  -5.952  -6.305  1.00  0.00     0.040 A 
ATOM     77  F   UNL     1       7.455  -3.764  -6.802  1.00  0.00    -0.206 F 
ATOM     78  C   UNL     1       9.159  -6.887  -6.114  1.00  0.00     0.006 A 
ENDBRANCH  50  71
BRANCH  62  79
ATOM     79  C   UNL     1      12.459  -1.202 -12.402  1.00  0.00     0.057 A 
ATOM     80  C   UNL     1      11.556  -1.625 -13.384  1.00  0.00     0.134 A 
ATOM     81  C   UNL     1      13.825  -1.268 -12.704  1.00  0.00     0.134 A 
ATOM     82  F   UNL     1      10.235  -1.600 -13.149  1.00  0.00    -0.206 F 
ATOM     83  C   UNL     1      11.996  -2.106 -14.618  1.00  0.00     0.040 A 
ATOM     84  C   UNL     1      14.276  -1.727 -13.941  1.00  0.00     0.040 A 
ATOM     85  F   UNL     1      14.740  -0.872 -11.806  1.00  0.00    -0.206 F 
ATOM     86  C   UNL     1      13.360  -2.151 -14.902  1.00  0.00     0.006 A 
ENDBRANCH  62  79
ENDBRANCH  36  37
ENDBRANCH  28  31
ENDBRANCH  26  27
ENDBRANCH  25  26
ENDBRANCH   1  25
TORSDOF 13
