REMARK SMILES CCc1cc(/C=C/C(=O)NCCCNC(=O)c2ccc(-c3c4nc(c(-c5c(F)cccc5F)c5ccc([nH]5)c(-c5c(F)cccc5F)c5nc(c(-c6c(F)cccc6F)c6ccc3[nH]6)C=C5)C=C4)cc2)cc(C(=O)c2ccccc2)c1
REMARK SMILES IDX 11 1 10 2 8 3 9 4 7 6 6 7 5 8 3 9 4 10 81 11 72 12 71 13
REMARK SMILES IDX 2 14 1 15 73 16 74 17 75 18 76 19 80 20 77 21 79 22 78 23
REMARK SMILES IDX 12 24 13 25 14 26 15 27 16 29 17 30 18 31 70 32 19 33 69 34
REMARK SMILES IDX 20 35 21 36 22 37 63 38 23 39 68 40 62 41 64 42 24 43 67 44
REMARK SMILES IDX 61 45 60 46 25 48 51 49 34 50 50 51 35 52 38 53 49 54 65 55
REMARK SMILES IDX 36 56 37 57 48 59 66 60 39 61 26 62 27 63 32 64 28 65 29 66
REMARK SMILES IDX 31 67 33 68 30 69 52 70 53 71 58 72 54 73 55 74 57 75 59 76
REMARK SMILES IDX 56 77 40 78 41 79 46 80 42 81 43 82 45 83 47 84 44 85
REMARK H PARENT 10 5 14 28 64 47 38 58
REMARK Flexibility Score: inf
ROOT
ATOM      1  C   UNL     1      -0.247  -7.992  -1.763  1.00  0.00     0.118 C 
ENDROOT
BRANCH   1   2
ATOM      2  N   UNL     1      -1.105  -7.548  -0.678  1.00  0.00    -0.352 N 
ATOM      3  C   UNL     1      -1.490  -6.299  -0.310  1.00  0.00     0.244 C 
ATOM      4  O   UNL     1      -2.332  -6.160   0.575  1.00  0.00    -0.270 OA
ATOM      5  H   UNL     1      -1.466  -8.272  -0.117  1.00  0.00     0.163 HD
BRANCH   3   6
ATOM      6  C   UNL     1      -0.970  -5.100  -1.002  1.00  0.00     0.072 C 
ATOM      7  C   UNL     1       0.325  -4.888  -1.277  1.00  0.00     0.014 C 
BRANCH   7   8
ATOM      8  C   UNL     1       0.850  -3.654  -1.872  1.00  0.00    -0.024 A 
ATOM      9  C   UNL     1       0.952  -1.219  -1.973  1.00  0.00    -0.047 A 
ATOM     10  C   UNL     1       0.375  -2.397  -1.479  1.00  0.00     0.011 A 
ATOM     11  C   UNL     1       2.009  -1.306  -2.886  1.00  0.00     0.016 A 
ATOM     12  C   UNL     1       2.514  -2.555  -3.268  1.00  0.00     0.023 A 
ATOM     13  C   UNL     1       1.925  -3.724  -2.766  1.00  0.00     0.020 A 
BRANCH   9  14
ATOM     14  C   UNL     1       0.479   0.120  -1.465  1.00  0.00     0.032 C 
ATOM     15  C   UNL     1       0.953   0.361  -0.038  1.00  0.00     0.009 C 
ENDBRANCH   9  14
BRANCH  12  16
ATOM     16  C   UNL     1       3.663  -2.688  -4.208  1.00  0.00     0.193 C 
ATOM     17  O   UNL     1       3.818  -3.728  -4.842  1.00  0.00    -0.289 OA
BRANCH  16  18
ATOM     18  C   UNL     1       4.625  -1.579  -4.408  1.00  0.00     0.022 A 
ATOM     19  C   UNL     1       4.984  -1.234  -5.715  1.00  0.00     0.012 A 
ATOM     20  C   UNL     1       5.182  -0.894  -3.321  1.00  0.00     0.012 A 
ATOM     21  C   UNL     1       5.861  -0.171  -5.935  1.00  0.00     0.001 A 
ATOM     22  C   UNL     1       6.059   0.168  -3.548  1.00  0.00     0.001 A 
ATOM     23  C   UNL     1       6.391   0.533  -4.853  1.00  0.00     0.000 A 
ENDBRANCH  16  18
ENDBRANCH  12  16
ENDBRANCH   7   8
ENDBRANCH   3   6
ENDBRANCH   1   2
BRANCH   1  24
ATOM     24  C   UNL     1       1.100  -8.494  -1.249  1.00  0.00     0.042 C 
BRANCH  24  25
ATOM     25  C   UNL     1       1.019  -9.824  -0.506  1.00  0.00     0.118 C 
BRANCH  25  26
ATOM     26  N   UNL     1       0.648 -10.922  -1.386  1.00  0.00    -0.352 N 
ATOM     27  C   UNL     1       1.304 -12.092  -1.669  1.00  0.00     0.251 C 
ATOM     28  H   UNL     1      -0.211 -10.806  -1.853  1.00  0.00     0.163 HD
ATOM     29  O   UNL     1       0.923 -12.783  -2.610  1.00  0.00    -0.269 OA
BRANCH  27  30
ATOM     30  C   UNL     1       2.462 -12.533  -0.861  1.00  0.00     0.039 A 
ATOM     31  C   UNL     1       3.536 -13.148  -1.514  1.00  0.00     0.014 A 
ATOM     32  C   UNL     1       2.469 -12.414   0.531  1.00  0.00     0.014 A 
ATOM     33  C   UNL     1       4.630 -13.605  -0.777  1.00  0.00     0.010 A 
ATOM     34  C   UNL     1       3.590 -12.810   1.259  1.00  0.00     0.010 A 
ATOM     35  C   UNL     1       4.675 -13.421   0.614  1.00  0.00    -0.014 A 
BRANCH  35  36
ATOM     36  C   UNL     1       5.849 -13.866   1.405  1.00  0.00     0.031 A 
ATOM     37  C   UNL     1       5.710 -14.967   2.419  1.00  0.00     0.074 A 
ATOM     38  C   UNL     1       7.027 -13.232   1.255  1.00  0.00     0.049 A 
ATOM     39  N   UNL     1       6.606 -15.453   3.240  1.00  0.00    -0.248 NA
ATOM     40  C   UNL     1       4.380 -15.582   2.550  1.00  0.00     0.031 C 
ATOM     41  C   UNL     1       7.272 -12.109   0.348  1.00  0.00     0.029 A 
ATOM     42  N   UNL     1       8.235 -13.432   1.874  1.00  0.00    -0.354 N 
ATOM     43  C   UNL     1       5.945 -16.411   3.998  1.00  0.00     0.074 A 
ATOM     44  C   UNL     1       4.563 -16.409   3.569  1.00  0.00     0.031 C 
ATOM     45  C   UNL     1       8.554 -11.727   0.461  1.00  0.00     0.029 A 
ATOM     46  C   UNL     1       9.212 -12.558   1.465  1.00  0.00     0.049 A 
ATOM     47  H   UNL     1       8.386 -14.134   2.547  1.00  0.00     0.167 HD
ATOM     48  C   UNL     1       6.448 -17.230   4.953  1.00  0.00     0.037 A 
ATOM     49  C   UNL     1      10.493 -12.437   1.858  1.00  0.00     0.037 A 
ATOM     50  C   UNL     1       7.831 -17.254   5.352  1.00  0.00     0.049 A 
ATOM     51  C   UNL     1      11.040 -13.382   2.888  1.00  0.00     0.074 A 
ATOM     52  C   UNL     1       8.458 -18.107   6.244  1.00  0.00     0.029 A 
ATOM     53  N   UNL     1       8.802 -16.381   4.884  1.00  0.00    -0.354 N 
ATOM     54  N   UNL     1      10.424 -14.341   3.537  1.00  0.00    -0.248 NA
ATOM     55  C   UNL     1      12.460 -13.238   3.233  1.00  0.00     0.031 C 
ATOM     56  C   UNL     1       9.800 -17.725   6.346  1.00  0.00     0.029 A 
ATOM     57  C   UNL     1      10.019 -16.660   5.486  1.00  0.00     0.049 A 
ATOM     58  H   UNL     1       8.650 -15.669   4.222  1.00  0.00     0.167 HD
ATOM     59  C   UNL     1      11.383 -14.924   4.354  1.00  0.00     0.074 A 
ATOM     60  C   UNL     1      12.626 -14.223   4.105  1.00  0.00     0.031 C 
ATOM     61  C   UNL     1      11.245 -15.948   5.232  1.00  0.00     0.037 A 
BRANCH  48  62
ATOM     62  C   UNL     1       5.492 -18.166   5.634  1.00  0.00     0.057 A 
ATOM     63  C   UNL     1       4.936 -19.269   4.972  1.00  0.00     0.134 A 
ATOM     64  C   UNL     1       5.139 -17.974   6.976  1.00  0.00     0.134 A 
ATOM     65  F   UNL     1       5.224 -19.504   3.683  1.00  0.00    -0.206 F 
ATOM     66  C   UNL     1       4.040 -20.129   5.610  1.00  0.00     0.040 A 
ATOM     67  C   UNL     1       4.265 -18.842   7.633  1.00  0.00     0.040 A 
ATOM     68  F   UNL     1       5.640 -16.942   7.672  1.00  0.00    -0.206 F 
ATOM     69  C   UNL     1       3.706 -19.919   6.947  1.00  0.00     0.006 A 
ENDBRANCH  48  62
BRANCH  49  70
ATOM     70  C   UNL     1      11.350 -11.391   1.248  1.00  0.00     0.057 A 
ATOM     71  C   UNL     1      12.351 -11.724   0.329  1.00  0.00     0.134 A 
ATOM     72  C   UNL     1      11.173 -10.036   1.549  1.00  0.00     0.134 A 
ATOM     73  F   UNL     1      12.578 -13.008   0.014  1.00  0.00    -0.206 F 
ATOM     74  C   UNL     1      13.153 -10.747  -0.263  1.00  0.00     0.040 A 
ATOM     75  C   UNL     1      11.953  -9.046   0.949  1.00  0.00     0.040 A 
ATOM     76  F   UNL     1      10.223  -9.653   2.416  1.00  0.00    -0.206 F 
ATOM     77  C   UNL     1      12.950  -9.402   0.043  1.00  0.00     0.006 A 
ENDBRANCH  49  70
BRANCH  61  78
ATOM     78  C   UNL     1      12.475 -16.377   5.976  1.00  0.00     0.057 A 
ATOM     79  C   UNL     1      13.014 -15.606   7.013  1.00  0.00     0.134 A 
ATOM     80  C   UNL     1      13.107 -17.589   5.672  1.00  0.00     0.134 A 
ATOM     81  F   UNL     1      12.463 -14.428   7.343  1.00  0.00    -0.206 F 
ATOM     82  C   UNL     1      14.153 -16.016   7.708  1.00  0.00     0.040 A 
ATOM     83  C   UNL     1      14.232 -18.021   6.375  1.00  0.00     0.040 A 
ATOM     84  F   UNL     1      12.635 -18.378   4.694  1.00  0.00    -0.206 F 
ATOM     85  C   UNL     1      14.761 -17.230   7.393  1.00  0.00     0.006 A 
ENDBRANCH  61  78
ENDBRANCH  35  36
ENDBRANCH  27  30
ENDBRANCH  25  26
ENDBRANCH  24  25
ENDBRANCH   1  24
TORSDOF 14
