REMARK SMILES O=C(NCCCNC(=O)c1ccc(CNC(=O)c2cnns2)o1)c1ccc(-c2c3nc(c(-c4c(F)cccc4F)c4ccc([nH]4)c(-c4c(F)cccc4F)c4nc(c(-c5c(F)cccc5F)c5ccc2[nH]5)C=C4)C=C3)cc1
REMARK SMILES IDX 5 1 4 2 3 3 1 4 2 5 24 7 25 8 77 9 26 10 76 11 27 12 28 13
REMARK SMILES IDX 29 14 70 15 30 16 75 17 69 18 71 19 31 20 74 21 68 22 67 23
REMARK SMILES IDX 32 25 58 26 41 27 57 28 42 29 45 30 56 31 72 32 43 33 44 34
REMARK SMILES IDX 55 36 73 37 46 38 33 39 34 40 39 41 35 42 36 43 38 44 40 45
REMARK SMILES IDX 37 46 59 47 60 48 65 49 61 50 62 51 64 52 66 53 63 54 47 55
REMARK SMILES IDX 48 56 53 57 49 58 50 59 52 60 54 61 51 62 6 63 7 64 8 65
REMARK SMILES IDX 9 67 10 68 11 69 23 70 12 71 13 72 14 73 15 74 16 75 17 77
REMARK SMILES IDX 18 78 19 79 22 80 20 81 21 82
REMARK H PARENT 3 6 71 24 45 35 7 66 15 76
REMARK Flexibility Score: inf
ROOT
ATOM      1  C   UNL     1       4.542   0.346  -2.779  1.00  0.00     0.042 C 
ENDROOT
BRANCH   1   2
ATOM      2  C   UNL     1       4.364   0.807  -1.336  1.00  0.00     0.118 C 
BRANCH   2   3
ATOM      3  N   UNL     1       2.970   0.779  -0.909  1.00  0.00    -0.352 N 
ATOM      4  O   UNL     1       1.121   0.036   0.128  1.00  0.00    -0.269 OA
ATOM      5  C   UNL     1       2.348   0.041   0.068  1.00  0.00     0.251 C 
ATOM      6  H   UNL     1       2.377   1.391  -1.402  1.00  0.00     0.163 HD
BRANCH   5   7
ATOM      7  C   UNL     1       3.131  -0.756   1.040  1.00  0.00     0.039 A 
ATOM      8  C   UNL     1       4.312  -0.262   1.593  1.00  0.00     0.014 A 
ATOM      9  C   UNL     1       2.641  -2.002   1.451  1.00  0.00     0.014 A 
ATOM     10  C   UNL     1       5.074  -1.066   2.434  1.00  0.00     0.010 A 
ATOM     11  C   UNL     1       3.364  -2.775   2.367  1.00  0.00     0.010 A 
ATOM     12  C   UNL     1       4.604  -2.326   2.843  1.00  0.00    -0.014 A 
BRANCH  12  13
ATOM     13  C   UNL     1       5.415  -3.109   3.810  1.00  0.00     0.031 A 
ATOM     14  C   UNL     1       6.062  -4.408   3.421  1.00  0.00     0.074 A 
ATOM     15  C   UNL     1       5.629  -2.591   5.035  1.00  0.00     0.049 A 
ATOM     16  N   UNL     1       6.892  -5.151   4.111  1.00  0.00    -0.248 NA
ATOM     17  C   UNL     1       5.734  -4.952   2.095  1.00  0.00     0.031 C 
ATOM     18  C   UNL     1       5.026  -1.354   5.542  1.00  0.00     0.029 A 
ATOM     19  N   UNL     1       6.439  -3.008   6.059  1.00  0.00    -0.354 N 
ATOM     20  C   UNL     1       7.175  -6.251   3.312  1.00  0.00     0.074 A 
ATOM     21  C   UNL     1       6.409  -6.094   2.094  1.00  0.00     0.031 C 
ATOM     22  C   UNL     1       5.543  -1.076   6.747  1.00  0.00     0.029 A 
ATOM     23  C   UNL     1       6.478  -2.133   7.117  1.00  0.00     0.049 A 
ATOM     24  H   UNL     1       6.944  -3.853   6.038  1.00  0.00     0.167 HD
ATOM     25  C   UNL     1       8.006  -7.290   3.567  1.00  0.00     0.037 A 
ATOM     26  C   UNL     1       7.195  -2.167   8.254  1.00  0.00     0.037 A 
ATOM     27  C   UNL     1       8.781  -7.439   4.771  1.00  0.00     0.049 A 
ATOM     28  C   UNL     1       8.141  -3.306   8.490  1.00  0.00     0.074 A 
ATOM     29  C   UNL     1       9.653  -8.458   5.118  1.00  0.00     0.029 A 
ATOM     30  N   UNL     1       8.786  -6.536   5.824  1.00  0.00    -0.354 N 
ATOM     31  N   UNL     1       8.405  -4.330   7.716  1.00  0.00    -0.248 NA
ATOM     32  C   UNL     1       8.886  -3.295   9.756  1.00  0.00     0.031 C 
ATOM     33  C   UNL     1      10.169  -8.181   6.390  1.00  0.00     0.029 A 
ATOM     34  C   UNL     1       9.641  -6.976   6.821  1.00  0.00     0.049 A 
ATOM     35  H   UNL     1       8.259  -5.705   5.857  1.00  0.00     0.167 HD
ATOM     36  C   UNL     1       9.339  -5.091   8.403  1.00  0.00     0.074 A 
ATOM     37  C   UNL     1       9.624  -4.390   9.639  1.00  0.00     0.031 C 
ATOM     38  C   UNL     1       9.900  -6.272   8.049  1.00  0.00     0.037 A 
BRANCH  25  39
ATOM     39  C   UNL     1       8.120  -8.358   2.520  1.00  0.00     0.057 A 
ATOM     40  C   UNL     1       8.859  -8.159   1.348  1.00  0.00     0.134 A 
ATOM     41  C   UNL     1       7.529  -9.614   2.709  1.00  0.00     0.134 A 
ATOM     42  F   UNL     1       9.438  -6.975   1.101  1.00  0.00    -0.206 F 
ATOM     43  C   UNL     1       8.999  -9.170   0.394  1.00  0.00     0.040 A 
ATOM     44  C   UNL     1       7.676 -10.637   1.772  1.00  0.00     0.040 A 
ATOM     45  F   UNL     1       6.811  -9.869   3.813  1.00  0.00    -0.206 F 
ATOM     46  C   UNL     1       8.412 -10.416   0.609  1.00  0.00     0.006 A 
ENDBRANCH  25  39
BRANCH  26  47
ATOM     47  C   UNL     1       7.053  -1.073   9.245  1.00  0.00     0.057 A 
ATOM     48  C   UNL     1       8.069  -0.131   9.433  1.00  0.00     0.134 A 
ATOM     49  C   UNL     1       5.888  -0.934  10.009  1.00  0.00     0.134 A 
ATOM     50  F   UNL     1       9.213  -0.223   8.740  1.00  0.00    -0.206 F 
ATOM     51  C   UNL     1       7.936   0.909  10.355  1.00  0.00     0.040 A 
ATOM     52  C   UNL     1       5.733   0.112  10.917  1.00  0.00     0.040 A 
ATOM     53  F   UNL     1       4.877  -1.803   9.865  1.00  0.00    -0.206 F 
ATOM     54  C   UNL     1       6.762   1.036  11.095  1.00  0.00     0.006 A 
ENDBRANCH  26  47
BRANCH  38  55
ATOM     55  C   UNL     1      10.865  -6.876   9.022  1.00  0.00     0.057 A 
ATOM     56  C   UNL     1      10.421  -7.503  10.194  1.00  0.00     0.134 A 
ATOM     57  C   UNL     1      12.244  -6.837   8.786  1.00  0.00     0.134 A 
ATOM     58  F   UNL     1       9.112  -7.558  10.481  1.00  0.00    -0.206 F 
ATOM     59  C   UNL     1      11.319  -8.051  11.110  1.00  0.00     0.040 A 
ATOM     60  C   UNL     1      13.150  -7.397   9.686  1.00  0.00     0.040 A 
ATOM     61  F   UNL     1      12.729  -6.253   7.680  1.00  0.00    -0.206 F 
ATOM     62  C   UNL     1      12.689  -8.001  10.855  1.00  0.00     0.006 A 
ENDBRANCH  38  55
ENDBRANCH  12  13
ENDBRANCH   5   7
ENDBRANCH   2   3
ENDBRANCH   1   2
BRANCH   1  63
ATOM     63  C   UNL     1       3.938   1.296  -3.809  1.00  0.00     0.118 C 
BRANCH  63  64
ATOM     64  N   UNL     1       4.662   2.566  -3.859  1.00  0.00    -0.349 N 
ATOM     65  C   UNL     1       5.691   2.927  -4.676  1.00  0.00     0.286 C 
ATOM     66  H   UNL     1       4.366   3.251  -3.216  1.00  0.00     0.163 HD
ATOM     67  O   UNL     1       6.356   3.922  -4.347  1.00  0.00    -0.266 OA
BRANCH  65  68
ATOM     68  C   UNL     1       5.961   2.160  -5.866  1.00  0.00     0.191 A 
ATOM     69  C   UNL     1       5.137   1.716  -6.894  1.00  0.00     0.056 A 
ATOM     70  O   UNL     1       7.245   1.775  -6.129  1.00  0.00    -0.454 OA
ATOM     71  C   UNL     1       5.958   1.009  -7.802  1.00  0.00     0.048 A 
ATOM     72  C   UNL     1       7.239   1.069  -7.293  1.00  0.00     0.124 A 
BRANCH  72  73
ATOM     73  C   UNL     1       8.541   0.523  -7.742  1.00  0.00     0.191 C 
BRANCH  73  74
ATOM     74  N   UNL     1       9.369   1.625  -8.217  1.00  0.00    -0.344 N 
ATOM     75  C   UNL     1      10.605   2.005  -7.801  1.00  0.00     0.265 C 
ATOM     76  H   UNL     1       8.979   2.168  -8.939  1.00  0.00     0.164 HD
ATOM     77  O   UNL     1      11.016   3.111  -8.188  1.00  0.00    -0.268 OA
BRANCH  75  78
ATOM     78  C   UNL     1      11.385   1.140  -6.969  1.00  0.00     0.133 A 
ATOM     79  C   UNL     1      11.623  -0.227  -7.012  1.00  0.00     0.163 A 
ATOM     80  S   UNL     1      12.306   1.760  -5.666  1.00  0.00    -0.007 S 
ATOM     81  N   UNL     1      12.441  -0.718  -6.013  1.00  0.00    -0.146 NA
ATOM     82  N   UNL     1      12.869   0.248  -5.214  1.00  0.00    -0.090 NA
ENDBRANCH  75  78
ENDBRANCH  73  74
ENDBRANCH  72  73
ENDBRANCH  65  68
ENDBRANCH  63  64
ENDBRANCH   1  63
TORSDOF 13
