REMARK SMILES O=C(NCCCNC(=O)c1cccc2cccc([S@](=O)c3ccccc3CO)c12)c1ccc(-c2c3nc(c(-c4c(F)cccc4F)c4ccc([nH]4)c(-c4c(F)cccc4F)c4nc(c(-c5c(F)cccc5F)c5ccc2[nH]5)C=C4)C=C3)cc1
REMARK SMILES IDX 6 1 5 2 4 3 3 4 1 5 2 6 30 8 31 9 83 10 32 11 82 12 33 13
REMARK SMILES IDX 34 14 35 15 76 16 36 17 81 18 75 19 77 20 37 21 80 22 74 23
REMARK SMILES IDX 73 24 38 26 64 27 47 28 63 29 48 30 51 31 62 32 78 33 49 34
REMARK SMILES IDX 50 35 61 37 79 38 52 39 39 40 40 41 45 42 41 43 42 44 44 45
REMARK SMILES IDX 46 46 43 47 65 48 66 49 71 50 67 51 68 52 70 53 72 54 69 55
REMARK SMILES IDX 53 56 54 57 59 58 55 59 56 60 58 61 60 62 57 63 7 64 8 65
REMARK SMILES IDX 9 67 10 68 11 69 29 70 12 71 14 72 18 73 13 74 15 75 17 76
REMARK SMILES IDX 16 77 19 78 20 79 21 80 22 81 26 82 23 83 25 84 24 85 27 86
REMARK SMILES IDX 28 87
REMARK H PARENT 3 7 77 25 51 36 7 66 28 88
REMARK Flexibility Score: inf
ROOT
ATOM      1  C   UNL     1       9.650  -3.938   7.708  1.00  0.00     0.118 C 
ENDROOT
BRANCH   1   2
ATOM      2  C   UNL     1      11.123  -4.343   7.782  1.00  0.00     0.042 C 
BRANCH   2   3
ATOM      3  C   UNL     1      12.079  -3.258   7.305  1.00  0.00     0.118 C 
BRANCH   3   4
ATOM      4  N   UNL     1      11.994  -2.062   8.134  1.00  0.00    -0.352 N 
ATOM      5  O   UNL     1      12.377  -0.771   9.938  1.00  0.00    -0.269 OA
ATOM      6  C   UNL     1      12.782  -1.657   9.176  1.00  0.00     0.251 C 
ATOM      7  H   UNL     1      11.255  -1.451   7.908  1.00  0.00     0.163 HD
BRANCH   6   8
ATOM      8  C   UNL     1      14.105  -2.267   9.407  1.00  0.00     0.039 A 
ATOM      9  C   UNL     1      14.977  -2.512   8.343  1.00  0.00     0.014 A 
ATOM     10  C   UNL     1      14.512  -2.530  10.719  1.00  0.00     0.014 A 
ATOM     11  C   UNL     1      16.204  -3.126   8.574  1.00  0.00     0.010 A 
ATOM     12  C   UNL     1      15.774  -3.075  10.957  1.00  0.00     0.010 A 
ATOM     13  C   UNL     1      16.622  -3.396   9.884  1.00  0.00    -0.014 A 
BRANCH  13  14
ATOM     14  C   UNL     1      17.969  -3.960  10.137  1.00  0.00     0.031 A 
ATOM     15  C   UNL     1      18.126  -5.325  10.738  1.00  0.00     0.074 A 
ATOM     16  C   UNL     1      19.053  -3.215   9.853  1.00  0.00     0.049 A 
ATOM     17  N   UNL     1      19.216  -5.939  11.122  1.00  0.00    -0.248 NA
ATOM     18  C   UNL     1      16.893  -6.100  10.945  1.00  0.00     0.031 C 
ATOM     19  C   UNL     1      19.024  -1.873   9.269  1.00  0.00     0.029 A 
ATOM     20  N   UNL     1      20.388  -3.472  10.031  1.00  0.00    -0.354 N 
ATOM     21  C   UNL     1      18.801  -7.158  11.641  1.00  0.00     0.074 A 
ATOM     22  C   UNL     1      17.357  -7.189  11.541  1.00  0.00     0.031 C 
ATOM     23  C   UNL     1      20.280  -1.427   9.130  1.00  0.00     0.029 A 
ATOM     24  C   UNL     1      21.198  -2.424   9.670  1.00  0.00     0.049 A 
ATOM     25  H   UNL     1      20.732  -4.325  10.382  1.00  0.00     0.167 HD
ATOM     26  C   UNL     1      19.560  -8.158  12.151  1.00  0.00     0.037 A 
ATOM     27  C   UNL     1      22.529  -2.265   9.792  1.00  0.00     0.037 A 
ATOM     28  C   UNL     1      20.997  -8.120  12.235  1.00  0.00     0.049 A 
ATOM     29  C   UNL     1      23.346  -3.372  10.388  1.00  0.00     0.074 A 
ATOM     30  C   UNL     1      21.861  -9.098  12.697  1.00  0.00     0.029 A 
ATOM     31  N   UNL     1      21.782  -7.041  11.854  1.00  0.00    -0.354 N 
ATOM     32  N   UNL     1      22.947  -4.533  10.849  1.00  0.00    -0.248 NA
ATOM     33  C   UNL     1      24.795  -3.151  10.484  1.00  0.00     0.031 C 
ATOM     34  C   UNL     1      23.164  -8.593  12.638  1.00  0.00     0.029 A 
ATOM     35  C   UNL     1      23.118  -7.319  12.093  1.00  0.00     0.049 A 
ATOM     36  H   UNL     1      21.440  -6.201  11.470  1.00  0.00     0.167 HD
ATOM     37  C   UNL     1      24.095  -5.191  11.268  1.00  0.00     0.074 A 
ATOM     38  C   UNL     1      25.207  -4.300  11.003  1.00  0.00     0.031 C 
ATOM     39  C   UNL     1      24.214  -6.424  11.816  1.00  0.00     0.037 A 
BRANCH  26  40
ATOM     40  C   UNL     1      18.842  -9.362  12.689  1.00  0.00     0.057 A 
ATOM     41  C   UNL     1      18.197 -10.280  11.850  1.00  0.00     0.134 A 
ATOM     42  C   UNL     1      18.808  -9.613  14.067  1.00  0.00     0.134 A 
ATOM     43  F   UNL     1      18.182 -10.094  10.522  1.00  0.00    -0.206 F 
ATOM     44  C   UNL     1      17.516 -11.386  12.365  1.00  0.00     0.040 A 
ATOM     45  C   UNL     1      18.153 -10.729  14.591  1.00  0.00     0.040 A 
ATOM     46  F   UNL     1      19.412  -8.779  14.926  1.00  0.00    -0.206 F 
ATOM     47  C   UNL     1      17.497 -11.615  13.739  1.00  0.00     0.006 A 
ENDBRANCH  26  40
BRANCH  27  48
ATOM     48  C   UNL     1      23.149  -0.995   9.345  1.00  0.00     0.057 A 
ATOM     49  C   UNL     1      23.915  -0.936   8.177  1.00  0.00     0.134 A 
ATOM     50  C   UNL     1      22.939   0.201  10.043  1.00  0.00     0.134 A 
ATOM     51  F   UNL     1      24.162  -2.051   7.473  1.00  0.00    -0.206 F 
ATOM     52  C   UNL     1      24.451   0.269   7.717  1.00  0.00     0.040 A 
ATOM     53  C   UNL     1      23.448   1.415   9.584  1.00  0.00     0.040 A 
ATOM     54  F   UNL     1      22.203   0.208  11.165  1.00  0.00    -0.206 F 
ATOM     55  C   UNL     1      24.209   1.450   8.417  1.00  0.00     0.006 A 
ENDBRANCH  27  48
BRANCH  39  56
ATOM     56  C   UNL     1      25.598  -6.905  12.132  1.00  0.00     0.057 A 
ATOM     57  C   UNL     1      26.311  -6.431  13.239  1.00  0.00     0.134 A 
ATOM     58  C   UNL     1      26.195  -7.904  11.353  1.00  0.00     0.134 A 
ATOM     59  F   UNL     1      25.799  -5.465  14.016  1.00  0.00    -0.206 F 
ATOM     60  C   UNL     1      27.576  -6.929  13.556  1.00  0.00     0.040 A 
ATOM     61  C   UNL     1      27.449  -8.425  11.672  1.00  0.00     0.040 A 
ATOM     62  F   UNL     1      25.560  -8.404  10.282  1.00  0.00    -0.206 F 
ATOM     63  C   UNL     1      28.144  -7.936  12.777  1.00  0.00     0.006 A 
ENDBRANCH  39  56
ENDBRANCH  13  14
ENDBRANCH   6   8
ENDBRANCH   3   4
ENDBRANCH   2   3
ENDBRANCH   1   2
BRANCH   1  64
ATOM     64  N   UNL     1       9.204  -3.607   6.358  1.00  0.00    -0.352 N 
ATOM     65  C   UNL     1       9.133  -4.594   5.394  1.00  0.00     0.251 C 
ATOM     66  H   UNL     1       8.955  -2.681   6.135  1.00  0.00     0.163 HD
ATOM     67  O   UNL     1      10.129  -4.821   4.713  1.00  0.00    -0.269 OA
BRANCH  65  68
ATOM     68  C   UNL     1       7.920  -5.477   5.357  1.00  0.00     0.048 A 
ATOM     69  C   UNL     1       7.100  -5.534   6.494  1.00  0.00     0.014 A 
ATOM     70  C   UNL     1       7.842  -6.488   4.358  1.00  0.00     0.011 A 
ATOM     71  C   UNL     1       6.410  -6.698   6.795  1.00  0.00     0.001 A 
ATOM     72  C   UNL     1       7.282  -7.723   4.771  1.00  0.00    -0.016 A 
ATOM     73  C   UNL     1       8.253  -6.397   2.990  1.00  0.00     0.052 A 
ATOM     74  C   UNL     1       6.570  -7.811   5.978  1.00  0.00     0.009 A 
ATOM     75  C   UNL     1       7.428  -8.868   3.973  1.00  0.00     0.009 A 
ATOM     76  C   UNL     1       8.432  -7.567   2.227  1.00  0.00     0.019 A 
ATOM     77  C   UNL     1       8.057  -8.804   2.735  1.00  0.00     0.002 A 
BRANCH  73  78
ATOM     78  S   UNL     1       8.142  -4.859   1.973  1.00  0.00     0.086 S 
ATOM     79  O   UNL     1       8.776  -3.726   2.710  1.00  0.00    -0.249 OA
BRANCH  78  80
ATOM     80  C   UNL     1       6.321  -4.623   2.127  1.00  0.00     0.049 A 
ATOM     81  C   UNL     1       5.486  -5.724   1.840  1.00  0.00     0.018 A 
ATOM     82  C   UNL     1       5.712  -3.375   2.399  1.00  0.00    -0.006 A 
ATOM     83  C   UNL     1       4.094  -5.617   1.854  1.00  0.00     0.001 A 
ATOM     84  C   UNL     1       4.301  -3.285   2.374  1.00  0.00     0.007 A 
ATOM     85  C   UNL     1       3.501  -4.394   2.115  1.00  0.00     0.000 A 
BRANCH  82  86
ATOM     86  C   UNL     1       6.449  -2.084   2.648  1.00  0.00     0.192 C 
BRANCH  86  87
ATOM     87  O   UNL     1       6.794  -1.493   1.405  1.00  0.00    -0.392 OA
ATOM     88  H   UNL     1       7.361  -2.100   0.904  1.00  0.00     0.211 HD
ENDBRANCH  86  87
ENDBRANCH  82  86
ENDBRANCH  78  80
ENDBRANCH  73  78
ENDBRANCH  65  68
ENDBRANCH   1  64
TORSDOF 14
