REMARK SMILES CC(=O)Nc1c(C)nn([C@H](C)C(=O)NCCCNC(=O)c2ccc(-c3c4nc(c(-c5c(F)cccc5F)c5ccc([nH]5)c(-c5c(F)cccc5F)c5nc(c(-c6c(F)cccc6F)c6ccc3[nH]6)C=C5)C=C4)cc2)c1C
REMARK SMILES IDX 16 1 15 2 14 3 12 4 13 5 10 7 11 8 9 9 5 10 6 11 75 12 7 13
REMARK SMILES IDX 8 14 76 15 4 16 1 17 2 18 3 19 17 21 18 22 19 23 20 25 21 26
REMARK SMILES IDX 22 27 74 28 23 29 73 30 24 31 25 32 26 33 67 34 27 35 72 36
REMARK SMILES IDX 66 37 68 38 28 39 71 40 65 41 64 42 29 44 55 45 38 46 54 47
REMARK SMILES IDX 39 48 42 49 53 50 69 51 40 52 41 53 52 55 70 56 43 57 30 58
REMARK SMILES IDX 31 59 36 60 32 61 33 62 35 63 37 64 34 65 56 66 57 67 62 68
REMARK SMILES IDX 58 69 59 70 61 71 63 72 60 73 44 74 45 75 50 76 46 77 47 78
REMARK SMILES IDX 49 79 51 80 48 81
REMARK H PARENT 14 6 4 20 18 24 68 43 42 54
REMARK Flexibility Score: inf
ROOT
ATOM      1  C   UNL     1       2.444   1.818   6.449  1.00  0.00     0.042 C 
ENDROOT
BRANCH   1   2
ATOM      2  C   UNL     1       3.880   1.447   6.104  1.00  0.00     0.117 C 
BRANCH   2   3
ATOM      3  N   UNL     1       4.027   0.091   5.590  1.00  0.00    -0.354 N 
ATOM      4  C   UNL     1       4.587  -0.330   4.416  1.00  0.00     0.244 C 
ATOM      5  O   UNL     1       4.756  -1.547   4.274  1.00  0.00    -0.273 OA
ATOM      6  H   UNL     1       3.675  -0.622   6.170  1.00  0.00     0.163 HD
BRANCH   4   7
ATOM      7  C   UNL     1       4.910   0.629   3.275  1.00  0.00     0.193 C 
ATOM      8  C   UNL     1       3.692   1.453   2.848  1.00  0.00     0.044 C 
BRANCH   7   9
ATOM      9  N   UNL     1       6.103   1.449   3.507  1.00  0.00    -0.255 N 
ATOM     10  C   UNL     1       7.677   2.959   3.236  1.00  0.00     0.085 A 
ATOM     11  C   UNL     1       7.389   2.735   4.605  1.00  0.00     0.083 A 
ATOM     12  C   UNL     1       6.919   2.022   2.554  1.00  0.00     0.060 A 
ATOM     13  C   UNL     1       7.899   3.432   5.812  1.00  0.00     0.071 C 
ATOM     14  N   UNL     1       6.455   1.798   4.756  1.00  0.00    -0.175 NA
ATOM     15  C   UNL     1       6.940   1.541   1.149  1.00  0.00     0.069 C 
BRANCH  10  16
ATOM     16  N   UNL     1       8.607   3.849   2.741  1.00  0.00    -0.323 N 
ATOM     17  C   UNL     1       7.251   4.782   0.885  1.00  0.00     0.114 C 
ATOM     18  C   UNL     1       8.568   4.582   1.591  1.00  0.00     0.221 C 
ATOM     19  O   UNL     1       9.588   5.155   1.201  1.00  0.00    -0.275 OA
ATOM     20  H   UNL     1       9.412   3.971   3.295  1.00  0.00     0.170 HD
ENDBRANCH  10  16
ENDBRANCH   7   9
ENDBRANCH   4   7
ENDBRANCH   2   3
ENDBRANCH   1   2
BRANCH   1  21
ATOM     21  C   UNL     1       1.893   1.017   7.610  1.00  0.00     0.118 C 
BRANCH  21  22
ATOM     22  N   UNL     1       2.564   1.299   8.879  1.00  0.00    -0.352 N 
ATOM     23  C   UNL     1       2.289   0.743  10.110  1.00  0.00     0.251 C 
ATOM     24  H   UNL     1       3.294   1.960   8.850  1.00  0.00     0.163 HD
ATOM     25  O   UNL     1       2.664   1.279  11.150  1.00  0.00    -0.269 OA
BRANCH  23  26
ATOM     26  C   UNL     1       1.509  -0.504  10.151  1.00  0.00     0.039 A 
ATOM     27  C   UNL     1       0.436  -0.649  11.028  1.00  0.00     0.014 A 
ATOM     28  C   UNL     1       1.814  -1.497   9.222  1.00  0.00     0.014 A 
ATOM     29  C   UNL     1      -0.392  -1.758  10.887  1.00  0.00     0.010 A 
ATOM     30  C   UNL     1       0.907  -2.501   8.979  1.00  0.00     0.010 A 
ATOM     31  C   UNL     1      -0.180  -2.662   9.827  1.00  0.00    -0.014 A 
BRANCH  31  32
ATOM     32  C   UNL     1      -1.186  -3.680   9.527  1.00  0.00     0.031 A 
ATOM     33  C   UNL     1      -2.582  -3.166   9.512  1.00  0.00     0.074 A 
ATOM     34  C   UNL     1      -0.916  -4.945   9.133  1.00  0.00     0.049 A 
ATOM     35  N   UNL     1      -3.502  -3.410  10.384  1.00  0.00    -0.248 NA
ATOM     36  C   UNL     1      -2.960  -2.148   8.518  1.00  0.00     0.031 C 
ATOM     37  C   UNL     1       0.383  -5.546   8.816  1.00  0.00     0.029 A 
ATOM     38  N   UNL     1      -1.785  -5.955   8.842  1.00  0.00    -0.354 N 
ATOM     39  C   UNL     1      -4.646  -2.769   9.925  1.00  0.00     0.074 A 
ATOM     40  C   UNL     1      -4.211  -1.864   8.892  1.00  0.00     0.031 C 
ATOM     41  C   UNL     1       0.197  -6.711   8.157  1.00  0.00     0.029 A 
ATOM     42  C   UNL     1      -1.219  -7.027   8.160  1.00  0.00     0.049 A 
ATOM     43  H   UNL     1      -2.736  -5.928   9.095  1.00  0.00     0.167 HD
ATOM     44  C   UNL     1      -5.878  -3.249  10.248  1.00  0.00     0.037 A 
ATOM     45  C   UNL     1      -1.863  -8.096   7.626  1.00  0.00     0.037 A 
ATOM     46  C   UNL     1      -5.807  -4.138  11.386  1.00  0.00     0.049 A 
ATOM     47  C   UNL     1      -3.177  -8.206   8.303  1.00  0.00     0.074 A 
ATOM     48  C   UNL     1      -5.303  -4.035  12.671  1.00  0.00     0.029 A 
ATOM     49  N   UNL     1      -5.949  -5.486  11.160  1.00  0.00    -0.354 N 
ATOM     50  N   UNL     1      -3.323  -8.564   9.547  1.00  0.00    -0.248 NA
ATOM     51  C   UNL     1      -4.296  -7.476   7.728  1.00  0.00     0.031 C 
ATOM     52  C   UNL     1      -4.691  -5.299  12.928  1.00  0.00     0.029 A 
ATOM     53  C   UNL     1      -4.935  -6.120  11.828  1.00  0.00     0.049 A 
ATOM     54  H   UNL     1      -6.650  -5.916  10.619  1.00  0.00     0.167 HD
ATOM     55  C   UNL     1      -4.297  -7.710  10.038  1.00  0.00     0.074 A 
ATOM     56  C   UNL     1      -4.931  -7.136   8.852  1.00  0.00     0.031 C 
ATOM     57  C   UNL     1      -4.300  -7.325  11.348  1.00  0.00     0.037 A 
BRANCH  44  58
ATOM     58  C   UNL     1      -7.045  -3.275   9.287  1.00  0.00     0.057 A 
ATOM     59  C   UNL     1      -8.296  -3.719   9.752  1.00  0.00     0.134 A 
ATOM     60  C   UNL     1      -6.919  -3.205   7.884  1.00  0.00     0.134 A 
ATOM     61  F   UNL     1      -8.540  -3.836  11.066  1.00  0.00    -0.206 F 
ATOM     62  C   UNL     1      -9.305  -4.160   8.887  1.00  0.00     0.040 A 
ATOM     63  C   UNL     1      -7.939  -3.594   7.012  1.00  0.00     0.040 A 
ATOM     64  F   UNL     1      -5.779  -2.863   7.276  1.00  0.00    -0.206 F 
ATOM     65  C   UNL     1      -9.122  -4.111   7.512  1.00  0.00     0.006 A 
ENDBRANCH  44  58
BRANCH  45  66
ATOM     66  C   UNL     1      -1.537  -8.889   6.418  1.00  0.00     0.057 A 
ATOM     67  C   UNL     1      -2.175 -10.112   6.160  1.00  0.00     0.134 A 
ATOM     68  C   UNL     1      -0.816  -8.335   5.347  1.00  0.00     0.134 A 
ATOM     69  F   UNL     1      -2.917 -10.708   7.105  1.00  0.00    -0.206 F 
ATOM     70  C   UNL     1      -2.134 -10.726   4.901  1.00  0.00     0.040 A 
ATOM     71  C   UNL     1      -0.760  -8.942   4.087  1.00  0.00     0.040 A 
ATOM     72  F   UNL     1      -0.219  -7.139   5.457  1.00  0.00    -0.206 F 
ATOM     73  C   UNL     1      -1.436 -10.133   3.855  1.00  0.00     0.006 A 
ENDBRANCH  45  66
BRANCH  57  74
ATOM     74  C   UNL     1      -3.412  -8.068  12.310  1.00  0.00     0.057 A 
ATOM     75  C   UNL     1      -2.017  -8.172  12.197  1.00  0.00     0.134 A 
ATOM     76  C   UNL     1      -3.990  -8.609  13.464  1.00  0.00     0.134 A 
ATOM     77  F   UNL     1      -1.352  -7.595  11.187  1.00  0.00    -0.206 F 
ATOM     78  C   UNL     1      -1.246  -8.838  13.157  1.00  0.00     0.040 A 
ATOM     79  C   UNL     1      -3.228  -9.242  14.448  1.00  0.00     0.040 A 
ATOM     80  F   UNL     1      -5.312  -8.501  13.673  1.00  0.00    -0.206 F 
ATOM     81  C   UNL     1      -1.852  -9.373  14.289  1.00  0.00     0.006 A 
ENDBRANCH  57  74
ENDBRANCH  31  32
ENDBRANCH  23  26
ENDBRANCH  21  22
ENDBRANCH   1  21
TORSDOF 12
