REMARK SMILES Cc1ccc(C)c(-n2nc(C)c(/C=C(/C#N)C(=O)NCCCNC(=O)c3ccc(-c4c5nc(c(-c6c(F)cccc6F)c6ccc([nH]6)c(-c6c(F)cccc6F)c6nc(c(-c7c(F)cccc7F)c7ccc4[nH]7)C=C6)C=C5)cc3)c2Cl)c1
REMARK SMILES IDX 21 1 20 2 19 3 17 4 18 5 14 7 13 8 12 9 8 10 9 11 80 12
REMARK SMILES IDX 10 13 81 14 11 15 7 16 1 17 2 18 3 19 82 20 4 21 5 22 6 23
REMARK SMILES IDX 15 24 16 25 22 26 23 27 24 28 25 30 26 31 27 32 79 33 28 34
REMARK SMILES IDX 78 35 29 36 30 37 31 38 72 39 32 40 77 41 71 42 73 43 33 44
REMARK SMILES IDX 76 45 70 46 69 47 34 49 60 50 43 51 59 52 44 53 47 54 58 55
REMARK SMILES IDX 74 56 45 57 46 58 57 60 75 61 48 62 35 63 36 64 41 65 37 66
REMARK SMILES IDX 38 67 40 68 42 69 39 70 61 71 62 72 67 73 63 74 64 75 66 76
REMARK SMILES IDX 68 77 65 78 49 79 50 80 55 81 51 82 52 83 54 84 56 85 53 86
REMARK H PARENT 19 6 23 29 73 48 47 59
REMARK Flexibility Score: inf
ROOT
ATOM      1  C   UNL     1      -5.383   9.997  -1.538  1.00  0.00     0.042 C 
ENDROOT
BRANCH   1   2
ATOM      2  C   UNL     1      -4.609   9.380  -0.349  1.00  0.00     0.118 C 
BRANCH   2   3
ATOM      3  N   UNL     1      -4.887   7.942  -0.164  1.00  0.00    -0.351 N 
ATOM      4  C   UNL     1      -4.311   6.792  -0.647  1.00  0.00     0.261 C 
ATOM      5  O   UNL     1      -4.915   5.737  -0.467  1.00  0.00    -0.268 OA
ATOM      6  H   UNL     1      -5.650   7.769   0.435  1.00  0.00     0.163 HD
BRANCH   4   7
ATOM      7  C   UNL     1      -3.024   6.816  -1.421  1.00  0.00     0.117 C 
ATOM      8  C   UNL     1      -2.053   5.890  -1.383  1.00  0.00     0.038 C 
BRANCH   8   9
ATOM      9  C   UNL     1      -1.949   4.670  -0.621  1.00  0.00     0.036 A 
ATOM     10  N   UNL     1      -1.374   2.559  -0.148  1.00  0.00    -0.221 N 
ATOM     11  N   UNL     1      -2.182   2.935   0.869  1.00  0.00    -0.171 NA
ATOM     12  C   UNL     1      -1.204   3.588  -1.046  1.00  0.00     0.140 A 
ATOM     13  C   UNL     1      -2.474   4.223   0.632  1.00  0.00     0.069 A 
ATOM     14  Cl  UNL     1      -0.314   3.353  -2.492  1.00  0.00    -0.061 Cl
ATOM     15  C   UNL     1      -3.258   4.916   1.687  1.00  0.00     0.069 C 
BRANCH  10  16
ATOM     16  C   UNL     1      -0.734   1.296  -0.094  1.00  0.00     0.069 A 
ATOM     17  C   UNL     1       2.865   0.031  -0.026  1.00  0.00     0.044 C 
ATOM     18  C   UNL     1       1.366   0.062  -0.025  1.00  0.00    -0.049 A 
ATOM     19  C   UNL     1       0.641  -1.127   0.091  1.00  0.00     0.004 A 
ATOM     20  C   UNL     1       0.672   1.271  -0.130  1.00  0.00     0.032 A 
ATOM     21  C   UNL     1      -0.755  -1.105   0.131  1.00  0.00     0.006 A 
ATOM     22  C   UNL     1      -1.468   0.103   0.051  1.00  0.00    -0.025 A 
ATOM     23  C   UNL     1      -2.970   0.017   0.057  1.00  0.00     0.047 C 
ENDBRANCH  10  16
ENDBRANCH   8   9
BRANCH   7  24
ATOM     24  C   UNL     1      -3.058   7.979  -2.401  1.00  0.00     0.105 C 
ATOM     25  N   UNL     1      -3.086   8.943  -3.213  1.00  0.00    -0.192 NA
ENDBRANCH   7  24
ENDBRANCH   4   7
ENDBRANCH   2   3
ENDBRANCH   1   2
BRANCH   1  26
ATOM     26  C   UNL     1      -6.789  10.555  -1.291  1.00  0.00     0.118 C 
BRANCH  26  27
ATOM     27  N   UNL     1      -6.800  11.704  -0.378  1.00  0.00    -0.352 N 
ATOM     28  C   UNL     1      -7.438  11.984   0.825  1.00  0.00     0.251 C 
ATOM     29  H   UNL     1      -6.227  12.443  -0.686  1.00  0.00     0.163 HD
ATOM     30  O   UNL     1      -7.445  13.124   1.246  1.00  0.00    -0.269 OA
BRANCH  28  31
ATOM     31  C   UNL     1      -8.110  10.915   1.604  1.00  0.00     0.039 A 
ATOM     32  C   UNL     1      -8.977  11.155   2.675  1.00  0.00     0.014 A 
ATOM     33  C   UNL     1      -7.865   9.611   1.256  1.00  0.00     0.014 A 
ATOM     34  C   UNL     1      -9.475  10.056   3.388  1.00  0.00     0.010 A 
ATOM     35  C   UNL     1      -8.748   8.647   1.603  1.00  0.00     0.010 A 
ATOM     36  C   UNL     1      -9.288   8.780   2.853  1.00  0.00    -0.014 A 
BRANCH  36  37
ATOM     37  C   UNL     1      -9.659   7.527   3.483  1.00  0.00     0.031 A 
ATOM     38  C   UNL     1     -11.102   7.239   3.429  1.00  0.00     0.074 A 
ATOM     39  C   UNL     1      -8.778   6.527   3.723  1.00  0.00     0.049 A 
ATOM     40  N   UNL     1     -11.946   7.282   4.401  1.00  0.00    -0.248 NA
ATOM     41  C   UNL     1     -11.707   7.031   2.105  1.00  0.00     0.031 C 
ATOM     42  C   UNL     1      -7.350   6.444   3.385  1.00  0.00     0.029 A 
ATOM     43  N   UNL     1      -9.031   5.287   4.225  1.00  0.00    -0.354 N 
ATOM     44  C   UNL     1     -13.157   6.895   3.844  1.00  0.00     0.074 A 
ATOM     45  C   UNL     1     -13.002   7.010   2.418  1.00  0.00     0.031 C 
ATOM     46  C   UNL     1      -6.933   5.161   3.503  1.00  0.00     0.029 A 
ATOM     47  C   UNL     1      -8.017   4.357   4.039  1.00  0.00     0.049 A 
ATOM     48  H   UNL     1      -9.873   5.066   4.686  1.00  0.00     0.167 HD
ATOM     49  C   UNL     1     -14.098   6.241   4.577  1.00  0.00     0.037 A 
ATOM     50  C   UNL     1      -8.107   3.019   4.254  1.00  0.00     0.037 A 
ATOM     51  C   UNL     1     -13.783   6.274   5.986  1.00  0.00     0.049 A 
ATOM     52  C   UNL     1      -9.307   2.790   5.107  1.00  0.00     0.074 A 
ATOM     53  C   UNL     1     -13.494   7.282   6.889  1.00  0.00     0.029 A 
ATOM     54  N   UNL     1     -13.311   5.119   6.568  1.00  0.00    -0.354 N 
ATOM     55  N   UNL     1      -9.402   3.159   6.356  1.00  0.00    -0.248 NA
ATOM     56  C   UNL     1     -10.578   2.563   4.431  1.00  0.00     0.031 C 
ATOM     57  C   UNL     1     -12.423   6.769   7.681  1.00  0.00     0.029 A 
ATOM     58  C   UNL     1     -12.178   5.460   7.264  1.00  0.00     0.049 A 
ATOM     59  H   UNL     1     -13.710   4.222   6.498  1.00  0.00     0.167 HD
ATOM     60  C   UNL     1     -10.703   3.623   6.493  1.00  0.00     0.074 A 
ATOM     61  C   UNL     1     -11.405   3.144   5.304  1.00  0.00     0.031 C 
ATOM     62  C   UNL     1     -11.022   4.602   7.393  1.00  0.00     0.037 A 
BRANCH  49  63
ATOM     63  C   UNL     1     -15.098   5.274   4.000  1.00  0.00     0.057 A 
ATOM     64  C   UNL     1     -16.176   4.859   4.798  1.00  0.00     0.134 A 
ATOM     65  C   UNL     1     -14.921   4.548   2.804  1.00  0.00     0.134 A 
ATOM     66  F   UNL     1     -16.430   5.453   5.973  1.00  0.00    -0.206 F 
ATOM     67  C   UNL     1     -16.984   3.769   4.456  1.00  0.00     0.040 A 
ATOM     68  C   UNL     1     -15.762   3.500   2.422  1.00  0.00     0.040 A 
ATOM     69  F   UNL     1     -13.874   4.736   1.992  1.00  0.00    -0.206 F 
ATOM     70  C   UNL     1     -16.780   3.087   3.264  1.00  0.00     0.006 A 
ENDBRANCH  49  63
BRANCH  50  71
ATOM     71  C   UNL     1      -7.406   1.910   3.561  1.00  0.00     0.057 A 
ATOM     72  C   UNL     1      -7.417   0.606   4.079  1.00  0.00     0.134 A 
ATOM     73  C   UNL     1      -6.924   2.038   2.246  1.00  0.00     0.134 A 
ATOM     74  F   UNL     1      -7.896   0.365   5.308  1.00  0.00    -0.206 F 
ATOM     75  C   UNL     1      -6.998  -0.503   3.329  1.00  0.00     0.040 A 
ATOM     76  C   UNL     1      -6.491   0.943   1.490  1.00  0.00     0.040 A 
ATOM     77  F   UNL     1      -6.944   3.219   1.612  1.00  0.00    -0.206 F 
ATOM     78  C   UNL     1      -6.541  -0.337   2.025  1.00  0.00     0.006 A 
ENDBRANCH  50  71
BRANCH  62  79
ATOM     79  C   UNL     1      -9.995   5.001   8.420  1.00  0.00     0.057 A 
ATOM     80  C   UNL     1      -8.727   5.516   8.111  1.00  0.00     0.134 A 
ATOM     81  C   UNL     1     -10.367   5.022   9.770  1.00  0.00     0.134 A 
ATOM     82  F   UNL     1      -8.317   5.646   6.844  1.00  0.00    -0.206 F 
ATOM     83  C   UNL     1      -7.855   5.983   9.100  1.00  0.00     0.040 A 
ATOM     84  C   UNL     1      -9.520   5.520  10.764  1.00  0.00     0.040 A 
ATOM     85  F   UNL     1     -11.586   4.602  10.142  1.00  0.00    -0.206 F 
ATOM     86  C   UNL     1      -8.254   5.993  10.431  1.00  0.00     0.006 A 
ENDBRANCH  62  79
ENDBRANCH  36  37
ENDBRANCH  28  31
ENDBRANCH  26  27
ENDBRANCH   1  26
TORSDOF 13
