REMARK SMILES COc1ccc(C(=O)N[C@@H]2CCC[C@H]2C(=O)NCCCNC(=O)c2ccc(-c3c4nc(c(-c5c(F)cccc5F)c5ccc([nH]5)c(-c5c(F)cccc5F)c5nc(c(-c6c(F)cccc6F)c6ccc3[nH]6)C=C5)C=C4)cc2)cc1O
REMARK SMILES IDX 18 1 17 2 15 3 16 4 14 6 10 7 11 8 12 9 13 10 9 11 7 12 8 13
REMARK SMILES IDX 6 15 3 16 4 17 79 18 5 19 78 20 2 21 1 22 80 23 19 25 20 26
REMARK SMILES IDX 21 27 22 28 23 30 24 31 25 32 77 33 26 34 76 35 27 36 28 37
REMARK SMILES IDX 29 38 70 39 30 40 75 41 69 42 71 43 31 44 74 45 68 46 67 47
REMARK SMILES IDX 32 49 58 50 41 51 57 52 42 53 45 54 56 55 72 56 43 57 44 58
REMARK SMILES IDX 55 60 73 61 46 62 33 63 34 64 39 65 35 66 36 67 38 68 40 69
REMARK SMILES IDX 37 70 59 71 60 72 65 73 61 74 62 75 64 76 66 77 63 78 47 79
REMARK SMILES IDX 48 80 53 81 49 82 50 83 52 84 54 85 51 86
REMARK H PARENT 17 5 9 14 80 24 21 29 71 48 45 59
REMARK Flexibility Score: inf
ROOT
ATOM      1  C   UNL     1       6.176  -4.165   5.671  1.00  0.00     0.117 C 
ENDROOT
BRANCH   1   2
ATOM      2  N   UNL     1       6.905  -4.856   4.627  1.00  0.00    -0.356 N 
ATOM      3  C   UNL     1       6.688  -4.939   3.287  1.00  0.00     0.225 C 
ATOM      4  O   UNL     1       7.474  -5.626   2.632  1.00  0.00    -0.275 OA
ATOM      5  H   UNL     1       7.696  -5.351   4.942  1.00  0.00     0.163 HD
BRANCH   3   6
ATOM      6  C   UNL     1       5.515  -4.242   2.607  1.00  0.00     0.101 C 
ATOM      7  C   UNL     1       4.168  -4.828   3.037  1.00  0.00     0.094 C 
ATOM      8  C   UNL     1       3.288  -3.682   3.534  1.00  0.00     0.026 C 
ATOM      9  C   UNL     1       4.112  -2.396   3.449  1.00  0.00     0.003 C 
ATOM     10  C   UNL     1       5.477  -2.735   2.854  1.00  0.00     0.016 C 
BRANCH   7  11
ATOM     11  N   UNL     1       3.600  -5.770   2.063  1.00  0.00    -0.349 N 
ATOM     12  C   UNL     1       2.872  -5.736   0.902  1.00  0.00     0.251 C 
ATOM     13  O   UNL     1       2.646  -6.812   0.347  1.00  0.00    -0.269 OA
ATOM     14  H   UNL     1       3.800  -6.699   2.320  1.00  0.00     0.164 HD
BRANCH  12  15
ATOM     15  C   UNL     1       2.260  -4.513   0.337  1.00  0.00     0.043 A 
ATOM     16  C   UNL     1       0.838  -2.208  -0.463  1.00  0.00     0.160 A 
ATOM     17  C   UNL     1       0.331  -3.486  -0.720  1.00  0.00     0.051 A 
ATOM     18  C   UNL     1       2.092  -2.115   0.138  1.00  0.00     0.158 A 
ATOM     19  C   UNL     1       1.023  -4.630  -0.306  1.00  0.00     0.018 A 
ATOM     20  C   UNL     1       2.832  -3.255   0.447  1.00  0.00     0.064 A 
BRANCH  16  21
ATOM     21  O   UNL     1       0.002  -1.196  -0.836  1.00  0.00    -0.493 OA
ATOM     22  C   UNL     1       0.488   0.138  -0.807  1.00  0.00     0.278 C 
ENDBRANCH  16  21
BRANCH  18  23
ATOM     23  O   UNL     1       2.641  -0.939   0.563  1.00  0.00    -0.504 OA
ATOM     24  H   UNL     1       2.203  -0.128   0.393  1.00  0.00     0.293 HD
ENDBRANCH  18  23
ENDBRANCH  12  15
ENDBRANCH   7  11
ENDBRANCH   3   6
ENDBRANCH   1   2
BRANCH   1  25
ATOM     25  C   UNL     1       5.447  -5.118   6.601  1.00  0.00     0.042 C 
BRANCH  25  26
ATOM     26  C   UNL     1       6.394  -5.946   7.447  1.00  0.00     0.118 C 
BRANCH  26  27
ATOM     27  N   UNL     1       7.187  -5.118   8.344  1.00  0.00    -0.352 N 
ATOM     28  C   UNL     1       7.224  -5.101   9.715  1.00  0.00     0.251 C 
ATOM     29  H   UNL     1       7.786  -4.475   7.900  1.00  0.00     0.163 HD
ATOM     30  O   UNL     1       7.767  -4.170  10.299  1.00  0.00    -0.269 OA
BRANCH  28  31
ATOM     31  C   UNL     1       6.606  -6.203  10.479  1.00  0.00     0.039 A 
ATOM     32  C   UNL     1       5.953  -5.916  11.678  1.00  0.00     0.014 A 
ATOM     33  C   UNL     1       6.696  -7.521  10.025  1.00  0.00     0.014 A 
ATOM     34  C   UNL     1       5.365  -6.951  12.405  1.00  0.00     0.010 A 
ATOM     35  C   UNL     1       6.007  -8.529  10.682  1.00  0.00     0.010 A 
ATOM     36  C   UNL     1       5.373  -8.263  11.902  1.00  0.00    -0.014 A 
BRANCH  36  37
ATOM     37  C   UNL     1       4.799  -9.389  12.675  1.00  0.00     0.031 A 
ATOM     38  C   UNL     1       5.694 -10.514  13.124  1.00  0.00     0.074 A 
ATOM     39  C   UNL     1       3.478  -9.422  12.932  1.00  0.00     0.049 A 
ATOM     40  N   UNL     1       5.385 -11.612  13.766  1.00  0.00    -0.248 NA
ATOM     41  C   UNL     1       7.121 -10.410  12.773  1.00  0.00     0.031 C 
ATOM     42  C   UNL     1       2.503  -8.418  12.502  1.00  0.00     0.029 A 
ATOM     43  N   UNL     1       2.728 -10.341  13.618  1.00  0.00    -0.354 N 
ATOM     44  C   UNL     1       6.571 -12.330  13.874  1.00  0.00     0.074 A 
ATOM     45  C   UNL     1       7.586 -11.584  13.168  1.00  0.00     0.031 C 
ATOM     46  C   UNL     1       1.290  -8.758  12.965  1.00  0.00     0.029 A 
ATOM     47  C   UNL     1       1.395 -10.020  13.691  1.00  0.00     0.049 A 
ATOM     48  H   UNL     1       3.109 -11.155  14.021  1.00  0.00     0.167 HD
ATOM     49  C   UNL     1       6.802 -13.490  14.532  1.00  0.00     0.037 A 
ATOM     50  C   UNL     1       0.377 -10.671  14.281  1.00  0.00     0.037 A 
ATOM     51  C   UNL     1       5.793 -14.211  15.260  1.00  0.00     0.049 A 
ATOM     52  C   UNL     1       0.662 -11.951  15.018  1.00  0.00     0.074 A 
ATOM     53  C   UNL     1       5.928 -15.370  16.004  1.00  0.00     0.029 A 
ATOM     54  N   UNL     1       4.460 -13.837  15.336  1.00  0.00    -0.354 N 
ATOM     55  N   UNL     1       1.799 -12.587  15.168  1.00  0.00    -0.248 NA
ATOM     56  C   UNL     1      -0.479 -12.595  15.683  1.00  0.00     0.031 C 
ATOM     57  C   UNL     1       4.665 -15.721  16.493  1.00  0.00     0.029 A 
ATOM     58  C   UNL     1       3.757 -14.749  16.105  1.00  0.00     0.049 A 
ATOM     59  H   UNL     1       4.071 -13.041  14.906  1.00  0.00     0.167 HD
ATOM     60  C   UNL     1       1.520 -13.682  15.977  1.00  0.00     0.074 A 
ATOM     61  C   UNL     1       0.108 -13.613  16.295  1.00  0.00     0.031 C 
ATOM     62  C   UNL     1       2.354 -14.655  16.420  1.00  0.00     0.037 A 
BRANCH  49  63
ATOM     63  C   UNL     1       8.201 -14.038  14.495  1.00  0.00     0.057 A 
ATOM     64  C   UNL     1       9.267 -13.395  15.140  1.00  0.00     0.134 A 
ATOM     65  C   UNL     1       8.484 -15.231  13.819  1.00  0.00     0.134 A 
ATOM     66  F   UNL     1       9.071 -12.239  15.792  1.00  0.00    -0.206 F 
ATOM     67  C   UNL     1      10.568 -13.899  15.084  1.00  0.00     0.040 A 
ATOM     68  C   UNL     1       9.774 -15.763  13.783  1.00  0.00     0.040 A 
ATOM     69  F   UNL     1       7.512 -15.901  13.182  1.00  0.00    -0.206 F 
ATOM     70  C   UNL     1      10.822 -15.091  14.410  1.00  0.00     0.006 A 
ENDBRANCH  49  63
BRANCH  50  71
ATOM     71  C   UNL     1      -0.996 -10.107  14.237  1.00  0.00     0.057 A 
ATOM     72  C   UNL     1      -1.611  -9.610  15.393  1.00  0.00     0.134 A 
ATOM     73  C   UNL     1      -1.732 -10.064  13.047  1.00  0.00     0.134 A 
ATOM     74  F   UNL     1      -0.962  -9.636  16.567  1.00  0.00    -0.206 F 
ATOM     75  C   UNL     1      -2.917  -9.119  15.374  1.00  0.00     0.040 A 
ATOM     76  C   UNL     1      -3.029  -9.550  13.008  1.00  0.00     0.040 A 
ATOM     77  F   UNL     1      -1.196 -10.512  11.902  1.00  0.00    -0.206 F 
ATOM     78  C   UNL     1      -3.629  -9.085  14.177  1.00  0.00     0.006 A 
ENDBRANCH  50  71
BRANCH  62  79
ATOM     79  C   UNL     1       1.772 -15.685  17.345  1.00  0.00     0.057 A 
ATOM     80  C   UNL     1       0.848 -16.644  16.910  1.00  0.00     0.134 A 
ATOM     81  C   UNL     1       2.155 -15.722  18.692  1.00  0.00     0.134 A 
ATOM     82  F   UNL     1       0.431 -16.658  15.635  1.00  0.00    -0.206 F 
ATOM     83  C   UNL     1       0.296 -17.576  17.790  1.00  0.00     0.040 A 
ATOM     84  C   UNL     1       1.636 -16.670  19.574  1.00  0.00     0.040 A 
ATOM     85  F   UNL     1       3.046 -14.841  19.173  1.00  0.00    -0.206 F 
ATOM     86  C   UNL     1       0.694 -17.593  19.126  1.00  0.00     0.006 A 
ENDBRANCH  62  79
ENDBRANCH  36  37
ENDBRANCH  28  31
ENDBRANCH  26  27
ENDBRANCH  25  26
ENDBRANCH   1  25
TORSDOF 14
