REMARK SMILES Cc1ccc(OCC(=O)NNC(=O)[C@H]2CCCC[C@@H]2C(=O)NCCCNC(=O)c2ccc(-c3c4nc(c(-c5c(F)cccc5F)c5ccc([nH]5)c(-c5c(F)cccc5F)c5nc(c(-c6c(F)cccc6F)c6ccc3[nH]6)C=C5)C=C4)cc2)cc1
REMARK SMILES IDX 20 1 21 2 22 3 19 5 14 6 15 7 16 8 18 9 17 10 12 11 11 12
REMARK SMILES IDX 13 14 10 15 8 16 9 17 7 19 6 20 5 21 1 22 2 23 3 24 84 25
REMARK SMILES IDX 4 26 83 27 23 28 24 29 25 30 26 31 27 32 28 34 29 35 30 36
REMARK SMILES IDX 82 37 31 38 81 39 32 40 33 41 34 42 75 43 35 44 80 45 74 46
REMARK SMILES IDX 76 47 36 48 79 49 73 50 72 51 37 53 63 54 46 55 62 56 47 57
REMARK SMILES IDX 50 58 61 59 77 60 48 61 49 62 60 64 78 65 51 66 38 67 39 68
REMARK SMILES IDX 44 69 40 70 41 71 43 72 45 73 42 74 64 75 65 76 70 77 66 78
REMARK SMILES IDX 67 79 69 80 71 81 68 82 52 83 53 84 58 85 54 86 55 87 57 88
REMARK SMILES IDX 59 89 56 90
REMARK H PARENT 22 4 11 13 10 18 26 33 76 52 50 63
REMARK Flexibility Score: inf
ROOT
ATOM      1  C   UNL     1      -5.287   2.276   4.469  1.00  0.00     0.223 C 
ATOM      2  O   UNL     1      -5.246   1.879   3.294  1.00  0.00    -0.275 OA
ATOM      3  N   UNL     1      -6.303   3.118   4.751  1.00  0.00    -0.356 N 
ATOM      4  H   UNL     1      -6.856   3.319   3.962  1.00  0.00     0.163 HD
ENDROOT
BRANCH   1   5
ATOM      5  C   UNL     1      -4.192   1.790   5.428  1.00  0.00     0.091 C 
ATOM      6  C   UNL     1      -4.143   0.245   5.363  1.00  0.00     0.092 C 
ATOM      7  C   UNL     1      -5.173  -0.352   6.335  1.00  0.00     0.014 C 
ATOM      8  C   UNL     1      -4.964   0.083   7.781  1.00  0.00     0.001 C 
ATOM      9  C   UNL     1      -4.036   2.300   6.859  1.00  0.00     0.014 C 
ATOM     10  C   UNL     1      -4.836   1.587   7.949  1.00  0.00     0.001 C 
BRANCH   6  11
ATOM     11  C   UNL     1      -2.734  -0.309   5.603  1.00  0.00     0.242 C 
ATOM     12  N   UNL     1      -1.734  -0.055   4.705  1.00  0.00    -0.267 N 
ATOM     13  H   UNL     1      -0.832  -0.374   4.939  1.00  0.00     0.191 HD
ATOM     14  O   UNL     1      -2.452  -1.010   6.576  1.00  0.00    -0.273 OA
BRANCH  12  15
ATOM     15  N   UNL     1      -1.873   0.610   3.495  1.00  0.00    -0.265 N 
ATOM     16  C   UNL     1      -0.821   1.217   2.847  1.00  0.00     0.276 C 
ATOM     17  O   UNL     1      -0.989   1.722   1.735  1.00  0.00    -0.269 OA
ATOM     18  H   UNL     1      -2.766   0.650   3.082  1.00  0.00     0.191 HD
BRANCH  16  19
ATOM     19  C   UNL     1       0.560   1.204   3.516  1.00  0.00     0.331 C 
BRANCH  19  20
ATOM     20  O   UNL     1       0.621   1.808   4.800  1.00  0.00    -0.484 OA
BRANCH  20  21
ATOM     21  C   UNL     1       0.634   3.175   4.860  1.00  0.00     0.120 A 
ATOM     22  C   UNL     1       0.677   7.447   5.492  1.00  0.00     0.044 C 
ATOM     23  C   UNL     1       0.660   5.964   5.270  1.00  0.00    -0.051 A 
ATOM     24  C   UNL     1       0.790   5.087   6.351  1.00  0.00     0.007 A 
ATOM     25  C   UNL     1       0.531   5.433   3.983  1.00  0.00     0.007 A 
ATOM     26  C   UNL     1       0.773   3.704   6.145  1.00  0.00     0.047 A 
ATOM     27  C   UNL     1       0.519   4.049   3.779  1.00  0.00     0.047 A 
ENDBRANCH  20  21
ENDBRANCH  19  20
ENDBRANCH  16  19
ENDBRANCH  12  15
ENDBRANCH   6  11
ENDBRANCH   1   5
BRANCH   3  28
ATOM     28  C   UNL     1      -6.768   3.796   5.945  1.00  0.00     0.117 C 
BRANCH  28  29
ATOM     29  C   UNL     1      -6.067   5.130   6.177  1.00  0.00     0.042 C 
BRANCH  29  30
ATOM     30  C   UNL     1      -7.048   6.289   6.227  1.00  0.00     0.118 C 
BRANCH  30  31
ATOM     31  N   UNL     1      -7.723   6.482   7.509  1.00  0.00    -0.352 N 
ATOM     32  C   UNL     1      -8.832   7.272   7.803  1.00  0.00     0.251 C 
ATOM     33  H   UNL     1      -7.340   5.987   8.269  1.00  0.00     0.163 HD
ATOM     34  O   UNL     1      -9.265   7.338   8.938  1.00  0.00    -0.269 OA
BRANCH  32  35
ATOM     35  C   UNL     1      -9.564   7.913   6.680  1.00  0.00     0.039 A 
ATOM     36  C   UNL     1     -10.937   7.670   6.579  1.00  0.00     0.014 A 
ATOM     37  C   UNL     1      -8.858   8.428   5.601  1.00  0.00     0.014 A 
ATOM     38  C   UNL     1     -11.522   7.636   5.316  1.00  0.00     0.010 A 
ATOM     39  C   UNL     1      -9.393   8.247   4.344  1.00  0.00     0.010 A 
ATOM     40  C   UNL     1     -10.703   7.779   4.199  1.00  0.00    -0.014 A 
BRANCH  40  41
ATOM     41  C   UNL     1     -11.086   7.354   2.856  1.00  0.00     0.031 A 
ATOM     42  C   UNL     1     -11.258   8.356   1.785  1.00  0.00     0.074 A 
ATOM     43  C   UNL     1     -11.173   6.037   2.559  1.00  0.00     0.049 A 
ATOM     44  N   UNL     1     -11.923   8.145   0.702  1.00  0.00    -0.248 NA
ATOM     45  C   UNL     1     -10.697   9.702   1.865  1.00  0.00     0.031 C 
ATOM     46  C   UNL     1     -11.274   5.429   1.233  1.00  0.00     0.029 A 
ATOM     47  N   UNL     1     -11.400   4.970   3.441  1.00  0.00    -0.354 N 
ATOM     48  C   UNL     1     -11.681   9.196  -0.145  1.00  0.00     0.074 A 
ATOM     49  C   UNL     1     -10.928  10.153   0.630  1.00  0.00     0.031 C 
ATOM     50  C   UNL     1     -11.836   4.217   1.354  1.00  0.00     0.029 A 
ATOM     51  C   UNL     1     -12.231   4.060   2.741  1.00  0.00     0.049 A 
ATOM     52  H   UNL     1     -11.054   4.874   4.358  1.00  0.00     0.167 HD
ATOM     53  C   UNL     1     -12.055   9.116  -1.451  1.00  0.00     0.037 A 
ATOM     54  C   UNL     1     -13.502   3.817   3.176  1.00  0.00     0.037 A 
ATOM     55  C   UNL     1     -12.768   7.881  -1.746  1.00  0.00     0.049 A 
ATOM     56  C   UNL     1     -14.590   4.290   2.232  1.00  0.00     0.074 A 
ATOM     57  C   UNL     1     -12.415   6.652  -2.276  1.00  0.00     0.029 A 
ATOM     58  N   UNL     1     -14.008   7.697  -1.162  1.00  0.00    -0.354 N 
ATOM     59  N   UNL     1     -14.378   4.862   1.077  1.00  0.00    -0.248 NA
ATOM     60  C   UNL     1     -16.015   4.232   2.567  1.00  0.00     0.031 C 
ATOM     61  C   UNL     1     -13.447   5.718  -1.958  1.00  0.00     0.029 A 
ATOM     62  C   UNL     1     -14.430   6.387  -1.254  1.00  0.00     0.049 A 
ATOM     63  H   UNL     1     -14.527   8.415  -0.732  1.00  0.00     0.167 HD
ATOM     64  C   UNL     1     -15.571   5.295   0.559  1.00  0.00     0.074 A 
ATOM     65  C   UNL     1     -16.569   4.868   1.522  1.00  0.00     0.031 C 
ATOM     66  C   UNL     1     -15.670   6.013  -0.596  1.00  0.00     0.037 A 
BRANCH  53  67
ATOM     67  C   UNL     1     -11.565  10.102  -2.467  1.00  0.00     0.057 A 
ATOM     68  C   UNL     1     -11.142   9.682  -3.738  1.00  0.00     0.134 A 
ATOM     69  C   UNL     1     -11.436  11.479  -2.216  1.00  0.00     0.134 A 
ATOM     70  F   UNL     1     -11.267   8.408  -4.132  1.00  0.00    -0.206 F 
ATOM     71  C   UNL     1     -10.542  10.553  -4.655  1.00  0.00     0.040 A 
ATOM     72  C   UNL     1     -10.784  12.349  -3.098  1.00  0.00     0.040 A 
ATOM     73  F   UNL     1     -11.946  12.031  -1.105  1.00  0.00    -0.206 F 
ATOM     74  C   UNL     1     -10.325  11.884  -4.322  1.00  0.00     0.006 A 
ENDBRANCH  53  67
BRANCH  54  75
ATOM     75  C   UNL     1     -13.588   3.788   4.660  1.00  0.00     0.057 A 
ATOM     76  C   UNL     1     -12.872   2.790   5.348  1.00  0.00     0.134 A 
ATOM     77  C   UNL     1     -13.993   4.902   5.397  1.00  0.00     0.134 A 
ATOM     78  F   UNL     1     -12.460   1.688   4.701  1.00  0.00    -0.206 F 
ATOM     79  C   UNL     1     -12.455   2.960   6.670  1.00  0.00     0.040 A 
ATOM     80  C   UNL     1     -13.595   5.075   6.727  1.00  0.00     0.040 A 
ATOM     81  F   UNL     1     -14.666   5.902   4.808  1.00  0.00    -0.206 F 
ATOM     82  C   UNL     1     -12.785   4.127   7.351  1.00  0.00     0.006 A 
ENDBRANCH  54  75
BRANCH  66  83
ATOM     83  C   UNL     1     -16.986   6.431  -1.185  1.00  0.00     0.057 A 
ATOM     84  C   UNL     1     -18.048   5.529  -1.342  1.00  0.00     0.134 A 
ATOM     85  C   UNL     1     -17.184   7.713  -1.732  1.00  0.00     0.134 A 
ATOM     86  F   UNL     1     -17.947   4.264  -0.908  1.00  0.00    -0.206 F 
ATOM     87  C   UNL     1     -19.245   5.891  -1.968  1.00  0.00     0.040 A 
ATOM     88  C   UNL     1     -18.355   8.071  -2.402  1.00  0.00     0.040 A 
ATOM     89  F   UNL     1     -16.258   8.676  -1.618  1.00  0.00    -0.206 F 
ATOM     90  C   UNL     1     -19.397   7.162  -2.513  1.00  0.00     0.006 A 
ENDBRANCH  66  83
ENDBRANCH  40  41
ENDBRANCH  32  35
ENDBRANCH  30  31
ENDBRANCH  29  30
ENDBRANCH  28  29
ENDBRANCH   3  28
TORSDOF 15
