REMARK SMILES Cc1cc(CS(=O)(=O)[C@@H](C)CC(=O)NCCCNC(=O)c2ccc(-c3c4nc(c(-c5c(F)cccc5F)c5ccc([nH]5)c(-c5c(F)cccc5F)c5nc(c(-c6c(F)cccc6F)c6ccc3[nH]6)C=C5)C=C4)cc2)c2ccccc2n1
REMARK SMILES IDX 15 1 14 2 12 3 13 4 11 6 9 7 10 8 6 9 7 10 8 11 5 12 4 13
REMARK SMILES IDX 1 14 2 15 3 16 81 17 80 18 75 19 79 20 76 21 78 22 77 23
REMARK SMILES IDX 16 24 17 25 18 26 19 27 20 29 21 30 22 31 74 32 23 33 73 34
REMARK SMILES IDX 24 35 25 36 26 37 67 38 27 39 72 40 66 41 68 42 28 43 71 44
REMARK SMILES IDX 65 45 64 46 29 48 55 49 38 50 54 51 39 52 42 53 53 54 69 55
REMARK SMILES IDX 40 56 41 57 52 59 70 60 43 61 30 62 31 63 36 64 32 65 33 66
REMARK SMILES IDX 35 67 37 68 34 69 56 70 57 71 62 72 58 73 59 74 61 75 63 76
REMARK SMILES IDX 60 77 44 78 45 79 50 80 46 81 47 82 49 83 51 84 48 85
REMARK H PARENT 14 5 18 28 68 47 42 58
REMARK Flexibility Score: inf
ROOT
ATOM      1  C   UNL     1       2.298   1.909   1.667  1.00  0.00     0.117 C 
ENDROOT
BRANCH   1   2
ATOM      2  N   UNL     1       2.029   1.831   3.081  1.00  0.00    -0.356 N 
ATOM      3  C   UNL     1       0.823   1.681   3.695  1.00  0.00     0.221 C 
ATOM      4  O   UNL     1       0.789   1.527   4.915  1.00  0.00    -0.275 OA
ATOM      5  H   UNL     1       2.812   1.893   3.675  1.00  0.00     0.163 HD
BRANCH   3   6
ATOM      6  C   UNL     1      -0.448   1.722   2.869  1.00  0.00     0.119 C 
BRANCH   6   7
ATOM      7  C   UNL     1      -0.953   3.146   2.674  1.00  0.00     0.115 C 
ATOM      8  C   UNL     1      -2.369   3.311   3.238  1.00  0.00     0.025 C 
BRANCH   7   9
ATOM      9  S   UNL     1      -0.823   3.948   1.039  1.00  0.00     0.157 S 
ATOM     10  O   UNL     1       0.412   4.719   1.100  1.00  0.00    -0.228 OA
ATOM     11  O   UNL     1      -2.063   4.684   0.837  1.00  0.00    -0.228 OA
BRANCH   9  12
ATOM     12  C   UNL     1      -0.658   2.919  -0.442  1.00  0.00     0.173 C 
BRANCH  12  13
ATOM     13  C   UNL     1      -1.054   1.476  -0.324  1.00  0.00    -0.022 A 
ATOM     14  C   UNL     1      -4.122  -0.604   0.416  1.00  0.00     0.067 C 
ATOM     15  C   UNL     1      -2.701  -0.173   0.231  1.00  0.00     0.038 A 
ATOM     16  C   UNL     1      -2.375   1.155   0.003  1.00  0.00     0.029 A 
ATOM     17  N   UNL     1      -1.776  -1.157   0.236  1.00  0.00    -0.253 NA
ATOM     18  C   UNL     1      -0.528  -0.882  -0.163  1.00  0.00     0.071 A 
ATOM     19  C   UNL     1      -0.130   0.410  -0.564  1.00  0.00     0.004 A 
ATOM     20  C   UNL     1       0.397  -1.918  -0.181  1.00  0.00     0.029 A 
ATOM     21  C   UNL     1       1.153   0.543  -1.161  1.00  0.00     0.010 A 
ATOM     22  C   UNL     1       1.681  -1.755  -0.698  1.00  0.00     0.002 A 
ATOM     23  C   UNL     1       2.039  -0.534  -1.242  1.00  0.00     0.001 A 
ENDBRANCH  12  13
ENDBRANCH   9  12
ENDBRANCH   7   9
ENDBRANCH   6   7
ENDBRANCH   3   6
ENDBRANCH   1   2
BRANCH   1  24
ATOM     24  C   UNL     1       3.120   3.123   1.282  1.00  0.00     0.042 C 
BRANCH  24  25
ATOM     25  C   UNL     1       4.490   2.744   0.760  1.00  0.00     0.118 C 
BRANCH  25  26
ATOM     26  N   UNL     1       4.425   2.042  -0.520  1.00  0.00    -0.352 N 
ATOM     27  C   UNL     1       5.058   2.302  -1.717  1.00  0.00     0.251 C 
ATOM     28  H   UNL     1       3.833   1.255  -0.530  1.00  0.00     0.163 HD
ATOM     29  O   UNL     1       4.741   1.690  -2.724  1.00  0.00    -0.269 OA
BRANCH  27  30
ATOM     30  C   UNL     1       6.099   3.351  -1.762  1.00  0.00     0.039 A 
ATOM     31  C   UNL     1       6.156   4.231  -2.845  1.00  0.00     0.014 A 
ATOM     32  C   UNL     1       6.973   3.500  -0.687  1.00  0.00     0.014 A 
ATOM     33  C   UNL     1       7.018   5.329  -2.788  1.00  0.00     0.010 A 
ATOM     34  C   UNL     1       7.710   4.662  -0.566  1.00  0.00     0.010 A 
ATOM     35  C   UNL     1       7.755   5.584  -1.621  1.00  0.00    -0.014 A 
BRANCH  35  36
ATOM     36  C   UNL     1       8.607   6.786  -1.461  1.00  0.00     0.031 A 
ATOM     37  C   UNL     1      10.068   6.611  -1.142  1.00  0.00     0.074 A 
ATOM     38  C   UNL     1       8.050   8.012  -1.476  1.00  0.00     0.049 A 
ATOM     39  N   UNL     1      10.954   7.505  -0.790  1.00  0.00    -0.248 NA
ATOM     40  C   UNL     1      10.588   5.231  -1.161  1.00  0.00     0.031 C 
ATOM     41  C   UNL     1       6.629   8.300  -1.692  1.00  0.00     0.029 A 
ATOM     42  N   UNL     1       8.612   9.248  -1.291  1.00  0.00    -0.354 N 
ATOM     43  C   UNL     1      12.111   6.792  -0.503  1.00  0.00     0.074 A 
ATOM     44  C   UNL     1      11.797   5.390  -0.649  1.00  0.00     0.031 C 
ATOM     45  C   UNL     1       6.440   9.629  -1.666  1.00  0.00     0.029 A 
ATOM     46  C   UNL     1       7.713  10.283  -1.391  1.00  0.00     0.049 A 
ATOM     47  H   UNL     1       9.569   9.383  -1.104  1.00  0.00     0.167 HD
ATOM     48  C   UNL     1      13.338   7.265  -0.182  1.00  0.00     0.037 A 
ATOM     49  C   UNL     1       7.903  11.610  -1.273  1.00  0.00     0.037 A 
ATOM     50  C   UNL     1      13.653   8.665  -0.111  1.00  0.00     0.049 A 
ATOM     51  C   UNL     1       9.289  12.117  -0.983  1.00  0.00     0.074 A 
ATOM     52  C   UNL     1      14.877   9.265   0.122  1.00  0.00     0.029 A 
ATOM     53  N   UNL     1      12.730   9.685  -0.291  1.00  0.00    -0.354 N 
ATOM     54  N   UNL     1      10.391  11.436  -0.777  1.00  0.00    -0.248 NA
ATOM     55  C   UNL     1       9.460  13.574  -0.916  1.00  0.00     0.031 C 
ATOM     56  C   UNL     1      14.690  10.651   0.106  1.00  0.00     0.029 A 
ATOM     57  C   UNL     1      13.357  10.913  -0.172  1.00  0.00     0.049 A 
ATOM     58  H   UNL     1      11.772   9.555  -0.476  1.00  0.00     0.167 HD
ATOM     59  C   UNL     1      11.390  12.379  -0.583  1.00  0.00     0.074 A 
ATOM     60  C   UNL     1      10.765  13.681  -0.710  1.00  0.00     0.031 C 
ATOM     61  C   UNL     1      12.707  12.190  -0.320  1.00  0.00     0.037 A 
BRANCH  48  62
ATOM     62  C   UNL     1      14.418   6.257   0.084  1.00  0.00     0.057 A 
ATOM     63  C   UNL     1      14.937   5.442  -0.932  1.00  0.00     0.134 A 
ATOM     64  C   UNL     1      14.943   6.092   1.372  1.00  0.00     0.134 A 
ATOM     65  F   UNL     1      14.466   5.535  -2.185  1.00  0.00    -0.206 F 
ATOM     66  C   UNL     1      15.909   4.474  -0.671  1.00  0.00     0.040 A 
ATOM     67  C   UNL     1      15.938   5.149   1.639  1.00  0.00     0.040 A 
ATOM     68  F   UNL     1      14.496   6.840   2.392  1.00  0.00    -0.206 F 
ATOM     69  C   UNL     1      16.416   4.330   0.618  1.00  0.00     0.006 A 
ENDBRANCH  48  62
BRANCH  49  70
ATOM     70  C   UNL     1       6.771  12.549  -1.480  1.00  0.00     0.057 A 
ATOM     71  C   UNL     1       6.707  13.350  -2.627  1.00  0.00     0.134 A 
ATOM     72  C   UNL     1       5.729  12.665  -0.554  1.00  0.00     0.134 A 
ATOM     73  F   UNL     1       7.683  13.293  -3.545  1.00  0.00    -0.206 F 
ATOM     74  C   UNL     1       5.658  14.246  -2.837  1.00  0.00     0.040 A 
ATOM     75  C   UNL     1       4.661  13.541  -0.763  1.00  0.00     0.040 A 
ATOM     76  F   UNL     1       5.725  11.918   0.559  1.00  0.00    -0.206 F 
ATOM     77  C   UNL     1       4.627  14.340  -1.905  1.00  0.00     0.006 A 
ENDBRANCH  49  70
BRANCH  61  78
ATOM     78  C   UNL     1      13.558  13.415  -0.190  1.00  0.00     0.057 A 
ATOM     79  C   UNL     1      13.501  14.234   0.943  1.00  0.00     0.134 A 
ATOM     80  C   UNL     1      14.479  13.749  -1.191  1.00  0.00     0.134 A 
ATOM     81  F   UNL     1      12.630  13.972   1.929  1.00  0.00    -0.206 F 
ATOM     82  C   UNL     1      14.320  15.356   1.069  1.00  0.00     0.040 A 
ATOM     83  C   UNL     1      15.320  14.854  -1.065  1.00  0.00     0.040 A 
ATOM     84  F   UNL     1      14.587  12.997  -2.297  1.00  0.00    -0.206 F 
ATOM     85  C   UNL     1      15.239  15.664   0.066  1.00  0.00     0.006 A 
ENDBRANCH  61  78
ENDBRANCH  35  36
ENDBRANCH  27  30
ENDBRANCH  25  26
ENDBRANCH  24  25
ENDBRANCH   1  24
TORSDOF 14
