REMARK SMILES O=C(CCC[NH2+][C@H]1CCOC2(CCOCC2)C1)NCCCNC(=O)c1ccc(-c2c3nc(c(-c4c(F)cccc4F)c4ccc([nH]4)c(-c4c(F)cccc4F)c4nc(c(-c5c(F)cccc5F)c5ccc2[nH]5)C=C4)C=C3)cc1
REMARK SMILES IDX 19 1 18 2 1 3 2 4 3 6 4 7 5 8 6 9 7 12 8 13 17 14 9 15 11 16
REMARK SMILES IDX 10 17 12 18 16 19 13 20 15 21 14 22 20 23 21 24 22 25 23 26
REMARK SMILES IDX 24 28 25 29 26 30 78 31 27 32 77 33 28 34 29 35 30 36 71 37
REMARK SMILES IDX 31 38 76 39 70 40 72 41 32 42 75 43 69 44 68 45 33 47 59 48
REMARK SMILES IDX 42 49 58 50 43 51 46 52 57 53 73 54 44 55 45 56 56 58 74 59
REMARK SMILES IDX 47 60 34 61 35 62 40 63 36 64 37 65 39 66 41 67 38 68 60 69
REMARK SMILES IDX 61 70 66 71 62 72 63 73 65 74 67 75 64 76 48 77 49 78 54 79
REMARK SMILES IDX 50 80 51 81 53 82 55 83 52 84
REMARK H PARENT 18 5 6 10 6 11 22 27 72 46 46 57
REMARK Flexibility Score: inf
ROOT
ATOM      1  C   UNL     1      10.998  -3.226   1.144  1.00  0.00     0.117 C 
ENDROOT
BRANCH   1   2
ATOM      2  N   UNL     1       9.858  -3.236   0.249  1.00  0.00    -0.356 N 
ATOM      3  O   UNL     1      10.024  -5.458  -0.314  1.00  0.00    -0.275 OA
ATOM      4  C   UNL     1       9.439  -4.381  -0.389  1.00  0.00     0.220 C 
ATOM      5  H   UNL     1       9.368  -2.397   0.093  1.00  0.00     0.163 HD
BRANCH   4   6
ATOM      6  C   UNL     1       8.161  -4.218  -1.184  1.00  0.00     0.106 C 
BRANCH   6   7
ATOM      7  C   UNL     1       6.915  -4.368  -0.311  1.00  0.00     0.071 C 
BRANCH   7   8
ATOM      8  C   UNL     1       6.650  -3.226   0.682  1.00  0.00     0.261 C 
BRANCH   8   9
ATOM      9  N   UNL     1       6.373  -1.961   0.015  1.00  0.00    -0.344 N 
ATOM     10  H   UNL     1       5.550  -2.100  -0.571  1.00  0.00     0.346 HD
ATOM     11  H   UNL     1       7.236  -1.739  -0.482  1.00  0.00     0.346 HD
BRANCH   9  12
ATOM     12  C   UNL     1       6.117  -0.782   0.859  1.00  0.00     0.187 C 
ATOM     13  C   UNL     1       5.833  -1.050   2.342  1.00  0.00     0.093 C 
ATOM     14  C   UNL     1       7.263   0.234   0.732  1.00  0.00     0.100 C 
ATOM     15  C   UNL     1       5.611   0.253   3.092  1.00  0.00     0.167 C 
ATOM     16  C   UNL     1       7.025   1.505   1.581  1.00  0.00     0.078 C 
ATOM     17  O   UNL     1       6.718   1.132   2.932  1.00  0.00    -0.374 OA
ATOM     18  C   UNL     1       5.946   2.433   0.992  1.00  0.00     0.064 C 
ATOM     19  C   UNL     1       8.336   2.301   1.650  1.00  0.00     0.064 C 
ATOM     20  C   UNL     1       5.889   3.750   1.763  1.00  0.00     0.163 C 
ATOM     21  C   UNL     1       8.164   3.631   2.369  1.00  0.00     0.163 C 
ATOM     22  O   UNL     1       7.156   4.407   1.723  1.00  0.00    -0.381 OA
ENDBRANCH   9  12
ENDBRANCH   8   9
ENDBRANCH   7   8
ENDBRANCH   6   7
ENDBRANCH   4   6
ENDBRANCH   1   2
BRANCH   1  23
ATOM     23  C   UNL     1      12.021  -2.154   0.784  1.00  0.00     0.042 C 
BRANCH  23  24
ATOM     24  C   UNL     1      11.536  -0.717   0.951  1.00  0.00     0.118 C 
BRANCH  24  25
ATOM     25  N   UNL     1      11.208  -0.375   2.326  1.00  0.00    -0.352 N 
ATOM     26  C   UNL     1      11.421   0.775   3.043  1.00  0.00     0.251 C 
ATOM     27  H   UNL     1      10.755  -1.091   2.828  1.00  0.00     0.163 HD
ATOM     28  O   UNL     1      11.160   0.773   4.247  1.00  0.00    -0.269 OA
BRANCH  26  29
ATOM     29  C   UNL     1      11.950   2.016   2.420  1.00  0.00     0.039 A 
ATOM     30  C   UNL     1      12.719   2.876   3.216  1.00  0.00     0.014 A 
ATOM     31  C   UNL     1      11.659   2.382   1.102  1.00  0.00     0.014 A 
ATOM     32  C   UNL     1      13.266   4.040   2.672  1.00  0.00     0.010 A 
ATOM     33  C   UNL     1      12.218   3.530   0.549  1.00  0.00     0.010 A 
ATOM     34  C   UNL     1      13.052   4.345   1.321  1.00  0.00    -0.014 A 
BRANCH  34  35
ATOM     35  C   UNL     1      13.823   5.404   0.637  1.00  0.00     0.031 A 
ATOM     36  C   UNL     1      13.181   6.687   0.214  1.00  0.00     0.074 A 
ATOM     37  C   UNL     1      15.083   5.105   0.270  1.00  0.00     0.049 A 
ATOM     38  N   UNL     1      13.694   7.668  -0.482  1.00  0.00    -0.248 NA
ATOM     39  C   UNL     1      11.778   6.887   0.605  1.00  0.00     0.031 C 
ATOM     40  C   UNL     1      15.770   3.845   0.572  1.00  0.00     0.029 A 
ATOM     41  N   UNL     1      15.993   5.812  -0.470  1.00  0.00    -0.354 N 
ATOM     42  C   UNL     1      12.682   8.610  -0.608  1.00  0.00     0.074 A 
ATOM     43  C   UNL     1      11.513   8.063   0.050  1.00  0.00     0.031 C 
ATOM     44  C   UNL     1      16.984   3.860   0.003  1.00  0.00     0.029 A 
ATOM     45  C   UNL     1      17.152   5.118  -0.715  1.00  0.00     0.049 A 
ATOM     46  H   UNL     1      15.832   6.728  -0.794  1.00  0.00     0.167 HD
ATOM     47  C   UNL     1      12.739   9.824  -1.207  1.00  0.00     0.037 A 
ATOM     48  C   UNL     1      18.226   5.452  -1.451  1.00  0.00     0.037 A 
ATOM     49  C   UNL     1      13.909  10.342  -1.872  1.00  0.00     0.049 A 
ATOM     50  C   UNL     1      18.256   6.795  -2.118  1.00  0.00     0.074 A 
ATOM     51  C   UNL     1      14.098  11.588  -2.443  1.00  0.00     0.029 A 
ATOM     52  N   UNL     1      15.083   9.630  -2.071  1.00  0.00    -0.354 N 
ATOM     53  N   UNL     1      17.332   7.725  -2.137  1.00  0.00    -0.248 NA
ATOM     54  C   UNL     1      19.480   7.141  -2.851  1.00  0.00     0.031 C 
ATOM     55  C   UNL     1      15.370  11.614  -3.027  1.00  0.00     0.029 A 
ATOM     56  C   UNL     1      15.990  10.399  -2.783  1.00  0.00     0.049 A 
ATOM     57  H   UNL     1      15.248   8.713  -1.753  1.00  0.00     0.167 HD
ATOM     58  C   UNL     1      17.869   8.777  -2.864  1.00  0.00     0.074 A 
ATOM     59  C   UNL     1      19.205   8.372  -3.258  1.00  0.00     0.031 C 
ATOM     60  C   UNL     1      17.309   9.971  -3.175  1.00  0.00     0.037 A 
BRANCH  47  61
ATOM     61  C   UNL     1      11.505  10.677  -1.167  1.00  0.00     0.057 A 
ATOM     62  C   UNL     1      11.071  11.285   0.018  1.00  0.00     0.134 A 
ATOM     63  C   UNL     1      10.772  10.940  -2.332  1.00  0.00     0.134 A 
ATOM     64  F   UNL     1      11.725  11.072   1.170  1.00  0.00    -0.206 F 
ATOM     65  C   UNL     1       9.942  12.107   0.049  1.00  0.00     0.040 A 
ATOM     66  C   UNL     1       9.655  11.777  -2.318  1.00  0.00     0.040 A 
ATOM     67  F   UNL     1      11.136  10.397  -3.503  1.00  0.00    -0.206 F 
ATOM     68  C   UNL     1       9.234  12.360  -1.124  1.00  0.00     0.006 A 
ENDBRANCH  47  61
BRANCH  48  69
ATOM     69  C   UNL     1      19.362   4.508  -1.561  1.00  0.00     0.057 A 
ATOM     70  C   UNL     1      20.557   4.742  -0.873  1.00  0.00     0.134 A 
ATOM     71  C   UNL     1      19.269   3.336  -2.320  1.00  0.00     0.134 A 
ATOM     72  F   UNL     1      20.705   5.854  -0.138  1.00  0.00    -0.206 F 
ATOM     73  C   UNL     1      21.627   3.849  -0.945  1.00  0.00     0.040 A 
ATOM     74  C   UNL     1      20.323   2.424  -2.385  1.00  0.00     0.040 A 
ATOM     75  F   UNL     1      18.142   3.049  -2.989  1.00  0.00    -0.206 F 
ATOM     76  C   UNL     1      21.509   2.683  -1.699  1.00  0.00     0.006 A 
ENDBRANCH  48  69
BRANCH  60  77
ATOM     77  C   UNL     1      18.152  10.923  -3.967  1.00  0.00     0.057 A 
ATOM     78  C   UNL     1      18.400  10.725  -5.331  1.00  0.00     0.134 A 
ATOM     79  C   UNL     1      18.707  12.058  -3.364  1.00  0.00     0.134 A 
ATOM     80  F   UNL     1      17.911   9.646  -5.961  1.00  0.00    -0.206 F 
ATOM     81  C   UNL     1      19.191  11.612  -6.063  1.00  0.00     0.040 A 
ATOM     82  C   UNL     1      19.480  12.964  -4.090  1.00  0.00     0.040 A 
ATOM     83  F   UNL     1      18.503  12.306  -2.061  1.00  0.00    -0.206 F 
ATOM     84  C   UNL     1      19.728  12.739  -5.443  1.00  0.00     0.006 A 
ENDBRANCH  60  77
ENDBRANCH  34  35
ENDBRANCH  26  29
ENDBRANCH  24  25
ENDBRANCH  23  24
ENDBRANCH   1  23
TORSDOF 14
