REMARK SMILES CC(C)(C)OC(=O)N1CC[N@H+](Cc2ccc(Cl)nc2)[C@H](C(=O)NCCCNC(=O)c2ccc(-c3c4nc(c(-c5c(F)cccc5F)c5ccc([nH]5)c(-c5c(F)cccc5F)c5nc(c(-c6c(F)cccc6F)c6ccc3[nH]6)C=C5)C=C4)cc2)C1
REMARK SMILES IDX 24 1 23 2 21 3 22 4 20 6 8 7 9 8 84 9 10 10 11 11 6 13 7 14
REMARK SMILES IDX 5 15 2 16 1 17 3 18 4 19 12 20 13 21 14 22 19 23 15 24 18 25
REMARK SMILES IDX 16 26 17 27 25 28 26 29 27 30 28 31 29 33 30 34 31 35 83 36
REMARK SMILES IDX 32 37 82 38 33 39 34 40 35 41 76 42 36 43 81 44 75 45 77 46
REMARK SMILES IDX 37 47 80 48 74 49 73 50 38 52 64 53 47 54 63 55 48 56 51 57
REMARK SMILES IDX 62 58 78 59 49 60 50 61 61 63 79 64 52 65 39 66 40 67 45 68
REMARK SMILES IDX 41 69 42 70 44 71 46 72 43 73 65 74 66 75 71 76 67 77 68 78
REMARK SMILES IDX 70 79 72 80 69 81 53 82 54 83 59 84 55 85 56 86 58 87 60 88
REMARK SMILES IDX 57 89
REMARK H PARENT 23 5 11 12 27 32 77 51 51 62
REMARK Flexibility Score: inf
ROOT
ATOM      1  C   UNL     1       5.096  -6.622   3.708  1.00  0.00     0.118 C 
ENDROOT
BRANCH   1   2
ATOM      2  N   UNL     1       4.752  -6.715   2.322  1.00  0.00    -0.351 N 
ATOM      3  C   UNL     1       3.708  -6.196   1.636  1.00  0.00     0.280 C 
ATOM      4  O   UNL     1       3.894  -6.144   0.409  1.00  0.00    -0.268 OA
ATOM      5  H   UNL     1       5.378  -7.244   1.777  1.00  0.00     0.163 HD
BRANCH   3   6
ATOM      6  C   UNL     1       2.372  -5.657   2.202  1.00  0.00     0.294 C 
ATOM      7  N   UNL     1       0.808  -3.712   2.487  1.00  0.00    -0.296 N 
ATOM      8  C   UNL     1      -0.180  -4.655   3.013  1.00  0.00     0.184 C 
ATOM      9  C   UNL     1       2.194  -4.133   2.185  1.00  0.00     0.198 C 
ATOM     10  C   UNL     1       0.203  -6.140   3.015  1.00  0.00     0.285 C 
ATOM     11  N   UNL     1       1.638  -6.396   3.278  1.00  0.00    -0.318 N 
ATOM     12  H   UNL     1       1.991  -7.348   3.181  1.00  0.00     0.349 HD
BRANCH   7  13
ATOM     13  C   UNL     1       0.428  -2.383   2.515  1.00  0.00     0.410 C 
ATOM     14  O   UNL     1      -0.482  -1.980   3.227  1.00  0.00    -0.224 OA
BRANCH  13  15
ATOM     15  O   UNL     1       1.084  -1.633   1.594  1.00  0.00    -0.444 OA
BRANCH  15  16
ATOM     16  C   UNL     1       0.603  -0.290   1.311  1.00  0.00     0.106 C 
ATOM     17  C   UNL     1       1.257   0.102  -0.022  1.00  0.00     0.056 C 
ATOM     18  C   UNL     1       1.075   0.663   2.410  1.00  0.00     0.056 C 
ATOM     19  C   UNL     1      -0.923  -0.215   1.109  1.00  0.00     0.056 C 
ENDBRANCH  15  16
ENDBRANCH  13  15
ENDBRANCH   7  13
BRANCH  11  20
ATOM     20  C   UNL     1       1.923  -6.239   4.719  1.00  0.00     0.301 C 
BRANCH  20  21
ATOM     21  C   UNL     1       1.968  -4.900   5.428  1.00  0.00     0.025 A 
ATOM     22  C   UNL     1       0.870  -4.441   6.166  1.00  0.00     0.014 A 
ATOM     23  C   UNL     1       3.104  -4.093   5.489  1.00  0.00     0.122 A 
ATOM     24  C   UNL     1       0.914  -3.204   6.813  1.00  0.00     0.041 A 
ATOM     25  N   UNL     1       3.190  -2.897   6.114  1.00  0.00    -0.244 NA
ATOM     26  C   UNL     1       2.083  -2.474   6.742  1.00  0.00     0.129 A 
ATOM     27  Cl  UNL     1       2.228  -0.935   7.476  1.00  0.00    -0.062 Cl
ENDBRANCH  20  21
ENDBRANCH  11  20
ENDBRANCH   3   6
ENDBRANCH   1   2
BRANCH   1  28
ATOM     28  C   UNL     1       5.021  -7.946   4.448  1.00  0.00     0.042 C 
BRANCH  28  29
ATOM     29  C   UNL     1       6.386  -8.438   4.882  1.00  0.00     0.118 C 
BRANCH  29  30
ATOM     30  N   UNL     1       6.984  -7.577   5.903  1.00  0.00    -0.352 N 
ATOM     31  C   UNL     1       7.470  -7.888   7.151  1.00  0.00     0.251 C 
ATOM     32  H   UNL     1       7.049  -6.626   5.658  1.00  0.00     0.163 HD
ATOM     33  O   UNL     1       7.787  -6.989   7.924  1.00  0.00    -0.269 OA
BRANCH  31  34
ATOM     34  C   UNL     1       7.575  -9.300   7.573  1.00  0.00     0.039 A 
ATOM     35  C   UNL     1       7.270  -9.646   8.892  1.00  0.00     0.014 A 
ATOM     36  C   UNL     1       7.948 -10.287   6.661  1.00  0.00     0.014 A 
ATOM     37  C   UNL     1       7.257 -10.991   9.266  1.00  0.00     0.010 A 
ATOM     38  C   UNL     1       7.802 -11.623   6.995  1.00  0.00     0.010 A 
ATOM     39  C   UNL     1       7.474 -11.992   8.305  1.00  0.00    -0.014 A 
BRANCH  39  40
ATOM     40  C   UNL     1       7.397 -13.435   8.639  1.00  0.00     0.031 A 
ATOM     41  C   UNL     1       8.597 -14.315   8.409  1.00  0.00     0.074 A 
ATOM     42  C   UNL     1       6.230 -13.965   9.053  1.00  0.00     0.049 A 
ATOM     43  N   UNL     1       8.703 -15.614   8.513  1.00  0.00    -0.248 NA
ATOM     44  C   UNL     1       9.831 -13.649   7.956  1.00  0.00     0.031 C 
ATOM     45  C   UNL     1       4.981 -13.225   9.250  1.00  0.00     0.029 A 
ATOM     46  N   UNL     1       5.900 -15.258   9.370  1.00  0.00    -0.354 N 
ATOM     47  C   UNL     1       9.998 -15.918   8.112  1.00  0.00     0.074 A 
ATOM     48  C   UNL     1      10.617 -14.681   7.696  1.00  0.00     0.031 C 
ATOM     49  C   UNL     1       4.032 -14.069   9.685  1.00  0.00     0.029 A 
ATOM     50  C   UNL     1       4.590 -15.415   9.754  1.00  0.00     0.049 A 
ATOM     51  H   UNL     1       6.541 -16.004   9.325  1.00  0.00     0.167 HD
ATOM     52  C   UNL     1      10.627 -17.116   8.121  1.00  0.00     0.037 A 
ATOM     53  C   UNL     1       3.916 -16.522  10.117  1.00  0.00     0.037 A 
ATOM     54  C   UNL     1      10.017 -18.334   8.580  1.00  0.00     0.049 A 
ATOM     55  C   UNL     1       4.642 -17.839  10.138  1.00  0.00     0.074 A 
ATOM     56  C   UNL     1      10.583 -19.591   8.700  1.00  0.00     0.029 A 
ATOM     57  N   UNL     1       8.700 -18.444   9.003  1.00  0.00    -0.354 N 
ATOM     58  N   UNL     1       5.888 -18.102   9.822  1.00  0.00    -0.248 NA
ATOM     59  C   UNL     1       3.873 -19.012  10.574  1.00  0.00     0.031 C 
ATOM     60  C   UNL     1       9.596 -20.470   9.156  1.00  0.00     0.029 A 
ATOM     61  C   UNL     1       8.430 -19.751   9.369  1.00  0.00     0.049 A 
ATOM     62  H   UNL     1       8.054 -17.701   9.038  1.00  0.00     0.167 HD
ATOM     63  C   UNL     1       6.060 -19.460  10.051  1.00  0.00     0.074 A 
ATOM     64  C   UNL     1       4.795 -19.964  10.544  1.00  0.00     0.031 C 
ATOM     65  C   UNL     1       7.166 -20.224   9.871  1.00  0.00     0.037 A 
BRANCH  52  66
ATOM     66  C   UNL     1      12.046 -17.160   7.633  1.00  0.00     0.057 A 
ATOM     67  C   UNL     1      13.093 -16.556   8.345  1.00  0.00     0.134 A 
ATOM     68  C   UNL     1      12.377 -17.831   6.450  1.00  0.00     0.134 A 
ATOM     69  F   UNL     1      12.844 -15.882   9.479  1.00  0.00    -0.206 F 
ATOM     70  C   UNL     1      14.409 -16.593   7.883  1.00  0.00     0.040 A 
ATOM     71  C   UNL     1      13.694 -17.902   5.993  1.00  0.00     0.040 A 
ATOM     72  F   UNL     1      11.427 -18.434   5.720  1.00  0.00    -0.206 F 
ATOM     73  C   UNL     1      14.714 -17.275   6.707  1.00  0.00     0.006 A 
ENDBRANCH  52  66
BRANCH  53  74
ATOM     74  C   UNL     1       2.490 -16.430  10.520  1.00  0.00     0.057 A 
ATOM     75  C   UNL     1       2.103 -16.632  11.850  1.00  0.00     0.134 A 
ATOM     76  C   UNL     1       1.481 -16.143   9.593  1.00  0.00     0.134 A 
ATOM     77  F   UNL     1       3.021 -16.925  12.782  1.00  0.00    -0.206 F 
ATOM     78  C   UNL     1       0.764 -16.574  12.241  1.00  0.00     0.040 A 
ATOM     79  C   UNL     1       0.140 -16.056   9.974  1.00  0.00     0.040 A 
ATOM     80  F   UNL     1       1.785 -15.927   8.305  1.00  0.00    -0.206 F 
ATOM     81  C   UNL     1      -0.222 -16.281  11.301  1.00  0.00     0.006 A 
ENDBRANCH  53  74
BRANCH  65  82
ATOM     82  C   UNL     1       7.069 -21.671  10.252  1.00  0.00     0.057 A 
ATOM     83  C   UNL     1       6.340 -22.591   9.488  1.00  0.00     0.134 A 
ATOM     84  C   UNL     1       7.756 -22.157  11.372  1.00  0.00     0.134 A 
ATOM     85  F   UNL     1       5.651 -22.186   8.411  1.00  0.00    -0.206 F 
ATOM     86  C   UNL     1       6.280 -23.941   9.838  1.00  0.00     0.040 A 
ATOM     87  C   UNL     1       7.727 -23.508  11.715  1.00  0.00     0.040 A 
ATOM     88  F   UNL     1       8.481 -21.328  12.139  1.00  0.00    -0.206 F 
ATOM     89  C   UNL     1       6.982 -24.403  10.950  1.00  0.00     0.006 A 
ENDBRANCH  65  82
ENDBRANCH  39  40
ENDBRANCH  31  34
ENDBRANCH  29  30
ENDBRANCH  28  29
ENDBRANCH   1  28
TORSDOF 15
