REMARK SMILES Nc1cc(C(=O)NCCCNC(=O)c2ccc(-c3c4nc(c(-c5c(F)cccc5F)c5ccc([nH]5)c(-c5c(F)cccc5F)c5nc(c(-c6c(F)cccc6F)c6ccc3[nH]6)C=C5)C=C4)cc2)nc2ccc(F)cc12
REMARK SMILES IDX 9 1 8 2 7 3 5 4 6 5 4 7 2 8 3 9 75 10 69 11 74 12 68 13
REMARK SMILES IDX 70 14 72 15 71 16 73 17 1 18 10 21 11 22 12 23 13 25 14 26
REMARK SMILES IDX 15 27 67 28 16 29 66 30 17 31 18 32 19 33 60 34 20 35 65 36
REMARK SMILES IDX 59 37 61 38 21 39 64 40 58 41 57 42 22 44 48 45 31 46 47 47
REMARK SMILES IDX 32 48 35 49 46 50 62 51 33 52 34 53 45 55 63 56 36 57 23 58
REMARK SMILES IDX 24 59 29 60 25 61 26 62 28 63 30 64 27 65 49 66 50 67 55 68
REMARK SMILES IDX 51 69 52 70 54 71 56 72 53 73 37 74 38 75 43 76 39 77 40 78
REMARK SMILES IDX 42 79 44 80 41 81
REMARK H PARENT 7 6 1 19 1 20 11 24 61 43 35 54
REMARK Flexibility Score: inf
ROOT
ATOM      1  C   UNL     1       2.878  -1.504  -4.006  1.00  0.00     0.042 C 
ENDROOT
BRANCH   1   2
ATOM      2  C   UNL     1       2.814   0.008  -4.215  1.00  0.00     0.118 C 
BRANCH   2   3
ATOM      3  N   UNL     1       1.633   0.379  -4.968  1.00  0.00    -0.351 N 
ATOM      4  C   UNL     1       0.370   0.790  -4.603  1.00  0.00     0.269 C 
ATOM      5  O   UNL     1      -0.392   1.053  -5.537  1.00  0.00    -0.268 OA
ATOM      6  H   UNL     1       1.760   0.326  -5.943  1.00  0.00     0.163 HD
BRANCH   4   7
ATOM      7  C   UNL     1      -0.103   0.949  -3.179  1.00  0.00     0.130 A 
ATOM      8  C   UNL     1       0.000   0.610  -0.799  1.00  0.00     0.043 A 
ATOM      9  C   UNL     1       0.499   0.364  -2.080  1.00  0.00     0.060 A 
ATOM     10  C   UNL     1      -1.161   1.399  -0.659  1.00  0.00     0.026 A 
ATOM     11  C   UNL     1      -1.747   1.905  -1.841  1.00  0.00     0.073 A 
ATOM     12  C   UNL     1      -1.764   1.702   0.583  1.00  0.00     0.051 A 
ATOM     13  N   UNL     1      -1.223   1.704  -3.054  1.00  0.00    -0.242 NA
ATOM     14  C   UNL     1      -2.923   2.641  -1.752  1.00  0.00     0.032 A 
ATOM     15  C   UNL     1      -2.935   2.445   0.635  1.00  0.00     0.124 A 
ATOM     16  C   UNL     1      -3.530   2.909  -0.524  1.00  0.00     0.041 A 
ATOM     17  F   UNL     1      -3.497   2.707   1.822  1.00  0.00    -0.207 F 
BRANCH   8  18
ATOM     18  N   UNL     1       0.651   0.021   0.281  1.00  0.00    -0.398 N 
ATOM     19  H   UNL     1       1.459  -0.522   0.132  1.00  0.00     0.156 HD
ATOM     20  H   UNL     1       0.304   0.148   1.193  1.00  0.00     0.156 HD
ENDBRANCH   8  18
ENDBRANCH   4   7
ENDBRANCH   2   3
ENDBRANCH   1   2
BRANCH   1  21
ATOM     21  C   UNL     1       3.367  -2.253  -5.241  1.00  0.00     0.118 C 
BRANCH  21  22
ATOM     22  N   UNL     1       4.778  -2.000  -5.512  1.00  0.00    -0.352 N 
ATOM     23  C   UNL     1       5.841  -2.868  -5.578  1.00  0.00     0.251 C 
ATOM     24  H   UNL     1       5.004  -1.055  -5.673  1.00  0.00     0.163 HD
ATOM     25  O   UNL     1       6.984  -2.429  -5.594  1.00  0.00    -0.269 OA
BRANCH  23  26
ATOM     26  C   UNL     1       5.608  -4.328  -5.605  1.00  0.00     0.039 A 
ATOM     27  C   UNL     1       4.564  -4.870  -6.354  1.00  0.00     0.014 A 
ATOM     28  C   UNL     1       6.456  -5.168  -4.876  1.00  0.00     0.014 A 
ATOM     29  C   UNL     1       4.253  -6.218  -6.228  1.00  0.00     0.010 A 
ATOM     30  C   UNL     1       6.200  -6.541  -4.830  1.00  0.00     0.010 A 
ATOM     31  C   UNL     1       5.064  -7.069  -5.462  1.00  0.00    -0.014 A 
BRANCH  31  32
ATOM     32  C   UNL     1       4.686  -8.499  -5.318  1.00  0.00     0.031 A 
ATOM     33  C   UNL     1       4.323  -9.062  -3.970  1.00  0.00     0.074 A 
ATOM     34  C   UNL     1       4.612  -9.276  -6.415  1.00  0.00     0.049 A 
ATOM     35  N   UNL     1       3.951 -10.277  -3.653  1.00  0.00    -0.248 NA
ATOM     36  C   UNL     1       4.392  -8.142  -2.824  1.00  0.00     0.031 C 
ATOM     37  C   UNL     1       4.921  -8.842  -7.779  1.00  0.00     0.029 A 
ATOM     38  N   UNL     1       4.228 -10.584  -6.562  1.00  0.00    -0.354 N 
ATOM     39  C   UNL     1       3.759 -10.271  -2.277  1.00  0.00     0.074 A 
ATOM     40  C   UNL     1       4.095  -8.943  -1.812  1.00  0.00     0.031 C 
ATOM     41  C   UNL     1       4.664  -9.847  -8.629  1.00  0.00     0.029 A 
ATOM     42  C   UNL     1       4.240 -11.015  -7.866  1.00  0.00     0.049 A 
ATOM     43  H   UNL     1       3.969 -11.159  -5.806  1.00  0.00     0.167 HD
ATOM     44  C   UNL     1       3.329 -11.276  -1.474  1.00  0.00     0.037 A 
ATOM     45  C   UNL     1       3.961 -12.223  -8.387  1.00  0.00     0.037 A 
ATOM     46  C   UNL     1       2.989 -12.595  -1.942  1.00  0.00     0.049 A 
ATOM     47  C   UNL     1       3.559 -13.339  -7.466  1.00  0.00     0.074 A 
ATOM     48  C   UNL     1       2.525 -13.678  -1.215  1.00  0.00     0.029 A 
ATOM     49  N   UNL     1       3.084 -13.014  -3.262  1.00  0.00    -0.354 N 
ATOM     50  N   UNL     1       3.365 -13.314  -6.170  1.00  0.00    -0.248 NA
ATOM     51  C   UNL     1       3.350 -14.656  -8.082  1.00  0.00     0.031 C 
ATOM     52  C   UNL     1       2.392 -14.766  -2.085  1.00  0.00     0.029 A 
ATOM     53  C   UNL     1       2.719 -14.347  -3.365  1.00  0.00     0.049 A 
ATOM     54  H   UNL     1       3.369 -12.447  -4.015  1.00  0.00     0.167 HD
ATOM     55  C   UNL     1       2.993 -14.604  -5.817  1.00  0.00     0.074 A 
ATOM     56  C   UNL     1       2.965 -15.379  -7.041  1.00  0.00     0.031 C 
ATOM     57  C   UNL     1       2.704 -15.105  -4.590  1.00  0.00     0.037 A 
BRANCH  44  58
ATOM     58  C   UNL     1       3.235 -10.989  -0.002  1.00  0.00     0.057 A 
ATOM     59  C   UNL     1       4.117 -11.596   0.901  1.00  0.00     0.134 A 
ATOM     60  C   UNL     1       2.273 -10.117   0.528  1.00  0.00     0.134 A 
ATOM     61  F   UNL     1       5.059 -12.447   0.466  1.00  0.00    -0.206 F 
ATOM     62  C   UNL     1       4.052 -11.342   2.272  1.00  0.00     0.040 A 
ATOM     63  C   UNL     1       2.216  -9.833   1.894  1.00  0.00     0.040 A 
ATOM     64  F   UNL     1       1.405  -9.490  -0.281  1.00  0.00    -0.206 F 
ATOM     65  C   UNL     1       3.106 -10.449   2.771  1.00  0.00     0.006 A 
ENDBRANCH  44  58
BRANCH  45  66
ATOM     66  C   UNL     1       4.069 -12.448  -9.851  1.00  0.00     0.057 A 
ATOM     67  C   UNL     1       5.307 -12.417 -10.505  1.00  0.00     0.134 A 
ATOM     68  C   UNL     1       2.937 -12.719 -10.627  1.00  0.00     0.134 A 
ATOM     69  F   UNL     1       6.430 -12.158  -9.819  1.00  0.00    -0.206 F 
ATOM     70  C   UNL     1       5.415 -12.638 -11.878  1.00  0.00     0.040 A 
ATOM     71  C   UNL     1       3.034 -12.972 -11.997  1.00  0.00     0.040 A 
ATOM     72  F   UNL     1       1.726 -12.781 -10.056  1.00  0.00    -0.206 F 
ATOM     73  C   UNL     1       4.276 -12.926 -12.626  1.00  0.00     0.006 A 
ENDBRANCH  45  66
BRANCH  57  74
ATOM     74  C   UNL     1       2.311 -16.553  -4.525  1.00  0.00     0.057 A 
ATOM     75  C   UNL     1       0.992 -16.922  -4.234  1.00  0.00     0.134 A 
ATOM     76  C   UNL     1       3.237 -17.582  -4.745  1.00  0.00     0.134 A 
ATOM     77  F   UNL     1       0.057 -15.987  -4.006  1.00  0.00    -0.206 F 
ATOM     78  C   UNL     1       0.607 -18.261  -4.165  1.00  0.00     0.040 A 
ATOM     79  C   UNL     1       2.857 -18.924  -4.709  1.00  0.00     0.040 A 
ATOM     80  F   UNL     1       4.513 -17.296  -5.045  1.00  0.00    -0.206 F 
ATOM     81  C   UNL     1       1.539 -19.267  -4.412  1.00  0.00     0.006 A 
ENDBRANCH  57  74
ENDBRANCH  31  32
ENDBRANCH  23  26
ENDBRANCH  21  22
ENDBRANCH   1  21
TORSDOF 11
