REMARK SMILES Cc1ccccc1[C@H](C(=O)NC[C@H]1CC[C@@H](C(=O)NCCCNC(=O)c2ccc(-c3c4nc(c(-c5c(F)cccc5F)c5ccc([nH]5)c(-c5c(F)cccc5F)c5nc(c(-c6c(F)cccc6F)c6ccc3[nH]6)C=C5)C=C4)cc2)CC1)[NH+](C)C
REMARK SMILES IDX 20 1 19 2 17 3 18 4 16 6 13 7 14 8 81 9 15 10 80 11 12 12
REMARK SMILES IDX 11 13 9 14 10 15 8 17 7 18 1 19 2 20 3 21 4 22 6 23 5 24
REMARK SMILES IDX 82 25 83 26 84 27 21 29 22 30 23 31 24 32 25 34 26 35 27 36
REMARK SMILES IDX 79 37 28 38 78 39 29 40 30 41 31 42 72 43 32 44 77 45 71 46
REMARK SMILES IDX 73 47 33 48 76 49 70 50 69 51 34 53 60 54 43 55 59 56 44 57
REMARK SMILES IDX 47 58 58 59 74 60 45 61 46 62 57 64 75 65 48 66 35 67 36 68
REMARK SMILES IDX 41 69 37 70 38 71 40 72 42 73 39 74 61 75 62 76 67 77 63 78
REMARK SMILES IDX 64 79 66 80 68 81 65 82 49 83 50 84 55 85 51 86 52 87 54 88
REMARK SMILES IDX 56 89 53 90
REMARK H PARENT 19 5 11 16 82 28 23 33 73 52 47 63
REMARK Flexibility Score: inf
ROOT
ATOM      1  C   UNL     1       2.252   1.468  -4.277  1.00  0.00     0.117 C 
ENDROOT
BRANCH   1   2
ATOM      2  N   UNL     1       1.913   1.233  -5.663  1.00  0.00    -0.356 N 
ATOM      3  C   UNL     1       0.917   1.837  -6.391  1.00  0.00     0.223 C 
ATOM      4  O   UNL     1       1.259   2.197  -7.528  1.00  0.00    -0.275 OA
ATOM      5  H   UNL     1       2.457   0.565  -6.139  1.00  0.00     0.163 HD
BRANCH   3   6
ATOM      6  C   UNL     1      -0.571   2.098  -5.953  1.00  0.00     0.078 C 
ATOM      7  C   UNL     1      -2.399   2.774  -3.507  1.00  0.00     0.008 C 
ATOM      8  C   UNL     1      -1.917   3.878  -4.481  1.00  0.00     0.006 C 
ATOM      9  C   UNL     1      -1.634   1.462  -3.697  1.00  0.00     0.006 C 
ATOM     10  C   UNL     1      -0.909   3.556  -5.609  1.00  0.00     0.014 C 
ATOM     11  C   UNL     1      -1.335   1.058  -5.139  1.00  0.00     0.014 C 
BRANCH   7  12
ATOM     12  C   UNL     1      -2.538   3.369  -2.033  1.00  0.00     0.119 C 
BRANCH  12  13
ATOM     13  N   UNL     1      -2.534   2.457  -0.880  1.00  0.00    -0.350 N 
ATOM     14  C   UNL     1      -1.903   2.454   0.352  1.00  0.00     0.283 C 
ATOM     15  O   UNL     1      -2.350   1.606   1.145  1.00  0.00    -0.268 OA
ATOM     16  H   UNL     1      -3.111   1.671  -1.015  1.00  0.00     0.163 HD
BRANCH  14  17
ATOM     17  C   UNL     1      -0.627   3.321   0.784  1.00  0.00     0.305 C 
BRANCH  17  18
ATOM     18  C   UNL     1       0.091   3.999  -0.368  1.00  0.00     0.022 A 
ATOM     19  C   UNL     1       0.480   1.654  -1.238  1.00  0.00     0.045 C 
ATOM     20  C   UNL     1       0.502   3.168  -1.422  1.00  0.00    -0.041 A 
ATOM     21  C   UNL     1       0.894   3.805  -2.607  1.00  0.00     0.004 A 
ATOM     22  C   UNL     1       1.154   5.168  -2.694  1.00  0.00     0.000 A 
ATOM     23  C   UNL     1       0.348   5.384  -0.458  1.00  0.00     0.011 A 
ATOM     24  C   UNL     1       0.933   5.956  -1.588  1.00  0.00     0.001 A 
ENDBRANCH  17  18
BRANCH  17  25
ATOM     25  N   UNL     1      -0.838   4.054   2.053  1.00  0.00    -0.326 N 
ATOM     26  C   UNL     1       0.346   4.683   2.627  1.00  0.00     0.333 C 
ATOM     27  C   UNL     1      -2.040   4.850   2.118  1.00  0.00     0.333 C 
ATOM     28  H   UNL     1      -1.027   3.292   2.705  1.00  0.00     0.348 HD
ENDBRANCH  17  25
ENDBRANCH  14  17
ENDBRANCH  12  13
ENDBRANCH   7  12
ENDBRANCH   3   6
ENDBRANCH   1   2
BRANCH   1  29
ATOM     29  C   UNL     1       3.164   0.485  -3.537  1.00  0.00     0.042 C 
BRANCH  29  30
ATOM     30  C   UNL     1       3.997   1.067  -2.343  1.00  0.00     0.118 C 
BRANCH  30  31
ATOM     31  N   UNL     1       3.373   2.043  -1.442  1.00  0.00    -0.352 N 
ATOM     32  C   UNL     1       3.283   2.250  -0.053  1.00  0.00     0.251 C 
ATOM     33  H   UNL     1       2.888   2.739  -1.943  1.00  0.00     0.163 HD
ATOM     34  O   UNL     1       2.924   3.342   0.355  1.00  0.00    -0.269 OA
BRANCH  32  35
ATOM     35  C   UNL     1       3.733   1.274   0.956  1.00  0.00     0.039 A 
ATOM     36  C   UNL     1       4.672   1.851   1.829  1.00  0.00     0.014 A 
ATOM     37  C   UNL     1       3.825  -0.058   0.599  1.00  0.00     0.014 A 
ATOM     38  C   UNL     1       5.963   1.376   1.752  1.00  0.00     0.010 A 
ATOM     39  C   UNL     1       5.106  -0.556   0.536  1.00  0.00     0.010 A 
ATOM     40  C   UNL     1       6.168   0.283   0.922  1.00  0.00    -0.014 A 
BRANCH  40  41
ATOM     41  C   UNL     1       7.355   0.174   0.084  1.00  0.00     0.031 A 
ATOM     42  C   UNL     1       8.231  -0.992   0.237  1.00  0.00     0.074 A 
ATOM     43  C   UNL     1       7.540   1.054  -0.932  1.00  0.00     0.049 A 
ATOM     44  N   UNL     1       9.378  -1.103  -0.332  1.00  0.00    -0.248 NA
ATOM     45  C   UNL     1       7.917  -2.104   1.128  1.00  0.00     0.031 C 
ATOM     46  C   UNL     1       8.371   0.878  -2.121  1.00  0.00     0.029 A 
ATOM     47  N   UNL     1       7.124   2.381  -1.022  1.00  0.00    -0.354 N 
ATOM     48  C   UNL     1       9.811  -2.389  -0.139  1.00  0.00     0.074 A 
ATOM     49  C   UNL     1       8.946  -2.919   0.881  1.00  0.00     0.031 C 
ATOM     50  C   UNL     1       8.586   2.072  -2.696  1.00  0.00     0.029 A 
ATOM     51  C   UNL     1       8.039   3.088  -1.817  1.00  0.00     0.049 A 
ATOM     52  H   UNL     1       6.321   2.759  -0.598  1.00  0.00     0.167 HD
ATOM     53  C   UNL     1      10.767  -2.870  -0.978  1.00  0.00     0.037 A 
ATOM     54  C   UNL     1       8.774   4.115  -1.293  1.00  0.00     0.037 A 
ATOM     55  C   UNL     1      11.423  -1.763  -1.686  1.00  0.00     0.049 A 
ATOM     56  C   UNL     1      10.259   3.820  -1.180  1.00  0.00     0.074 A 
ATOM     57  C   UNL     1      11.370  -1.278  -2.982  1.00  0.00     0.029 A 
ATOM     58  N   UNL     1      12.064  -0.781  -0.931  1.00  0.00    -0.354 N 
ATOM     59  N   UNL     1      10.789   2.644  -1.387  1.00  0.00    -0.248 NA
ATOM     60  C   UNL     1      11.262   4.811  -0.792  1.00  0.00     0.031 C 
ATOM     61  C   UNL     1      11.880   0.053  -2.970  1.00  0.00     0.029 A 
ATOM     62  C   UNL     1      12.286   0.358  -1.681  1.00  0.00     0.049 A 
ATOM     63  H   UNL     1      12.325  -0.885   0.013  1.00  0.00     0.167 HD
ATOM     64  C   UNL     1      12.123   2.673  -1.080  1.00  0.00     0.074 A 
ATOM     65  C   UNL     1      12.382   4.066  -0.764  1.00  0.00     0.031 C 
ATOM     66  C   UNL     1      12.887   1.540  -1.064  1.00  0.00     0.037 A 
BRANCH  53  67
ATOM     67  C   UNL     1      10.978  -4.336  -1.301  1.00  0.00     0.057 A 
ATOM     68  C   UNL     1      11.931  -4.715  -2.268  1.00  0.00     0.134 A 
ATOM     69  C   UNL     1      10.209  -5.414  -0.810  1.00  0.00     0.134 A 
ATOM     70  F   UNL     1      12.733  -3.813  -2.850  1.00  0.00    -0.206 F 
ATOM     71  C   UNL     1      12.091  -6.038  -2.711  1.00  0.00     0.040 A 
ATOM     72  C   UNL     1      10.388  -6.745  -1.214  1.00  0.00     0.040 A 
ATOM     73  F   UNL     1       9.199  -5.256   0.047  1.00  0.00    -0.206 F 
ATOM     74  C   UNL     1      11.324  -7.062  -2.179  1.00  0.00     0.006 A 
ENDBRANCH  53  67
BRANCH  54  75
ATOM     75  C   UNL     1       7.987   4.965  -0.362  1.00  0.00     0.057 A 
ATOM     76  C   UNL     1       6.997   5.796  -0.915  1.00  0.00     0.134 A 
ATOM     77  C   UNL     1       7.877   4.659   0.998  1.00  0.00     0.134 A 
ATOM     78  F   UNL     1       7.051   6.136  -2.213  1.00  0.00    -0.206 F 
ATOM     79  C   UNL     1       5.875   6.192  -0.184  1.00  0.00     0.040 A 
ATOM     80  C   UNL     1       6.758   5.053   1.741  1.00  0.00     0.040 A 
ATOM     81  F   UNL     1       8.775   3.858   1.590  1.00  0.00    -0.206 F 
ATOM     82  C   UNL     1       5.734   5.784   1.139  1.00  0.00     0.006 A 
ENDBRANCH  54  75
BRANCH  66  83
ATOM     83  C   UNL     1      14.280   1.432  -0.486  1.00  0.00     0.057 A 
ATOM     84  C   UNL     1      14.760   2.208   0.580  1.00  0.00     0.134 A 
ATOM     85  C   UNL     1      15.143   0.394  -0.903  1.00  0.00     0.134 A 
ATOM     86  F   UNL     1      14.009   3.159   1.153  1.00  0.00    -0.206 F 
ATOM     87  C   UNL     1      16.023   2.001   1.154  1.00  0.00     0.040 A 
ATOM     88  C   UNL     1      16.378   0.141  -0.299  1.00  0.00     0.040 A 
ATOM     89  F   UNL     1      14.808  -0.438  -1.901  1.00  0.00    -0.206 F 
ATOM     90  C   UNL     1      16.831   0.956   0.726  1.00  0.00     0.006 A 
ENDBRANCH  66  83
ENDBRANCH  40  41
ENDBRANCH  32  35
ENDBRANCH  30  31
ENDBRANCH  29  30
ENDBRANCH   1  29
TORSDOF 15
