REMARK SMILES C[C@@H]1CC[C@@H](C(=O)NCCCNC(=O)c2ccc(-c3c4nc(c(-c5c(F)cccc5F)c5ccc([nH]5)c(-c5c(F)cccc5F)c5nc(c(-c6c(F)cccc6F)c6ccc3[nH]6)C=C5)C=C4)cc2)[C@H](SCC[NH+](C)C)C1
REMARK SMILES IDX 9 1 8 2 6 3 7 4 5 6 1 7 2 8 3 9 76 10 4 11 69 12 70 13 71 14
REMARK SMILES IDX 72 15 73 16 74 17 75 18 10 20 11 21 12 22 13 23 14 25 15 26
REMARK SMILES IDX 16 27 68 28 17 29 67 30 18 31 19 32 20 33 61 34 21 35 66 36
REMARK SMILES IDX 60 37 62 38 22 39 65 40 59 41 58 42 23 44 49 45 32 46 48 47
REMARK SMILES IDX 33 48 36 49 47 50 63 51 34 52 35 53 46 55 64 56 37 57 24 58
REMARK SMILES IDX 25 59 30 60 26 61 27 62 29 63 31 64 28 65 50 66 51 67 56 68
REMARK SMILES IDX 52 69 53 70 55 71 57 72 54 73 38 74 39 75 44 76 40 77 41 78
REMARK SMILES IDX 43 79 45 80 42 81
REMARK H PARENT 8 5 73 19 12 24 62 43 36 54
REMARK Flexibility Score: inf
ROOT
ATOM      1  C   UNL     1      -4.761   0.051  -1.510  1.00  0.00     0.117 C 
ENDROOT
BRANCH   1   2
ATOM      2  N   UNL     1      -3.650  -0.492  -2.253  1.00  0.00    -0.356 N 
ATOM      3  C   UNL     1      -2.344  -0.651  -1.947  1.00  0.00     0.224 C 
ATOM      4  O   UNL     1      -1.666  -1.202  -2.821  1.00  0.00    -0.275 OA
ATOM      5  H   UNL     1      -3.890  -0.807  -3.154  1.00  0.00     0.163 HD
BRANCH   3   6
ATOM      6  C   UNL     1      -1.708  -0.107  -0.646  1.00  0.00     0.091 C 
ATOM      7  C   UNL     1       2.211  -1.227   0.136  1.00  0.00     0.007 C 
ATOM      8  C   UNL     1       1.100  -1.220  -0.917  1.00  0.00    -0.013 C 
ATOM      9  C   UNL     1       0.772   0.187  -1.455  1.00  0.00     0.004 C 
ATOM     10  C   UNL     1      -0.079  -2.069  -0.446  1.00  0.00     0.018 C 
ATOM     11  C   UNL     1      -0.609   0.810  -1.200  1.00  0.00     0.015 C 
ATOM     12  C   UNL     1      -1.237  -1.307   0.217  1.00  0.00     0.059 C 
BRANCH  12  13
ATOM     13  S   UNL     1      -1.074  -1.527   2.092  1.00  0.00    -0.152 SA
BRANCH  13  14
ATOM     14  C   UNL     1      -0.824   0.019   3.062  1.00  0.00     0.131 C 
BRANCH  14  15
ATOM     15  C   UNL     1       0.640   0.436   3.436  1.00  0.00     0.272 C 
BRANCH  15  16
ATOM     16  N   UNL     1       1.240   1.602   2.751  1.00  0.00    -0.339 N 
ATOM     17  C   UNL     1       2.686   1.458   2.543  1.00  0.00     0.332 C 
ATOM     18  C   UNL     1       0.583   1.878   1.501  1.00  0.00     0.332 C 
ATOM     19  H   UNL     1       1.101   2.396   3.377  1.00  0.00     0.347 HD
ENDBRANCH  15  16
ENDBRANCH  14  15
ENDBRANCH  13  14
ENDBRANCH  12  13
ENDBRANCH   3   6
ENDBRANCH   1   2
BRANCH   1  20
ATOM     20  C   UNL     1      -5.160   1.449  -1.975  1.00  0.00     0.042 C 
BRANCH  20  21
ATOM     21  C   UNL     1      -5.381   1.611  -3.481  1.00  0.00     0.118 C 
BRANCH  21  22
ATOM     22  N   UNL     1      -6.333   0.661  -4.043  1.00  0.00    -0.352 N 
ATOM     23  C   UNL     1      -7.504   0.863  -4.727  1.00  0.00     0.251 C 
ATOM     24  H   UNL     1      -6.094  -0.284  -3.909  1.00  0.00     0.163 HD
ATOM     25  O   UNL     1      -8.219  -0.103  -4.998  1.00  0.00    -0.269 OA
BRANCH  23  26
ATOM     26  C   UNL     1      -7.938   2.220  -5.118  1.00  0.00     0.039 A 
ATOM     27  C   UNL     1      -9.284   2.565  -4.961  1.00  0.00     0.014 A 
ATOM     28  C   UNL     1      -7.043   3.143  -5.662  1.00  0.00     0.014 A 
ATOM     29  C   UNL     1      -9.714   3.855  -5.281  1.00  0.00     0.010 A 
ATOM     30  C   UNL     1      -7.455   4.453  -5.902  1.00  0.00     0.010 A 
ATOM     31  C   UNL     1      -8.795   4.824  -5.715  1.00  0.00    -0.014 A 
BRANCH  31  32
ATOM     32  C   UNL     1      -9.223   6.225  -5.967  1.00  0.00     0.031 A 
ATOM     33  C   UNL     1      -9.110   6.823  -7.343  1.00  0.00     0.074 A 
ATOM     34  C   UNL     1      -9.667   6.978  -4.941  1.00  0.00     0.049 A 
ATOM     35  N   UNL     1      -9.401   8.035  -7.745  1.00  0.00    -0.248 NA
ATOM     36  C   UNL     1      -8.575   5.954  -8.403  1.00  0.00     0.031 C 
ATOM     37  C   UNL     1      -9.775   6.534  -3.550  1.00  0.00     0.029 A 
ATOM     38  N   UNL     1     -10.107   8.278  -4.908  1.00  0.00    -0.354 N 
ATOM     39  C   UNL     1      -9.076   8.076  -9.095  1.00  0.00     0.074 A 
ATOM     40  C   UNL     1      -8.509   6.788  -9.430  1.00  0.00     0.031 C 
ATOM     41  C   UNL     1     -10.279   7.532  -2.807  1.00  0.00     0.029 A 
ATOM     42  C   UNL     1     -10.492   8.698  -3.657  1.00  0.00     0.049 A 
ATOM     43  H   UNL     1     -10.143   8.856  -5.704  1.00  0.00     0.167 HD
ATOM     44  C   UNL     1      -9.258   9.084  -9.981  1.00  0.00     0.037 A 
ATOM     45  C   UNL     1     -10.960   9.890  -3.240  1.00  0.00     0.037 A 
ATOM     46  C   UNL     1      -9.838  10.359  -9.647  1.00  0.00     0.049 A 
ATOM     47  C   UNL     1     -11.142  10.997  -4.241  1.00  0.00     0.074 A 
ATOM     48  C   UNL     1     -10.112  11.427 -10.484  1.00  0.00     0.029 A 
ATOM     49  N   UNL     1     -10.227  10.741  -8.372  1.00  0.00    -0.354 N 
ATOM     50  N   UNL     1     -10.899  10.996  -5.529  1.00  0.00    -0.248 NA
ATOM     51  C   UNL     1     -11.675  12.269  -3.732  1.00  0.00     0.031 C 
ATOM     52  C   UNL     1     -10.617  12.474  -9.706  1.00  0.00     0.029 A 
ATOM     53  C   UNL     1     -10.717  12.037  -8.395  1.00  0.00     0.049 A 
ATOM     54  H   UNL     1     -10.163  10.175  -7.569  1.00  0.00     0.167 HD
ATOM     55  C   UNL     1     -11.282  12.249  -5.991  1.00  0.00     0.074 A 
ATOM     56  C   UNL     1     -11.785  12.979  -4.846  1.00  0.00     0.031 C 
ATOM     57  C   UNL     1     -11.226  12.748  -7.250  1.00  0.00     0.037 A 
BRANCH  44  58
ATOM     58  C   UNL     1      -8.825   8.847 -11.401  1.00  0.00     0.057 A 
ATOM     59  C   UNL     1      -9.489   7.939 -12.236  1.00  0.00     0.134 A 
ATOM     60  C   UNL     1      -7.753   9.562 -11.952  1.00  0.00     0.134 A 
ATOM     61  F   UNL     1     -10.518   7.214 -11.771  1.00  0.00    -0.206 F 
ATOM     62  C   UNL     1      -9.085   7.727 -13.556  1.00  0.00     0.040 A 
ATOM     63  C   UNL     1      -7.360   9.382 -13.279  1.00  0.00     0.040 A 
ATOM     64  F   UNL     1      -7.076  10.454 -11.213  1.00  0.00    -0.206 F 
ATOM     65  C   UNL     1      -8.022   8.456 -14.083  1.00  0.00     0.006 A 
ENDBRANCH  44  58
BRANCH  45  66
ATOM     66  C   UNL     1     -11.316  10.093  -1.812  1.00  0.00     0.057 A 
ATOM     67  C   UNL     1     -12.647  10.268  -1.415  1.00  0.00     0.134 A 
ATOM     68  C   UNL     1     -10.337  10.129  -0.811  1.00  0.00     0.134 A 
ATOM     69  F   UNL     1     -13.629  10.261  -2.329  1.00  0.00    -0.206 F 
ATOM     70  C   UNL     1     -12.991  10.496  -0.082  1.00  0.00     0.040 A 
ATOM     71  C   UNL     1     -10.669  10.327   0.530  1.00  0.00     0.040 A 
ATOM     72  F   UNL     1      -9.044   9.958  -1.121  1.00  0.00    -0.206 F 
ATOM     73  C   UNL     1     -11.999  10.521   0.897  1.00  0.00     0.006 A 
ENDBRANCH  45  66
BRANCH  57  74
ATOM     74  C   UNL     1     -11.770  14.132  -7.468  1.00  0.00     0.057 A 
ATOM     75  C   UNL     1     -11.119  15.274  -6.986  1.00  0.00     0.134 A 
ATOM     76  C   UNL     1     -12.945  14.322  -8.207  1.00  0.00     0.134 A 
ATOM     77  F   UNL     1      -9.995  15.162  -6.261  1.00  0.00    -0.206 F 
ATOM     78  C   UNL     1     -11.633  16.553  -7.205  1.00  0.00     0.040 A 
ATOM     79  C   UNL     1     -13.451  15.597  -8.460  1.00  0.00     0.040 A 
ATOM     80  F   UNL     1     -13.614  13.272  -8.708  1.00  0.00    -0.206 F 
ATOM     81  C   UNL     1     -12.799  16.718  -7.952  1.00  0.00     0.006 A 
ENDBRANCH  57  74
ENDBRANCH  31  32
ENDBRANCH  23  26
ENDBRANCH  21  22
ENDBRANCH  20  21
ENDBRANCH   1  20
TORSDOF 14
