REMARK SMILES C[NH+]1CCC(NC(=O)N[C@H]2C=C[C@H](C(=O)NCCCNC(=O)c3ccc(-c4c5nc(c(-c6c(F)cccc6F)c6ccc([nH]6)c(-c6c(F)cccc6F)c6nc(c(-c7c(F)cccc7F)c7ccc4[nH]7)C=C6)C=C5)cc3)C2)CC1
REMARK SMILES IDX 18 1 17 2 16 3 14 4 15 5 13 7 10 8 11 9 77 10 12 11 9 12
REMARK SMILES IDX 6 13 7 14 8 16 5 18 1 19 2 20 3 21 79 22 4 24 78 25 19 26
REMARK SMILES IDX 20 27 21 28 22 30 23 31 24 32 76 33 25 34 75 35 26 36 27 37
REMARK SMILES IDX 28 38 69 39 29 40 74 41 68 42 70 43 30 44 73 45 67 46 66 47
REMARK SMILES IDX 31 49 57 50 40 51 56 52 41 53 44 54 55 55 71 56 42 57 43 58
REMARK SMILES IDX 54 60 72 61 45 62 32 63 33 64 38 65 34 66 35 67 37 68 39 69
REMARK SMILES IDX 36 70 58 71 59 72 64 73 60 74 61 75 63 76 65 77 62 78 46 79
REMARK SMILES IDX 47 80 52 81 48 82 49 83 51 84 53 85 50 86
REMARK H PARENT 16 6 6 15 9 17 2 23 20 29 70 48 44 59
REMARK Flexibility Score: inf
ROOT
ATOM      1  C   UNL     1      -2.659   2.261  -1.013  1.00  0.00     0.042 C 
ENDROOT
BRANCH   1   2
ATOM      2  C   UNL     1      -2.522   1.113  -2.014  1.00  0.00     0.117 C 
BRANCH   2   3
ATOM      3  N   UNL     1      -1.892   1.516  -3.263  1.00  0.00    -0.356 N 
ATOM      4  C   UNL     1      -0.596   1.324  -3.676  1.00  0.00     0.227 C 
ATOM      5  O   UNL     1      -0.293   1.621  -4.830  1.00  0.00    -0.274 OA
ATOM      6  H   UNL     1      -2.475   1.991  -3.898  1.00  0.00     0.163 HD
BRANCH   4   7
ATOM      7  C   UNL     1       0.402   0.735  -2.681  1.00  0.00     0.103 C 
ATOM      8  C   UNL     1       2.774   0.153  -2.974  1.00  0.00     0.107 C 
ATOM      9  C   UNL     1       1.912  -1.058  -2.986  1.00  0.00    -0.006 C 
ATOM     10  C   UNL     1       1.821   1.335  -2.772  1.00  0.00     0.047 C 
ATOM     11  C   UNL     1       0.615  -0.740  -2.893  1.00  0.00    -0.016 C 
BRANCH   8  12
ATOM     12  N   UNL     1       3.919   0.040  -2.083  1.00  0.00    -0.332 N 
ATOM     13  N   UNL     1       3.421  -0.069   0.244  1.00  0.00    -0.335 N 
ATOM     14  C   UNL     1       4.253  -0.023  -0.796  1.00  0.00     0.315 C 
ATOM     15  H   UNL     1       3.887  -0.026   1.110  1.00  0.00     0.165 HD
ATOM     16  O   UNL     1       5.462  -0.036  -0.540  1.00  0.00    -0.249 OA
ATOM     17  H   UNL     1       4.739  -0.006  -2.626  1.00  0.00     0.165 HD
BRANCH  13  18
ATOM     18  C   UNL     1       1.987  -0.167   0.381  1.00  0.00     0.095 C 
ATOM     19  C   UNL     1      -2.039  -0.613   1.644  1.00  0.00     0.332 C 
ATOM     20  N   UNL     1      -0.575  -0.551   1.710  1.00  0.00    -0.337 N 
ATOM     21  C   UNL     1      -0.095   0.793   1.372  1.00  0.00     0.264 C 
ATOM     22  C   UNL     1       0.009  -1.604   0.865  1.00  0.00     0.264 C 
ATOM     23  H   UNL     1      -0.268  -0.730   2.666  1.00  0.00     0.347 HD
ATOM     24  C   UNL     1       1.430   0.889   1.330  1.00  0.00     0.086 C 
ATOM     25  C   UNL     1       1.537  -1.549   0.842  1.00  0.00     0.086 C 
ENDBRANCH  13  18
ENDBRANCH   8  12
ENDBRANCH   4   7
ENDBRANCH   2   3
ENDBRANCH   1   2
BRANCH   1  26
ATOM     26  C   UNL     1      -4.029   2.932  -1.028  1.00  0.00     0.118 C 
BRANCH  26  27
ATOM     27  N   UNL     1      -5.092   2.048  -0.562  1.00  0.00    -0.352 N 
ATOM     28  C   UNL     1      -6.226   2.315   0.167  1.00  0.00     0.251 C 
ATOM     29  H   UNL     1      -4.979   1.103  -0.813  1.00  0.00     0.163 HD
ATOM     30  O   UNL     1      -6.934   1.374   0.521  1.00  0.00    -0.269 OA
BRANCH  28  31
ATOM     31  C   UNL     1      -6.586   3.695   0.569  1.00  0.00     0.039 A 
ATOM     32  C   UNL     1      -7.210   3.887   1.808  1.00  0.00     0.014 A 
ATOM     33  C   UNL     1      -6.344   4.795  -0.255  1.00  0.00     0.014 A 
ATOM     34  C   UNL     1      -7.523   5.178   2.246  1.00  0.00     0.010 A 
ATOM     35  C   UNL     1      -6.578   6.085   0.216  1.00  0.00     0.010 A 
ATOM     36  C   UNL     1      -7.170   6.291   1.470  1.00  0.00    -0.014 A 
BRANCH  36  37
ATOM     37  C   UNL     1      -7.409   7.679   1.942  1.00  0.00     0.031 A 
ATOM     38  C   UNL     1      -8.320   8.594   1.172  1.00  0.00     0.074 A 
ATOM     39  C   UNL     1      -6.735   8.144   3.012  1.00  0.00     0.049 A 
ATOM     40  N   UNL     1      -8.564   9.867   1.355  1.00  0.00    -0.248 NA
ATOM     41  C   UNL     1      -9.025   8.007   0.022  1.00  0.00     0.031 C 
ATOM     42  C   UNL     1      -5.786   7.374   3.817  1.00  0.00     0.029 A 
ATOM     43  N   UNL     1      -6.737   9.385   3.599  1.00  0.00    -0.354 N 
ATOM     44  C   UNL     1      -9.425  10.238   0.329  1.00  0.00     0.074 A 
ATOM     45  C   UNL     1      -9.620   9.069  -0.501  1.00  0.00     0.031 C 
ATOM     46  C   UNL     1      -5.318   8.150   4.807  1.00  0.00     0.029 A 
ATOM     47  C   UNL     1      -5.901   9.481   4.684  1.00  0.00     0.049 A 
ATOM     48  H   UNL     1      -7.285  10.135   3.272  1.00  0.00     0.167 HD
ATOM     49  C   UNL     1     -10.017  11.436   0.110  1.00  0.00     0.037 A 
ATOM     50  C   UNL     1      -5.631  10.527   5.487  1.00  0.00     0.037 A 
ATOM     51  C   UNL     1      -9.849  12.588   0.957  1.00  0.00     0.049 A 
ATOM     52  C   UNL     1      -6.307  11.845   5.232  1.00  0.00     0.074 A 
ATOM     53  C   UNL     1     -10.456  13.828   0.860  1.00  0.00     0.029 A 
ATOM     54  N   UNL     1      -9.014  12.637   2.063  1.00  0.00    -0.354 N 
ATOM     55  N   UNL     1      -7.162  12.166   4.291  1.00  0.00    -0.248 NA
ATOM     56  C   UNL     1      -5.984  12.944   6.152  1.00  0.00     0.031 C 
ATOM     57  C   UNL     1      -9.960  14.639   1.887  1.00  0.00     0.029 A 
ATOM     58  C   UNL     1      -9.076  13.891   2.648  1.00  0.00     0.049 A 
ATOM     59  H   UNL     1      -8.458  11.891   2.385  1.00  0.00     0.167 HD
ATOM     60  C   UNL     1      -7.498  13.493   4.521  1.00  0.00     0.074 A 
ATOM     61  C   UNL     1      -6.763  13.914   5.696  1.00  0.00     0.031 C 
ATOM     62  C   UNL     1      -8.342  14.291   3.821  1.00  0.00     0.037 A 
BRANCH  49  63
ATOM     63  C   UNL     1     -10.903  11.554  -1.097  1.00  0.00     0.057 A 
ATOM     64  C   UNL     1     -12.137  10.894  -1.175  1.00  0.00     0.134 A 
ATOM     65  C   UNL     1     -10.521  12.338  -2.193  1.00  0.00     0.134 A 
ATOM     66  F   UNL     1     -12.557  10.116  -0.166  1.00  0.00    -0.206 F 
ATOM     67  C   UNL     1     -12.941  10.979  -2.313  1.00  0.00     0.040 A 
ATOM     68  C   UNL     1     -11.330  12.454  -3.325  1.00  0.00     0.040 A 
ATOM     69  F   UNL     1      -9.356  13.002  -2.183  1.00  0.00    -0.206 F 
ATOM     70  C   UNL     1     -12.539  11.765  -3.391  1.00  0.00     0.006 A 
ENDBRANCH  49  63
BRANCH  50  71
ATOM     71  C   UNL     1      -4.705  10.358   6.634  1.00  0.00     0.057 A 
ATOM     72  C   UNL     1      -5.191  10.329   7.946  1.00  0.00     0.134 A 
ATOM     73  C   UNL     1      -3.326  10.207   6.451  1.00  0.00     0.134 A 
ATOM     74  F   UNL     1      -6.502  10.485   8.184  1.00  0.00    -0.206 F 
ATOM     75  C   UNL     1      -4.337  10.168   9.038  1.00  0.00     0.040 A 
ATOM     76  C   UNL     1      -2.463  10.024   7.533  1.00  0.00     0.040 A 
ATOM     77  F   UNL     1      -2.801  10.218   5.217  1.00  0.00    -0.206 F 
ATOM     78  C   UNL     1      -2.968  10.009   8.832  1.00  0.00     0.006 A 
ENDBRANCH  50  71
BRANCH  62  79
ATOM     79  C   UNL     1      -8.541  15.688   4.330  1.00  0.00     0.057 A 
ATOM     80  C   UNL     1      -7.558  16.675   4.182  1.00  0.00     0.134 A 
ATOM     81  C   UNL     1      -9.746  16.059   4.940  1.00  0.00     0.134 A 
ATOM     82  F   UNL     1      -6.377  16.379   3.618  1.00  0.00    -0.206 F 
ATOM     83  C   UNL     1      -7.760  17.977   4.641  1.00  0.00     0.040 A 
ATOM     84  C   UNL     1      -9.968  17.363   5.382  1.00  0.00     0.040 A 
ATOM     85  F   UNL     1     -10.730  15.162   5.106  1.00  0.00    -0.206 F 
ATOM     86  C   UNL     1      -8.971  18.326   5.237  1.00  0.00     0.006 A 
ENDBRANCH  62  79
ENDBRANCH  36  37
ENDBRANCH  28  31
ENDBRANCH  26  27
ENDBRANCH   1  26
TORSDOF 12
