REMARK SMILES CCCN1CCC[C@@]2(CCN(c3ccc(C(=O)NCCCNC(=O)c4ccc(-c5c6nc(c(-c7c(F)cccc7F)c7ccc([nH]7)c(-c7c(F)cccc7F)c7nc(c(-c8c(F)cccc8F)c8ccc5[nH]8)C=C7)C=C6)cc4)cn3)C2)C1=O
REMARK SMILES IDX 19 1 18 2 16 3 17 4 15 6 12 7 13 8 80 9 14 10 79 11 11 12
REMARK SMILES IDX 4 13 5 14 82 15 6 16 8 17 83 18 7 19 9 20 81 21 10 22 3 23
REMARK SMILES IDX 2 24 1 25 20 26 21 27 22 28 23 29 24 31 25 32 26 33 78 34
REMARK SMILES IDX 27 35 77 36 28 37 29 38 30 39 71 40 31 41 76 42 70 43 72 44
REMARK SMILES IDX 32 45 75 46 69 47 68 48 33 50 59 51 42 52 58 53 43 54 46 55
REMARK SMILES IDX 57 56 73 57 44 58 45 59 56 61 74 62 47 63 34 64 35 65 40 66
REMARK SMILES IDX 36 67 37 68 39 69 41 70 38 71 60 72 61 73 66 74 62 75 63 76
REMARK SMILES IDX 65 77 67 78 64 79 48 80 49 81 54 82 50 83 51 84 53 85 55 86
REMARK SMILES IDX 52 87
REMARK H PARENT 18 5 22 30 72 49 46 60
REMARK Flexibility Score: inf
ROOT
ATOM      1  C   UNL     1       9.746  -0.486  -5.679  1.00  0.00     0.118 C 
ENDROOT
BRANCH   1   2
ATOM      2  N   UNL     1       9.521   0.743  -6.418  1.00  0.00    -0.352 N 
ATOM      3  C   UNL     1       8.385   1.360  -6.882  1.00  0.00     0.252 C 
ATOM      4  O   UNL     1       8.527   2.449  -7.439  1.00  0.00    -0.269 OA
ATOM      5  H   UNL     1      10.348   1.233  -6.630  1.00  0.00     0.163 HD
BRANCH   3   6
ATOM      6  C   UNL     1       7.017   0.808  -6.723  1.00  0.00     0.058 A 
ATOM      7  C   UNL     1       4.357   0.044  -6.423  1.00  0.00     0.128 A 
ATOM      8  C   UNL     1       5.375  -0.890  -6.273  1.00  0.00     0.048 A 
ATOM      9  N   UNL     1       4.629   1.319  -6.754  1.00  0.00    -0.239 NA
ATOM     10  C   UNL     1       6.702  -0.518  -6.466  1.00  0.00     0.019 A 
ATOM     11  C   UNL     1       5.938   1.676  -6.876  1.00  0.00     0.127 A 
BRANCH   7  12
ATOM     12  N   UNL     1       3.064  -0.381  -6.249  1.00  0.00    -0.356 N 
ATOM     13  N   UNL     1       0.303   0.114  -2.902  1.00  0.00    -0.342 N 
ATOM     14  C   UNL     1      -0.230  -1.161  -2.450  1.00  0.00     0.119 C 
ATOM     15  C   UNL     1       0.453   0.323  -4.271  1.00  0.00     0.230 C 
ATOM     16  C   UNL     1       0.629  -2.292  -2.981  1.00  0.00     0.023 C 
ATOM     17  C   UNL     1       1.072  -0.859  -5.033  1.00  0.00     0.069 C 
ATOM     18  O   UNL     1       0.295   1.428  -4.787  1.00  0.00    -0.274 OA
ATOM     19  C   UNL     1       0.610  -2.229  -4.507  1.00  0.00     0.021 C 
ATOM     20  C   UNL     1       0.821  -0.726  -6.551  1.00  0.00     0.040 C 
ATOM     21  C   UNL     1       2.612  -0.702  -4.900  1.00  0.00     0.135 C 
ATOM     22  C   UNL     1       1.978   0.144  -7.046  1.00  0.00     0.119 C 
BRANCH  13  23
ATOM     23  C   UNL     1       0.617   1.233  -2.016  1.00  0.00     0.119 C 
BRANCH  23  24
ATOM     24  C   UNL     1       0.277   1.130  -0.532  1.00  0.00     0.018 C 
ATOM     25  C   UNL     1       1.244   0.262   0.265  1.00  0.00     0.006 C 
ENDBRANCH  23  24
ENDBRANCH  13  23
ENDBRANCH   7  12
ENDBRANCH   3   6
ENDBRANCH   1   2
BRANCH   1  26
ATOM     26  C   UNL     1      10.107  -1.640  -6.616  1.00  0.00     0.042 C 
BRANCH  26  27
ATOM     27  C   UNL     1      11.550  -1.575  -7.113  1.00  0.00     0.118 C 
BRANCH  27  28
ATOM     28  N   UNL     1      12.503  -1.821  -6.036  1.00  0.00    -0.352 N 
ATOM     29  C   UNL     1      13.387  -2.851  -5.859  1.00  0.00     0.251 C 
ATOM     30  H   UNL     1      12.512  -1.139  -5.325  1.00  0.00     0.163 HD
ATOM     31  O   UNL     1      13.919  -3.017  -4.758  1.00  0.00    -0.269 OA
BRANCH  29  32
ATOM     32  C   UNL     1      13.705  -3.770  -6.969  1.00  0.00     0.039 A 
ATOM     33  C   UNL     1      13.807  -5.140  -6.710  1.00  0.00     0.014 A 
ATOM     34  C   UNL     1      13.935  -3.280  -8.258  1.00  0.00     0.014 A 
ATOM     35  C   UNL     1      14.063  -6.027  -7.758  1.00  0.00     0.010 A 
ATOM     36  C   UNL     1      14.124  -4.169  -9.312  1.00  0.00     0.010 A 
ATOM     37  C   UNL     1      14.181  -5.551  -9.074  1.00  0.00    -0.014 A 
BRANCH  37  38
ATOM     38  C   UNL     1      14.323  -6.478 -10.224  1.00  0.00     0.031 A 
ATOM     39  C   UNL     1      15.565  -6.456 -11.068  1.00  0.00     0.074 A 
ATOM     40  C   UNL     1      13.288  -7.271 -10.560  1.00  0.00     0.049 A 
ATOM     41  N   UNL     1      15.820  -7.097 -12.180  1.00  0.00    -0.248 NA
ATOM     42  C   UNL     1      16.656  -5.579 -10.615  1.00  0.00     0.031 C 
ATOM     43  C   UNL     1      12.015  -7.353  -9.841  1.00  0.00     0.029 A 
ATOM     44  N   UNL     1      13.133  -8.144 -11.608  1.00  0.00    -0.354 N 
ATOM     45  C   UNL     1      17.090  -6.691 -12.568  1.00  0.00     0.074 A 
ATOM     46  C   UNL     1      17.536  -5.716 -11.596  1.00  0.00     0.031 C 
ATOM     47  C   UNL     1      11.214  -8.233 -10.461  1.00  0.00     0.029 A 
ATOM     48  C   UNL     1      11.896  -8.741 -11.646  1.00  0.00     0.049 A 
ATOM     49  H   UNL     1      13.840  -8.325 -12.268  1.00  0.00     0.167 HD
ATOM     50  C   UNL     1      17.822  -7.107 -13.629  1.00  0.00     0.037 A 
ATOM     51  C   UNL     1      11.362  -9.586 -12.548  1.00  0.00     0.037 A 
ATOM     52  C   UNL     1      17.376  -8.089 -14.584  1.00  0.00     0.049 A 
ATOM     53  C   UNL     1      12.183 -10.006 -13.735  1.00  0.00     0.074 A 
ATOM     54  C   UNL     1      18.068  -8.624 -15.656  1.00  0.00     0.029 A 
ATOM     55  N   UNL     1      16.120  -8.677 -14.585  1.00  0.00    -0.354 N 
ATOM     56  N   UNL     1      13.408  -9.667 -14.053  1.00  0.00    -0.248 NA
ATOM     57  C   UNL     1      11.546 -10.925 -14.689  1.00  0.00     0.031 C 
ATOM     58  C   UNL     1      17.213  -9.496 -16.337  1.00  0.00     0.029 A 
ATOM     59  C   UNL     1      16.005  -9.544 -15.659  1.00  0.00     0.049 A 
ATOM     60  H   UNL     1      15.414  -8.502 -13.921  1.00  0.00     0.167 HD
ATOM     61  C   UNL     1      13.697 -10.345 -15.230  1.00  0.00     0.074 A 
ATOM     62  C   UNL     1      12.526 -11.130 -15.559  1.00  0.00     0.031 C 
ATOM     63  C   UNL     1      14.831 -10.318 -15.973  1.00  0.00     0.037 A 
BRANCH  50  64
ATOM     64  C   UNL     1      19.181  -6.498 -13.816  1.00  0.00     0.057 A 
ATOM     65  C   UNL     1      20.246  -6.786 -12.952  1.00  0.00     0.134 A 
ATOM     66  C   UNL     1      19.441  -5.645 -14.896  1.00  0.00     0.134 A 
ATOM     67  F   UNL     1      20.064  -7.588 -11.892  1.00  0.00    -0.206 F 
ATOM     68  C   UNL     1      21.512  -6.228 -13.140  1.00  0.00     0.040 A 
ATOM     69  C   UNL     1      20.709  -5.103 -15.111  1.00  0.00     0.040 A 
ATOM     70  F   UNL     1      18.469  -5.333 -15.767  1.00  0.00    -0.206 F 
ATOM     71  C   UNL     1      21.747  -5.388 -14.227  1.00  0.00     0.006 A 
ENDBRANCH  50  64
BRANCH  51  72
ATOM     72  C   UNL     1       9.978 -10.091 -12.365  1.00  0.00     0.057 A 
ATOM     73  C   UNL     1       9.736 -11.434 -12.052  1.00  0.00     0.134 A 
ATOM     74  C   UNL     1       8.866  -9.251 -12.503  1.00  0.00     0.134 A 
ATOM     75  F   UNL     1      10.759 -12.291 -11.925  1.00  0.00    -0.206 F 
ATOM     76  C   UNL     1       8.439 -11.927 -11.901  1.00  0.00     0.040 A 
ATOM     77  C   UNL     1       7.565  -9.725 -12.329  1.00  0.00     0.040 A 
ATOM     78  F   UNL     1       9.030  -7.952 -12.794  1.00  0.00    -0.206 F 
ATOM     79  C   UNL     1       7.349 -11.070 -12.034  1.00  0.00     0.006 A 
ENDBRANCH  51  72
BRANCH  63  80
ATOM     80  C   UNL     1      14.866 -11.179 -17.201  1.00  0.00     0.057 A 
ATOM     81  C   UNL     1      14.132 -10.856 -18.350  1.00  0.00     0.134 A 
ATOM     82  C   UNL     1      15.677 -12.320 -17.251  1.00  0.00     0.134 A 
ATOM     83  F   UNL     1      13.324  -9.785 -18.361  1.00  0.00    -0.206 F 
ATOM     84  C   UNL     1      14.188 -11.648 -19.497  1.00  0.00     0.040 A 
ATOM     85  C   UNL     1      15.763 -13.105 -18.402  1.00  0.00     0.040 A 
ATOM     86  F   UNL     1      16.411 -12.681 -16.188  1.00  0.00    -0.206 F 
ATOM     87  C   UNL     1      15.013 -12.772 -19.528  1.00  0.00     0.006 A 
ENDBRANCH  63  80
ENDBRANCH  37  38
ENDBRANCH  29  32
ENDBRANCH  27  28
ENDBRANCH  26  27
ENDBRANCH   1  26
TORSDOF 13
