REMARK SMILES O=C(NCCCNC(=O)c1cccnc1NC[C@H](c1ccccc1)[NH+]1CCOCC1)c1ccc(-c2c3nc(c(-c4c(F)cccc4F)c4ccc([nH]4)c(-c4c(F)cccc4F)c4nc(c(-c5c(F)cccc5F)c5ccc2[nH]5)C=C4)C=C3)cc1
REMARK SMILES IDX 6 1 5 2 4 3 3 4 1 5 2 6 31 8 32 9 84 10 33 11 83 12 34 13
REMARK SMILES IDX 35 14 36 15 77 16 37 17 82 18 76 19 78 20 38 21 81 22 75 23
REMARK SMILES IDX 74 24 39 26 65 27 48 28 64 29 49 30 52 31 63 32 79 33 50 34
REMARK SMILES IDX 51 35 62 37 80 38 53 39 40 40 41 41 46 42 42 43 43 44 45 45
REMARK SMILES IDX 47 46 44 47 66 48 67 49 72 50 68 51 69 52 71 53 73 54 70 55
REMARK SMILES IDX 54 56 55 57 60 58 56 59 57 60 59 61 61 62 58 63 7 64 8 65
REMARK SMILES IDX 9 67 10 68 11 69 15 70 12 71 14 72 13 73 16 74 17 76 18 77
REMARK SMILES IDX 25 78 26 79 30 80 27 82 29 83 28 84 19 85 20 86 24 87 21 88
REMARK SMILES IDX 23 89 22 90
REMARK H PARENT 3 7 78 25 52 36 7 66 16 75 25 81
REMARK Flexibility Score: inf
ROOT
ATOM      1  C   UNL     1       9.860 -12.431   0.167  1.00  0.00     0.118 C 
ENDROOT
BRANCH   1   2
ATOM      2  C   UNL     1      11.146 -12.389  -0.651  1.00  0.00     0.042 C 
BRANCH   2   3
ATOM      3  C   UNL     1      12.232 -13.349  -0.183  1.00  0.00     0.118 C 
BRANCH   3   4
ATOM      4  N   UNL     1      11.840 -14.748  -0.291  1.00  0.00    -0.352 N 
ATOM      5  O   UNL     1      11.650 -16.806  -1.173  1.00  0.00    -0.269 OA
ATOM      6  C   UNL     1      12.258 -15.733  -1.148  1.00  0.00     0.251 C 
ATOM      7  H   UNL     1      11.160 -15.034   0.361  1.00  0.00     0.163 HD
BRANCH   6   8
ATOM      8  C   UNL     1      13.406 -15.527  -2.057  1.00  0.00     0.039 A 
ATOM      9  C   UNL     1      14.572 -14.890  -1.629  1.00  0.00     0.014 A 
ATOM     10  C   UNL     1      13.332 -16.035  -3.359  1.00  0.00     0.014 A 
ATOM     11  C   UNL     1      15.599 -14.630  -2.534  1.00  0.00     0.010 A 
ATOM     12  C   UNL     1      14.397 -15.849  -4.243  1.00  0.00     0.010 A 
ATOM     13  C   UNL     1      15.526 -15.115  -3.847  1.00  0.00    -0.014 A 
BRANCH  13  14
ATOM     14  C   UNL     1      16.648 -14.892  -4.794  1.00  0.00     0.031 A 
ATOM     15  C   UNL     1      16.447 -14.073  -6.038  1.00  0.00     0.074 A 
ATOM     16  C   UNL     1      17.845 -15.455  -4.545  1.00  0.00     0.049 A 
ATOM     17  N   UNL     1      17.279 -13.848  -7.023  1.00  0.00    -0.248 NA
ATOM     18  C   UNL     1      15.134 -13.433  -6.202  1.00  0.00     0.031 C 
ATOM     19  C   UNL     1      18.164 -16.269  -3.371  1.00  0.00     0.029 A 
ATOM     20  N   UNL     1      19.010 -15.441  -5.269  1.00  0.00    -0.354 N 
ATOM     21  C   UNL     1      16.585 -13.062  -7.934  1.00  0.00     0.074 A 
ATOM     22  C   UNL     1      15.254 -12.872  -7.397  1.00  0.00     0.031 C 
ATOM     23  C   UNL     1      19.442 -16.669  -3.450  1.00  0.00     0.029 A 
ATOM     24  C   UNL     1      20.011 -16.194  -4.707  1.00  0.00     0.049 A 
ATOM     25  H   UNL     1      19.118 -14.940  -6.109  1.00  0.00     0.167 HD
ATOM     26  C   UNL     1      17.020 -12.544  -9.109  1.00  0.00     0.037 A 
ATOM     27  C   UNL     1      21.238 -16.501  -5.165  1.00  0.00     0.037 A 
ATOM     28  C   UNL     1      18.349 -12.735  -9.634  1.00  0.00     0.049 A 
ATOM     29  C   UNL     1      21.685 -15.955  -6.489  1.00  0.00     0.074 A 
ATOM     30  C   UNL     1      18.898 -12.223 -10.796  1.00  0.00     0.029 A 
ATOM     31  N   UNL     1      19.333 -13.509  -9.035  1.00  0.00    -0.354 N 
ATOM     32  N   UNL     1      21.031 -15.188  -7.328  1.00  0.00    -0.248 NA
ATOM     33  C   UNL     1      23.039 -16.315  -6.933  1.00  0.00     0.031 C 
ATOM     34  C   UNL     1      20.195 -12.732 -10.929  1.00  0.00     0.029 A 
ATOM     35  C   UNL     1      20.476 -13.510  -9.817  1.00  0.00     0.049 A 
ATOM     36  H   UNL     1      19.233 -13.986  -8.180  1.00  0.00     0.167 HD
ATOM     37  C   UNL     1      21.901 -14.948  -8.382  1.00  0.00     0.074 A 
ATOM     38  C   UNL     1      23.131 -15.651  -8.077  1.00  0.00     0.031 C 
ATOM     39  C   UNL     1      21.699 -14.205  -9.497  1.00  0.00     0.037 A 
BRANCH  26  40
ATOM     40  C   UNL     1      16.036 -11.751  -9.922  1.00  0.00     0.057 A 
ATOM     41  C   UNL     1      15.570 -10.495  -9.513  1.00  0.00     0.134 A 
ATOM     42  C   UNL     1      15.558 -12.248 -11.142  1.00  0.00     0.134 A 
ATOM     43  F   UNL     1      15.979  -9.963  -8.351  1.00  0.00    -0.206 F 
ATOM     44  C   UNL     1      14.637  -9.780 -10.267  1.00  0.00     0.040 A 
ATOM     45  C   UNL     1      14.648 -11.530 -11.919  1.00  0.00     0.040 A 
ATOM     46  F   UNL     1      15.969 -13.440 -11.601  1.00  0.00    -0.206 F 
ATOM     47  C   UNL     1      14.176 -10.296 -11.477  1.00  0.00     0.006 A 
ENDBRANCH  26  40
BRANCH  27  48
ATOM     48  C   UNL     1      22.117 -17.379  -4.354  1.00  0.00     0.057 A 
ATOM     49  C   UNL     1      23.242 -16.871  -3.698  1.00  0.00     0.134 A 
ATOM     50  C   UNL     1      21.825 -18.738  -4.179  1.00  0.00     0.134 A 
ATOM     51  F   UNL     1      23.580 -15.581  -3.839  1.00  0.00    -0.206 F 
ATOM     52  C   UNL     1      24.049 -17.683  -2.899  1.00  0.00     0.040 A 
ATOM     53  C   UNL     1      22.607 -19.555  -3.364  1.00  0.00     0.040 A 
ATOM     54  F   UNL     1      20.752 -19.282  -4.774  1.00  0.00    -0.206 F 
ATOM     55  C   UNL     1      23.726 -19.027  -2.723  1.00  0.00     0.006 A 
ENDBRANCH  27  48
BRANCH  39  56
ATOM     56  C   UNL     1      22.848 -14.064 -10.453  1.00  0.00     0.057 A 
ATOM     57  C   UNL     1      23.254 -15.111 -11.289  1.00  0.00     0.134 A 
ATOM     58  C   UNL     1      23.512 -12.837 -10.582  1.00  0.00     0.134 A 
ATOM     59  F   UNL     1      22.669 -16.315 -11.205  1.00  0.00    -0.206 F 
ATOM     60  C   UNL     1      24.288 -14.945 -12.212  1.00  0.00     0.040 A 
ATOM     61  C   UNL     1      24.529 -12.652 -11.519  1.00  0.00     0.040 A 
ATOM     62  F   UNL     1      23.167 -11.791  -9.815  1.00  0.00    -0.206 F 
ATOM     63  C   UNL     1      24.922 -13.709 -12.336  1.00  0.00     0.006 A 
ENDBRANCH  39  56
ENDBRANCH  13  14
ENDBRANCH   6   8
ENDBRANCH   3   4
ENDBRANCH   2   3
ENDBRANCH   1   2
BRANCH   1  64
ATOM     64  N   UNL     1      10.056 -12.067   1.564  1.00  0.00    -0.352 N 
ATOM     65  C   UNL     1       9.530 -11.032   2.305  1.00  0.00     0.255 C 
ATOM     66  H   UNL     1      10.665 -12.659   2.061  1.00  0.00     0.163 HD
ATOM     67  O   UNL     1       9.921 -10.867   3.460  1.00  0.00    -0.269 OA
BRANCH  65  68
ATOM     68  C   UNL     1       8.503 -10.131   1.737  1.00  0.00     0.082 A 
ATOM     69  C   UNL     1       7.393 -10.674   1.078  1.00  0.00     0.019 A 
ATOM     70  C   UNL     1       8.589  -8.738   1.908  1.00  0.00     0.139 A 
ATOM     71  C   UNL     1       6.462  -9.826   0.499  1.00  0.00     0.021 A 
ATOM     72  N   UNL     1       7.700  -7.915   1.306  1.00  0.00    -0.239 NA
ATOM     73  C   UNL     1       6.669  -8.465   0.623  1.00  0.00     0.113 A 
BRANCH  70  74
ATOM     74  N   UNL     1       9.580  -8.174   2.702  1.00  0.00    -0.363 N 
ATOM     75  H   UNL     1      10.179  -8.767   3.211  1.00  0.00     0.162 HD
BRANCH  74  76
ATOM     76  C   UNL     1       9.761  -6.725   2.804  1.00  0.00     0.184 C 
BRANCH  76  77
ATOM     77  C   UNL     1      10.451  -6.267   4.148  1.00  0.00     0.234 C 
BRANCH  77  78
ATOM     78  N   UNL     1      11.824  -6.712   4.550  1.00  0.00    -0.323 N 
ATOM     79  C   UNL     1      12.941  -5.755   4.405  1.00  0.00     0.291 C 
ATOM     80  C   UNL     1      12.302  -8.011   4.051  1.00  0.00     0.291 C 
ATOM     81  H   UNL     1      11.594  -6.799   5.540  1.00  0.00     0.348 HD
ATOM     82  C   UNL     1      13.514  -5.698   2.983  1.00  0.00     0.221 C 
ATOM     83  C   UNL     1      12.906  -7.952   2.636  1.00  0.00     0.221 C 
ATOM     84  O   UNL     1      13.971  -6.990   2.562  1.00  0.00    -0.370 OA
ENDBRANCH  77  78
BRANCH  77  85
ATOM     85  C   UNL     1      10.263  -4.750   4.361  1.00  0.00     0.011 A 
ATOM     86  C   UNL     1      10.597  -3.819   3.359  1.00  0.00     0.010 A 
ATOM     87  C   UNL     1       9.911  -4.262   5.631  1.00  0.00     0.010 A 
ATOM     88  C   UNL     1      10.680  -2.456   3.649  1.00  0.00     0.001 A 
ATOM     89  C   UNL     1       9.963  -2.894   5.909  1.00  0.00     0.001 A 
ATOM     90  C   UNL     1      10.377  -1.996   4.927  1.00  0.00     0.000 A 
ENDBRANCH  77  85
ENDBRANCH  76  77
ENDBRANCH  74  76
ENDBRANCH  70  74
ENDBRANCH  65  68
ENDBRANCH   1  64
TORSDOF 15
