REMARK SMILES O=C(NCCCNC(=O)c1ccc(-c2c3nc(c(-c4c(F)cccc4F)c4ccc([nH]4)c(-c4c(F)cccc4F)c4nc(c(-c5c(F)cccc5F)c5ccc2[nH]5)C=C4)C=C3)cc1)c1ccc(N[C@H]2OC[C@@H](O)[C@@H](O)[C@H]2O)cc1
REMARK SMILES IDX 4 1 3 2 1 3 2 4 64 6 65 7 79 8 66 9 78 10 67 11 68 12 69 14
REMARK SMILES IDX 70 15 76 16 71 17 74 18 72 19 77 20 75 22 73 24 5 26 6 27
REMARK SMILES IDX 7 28 8 29 9 31 10 32 11 33 63 34 12 35 62 36 13 37 14 38
REMARK SMILES IDX 15 39 56 40 16 41 61 42 55 43 57 44 17 45 60 46 54 47 53 48
REMARK SMILES IDX 18 50 44 51 27 52 43 53 28 54 31 55 42 56 58 57 29 58 30 59
REMARK SMILES IDX 41 61 59 62 32 63 19 64 20 65 25 66 21 67 22 68 24 69 26 70
REMARK SMILES IDX 23 71 45 72 46 73 51 74 47 75 48 76 50 77 52 78 49 79 33 80
REMARK SMILES IDX 34 81 39 82 35 83 36 84 38 85 40 86 37 87
REMARK H PARENT 3 5 68 13 77 21 75 23 73 25 7 30 57 49 31 60
REMARK Flexibility Score: inf
ROOT
ATOM      1  C   UNL     1       0.900   4.985  -8.650  1.00  0.00     0.118 C 
ENDROOT
BRANCH   1   2
ATOM      2  N   UNL     1       1.573   4.870  -9.937  1.00  0.00    -0.352 N 
ATOM      3  O   UNL     1       3.321   4.772 -11.357  1.00  0.00    -0.269 OA
ATOM      4  C   UNL     1       2.892   4.619 -10.212  1.00  0.00     0.251 C 
ATOM      5  H   UNL     1       0.995   4.990 -10.725  1.00  0.00     0.163 HD
BRANCH   4   6
ATOM      6  C   UNL     1       3.804   4.183  -9.138  1.00  0.00     0.039 A 
ATOM      7  C   UNL     1       3.450   3.143  -8.281  1.00  0.00     0.016 A 
ATOM      8  C   UNL     1       5.049   4.795  -9.007  1.00  0.00     0.016 A 
ATOM      9  C   UNL     1       4.294   2.792  -7.227  1.00  0.00     0.026 A 
ATOM     10  C   UNL     1       5.899   4.413  -7.963  1.00  0.00     0.026 A 
ATOM     11  C   UNL     1       5.522   3.433  -7.031  1.00  0.00     0.036 A 
BRANCH  11  12
ATOM     12  N   UNL     1       6.409   3.093  -6.023  1.00  0.00    -0.358 N 
ATOM     13  H   UNL     1       7.308   3.496  -6.047  1.00  0.00     0.163 HD
BRANCH  12  14
ATOM     14  C   UNL     1       6.102   2.179  -4.932  1.00  0.00     0.244 C 
ATOM     15  O   UNL     1       5.764   0.900  -5.473  1.00  0.00    -0.353 OA
ATOM     16  C   UNL     1       7.372   2.013  -4.064  1.00  0.00     0.195 C 
ATOM     17  C   UNL     1       5.400  -0.054  -4.469  1.00  0.00     0.197 C 
ATOM     18  C   UNL     1       7.090   0.998  -2.950  1.00  0.00     0.178 C 
ATOM     19  C   UNL     1       6.571  -0.328  -3.525  1.00  0.00     0.171 C 
BRANCH  16  20
ATOM     20  O   UNL     1       8.458   1.526  -4.893  1.00  0.00    -0.386 OA
ATOM     21  H   UNL     1       8.211   0.673  -5.281  1.00  0.00     0.211 HD
ENDBRANCH  16  20
BRANCH  18  22
ATOM     22  O   UNL     1       8.276   0.772  -2.184  1.00  0.00    -0.387 OA
ATOM     23  H   UNL     1       8.966   0.405  -2.758  1.00  0.00     0.211 HD
ENDBRANCH  18  22
BRANCH  19  24
ATOM     24  O   UNL     1       7.617  -1.003  -4.238  1.00  0.00    -0.388 OA
ATOM     25  H   UNL     1       7.922  -0.445  -4.970  1.00  0.00     0.211 HD
ENDBRANCH  19  24
ENDBRANCH  12  14
ENDBRANCH  11  12
ENDBRANCH   4   6
ENDBRANCH   1   2
BRANCH   1  26
ATOM     26  C   UNL     1       0.500   6.418  -8.330  1.00  0.00     0.042 C 
BRANCH  26  27
ATOM     27  C   UNL     1      -0.504   7.024  -9.300  1.00  0.00     0.118 C 
BRANCH  27  28
ATOM     28  N   UNL     1      -1.757   6.285  -9.354  1.00  0.00    -0.352 N 
ATOM     29  C   UNL     1      -3.047   6.684  -9.114  1.00  0.00     0.251 C 
ATOM     30  H   UNL     1      -1.662   5.338  -9.605  1.00  0.00     0.163 HD
ATOM     31  O   UNL     1      -3.932   5.832  -9.057  1.00  0.00    -0.269 OA
BRANCH  29  32
ATOM     32  C   UNL     1      -3.391   8.109  -8.909  1.00  0.00     0.039 A 
ATOM     33  C   UNL     1      -4.409   8.423  -8.003  1.00  0.00     0.014 A 
ATOM     34  C   UNL     1      -2.774   9.132  -9.633  1.00  0.00     0.014 A 
ATOM     35  C   UNL     1      -4.776   9.755  -7.796  1.00  0.00     0.010 A 
ATOM     36  C   UNL     1      -3.075  10.464  -9.360  1.00  0.00     0.010 A 
ATOM     37  C   UNL     1      -4.095  10.790  -8.455  1.00  0.00    -0.014 A 
BRANCH  37  38
ATOM     38  C   UNL     1      -4.467  12.210  -8.233  1.00  0.00     0.031 A 
ATOM     39  C   UNL     1      -5.011  13.040  -9.366  1.00  0.00     0.074 A 
ATOM     40  C   UNL     1      -4.278  12.769  -7.022  1.00  0.00     0.049 A 
ATOM     41  N   UNL     1      -5.378  14.297  -9.369  1.00  0.00    -0.248 NA
ATOM     42  C   UNL     1      -5.132  12.378 -10.675  1.00  0.00     0.031 C 
ATOM     43  C   UNL     1      -3.701  12.093  -5.859  1.00  0.00     0.029 A 
ATOM     44  N   UNL     1      -4.551  14.035  -6.570  1.00  0.00    -0.354 N 
ATOM     45  C   UNL     1      -5.752  14.579 -10.677  1.00  0.00     0.074 A 
ATOM     46  C   UNL     1      -5.515  13.380 -11.451  1.00  0.00     0.031 C 
ATOM     47  C   UNL     1      -3.691  12.942  -4.818  1.00  0.00     0.029 A 
ATOM     48  C   UNL     1      -4.235  14.227  -5.247  1.00  0.00     0.049 A 
ATOM     49  H   UNL     1      -4.937  14.739  -7.139  1.00  0.00     0.167 HD
ATOM     50  C   UNL     1      -6.270  15.723 -11.184  1.00  0.00     0.037 A 
ATOM     51  C   UNL     1      -4.374  15.315  -4.466  1.00  0.00     0.037 A 
ATOM     52  C   UNL     1      -6.539  16.904 -10.407  1.00  0.00     0.049 A 
ATOM     53  C   UNL     1      -4.988  16.560  -5.041  1.00  0.00     0.074 A 
ATOM     54  C   UNL     1      -7.126  18.090 -10.813  1.00  0.00     0.029 A 
ATOM     55  N   UNL     1      -6.239  17.046  -9.061  1.00  0.00    -0.354 N 
ATOM     56  N   UNL     1      -5.409  16.787  -6.262  1.00  0.00    -0.248 NA
ATOM     57  C   UNL     1      -5.162  17.695  -4.124  1.00  0.00     0.031 C 
ATOM     58  C   UNL     1      -7.148  18.964  -9.720  1.00  0.00     0.029 A 
ATOM     59  C   UNL     1      -6.616  18.305  -8.623  1.00  0.00     0.049 A 
ATOM     60  H   UNL     1      -5.821  16.355  -8.499  1.00  0.00     0.167 HD
ATOM     61  C   UNL     1      -5.921  18.078  -6.254  1.00  0.00     0.074 A 
ATOM     62  C   UNL     1      -5.774  18.577  -4.902  1.00  0.00     0.031 C 
ATOM     63  C   UNL     1      -6.466  18.786  -7.273  1.00  0.00     0.037 A 
BRANCH  50  64
ATOM     64  C   UNL     1      -6.586  15.745 -12.652  1.00  0.00     0.057 A 
ATOM     65  C   UNL     1      -7.643  15.000 -13.193  1.00  0.00     0.134 A 
ATOM     66  C   UNL     1      -5.837  16.535 -13.534  1.00  0.00     0.134 A 
ATOM     67  F   UNL     1      -8.392  14.212 -12.406  1.00  0.00    -0.206 F 
ATOM     68  C   UNL     1      -7.924  15.016 -14.560  1.00  0.00     0.040 A 
ATOM     69  C   UNL     1      -6.126  16.580 -14.899  1.00  0.00     0.040 A 
ATOM     70  F   UNL     1      -4.815  17.277 -13.083  1.00  0.00    -0.206 F 
ATOM     71  C   UNL     1      -7.168  15.813 -15.417  1.00  0.00     0.006 A 
ENDBRANCH  50  64
BRANCH  51  72
ATOM     72  C   UNL     1      -3.963  15.259  -3.042  1.00  0.00     0.057 A 
ATOM     73  C   UNL     1      -4.916  15.245  -2.016  1.00  0.00     0.134 A 
ATOM     74  C   UNL     1      -2.615  15.218  -2.671  1.00  0.00     0.134 A 
ATOM     75  F   UNL     1      -6.224  15.300  -2.310  1.00  0.00    -0.206 F 
ATOM     76  C   UNL     1      -4.543  15.212  -0.672  1.00  0.00     0.040 A 
ATOM     77  C   UNL     1      -2.228  15.160  -1.331  1.00  0.00     0.040 A 
ATOM     78  F   UNL     1      -1.654  15.218  -3.607  1.00  0.00    -0.206 F 
ATOM     79  C   UNL     1      -3.194  15.164  -0.327  1.00  0.00     0.006 A 
ENDBRANCH  51  72
BRANCH  63  80
ATOM     80  C   UNL     1      -6.972  20.162  -6.954  1.00  0.00     0.057 A 
ATOM     81  C   UNL     1      -6.103  21.229  -6.691  1.00  0.00     0.134 A 
ATOM     82  C   UNL     1      -8.348  20.426  -6.928  1.00  0.00     0.134 A 
ATOM     83  F   UNL     1      -4.775  21.039  -6.689  1.00  0.00    -0.206 F 
ATOM     84  C   UNL     1      -6.585  22.502  -6.384  1.00  0.00     0.040 A 
ATOM     85  C   UNL     1      -8.841  21.701  -6.647  1.00  0.00     0.040 A 
ATOM     86  F   UNL     1      -9.234  19.450  -7.179  1.00  0.00    -0.206 F 
ATOM     87  C   UNL     1      -7.958  22.741  -6.366  1.00  0.00     0.006 A 
ENDBRANCH  63  80
ENDBRANCH  37  38
ENDBRANCH  29  32
ENDBRANCH  27  28
ENDBRANCH  26  27
ENDBRANCH   1  26
TORSDOF 15
