REMARK SMILES Cc1cccc(-n2c(C)cc(/C=N\c3ccc(O)c(C(=O)NCCCNC(=O)c4ccc(-c5c6nc(c(-c7c(F)cccc7F)c7ccc([nH]7)c(-c7c(F)cccc7F)c7nc(c(-c8c(F)cccc8F)c8ccc5[nH]8)C=C7)C=C6)cc4)c3)c2C)c1
REMARK SMILES IDX 23 1 22 2 20 3 21 4 19 6 14 7 15 8 83 9 16 10 17 11 13 12
REMARK SMILES IDX 12 13 11 14 7 15 8 16 84 17 9 18 10 19 85 20 6 21 1 22 2 23
REMARK SMILES IDX 3 24 86 25 4 26 5 27 18 28 24 30 25 31 26 32 27 33 28 35
REMARK SMILES IDX 29 36 30 37 82 38 31 39 81 40 32 41 33 42 34 43 75 44 35 45
REMARK SMILES IDX 80 46 74 47 76 48 36 49 79 50 73 51 72 52 37 54 63 55 46 56
REMARK SMILES IDX 62 57 47 58 50 59 61 60 77 61 48 62 49 63 60 65 78 66 51 67
REMARK SMILES IDX 38 68 39 69 44 70 40 71 41 72 43 73 45 74 42 75 64 76 65 77
REMARK SMILES IDX 70 78 66 79 67 80 69 81 71 82 68 83 52 84 53 85 58 86 54 87
REMARK SMILES IDX 55 88 57 89 59 90 56 91
REMARK H PARENT 22 5 18 29 26 34 76 53 50 64
REMARK Flexibility Score: inf
ROOT
ATOM      1  C   UNL     1      -3.619  -1.346   5.700  1.00  0.00     0.118 C 
ENDROOT
BRANCH   1   2
ATOM      2  N   UNL     1      -4.926  -0.859   5.301  1.00  0.00    -0.352 N 
ATOM      3  C   UNL     1      -5.306   0.268   4.598  1.00  0.00     0.255 C 
ATOM      4  O   UNL     1      -6.504   0.371   4.329  1.00  0.00    -0.269 OA
ATOM      5  H   UNL     1      -5.675  -1.434   5.580  1.00  0.00     0.163 HD
BRANCH   3   6
ATOM      6  C   UNL     1      -4.368   1.365   4.185  1.00  0.00     0.083 A 
ATOM      7  C   UNL     1      -4.114   3.588   3.222  1.00  0.00     0.064 A 
ATOM      8  C   UNL     1      -2.757   3.585   3.531  1.00  0.00     0.032 A 
ATOM      9  C   UNL     1      -4.936   2.560   3.714  1.00  0.00     0.046 A 
ATOM     10  C   UNL     1      -2.173   2.409   3.963  1.00  0.00     0.049 A 
ATOM     11  C   UNL     1      -2.975   1.281   4.090  1.00  0.00     0.128 A 
BRANCH   7  12
ATOM     12  N   UNL     1      -4.647   4.552   2.365  1.00  0.00    -0.256 NA
ATOM     13  C   UNL     1      -4.250   4.683   1.127  1.00  0.00     0.121 C 
BRANCH  13  14
ATOM     14  C   UNL     1      -3.256   3.941   0.330  1.00  0.00     0.014 A 
ATOM     15  N   UNL     1      -1.855   2.407  -0.592  1.00  0.00    -0.318 N 
ATOM     16  C   UNL     1      -1.605   3.613  -1.225  1.00  0.00     0.021 A 
ATOM     17  C   UNL     1      -2.992   2.575   0.209  1.00  0.00     0.029 A 
ATOM     18  C   UNL     1      -0.679   3.756  -2.384  1.00  0.00     0.065 C 
ATOM     19  C   UNL     1      -2.419   4.566  -0.644  1.00  0.00     0.033 A 
ATOM     20  C   UNL     1      -3.666   1.411   0.832  1.00  0.00     0.065 C 
BRANCH  15  21
ATOM     21  C   UNL     1      -1.052   1.225  -0.688  1.00  0.00     0.046 A 
ATOM     22  C   UNL     1       2.563   0.184  -0.016  1.00  0.00     0.044 C 
ATOM     23  C   UNL     1       1.097   0.134  -0.335  1.00  0.00    -0.049 A 
ATOM     24  C   UNL     1       0.479  -1.112  -0.503  1.00  0.00     0.003 A 
ATOM     25  C   UNL     1       0.326   1.305  -0.433  1.00  0.00     0.030 A 
ATOM     26  C   UNL     1      -0.877  -1.190  -0.809  1.00  0.00     0.002 A 
ATOM     27  C   UNL     1      -1.636  -0.025  -0.918  1.00  0.00     0.026 A 
ENDBRANCH  15  21
ENDBRANCH  13  14
ENDBRANCH   7  12
BRANCH  11  28
ATOM     28  O   UNL     1      -2.311   0.119   3.764  1.00  0.00    -0.507 OA
ATOM     29  H   UNL     1      -1.375   0.114   3.712  1.00  0.00     0.293 HD
ENDBRANCH  11  28
ENDBRANCH   3   6
ENDBRANCH   1   2
BRANCH   1  30
ATOM     30  C   UNL     1      -3.410  -1.603   7.163  1.00  0.00     0.042 C 
BRANCH  30  31
ATOM     31  C   UNL     1      -3.858  -2.958   7.637  1.00  0.00     0.118 C 
BRANCH  31  32
ATOM     32  N   UNL     1      -2.973  -4.074   7.295  1.00  0.00    -0.352 N 
ATOM     33  C   UNL     1      -2.963  -5.370   7.795  1.00  0.00     0.251 C 
ATOM     34  H   UNL     1      -2.288  -3.878   6.615  1.00  0.00     0.163 HD
ATOM     35  O   UNL     1      -2.194  -6.205   7.319  1.00  0.00    -0.269 OA
BRANCH  33  36
ATOM     36  C   UNL     1      -3.995  -5.793   8.780  1.00  0.00     0.039 A 
ATOM     37  C   UNL     1      -4.679  -6.987   8.541  1.00  0.00     0.014 A 
ATOM     38  C   UNL     1      -4.534  -4.864   9.650  1.00  0.00     0.014 A 
ATOM     39  C   UNL     1      -6.030  -7.063   8.869  1.00  0.00     0.010 A 
ATOM     40  C   UNL     1      -5.903  -4.819   9.738  1.00  0.00     0.010 A 
ATOM     41  C   UNL     1      -6.665  -5.906   9.305  1.00  0.00    -0.014 A 
BRANCH  41  42
ATOM     42  C   UNL     1      -8.107  -5.693   9.290  1.00  0.00     0.031 A 
ATOM     43  C   UNL     1      -8.822  -5.489  10.566  1.00  0.00     0.074 A 
ATOM     44  C   UNL     1      -8.740  -5.501   8.111  1.00  0.00     0.049 A 
ATOM     45  N   UNL     1     -10.099  -5.559  10.711  1.00  0.00    -0.248 NA
ATOM     46  C   UNL     1      -8.124  -5.199  11.811  1.00  0.00     0.031 C 
ATOM     47  C   UNL     1     -10.081  -4.963   7.896  1.00  0.00     0.029 A 
ATOM     48  N   UNL     1      -8.345  -5.950   6.843  1.00  0.00    -0.354 N 
ATOM     49  C   UNL     1     -10.413  -5.061  11.958  1.00  0.00     0.074 A 
ATOM     50  C   UNL     1      -9.142  -4.899  12.618  1.00  0.00     0.031 C 
ATOM     51  C   UNL     1     -10.524  -5.375   6.698  1.00  0.00     0.029 A 
ATOM     52  C   UNL     1      -9.542  -6.307   6.173  1.00  0.00     0.049 A 
ATOM     53  H   UNL     1      -7.427  -6.006   6.491  1.00  0.00     0.167 HD
ATOM     54  C   UNL     1     -11.711  -4.741  12.231  1.00  0.00     0.037 A 
ATOM     55  C   UNL     1      -9.786  -7.617   5.870  1.00  0.00     0.037 A 
ATOM     56  C   UNL     1     -12.589  -5.168  11.136  1.00  0.00     0.049 A 
ATOM     57  C   UNL     1     -10.951  -8.228   6.625  1.00  0.00     0.074 A 
ATOM     58  C   UNL     1     -13.177  -4.530  10.056  1.00  0.00     0.029 A 
ATOM     59  N   UNL     1     -12.714  -6.524  10.888  1.00  0.00    -0.354 N 
ATOM     60  N   UNL     1     -11.678  -7.594   7.505  1.00  0.00    -0.248 NA
ATOM     61  C   UNL     1     -11.329  -9.638   6.510  1.00  0.00     0.031 C 
ATOM     62  C   UNL     1     -13.588  -5.530   9.123  1.00  0.00     0.029 A 
ATOM     63  C   UNL     1     -13.265  -6.769   9.646  1.00  0.00     0.049 A 
ATOM     64  H   UNL     1     -12.443  -7.228  11.521  1.00  0.00     0.167 HD
ATOM     65  C   UNL     1     -12.524  -8.479   8.116  1.00  0.00     0.074 A 
ATOM     66  C   UNL     1     -12.286  -9.743   7.447  1.00  0.00     0.031 C 
ATOM     67  C   UNL     1     -13.329  -8.139   9.163  1.00  0.00     0.037 A 
BRANCH  54  68
ATOM     68  C   UNL     1     -12.169  -3.855  13.372  1.00  0.00     0.057 A 
ATOM     69  C   UNL     1     -13.418  -3.205  13.306  1.00  0.00     0.134 A 
ATOM     70  C   UNL     1     -11.431  -3.543  14.529  1.00  0.00     0.134 A 
ATOM     71  F   UNL     1     -14.297  -3.466  12.330  1.00  0.00    -0.206 F 
ATOM     72  C   UNL     1     -13.838  -2.250  14.244  1.00  0.00     0.040 A 
ATOM     73  C   UNL     1     -11.814  -2.555  15.448  1.00  0.00     0.040 A 
ATOM     74  F   UNL     1     -10.338  -4.222  14.884  1.00  0.00    -0.206 F 
ATOM     75  C   UNL     1     -13.019  -1.893  15.302  1.00  0.00     0.006 A 
ENDBRANCH  54  68
BRANCH  55  76
ATOM     76  C   UNL     1      -8.544  -8.336   5.474  1.00  0.00     0.057 A 
ATOM     77  C   UNL     1      -7.871  -7.913   4.313  1.00  0.00     0.134 A 
ATOM     78  C   UNL     1      -7.815  -9.099   6.389  1.00  0.00     0.134 A 
ATOM     79  F   UNL     1      -8.516  -7.184   3.387  1.00  0.00    -0.206 F 
ATOM     80  C   UNL     1      -6.499  -8.114   4.141  1.00  0.00     0.040 A 
ATOM     81  C   UNL     1      -6.444  -9.324   6.216  1.00  0.00     0.040 A 
ATOM     82  F   UNL     1      -8.379  -9.518   7.531  1.00  0.00    -0.206 F 
ATOM     83  C   UNL     1      -5.774  -8.788   5.117  1.00  0.00     0.006 A 
ENDBRANCH  55  76
BRANCH  67  84
ATOM     84  C   UNL     1     -14.256  -9.118   9.812  1.00  0.00     0.057 A 
ATOM     85  C   UNL     1     -15.191  -9.848   9.068  1.00  0.00     0.134 A 
ATOM     86  C   UNL     1     -14.330  -9.255  11.209  1.00  0.00     0.134 A 
ATOM     87  F   UNL     1     -15.216  -9.769   7.728  1.00  0.00    -0.206 F 
ATOM     88  C   UNL     1     -16.142 -10.672   9.678  1.00  0.00     0.040 A 
ATOM     89  C   UNL     1     -15.305 -10.036  11.833  1.00  0.00     0.040 A 
ATOM     90  F   UNL     1     -13.450  -8.646  12.018  1.00  0.00    -0.206 F 
ATOM     91  C   UNL     1     -16.214 -10.752  11.066  1.00  0.00     0.006 A 
ENDBRANCH  67  84
ENDBRANCH  41  42
ENDBRANCH  33  36
ENDBRANCH  31  32
ENDBRANCH  30  31
ENDBRANCH   1  30
TORSDOF 14
