REMARK SMILES O=C(NCCCNC(=O)c1cc2c(C(F)(F)F)onc2c2ccccc12)c1ccc(-c2c3nc(c(-c4c(F)cccc4F)c4ccc([nH]4)c(-c4c(F)cccc4F)c4nc(c(-c5c(F)cccc5F)c5ccc2[nH]5)C=C4)C=C3)cc1
REMARK SMILES IDX 4 1 3 2 1 3 2 4 27 6 28 7 80 8 29 9 79 10 30 11 31 12 32 13
REMARK SMILES IDX 73 14 33 15 78 16 72 17 74 18 34 19 77 20 71 21 70 22 35 24
REMARK SMILES IDX 61 25 44 26 60 27 45 28 48 29 59 30 75 31 46 32 47 33 58 35
REMARK SMILES IDX 76 36 49 37 36 38 37 39 42 40 38 41 39 42 41 43 43 44 40 45
REMARK SMILES IDX 62 46 63 47 68 48 64 49 65 50 67 51 69 52 66 53 50 54 51 55
REMARK SMILES IDX 56 56 52 57 53 58 55 59 57 60 54 61 5 62 6 63 7 64 8 65 9 67
REMARK SMILES IDX 10 68 11 69 26 70 12 71 21 72 25 73 13 74 20 75 22 76 24 77
REMARK SMILES IDX 18 78 19 79 23 80 14 81 15 82 16 83 17 84
REMARK H PARENT 3 5 74 23 48 34 7 66
REMARK Flexibility Score: inf
ROOT
ATOM      1  C   UNL     1       4.541  -1.236   0.726  1.00  0.00     0.118 C 
ENDROOT
BRANCH   1   2
ATOM      2  N   UNL     1       3.083  -1.066   0.849  1.00  0.00    -0.352 N 
ATOM      3  O   UNL     1       1.160   0.150   0.562  1.00  0.00    -0.269 OA
ATOM      4  C   UNL     1       2.285  -0.112   0.201  1.00  0.00     0.251 C 
ATOM      5  H   UNL     1       2.618  -1.690   1.452  1.00  0.00     0.163 HD
BRANCH   4   6
ATOM      6  C   UNL     1       2.877   0.535  -0.988  1.00  0.00     0.039 A 
ATOM      7  C   UNL     1       2.898   1.909  -1.232  1.00  0.00     0.014 A 
ATOM      8  C   UNL     1       3.617  -0.327  -1.770  1.00  0.00     0.014 A 
ATOM      9  C   UNL     1       3.749   2.368  -2.239  1.00  0.00     0.010 A 
ATOM     10  C   UNL     1       4.747   0.183  -2.311  1.00  0.00     0.010 A 
ATOM     11  C   UNL     1       4.692   1.473  -2.772  1.00  0.00    -0.014 A 
BRANCH  11  12
ATOM     12  C   UNL     1       5.682   1.793  -3.787  1.00  0.00     0.031 A 
ATOM     13  C   UNL     1       6.413   3.045  -3.525  1.00  0.00     0.074 A 
ATOM     14  C   UNL     1       6.018   0.939  -4.787  1.00  0.00     0.049 A 
ATOM     15  N   UNL     1       6.196   4.188  -4.078  1.00  0.00    -0.248 NA
ATOM     16  C   UNL     1       7.338   3.094  -2.384  1.00  0.00     0.031 C 
ATOM     17  C   UNL     1       5.607  -0.459  -5.022  1.00  0.00     0.029 A 
ATOM     18  N   UNL     1       6.877   1.153  -5.819  1.00  0.00    -0.354 N 
ATOM     19  C   UNL     1       7.130   5.055  -3.529  1.00  0.00     0.074 A 
ATOM     20  C   UNL     1       7.643   4.394  -2.357  1.00  0.00     0.031 C 
ATOM     21  C   UNL     1       6.378  -1.021  -5.978  1.00  0.00     0.029 A 
ATOM     22  C   UNL     1       7.194   0.019  -6.566  1.00  0.00     0.049 A 
ATOM     23  H   UNL     1       7.248   2.042  -6.024  1.00  0.00     0.167 HD
ATOM     24  C   UNL     1       7.581   6.117  -4.252  1.00  0.00     0.037 A 
ATOM     25  C   UNL     1       8.056  -0.043  -7.611  1.00  0.00     0.037 A 
ATOM     26  C   UNL     1       6.726   6.351  -5.396  1.00  0.00     0.049 A 
ATOM     27  C   UNL     1       8.207   1.344  -8.123  1.00  0.00     0.074 A 
ATOM     28  C   UNL     1       5.391   6.668  -5.561  1.00  0.00     0.029 A 
ATOM     29  N   UNL     1       7.140   5.844  -6.606  1.00  0.00    -0.354 N 
ATOM     30  N   UNL     1       7.238   2.000  -8.702  1.00  0.00    -0.248 NA
ATOM     31  C   UNL     1       9.246   2.166  -7.522  1.00  0.00     0.031 C 
ATOM     32  C   UNL     1       4.962   5.891  -6.681  1.00  0.00     0.029 A 
ATOM     33  C   UNL     1       6.071   5.214  -7.192  1.00  0.00     0.049 A 
ATOM     34  H   UNL     1       8.045   5.921  -6.986  1.00  0.00     0.167 HD
ATOM     35  C   UNL     1       7.308   3.281  -8.171  1.00  0.00     0.074 A 
ATOM     36  C   UNL     1       8.607   3.340  -7.498  1.00  0.00     0.031 C 
ATOM     37  C   UNL     1       6.193   4.065  -8.064  1.00  0.00     0.037 A 
BRANCH  24  38
ATOM     38  C   UNL     1       8.986   6.663  -4.184  1.00  0.00     0.057 A 
ATOM     39  C   UNL     1      10.098   5.963  -3.676  1.00  0.00     0.134 A 
ATOM     40  C   UNL     1       9.297   7.807  -4.943  1.00  0.00     0.134 A 
ATOM     41  F   UNL     1       9.986   4.836  -2.966  1.00  0.00    -0.206 F 
ATOM     42  C   UNL     1      11.417   6.331  -3.956  1.00  0.00     0.040 A 
ATOM     43  C   UNL     1      10.613   8.156  -5.268  1.00  0.00     0.040 A 
ATOM     44  F   UNL     1       8.327   8.571  -5.467  1.00  0.00    -0.206 F 
ATOM     45  C   UNL     1      11.678   7.406  -4.788  1.00  0.00     0.006 A 
ENDBRANCH  24  38
BRANCH  25  46
ATOM     46  C   UNL     1       8.982  -1.139  -7.978  1.00  0.00     0.057 A 
ATOM     47  C   UNL     1       9.518  -1.993  -6.998  1.00  0.00     0.134 A 
ATOM     48  C   UNL     1       9.584  -1.199  -9.242  1.00  0.00     0.134 A 
ATOM     49  F   UNL     1       9.066  -1.964  -5.736  1.00  0.00    -0.206 F 
ATOM     50  C   UNL     1      10.604  -2.839  -7.252  1.00  0.00     0.040 A 
ATOM     51  C   UNL     1      10.674  -2.042  -9.510  1.00  0.00     0.040 A 
ATOM     52  F   UNL     1       9.171  -0.394 -10.231  1.00  0.00    -0.206 F 
ATOM     53  C   UNL     1      11.195  -2.856  -8.508  1.00  0.00     0.006 A 
ENDBRANCH  25  46
BRANCH  37  54
ATOM     54  C   UNL     1       4.935   3.584  -8.742  1.00  0.00     0.057 A 
ATOM     55  C   UNL     1       4.332   4.402  -9.702  1.00  0.00     0.134 A 
ATOM     56  C   UNL     1       4.239   2.415  -8.390  1.00  0.00     0.134 A 
ATOM     57  F   UNL     1       4.903   5.566 -10.050  1.00  0.00    -0.206 F 
ATOM     58  C   UNL     1       3.111   4.071 -10.296  1.00  0.00     0.040 A 
ATOM     59  C   UNL     1       3.031   2.055  -8.998  1.00  0.00     0.040 A 
ATOM     60  F   UNL     1       4.680   1.615  -7.412  1.00  0.00    -0.206 F 
ATOM     61  C   UNL     1       2.462   2.888  -9.954  1.00  0.00     0.006 A 
ENDBRANCH  37  54
ENDBRANCH  11  12
ENDBRANCH   4   6
ENDBRANCH   1   2
BRANCH   1  62
ATOM     62  C   UNL     1       5.165  -2.272   1.627  1.00  0.00     0.042 C 
BRANCH  62  63
ATOM     63  C   UNL     1       4.738  -3.693   1.288  1.00  0.00     0.118 C 
BRANCH  63  64
ATOM     64  N   UNL     1       5.160  -4.204  -0.020  1.00  0.00    -0.352 N 
ATOM     65  C   UNL     1       5.698  -5.434  -0.343  1.00  0.00     0.251 C 
ATOM     66  H   UNL     1       5.043  -3.582  -0.774  1.00  0.00     0.163 HD
ATOM     67  O   UNL     1       5.951  -5.717  -1.509  1.00  0.00    -0.269 OA
BRANCH  65  68
ATOM     68  C   UNL     1       6.062  -6.386   0.738  1.00  0.00     0.048 A 
ATOM     69  C   UNL     1       7.438  -6.732   0.758  1.00  0.00     0.029 A 
ATOM     70  C   UNL     1       5.086  -6.761   1.746  1.00  0.00    -0.003 A 
ATOM     71  C   UNL     1       7.771  -7.382   1.938  1.00  0.00     0.056 A 
ATOM     72  C   UNL     1       5.509  -7.334   2.982  1.00  0.00     0.012 A 
ATOM     73  C   UNL     1       3.698  -6.529   1.615  1.00  0.00     0.009 A 
ATOM     74  C   UNL     1       9.010  -7.837   2.298  1.00  0.00     0.248 A 
ATOM     75  C   UNL     1       6.894  -7.671   3.046  1.00  0.00     0.122 A 
ATOM     76  C   UNL     1       4.618  -7.499   4.062  1.00  0.00     0.011 A 
ATOM     77  C   UNL     1       2.818  -6.671   2.692  1.00  0.00     0.001 A 
ATOM     78  O   UNL     1       8.913  -8.358   3.554  1.00  0.00    -0.350 OA
ATOM     79  N   UNL     1       7.618  -8.245   4.024  1.00  0.00    -0.079 NA
ATOM     80  C   UNL     1       3.284  -7.126   3.921  1.00  0.00     0.001 A 
BRANCH  74  81
ATOM     81  C   UNL     1      10.344  -7.898   1.682  1.00  0.00     0.453 C 
ATOM     82  F   UNL     1      11.310  -7.398   2.494  1.00  0.00    -0.163 F 
ATOM     83  F   UNL     1      10.704  -9.171   1.377  1.00  0.00    -0.163 F 
ATOM     84  F   UNL     1      10.413  -7.190   0.524  1.00  0.00    -0.163 F 
ENDBRANCH  74  81
ENDBRANCH  65  68
ENDBRANCH  63  64
ENDBRANCH  62  63
ENDBRANCH   1  62
TORSDOF 11
