REMARK SMILES COCCCC(=O)N[C@H]1CC[C@@H](C(=O)NCCCNC(=O)c2ccc(-c3c4nc(c(-c5c(F)cccc5F)c5ccc([nH]5)c(-c5c(F)cccc5F)c5nc(c(-c6c(F)cccc6F)c6ccc3[nH]6)C=C5)C=C4)cc2)CC1
REMARK SMILES IDX 13 1 14 2 15 3 12 5 9 6 10 7 77 8 11 9 76 10 8 11 6 12 7 13
REMARK SMILES IDX 5 15 4 16 3 17 2 18 1 19 16 20 17 21 18 22 19 23 20 24 21 26
REMARK SMILES IDX 22 27 23 28 75 29 24 30 74 31 25 32 26 33 27 34 68 35 28 36
REMARK SMILES IDX 73 37 67 38 69 39 29 40 72 41 66 42 65 43 30 45 56 46 39 47
REMARK SMILES IDX 55 48 40 49 43 50 54 51 70 52 41 53 42 54 53 56 71 57 44 58
REMARK SMILES IDX 31 59 32 60 37 61 33 62 34 63 36 64 38 65 35 66 57 67 58 68
REMARK SMILES IDX 63 69 59 70 60 71 62 72 64 73 61 74 45 75 46 76 51 77 47 78
REMARK SMILES IDX 48 79 50 80 52 81 49 82
REMARK H PARENT 15 4 8 14 19 25 69 44 43 55
REMARK Flexibility Score: inf
ROOT
ATOM      1  C   UNL     1       4.420  -2.808   2.723  1.00  0.00     0.223 C 
ATOM      2  O   UNL     1       4.651  -3.360   3.806  1.00  0.00    -0.275 OA
ATOM      3  N   UNL     1       5.498  -2.264   2.111  1.00  0.00    -0.356 N 
ATOM      4  H   UNL     1       6.302  -2.246   2.678  1.00  0.00     0.163 HD
ENDROOT
BRANCH   1   5
ATOM      5  C   UNL     1       2.973  -2.755   2.208  1.00  0.00     0.078 C 
ATOM      6  C   UNL     1       2.254  -1.308  -0.314  1.00  0.00     0.082 C 
ATOM      7  C   UNL     1       2.668  -2.788  -0.372  1.00  0.00     0.026 C 
ATOM      8  C   UNL     1       2.522  -0.553   0.990  1.00  0.00     0.026 C 
ATOM      9  C   UNL     1       2.630  -3.544   0.947  1.00  0.00     0.015 C 
ATOM     10  C   UNL     1       2.323  -1.378   2.246  1.00  0.00     0.015 C 
BRANCH   6  11
ATOM     11  N   UNL     1       2.833  -0.621  -1.464  1.00  0.00    -0.353 N 
ATOM     12  C   UNL     1       2.293   0.012  -2.532  1.00  0.00     0.220 C 
ATOM     13  O   UNL     1       3.075   0.366  -3.419  1.00  0.00    -0.275 OA
ATOM     14  H   UNL     1       3.818  -0.618  -1.464  1.00  0.00     0.163 HD
BRANCH  12  15
ATOM     15  C   UNL     1       0.830   0.393  -2.614  1.00  0.00     0.102 C 
BRANCH  15  16
ATOM     16  C   UNL     1      -0.221  -0.677  -2.903  1.00  0.00     0.038 C 
BRANCH  16  17
ATOM     17  C   UNL     1      -0.711  -1.653  -1.831  1.00  0.00     0.160 C 
BRANCH  17  18
ATOM     18  O   UNL     1      -1.296  -1.218  -0.608  1.00  0.00    -0.385 OA
ATOM     19  C   UNL     1      -1.124   0.107  -0.155  1.00  0.00     0.194 C 
ENDBRANCH  17  18
ENDBRANCH  16  17
ENDBRANCH  15  16
ENDBRANCH  12  15
ENDBRANCH   6  11
ENDBRANCH   1   5
BRANCH   3  20
ATOM     20  C   UNL     1       5.710  -1.704   0.798  1.00  0.00     0.117 C 
BRANCH  20  21
ATOM     21  C   UNL     1       5.912  -0.200   0.801  1.00  0.00     0.042 C 
BRANCH  21  22
ATOM     22  C   UNL     1       7.302   0.222   0.395  1.00  0.00     0.118 C 
BRANCH  22  23
ATOM     23  N   UNL     1       7.621  -0.131  -0.986  1.00  0.00    -0.352 N 
ATOM     24  C   UNL     1       8.047   0.646  -2.035  1.00  0.00     0.251 C 
ATOM     25  H   UNL     1       7.512  -1.086  -1.200  1.00  0.00     0.163 HD
ATOM     26  O   UNL     1       8.162   0.140  -3.151  1.00  0.00    -0.269 OA
BRANCH  24  27
ATOM     27  C   UNL     1       8.344   2.082  -1.842  1.00  0.00     0.039 A 
ATOM     28  C   UNL     1       8.080   2.987  -2.873  1.00  0.00     0.014 A 
ATOM     29  C   UNL     1       8.880   2.544  -0.642  1.00  0.00     0.014 A 
ATOM     30  C   UNL     1       8.302   4.352  -2.669  1.00  0.00     0.010 A 
ATOM     31  C   UNL     1       8.928   3.902  -0.380  1.00  0.00     0.010 A 
ATOM     32  C   UNL     1       8.694   4.823  -1.407  1.00  0.00    -0.014 A 
BRANCH  32  33
ATOM     33  C   UNL     1       8.956   6.258  -1.141  1.00  0.00     0.031 A 
ATOM     34  C   UNL     1      10.314   6.680  -0.634  1.00  0.00     0.074 A 
ATOM     35  C   UNL     1       7.969   7.163  -1.280  1.00  0.00     0.049 A 
ATOM     36  N   UNL     1      10.724   7.859  -0.241  1.00  0.00    -0.248 NA
ATOM     37  C   UNL     1      11.334   5.624  -0.501  1.00  0.00     0.031 C 
ATOM     38  C   UNL     1       6.597   6.867  -1.698  1.00  0.00     0.029 A 
ATOM     39  N   UNL     1       7.969   8.519  -1.079  1.00  0.00    -0.354 N 
ATOM     40  C   UNL     1      12.026   7.672   0.210  1.00  0.00     0.074 A 
ATOM     41  C   UNL     1      12.308   6.259   0.130  1.00  0.00     0.031 C 
ATOM     42  C   UNL     1       5.902   8.014  -1.767  1.00  0.00     0.029 A 
ATOM     43  C   UNL     1       6.763   9.117  -1.356  1.00  0.00     0.049 A 
ATOM     44  H   UNL     1       8.758   9.017  -0.766  1.00  0.00     0.167 HD
ATOM     45  C   UNL     1      12.925   8.599   0.613  1.00  0.00     0.037 A 
ATOM     46  C   UNL     1       6.401  10.411  -1.285  1.00  0.00     0.037 A 
ATOM     47  C   UNL     1      12.655  10.009   0.636  1.00  0.00     0.049 A 
ATOM     48  C   UNL     1       7.423  11.428  -0.854  1.00  0.00     0.074 A 
ATOM     49  C   UNL     1      13.511  11.047   0.957  1.00  0.00     0.029 A 
ATOM     50  N   UNL     1      11.432  10.579   0.314  1.00  0.00    -0.354 N 
ATOM     51  N   UNL     1       8.672  11.247  -0.498  1.00  0.00    -0.248 NA
ATOM     52  C   UNL     1       6.987  12.830  -0.825  1.00  0.00     0.031 C 
ATOM     53  C   UNL     1      12.790  12.243   0.874  1.00  0.00     0.029 A 
ATOM     54  C   UNL     1      11.504  11.954   0.447  1.00  0.00     0.049 A 
ATOM     55  H   UNL     1      10.632  10.079   0.032  1.00  0.00     0.167 HD
ATOM     56  C   UNL     1       9.181  12.512  -0.235  1.00  0.00     0.074 A 
ATOM     57  C   UNL     1       8.107  13.452  -0.487  1.00  0.00     0.031 C 
ATOM     58  C   UNL     1      10.422  12.867   0.177  1.00  0.00     0.037 A 
BRANCH  45  59
ATOM     59  C   UNL     1      14.281   8.111   1.040  1.00  0.00     0.057 A 
ATOM     60  C   UNL     1      15.184   7.535   0.134  1.00  0.00     0.134 A 
ATOM     61  C   UNL     1      14.696   8.226   2.373  1.00  0.00     0.134 A 
ATOM     62  F   UNL     1      14.846   7.378  -1.155  1.00  0.00    -0.206 F 
ATOM     63  C   UNL     1      16.431   7.059   0.544  1.00  0.00     0.040 A 
ATOM     64  C   UNL     1      15.954   7.786   2.788  1.00  0.00     0.040 A 
ATOM     65  F   UNL     1      13.886   8.770   3.294  1.00  0.00    -0.206 F 
ATOM     66  C   UNL     1      16.822   7.191   1.874  1.00  0.00     0.006 A 
ENDBRANCH  45  59
BRANCH  46  67
ATOM     67  C   UNL     1       5.026  10.823  -1.669  1.00  0.00     0.057 A 
ATOM     68  C   UNL     1       4.796  11.578  -2.826  1.00  0.00     0.134 A 
ATOM     69  C   UNL     1       3.912  10.479  -0.894  1.00  0.00     0.134 A 
ATOM     70  F   UNL     1       5.824  11.951  -3.603  1.00  0.00    -0.206 F 
ATOM     71  C   UNL     1       3.514  11.997  -3.185  1.00  0.00     0.040 A 
ATOM     72  C   UNL     1       2.621  10.868  -1.256  1.00  0.00     0.040 A 
ATOM     73  F   UNL     1       4.061   9.747   0.220  1.00  0.00    -0.206 F 
ATOM     74  C   UNL     1       2.421  11.638  -2.400  1.00  0.00     0.006 A 
ENDBRANCH  46  67
BRANCH  58  75
ATOM     75  C   UNL     1      10.698  14.333   0.338  1.00  0.00     0.057 A 
ATOM     76  C   UNL     1      10.143  15.082   1.382  1.00  0.00     0.134 A 
ATOM     77  C   UNL     1      11.569  14.991  -0.541  1.00  0.00     0.134 A 
ATOM     78  F   UNL     1       9.294  14.514   2.251  1.00  0.00    -0.206 F 
ATOM     79  C   UNL     1      10.423  16.441   1.531  1.00  0.00     0.040 A 
ATOM     80  C   UNL     1      11.881  16.341  -0.384  1.00  0.00     0.040 A 
ATOM     81  F   UNL     1      12.144  14.327  -1.555  1.00  0.00    -0.206 F 
ATOM     82  C   UNL     1      11.301  17.072   0.651  1.00  0.00     0.006 A 
ENDBRANCH  58  75
ENDBRANCH  32  33
ENDBRANCH  24  27
ENDBRANCH  22  23
ENDBRANCH  21  22
ENDBRANCH  20  21
ENDBRANCH   3  20
TORSDOF 15
