REMARK SMILES CCc1nc(C)c(C(=O)NCCCNC(=O)c2ccc(-c3c4nc(c(-c5c(F)cccc5F)c5ccc([nH]5)c(-c5c(F)cccc5F)c5nc(c(-c6c(F)cccc6F)c6ccc3[nH]6)C=C5)C=C4)cc2)c(SCc2cnc(Cl)s2)n1
REMARK SMILES IDX 11 1 10 2 8 3 9 4 7 6 3 7 4 8 80 9 5 10 71 11 6 12 2 13 1 14
REMARK SMILES IDX 72 15 73 16 74 17 75 18 79 19 76 20 77 21 78 22 12 23 13 24
REMARK SMILES IDX 14 25 15 26 16 28 17 29 18 30 70 31 19 32 69 33 20 34 21 35
REMARK SMILES IDX 22 36 63 37 23 38 68 39 62 40 64 41 24 42 67 43 61 44 60 45
REMARK SMILES IDX 25 47 51 48 34 49 50 50 35 51 38 52 49 53 65 54 36 55 37 56
REMARK SMILES IDX 48 58 66 59 39 60 26 61 27 62 32 63 28 64 29 65 31 66 33 67
REMARK SMILES IDX 30 68 52 69 53 70 58 71 54 72 55 73 57 74 59 75 56 76 40 77
REMARK SMILES IDX 41 78 46 79 42 80 43 81 45 82 47 83 44 84
REMARK H PARENT 10 5 14 27 64 46 38 57
REMARK Flexibility Score: inf
ROOT
ATOM      1  C   UNL     1       2.646  -2.723   6.935  1.00  0.00     0.118 C 
ENDROOT
BRANCH   1   2
ATOM      2  N   UNL     1       3.341  -1.547   6.442  1.00  0.00    -0.352 N 
ATOM      3  C   UNL     1       3.304  -0.904   5.232  1.00  0.00     0.255 C 
ATOM      4  O   UNL     1       4.240  -0.154   4.959  1.00  0.00    -0.269 OA
ATOM      5  H   UNL     1       3.952  -1.137   7.096  1.00  0.00     0.163 HD
BRANCH   3   6
ATOM      6  C   UNL     1       2.169  -0.960   4.300  1.00  0.00     0.093 A 
ATOM      7  C   UNL     1       0.591  -0.800   2.080  1.00  0.00     0.129 A 
ATOM      8  N   UNL     1       1.101  -1.989   2.403  1.00  0.00    -0.237 NA
ATOM      9  N   UNL     1       0.713   0.286   2.848  1.00  0.00    -0.226 NA
ATOM     10  C   UNL     1       1.893  -2.068   3.497  1.00  0.00     0.055 A 
ATOM     11  C   UNL     1       1.509   0.221   3.948  1.00  0.00     0.113 A 
ATOM     12  C   UNL     1       2.469  -3.437   3.654  1.00  0.00     0.068 C 
BRANCH   7  13
ATOM     13  C   UNL     1      -0.025  -0.663   0.716  1.00  0.00     0.074 C 
ATOM     14  C   UNL     1       0.751   0.323  -0.149  1.00  0.00     0.012 C 
ENDBRANCH   7  13
BRANCH  11  15
ATOM     15  S   UNL     1       1.589   1.859   4.668  1.00  0.00    -0.100 SA
BRANCH  15  16
ATOM     16  C   UNL     1       1.996   1.711   6.428  1.00  0.00     0.125 C 
BRANCH  16  17
ATOM     17  C   UNL     1       0.897   1.197   7.298  1.00  0.00     0.036 A 
ATOM     18  C   UNL     1       0.282  -0.041   7.343  1.00  0.00     0.129 A 
ATOM     19  S   UNL     1       0.255   2.171   8.571  1.00  0.00    -0.107 S 
ATOM     20  N   UNL     1      -0.613  -0.246   8.373  1.00  0.00    -0.233 NA
ATOM     21  C   UNL     1      -0.702   0.860   9.068  1.00  0.00     0.183 A 
ATOM     22  Cl  UNL     1      -1.707   1.001  10.450  1.00  0.00    -0.051 Cl
ENDBRANCH  16  17
ENDBRANCH  15  16
ENDBRANCH  11  15
ENDBRANCH   3   6
ENDBRANCH   1   2
BRANCH   1  23
ATOM     23  C   UNL     1       3.554  -3.939   6.745  1.00  0.00     0.042 C 
BRANCH  23  24
ATOM     24  C   UNL     1       4.532  -4.133   7.892  1.00  0.00     0.118 C 
BRANCH  24  25
ATOM     25  N   UNL     1       3.924  -4.893   8.972  1.00  0.00    -0.352 N 
ATOM     26  C   UNL     1       4.355  -6.073   9.525  1.00  0.00     0.251 C 
ATOM     27  H   UNL     1       3.100  -4.515   9.354  1.00  0.00     0.163 HD
ATOM     28  O   UNL     1       3.594  -6.738  10.227  1.00  0.00    -0.269 OA
BRANCH  26  29
ATOM     29  C   UNL     1       5.731  -6.550   9.268  1.00  0.00     0.039 A 
ATOM     30  C   UNL     1       5.952  -7.910   9.036  1.00  0.00     0.014 A 
ATOM     31  C   UNL     1       6.806  -5.654   9.269  1.00  0.00     0.014 A 
ATOM     32  C   UNL     1       7.244  -8.364   8.765  1.00  0.00     0.010 A 
ATOM     33  C   UNL     1       8.076  -6.094   8.913  1.00  0.00     0.010 A 
ATOM     34  C   UNL     1       8.312  -7.456   8.680  1.00  0.00    -0.014 A 
BRANCH  34  35
ATOM     35  C   UNL     1       9.691  -7.911   8.379  1.00  0.00     0.031 A 
ATOM     36  C   UNL     1      10.780  -7.727   9.400  1.00  0.00     0.074 A 
ATOM     37  C   UNL     1       9.976  -8.425   7.168  1.00  0.00     0.049 A 
ATOM     38  N   UNL     1      12.057  -7.996   9.306  1.00  0.00    -0.248 NA
ATOM     39  C   UNL     1      10.387  -7.126  10.684  1.00  0.00     0.031 C 
ATOM     40  C   UNL     1       9.017  -8.598   6.076  1.00  0.00     0.029 A 
ATOM     41  N   UNL     1      11.159  -8.884   6.648  1.00  0.00    -0.354 N 
ATOM     42  C   UNL     1      12.619  -7.579  10.507  1.00  0.00     0.074 A 
ATOM     43  C   UNL     1      11.557  -6.983  11.287  1.00  0.00     0.031 C 
ATOM     44  C   UNL     1       9.644  -9.147   5.024  1.00  0.00     0.029 A 
ATOM     45  C   UNL     1      11.054  -9.332   5.355  1.00  0.00     0.049 A 
ATOM     46  H   UNL     1      12.004  -8.891   7.155  1.00  0.00     0.167 HD
ATOM     47  C   UNL     1      13.899  -7.704  10.932  1.00  0.00     0.037 A 
ATOM     48  C   UNL     1      11.991  -9.833   4.528  1.00  0.00     0.037 A 
ATOM     49  C   UNL     1      14.944  -8.323  10.160  1.00  0.00     0.049 A 
ATOM     50  C   UNL     1      13.401  -9.979   5.024  1.00  0.00     0.074 A 
ATOM     51  C   UNL     1      16.256  -8.569  10.524  1.00  0.00     0.029 A 
ATOM     52  N   UNL     1      14.792  -8.792   8.863  1.00  0.00    -0.354 N 
ATOM     53  N   UNL     1      13.904  -9.652   6.190  1.00  0.00    -0.248 NA
ATOM     54  C   UNL     1      14.373 -10.569   4.093  1.00  0.00     0.031 C 
ATOM     55  C   UNL     1      16.910  -9.144   9.429  1.00  0.00     0.029 A 
ATOM     56  C   UNL     1      15.993  -9.303   8.401  1.00  0.00     0.049 A 
ATOM     57  H   UNL     1      13.954  -8.765   8.347  1.00  0.00     0.167 HD
ATOM     58  C   UNL     1      15.243 -10.016   6.144  1.00  0.00     0.074 A 
ATOM     59  C   UNL     1      15.470 -10.602   4.838  1.00  0.00     0.031 C 
ATOM     60  C   UNL     1      16.199  -9.879   7.096  1.00  0.00     0.037 A 
BRANCH  47  61
ATOM     61  C   UNL     1      14.229  -7.156  12.291  1.00  0.00     0.057 A 
ATOM     62  C   UNL     1      13.729  -7.734  13.466  1.00  0.00     0.134 A 
ATOM     63  C   UNL     1      15.059  -6.036  12.428  1.00  0.00     0.134 A 
ATOM     64  F   UNL     1      12.918  -8.800  13.408  1.00  0.00    -0.206 F 
ATOM     65  C   UNL     1      14.008  -7.194  14.724  1.00  0.00     0.040 A 
ATOM     66  C   UNL     1      15.371  -5.506  13.681  1.00  0.00     0.040 A 
ATOM     67  F   UNL     1      15.578  -5.435  11.346  1.00  0.00    -0.206 F 
ATOM     68  C   UNL     1      14.836  -6.079  14.833  1.00  0.00     0.006 A 
ENDBRANCH  47  61
BRANCH  48  69
ATOM     69  C   UNL     1      11.608 -10.264   3.160  1.00  0.00     0.057 A 
ATOM     70  C   UNL     1      11.549 -11.620   2.821  1.00  0.00     0.134 A 
ATOM     71  C   UNL     1      11.263  -9.335   2.171  1.00  0.00     0.134 A 
ATOM     72  F   UNL     1      11.882 -12.556   3.722  1.00  0.00    -0.206 F 
ATOM     73  C   UNL     1      11.171 -12.039   1.544  1.00  0.00     0.040 A 
ATOM     74  C   UNL     1      10.861  -9.740   0.897  1.00  0.00     0.040 A 
ATOM     75  F   UNL     1      11.289  -8.021   2.437  1.00  0.00    -0.206 F 
ATOM     76  C   UNL     1      10.818 -11.097   0.580  1.00  0.00     0.006 A 
ENDBRANCH  48  69
BRANCH  60  77
ATOM     77  C   UNL     1      17.570 -10.392   6.767  1.00  0.00     0.057 A 
ATOM     78  C   UNL     1      18.409  -9.730   5.862  1.00  0.00     0.134 A 
ATOM     79  C   UNL     1      18.073 -11.537   7.398  1.00  0.00     0.134 A 
ATOM     80  F   UNL     1      17.983  -8.634   5.215  1.00  0.00    -0.206 F 
ATOM     81  C   UNL     1      19.692 -10.202   5.579  1.00  0.00     0.040 A 
ATOM     82  C   UNL     1      19.363 -12.003   7.143  1.00  0.00     0.040 A 
ATOM     83  F   UNL     1      17.323 -12.212   8.282  1.00  0.00    -0.206 F 
ATOM     84  C   UNL     1      20.174 -11.338   6.227  1.00  0.00     0.006 A 
ENDBRANCH  60  77
ENDBRANCH  34  35
ENDBRANCH  26  29
ENDBRANCH  24  25
ENDBRANCH  23  24
ENDBRANCH   1  23
TORSDOF 14
