REMARK SMILES O=C(NCCCNC(=O)c1ccnc(Oc2cccc(C(F)(F)F)c2)c1)c1ccc(-c2c3nc(c(-c4c(F)cccc4F)c4ccc([nH]4)c(-c4c(F)cccc4F)c4nc(c(-c5c(F)cccc5F)c5ccc2[nH]5)C=C4)C=C3)cc1
REMARK SMILES IDX 5 1 4 2 3 3 1 4 2 5 27 7 28 8 80 9 29 10 79 11 30 12 31 13
REMARK SMILES IDX 32 14 73 15 33 16 78 17 72 18 74 19 34 20 77 21 71 22 70 23
REMARK SMILES IDX 35 25 61 26 44 27 60 28 45 29 48 30 59 31 75 32 46 33 47 34
REMARK SMILES IDX 58 36 76 37 49 38 36 39 37 40 42 41 38 42 39 43 41 44 43 45
REMARK SMILES IDX 40 46 62 47 63 48 68 49 64 50 65 51 67 52 69 53 66 54 50 55
REMARK SMILES IDX 51 56 56 57 52 58 53 59 55 60 57 61 54 62 6 63 7 64 8 65
REMARK SMILES IDX 9 67 10 68 11 69 26 70 12 71 14 72 13 73 15 74 16 75 17 76
REMARK SMILES IDX 25 77 18 78 20 79 19 80 21 81 22 82 23 83 24 84
REMARK H PARENT 3 6 74 24 48 35 7 66
REMARK Flexibility Score: inf
ROOT
ATOM      1  C   UNL     1       4.737  -2.501  -0.308  1.00  0.00     0.042 C 
ENDROOT
BRANCH   1   2
ATOM      2  C   UNL     1       4.420  -1.132  -0.897  1.00  0.00     0.118 C 
BRANCH   2   3
ATOM      3  N   UNL     1       2.998  -0.810  -0.862  1.00  0.00    -0.352 N 
ATOM      4  O   UNL     1       1.062   0.067  -0.129  1.00  0.00    -0.269 OA
ATOM      5  C   UNL     1       2.290   0.093  -0.104  1.00  0.00     0.251 C 
ATOM      6  H   UNL     1       2.449  -1.330  -1.492  1.00  0.00     0.163 HD
BRANCH   5   7
ATOM      7  C   UNL     1       2.983   1.071   0.764  1.00  0.00     0.039 A 
ATOM      8  C   UNL     1       4.146   1.713   0.345  1.00  0.00     0.014 A 
ATOM      9  C   UNL     1       2.442   1.373   2.019  1.00  0.00     0.014 A 
ATOM     10  C   UNL     1       4.872   2.488   1.243  1.00  0.00     0.010 A 
ATOM     11  C   UNL     1       3.116   2.244   2.882  1.00  0.00     0.010 A 
ATOM     12  C   UNL     1       4.367   2.766   2.523  1.00  0.00    -0.014 A 
BRANCH  12  13
ATOM     13  C   UNL     1       5.165   3.614   3.448  1.00  0.00     0.031 A 
ATOM     14  C   UNL     1       5.686   3.067   4.751  1.00  0.00     0.074 A 
ATOM     15  C   UNL     1       5.471   4.874   3.079  1.00  0.00     0.049 A 
ATOM     16  N   UNL     1       6.452   3.649   5.642  1.00  0.00    -0.248 NA
ATOM     17  C   UNL     1       5.293   1.696   5.108  1.00  0.00     0.031 C 
ATOM     18  C   UNL     1       5.016   5.526   1.849  1.00  0.00     0.029 A 
ATOM     19  N   UNL     1       6.261   5.819   3.682  1.00  0.00    -0.354 N 
ATOM     20  C   UNL     1       6.608   2.729   6.671  1.00  0.00     0.074 A 
ATOM     21  C   UNL     1       5.838   1.559   6.309  1.00  0.00     0.031 C 
ATOM     22  C   UNL     1       5.585   6.737   1.757  1.00  0.00     0.029 A 
ATOM     23  C   UNL     1       6.395   6.972   2.946  1.00  0.00     0.049 A 
ATOM     24  H   UNL     1       6.690   5.686   4.558  1.00  0.00     0.167 HD
ATOM     25  C   UNL     1       7.335   2.844   7.809  1.00  0.00     0.037 A 
ATOM     26  C   UNL     1       7.089   8.096   3.199  1.00  0.00     0.037 A 
ATOM     27  C   UNL     1       8.127   3.997   8.155  1.00  0.00     0.049 A 
ATOM     28  C   UNL     1       7.887   8.195   4.466  1.00  0.00     0.074 A 
ATOM     29  C   UNL     1       8.931   4.189   9.266  1.00  0.00     0.029 A 
ATOM     30  N   UNL     1       8.215   5.153   7.395  1.00  0.00    -0.354 N 
ATOM     31  N   UNL     1       8.053   7.301   5.410  1.00  0.00    -0.248 NA
ATOM     32  C   UNL     1       8.593   9.461   4.703  1.00  0.00     0.031 C 
ATOM     33  C   UNL     1       9.473   5.478   9.198  1.00  0.00     0.029 A 
ATOM     34  C   UNL     1       9.044   6.069   8.021  1.00  0.00     0.049 A 
ATOM     35  H   UNL     1       7.756   5.301   6.536  1.00  0.00     0.167 HD
ATOM     36  C   UNL     1       8.902   7.885   6.340  1.00  0.00     0.074 A 
ATOM     37  C   UNL     1       9.229   9.204   5.837  1.00  0.00     0.031 C 
ATOM     38  C   UNL     1       9.369   7.375   7.505  1.00  0.00     0.037 A 
BRANCH  25  39
ATOM     39  C   UNL     1       7.296   1.697   8.778  1.00  0.00     0.057 A 
ATOM     40  C   UNL     1       7.939   0.479   8.518  1.00  0.00     0.134 A 
ATOM     41  C   UNL     1       6.639   1.828  10.009  1.00  0.00     0.134 A 
ATOM     42  F   UNL     1       8.576   0.283   7.354  1.00  0.00    -0.206 F 
ATOM     43  C   UNL     1       7.910  -0.573   9.436  1.00  0.00     0.040 A 
ATOM     44  C   UNL     1       6.624   0.792  10.945  1.00  0.00     0.040 A 
ATOM     45  F   UNL     1       6.009   2.969  10.326  1.00  0.00    -0.206 F 
ATOM     46  C   UNL     1       7.257  -0.415  10.657  1.00  0.00     0.006 A 
ENDBRANCH  25  39
BRANCH  26  47
ATOM     47  C   UNL     1       7.071   9.212   2.221  1.00  0.00     0.057 A 
ATOM     48  C   UNL     1       8.212   9.544   1.482  1.00  0.00     0.134 A 
ATOM     49  C   UNL     1       5.915   9.969   1.999  1.00  0.00     0.134 A 
ATOM     50  F   UNL     1       9.355   8.866   1.663  1.00  0.00    -0.206 F 
ATOM     51  C   UNL     1       8.209  10.599   0.568  1.00  0.00     0.040 A 
ATOM     52  C   UNL     1       5.889  11.008   1.069  1.00  0.00     0.040 A 
ATOM     53  F   UNL     1       4.787   9.694   2.671  1.00  0.00    -0.206 F 
ATOM     54  C   UNL     1       7.042  11.331   0.356  1.00  0.00     0.006 A 
ENDBRANCH  26  47
BRANCH  38  55
ATOM     55  C   UNL     1      10.317   8.231   8.291  1.00  0.00     0.057 A 
ATOM     56  C   UNL     1       9.888   9.371   8.982  1.00  0.00     0.134 A 
ATOM     57  C   UNL     1      11.676   7.899   8.368  1.00  0.00     0.134 A 
ATOM     58  F   UNL     1       8.602   9.751   8.936  1.00  0.00    -0.206 F 
ATOM     59  C   UNL     1      10.783  10.168   9.699  1.00  0.00     0.040 A 
ATOM     60  C   UNL     1      12.575   8.673   9.103  1.00  0.00     0.040 A 
ATOM     61  F   UNL     1      12.149   6.815   7.736  1.00  0.00    -0.206 F 
ATOM     62  C   UNL     1      12.130   9.816   9.764  1.00  0.00     0.006 A 
ENDBRANCH  38  55
ENDBRANCH  12  13
ENDBRANCH   5   7
ENDBRANCH   2   3
ENDBRANCH   1   2
BRANCH   1  63
ATOM     63  C   UNL     1       4.127  -3.666  -1.077  1.00  0.00     0.118 C 
BRANCH  63  64
ATOM     64  N   UNL     1       4.641  -3.769  -2.436  1.00  0.00    -0.352 N 
ATOM     65  C   UNL     1       5.514  -4.671  -2.988  1.00  0.00     0.251 C 
ATOM     66  H   UNL     1       4.308  -3.082  -3.058  1.00  0.00     0.163 HD
ATOM     67  O   UNL     1       5.974  -4.475  -4.109  1.00  0.00    -0.269 OA
BRANCH  65  68
ATOM     68  C   UNL     1       5.936  -5.862  -2.229  1.00  0.00     0.046 A 
ATOM     69  C   UNL     1       5.004  -6.703  -1.631  1.00  0.00     0.034 A 
ATOM     70  C   UNL     1       7.298  -6.147  -2.149  1.00  0.00     0.082 A 
ATOM     71  C   UNL     1       5.489  -7.750  -0.880  1.00  0.00     0.116 A 
ATOM     72  C   UNL     1       7.697  -7.212  -1.358  1.00  0.00     0.219 A 
ATOM     73  N   UNL     1       6.804  -8.003  -0.716  1.00  0.00    -0.222 NA
BRANCH  72  74
ATOM     74  O   UNL     1       9.002  -7.589  -1.128  1.00  0.00    -0.439 OA
BRANCH  74  75
ATOM     75  C   UNL     1      10.027  -6.876  -1.695  1.00  0.00     0.130 A 
ATOM     76  C   UNL     1      10.859  -7.549  -2.587  1.00  0.00     0.047 A 
ATOM     77  C   UNL     1      10.299  -5.554  -1.333  1.00  0.00     0.060 A 
ATOM     78  C   UNL     1      11.936  -6.883  -3.168  1.00  0.00     0.004 A 
ATOM     79  C   UNL     1      11.358  -4.863  -1.940  1.00  0.00     0.059 A 
ATOM     80  C   UNL     1      12.177  -5.544  -2.857  1.00  0.00     0.013 A 
BRANCH  79  81
ATOM     81  C   UNL     1      11.618  -3.410  -1.632  1.00  0.00     0.416 C 
ATOM     82  F   UNL     1      12.823  -3.207  -1.034  1.00  0.00    -0.166 F 
ATOM     83  F   UNL     1      11.620  -2.635  -2.753  1.00  0.00    -0.166 F 
ATOM     84  F   UNL     1      10.688  -2.857  -0.803  1.00  0.00    -0.166 F 
ENDBRANCH  79  81
ENDBRANCH  74  75
ENDBRANCH  72  74
ENDBRANCH  65  68
ENDBRANCH  63  64
ENDBRANCH   1  63
TORSDOF 13
