REMARK SMILES C[C@H]1CC[C@@]1(C(=O)NCCCNC(=O)c1ccc(-c2c3nc(c(-c4c(F)cccc4F)c4ccc([nH]4)c(-c4c(F)cccc4F)c4nc(c(-c5c(F)cccc5F)c5ccc2[nH]5)C=C4)C=C3)cc1)c1ccc(Cl)cc1Cl
REMARK SMILES IDX 10 1 9 2 8 3 6 4 7 5 5 7 1 8 2 9 3 10 4 11 69 12 70 13 75 14
REMARK SMILES IDX 71 15 74 16 76 17 72 18 73 19 11 20 12 21 13 22 14 24 15 25
REMARK SMILES IDX 16 26 68 27 17 28 67 29 18 30 19 31 20 32 61 33 21 34 66 35
REMARK SMILES IDX 60 36 62 37 22 38 65 39 59 40 58 41 23 43 49 44 32 45 48 46
REMARK SMILES IDX 33 47 36 48 47 49 63 50 34 51 35 52 46 54 64 55 37 56 24 57
REMARK SMILES IDX 25 58 30 59 26 60 27 61 29 62 31 63 28 64 50 65 51 66 56 67
REMARK SMILES IDX 52 68 53 69 55 70 57 71 54 72 38 73 39 74 44 75 40 76 41 77
REMARK SMILES IDX 43 78 45 79 42 80
REMARK H PARENT 8 6 12 23 62 42 36 53
REMARK Flexibility Score: inf
ROOT
ATOM      1  C   UNL     1       3.741   3.462  -0.337  1.00  0.00     0.042 C 
ENDROOT
BRANCH   1   2
ATOM      2  C   UNL     1       3.517   1.987  -0.029  1.00  0.00     0.117 C 
BRANCH   2   3
ATOM      3  N   UNL     1       2.809   1.752   1.213  1.00  0.00    -0.355 N 
ATOM      4  C   UNL     1       1.529   1.300   1.441  1.00  0.00     0.230 C 
ATOM      5  O   UNL     1       1.242   1.087   2.627  1.00  0.00    -0.274 OA
ATOM      6  H   UNL     1       3.328   1.949   2.026  1.00  0.00     0.163 HD
BRANCH   4   7
ATOM      7  C   UNL     1       0.542   1.028   0.207  1.00  0.00     0.078 C 
ATOM      8  C   UNL     1      -1.973   0.111  -0.276  1.00  0.00     0.009 C 
ATOM      9  C   UNL     1      -0.708   0.089   0.575  1.00  0.00     0.006 C 
ATOM     10  C   UNL     1       0.203  -1.124   0.272  1.00  0.00     0.006 C 
ATOM     11  C   UNL     1       1.024  -0.217  -0.658  1.00  0.00     0.022 C 
BRANCH   7  12
ATOM     12  C   UNL     1       0.150   2.446  -0.556  1.00  0.00    -0.013 A 
ATOM     13  C   UNL     1      -0.111   2.448  -1.952  1.00  0.00     0.008 A 
ATOM     14  C   UNL     1       0.005   3.718   0.063  1.00  0.00     0.046 A 
ATOM     15  C   UNL     1      -0.431   3.603  -2.677  1.00  0.00     0.021 A 
ATOM     16  C   UNL     1      -0.276   4.889  -0.664  1.00  0.00     0.041 A 
ATOM     17  Cl  UNL     1       0.140   3.952   1.771  1.00  0.00    -0.084 Cl
ATOM     18  C   UNL     1      -0.488   4.825  -2.031  1.00  0.00     0.042 A 
ATOM     19  Cl  UNL     1      -0.836   6.255  -2.919  1.00  0.00    -0.084 Cl
ENDBRANCH   7  12
ENDBRANCH   4   7
ENDBRANCH   2   3
ENDBRANCH   1   2
BRANCH   1  20
ATOM     20  C   UNL     1       4.402   4.261   0.780  1.00  0.00     0.118 C 
BRANCH  20  21
ATOM     21  N   UNL     1       5.747   3.799   1.089  1.00  0.00    -0.352 N 
ATOM     22  C   UNL     1       6.964   4.411   0.929  1.00  0.00     0.251 C 
ATOM     23  H   UNL     1       5.791   2.896   1.478  1.00  0.00     0.163 HD
ATOM     24  O   UNL     1       7.993   3.756   1.103  1.00  0.00    -0.269 OA
BRANCH  22  25
ATOM     25  C   UNL     1       7.068   5.831   0.525  1.00  0.00     0.039 A 
ATOM     26  C   UNL     1       8.069   6.198  -0.381  1.00  0.00     0.014 A 
ATOM     27  C   UNL     1       6.226   6.811   1.057  1.00  0.00     0.014 A 
ATOM     28  C   UNL     1       8.179   7.526  -0.803  1.00  0.00     0.010 A 
ATOM     29  C   UNL     1       6.283   8.118   0.575  1.00  0.00     0.010 A 
ATOM     30  C   UNL     1       7.262   8.491  -0.358  1.00  0.00    -0.014 A 
BRANCH  30  31
ATOM     31  C   UNL     1       7.314   9.891  -0.855  1.00  0.00     0.031 A 
ATOM     32  C   UNL     1       7.593  11.025   0.094  1.00  0.00     0.074 A 
ATOM     33  C   UNL     1       7.051  10.151  -2.151  1.00  0.00     0.049 A 
ATOM     34  N   UNL     1       7.595  12.314  -0.135  1.00  0.00    -0.248 NA
ATOM     35  C   UNL     1       7.886  10.663   1.490  1.00  0.00     0.031 C 
ATOM     36  C   UNL     1       6.723   9.148  -3.166  1.00  0.00     0.029 A 
ATOM     37  N   UNL     1       7.002  11.341  -2.833  1.00  0.00    -0.354 N 
ATOM     38  C   UNL     1       7.878  12.915   1.085  1.00  0.00     0.074 A 
ATOM     39  C   UNL     1       7.988  11.854   2.063  1.00  0.00     0.031 C 
ATOM     40  C   UNL     1       6.519   9.763  -4.342  1.00  0.00     0.029 A 
ATOM     41  C   UNL     1       6.665  11.203  -4.158  1.00  0.00     0.049 A 
ATOM     42  H   UNL     1       7.191  12.211  -2.413  1.00  0.00     0.167 HD
ATOM     43  C   UNL     1       8.055  14.229   1.363  1.00  0.00     0.037 A 
ATOM     44  C   UNL     1       6.480  12.133  -5.114  1.00  0.00     0.037 A 
ATOM     45  C   UNL     1       7.963  15.286   0.389  1.00  0.00     0.049 A 
ATOM     46  C   UNL     1       6.672  13.585  -4.779  1.00  0.00     0.074 A 
ATOM     47  C   UNL     1       8.162  16.644   0.568  1.00  0.00     0.029 A 
ATOM     48  N   UNL     1       7.646  15.101  -0.948  1.00  0.00    -0.354 N 
ATOM     49  N   UNL     1       6.991  14.133  -3.631  1.00  0.00    -0.248 NA
ATOM     50  C   UNL     1       6.486  14.549  -5.873  1.00  0.00     0.031 C 
ATOM     51  C   UNL     1       7.932  17.285  -0.653  1.00  0.00     0.029 A 
ATOM     52  C   UNL     1       7.633  16.322  -1.603  1.00  0.00     0.049 A 
ATOM     53  H   UNL     1       7.459  14.231  -1.369  1.00  0.00     0.167 HD
ATOM     54  C   UNL     1       7.069  15.499  -3.871  1.00  0.00     0.074 A 
ATOM     55  C   UNL     1       6.780  15.695  -5.276  1.00  0.00     0.031 C 
ATOM     56  C   UNL     1       7.353  16.501  -3.004  1.00  0.00     0.037 A 
BRANCH  43  57
ATOM     57  C   UNL     1       8.381  14.597   2.782  1.00  0.00     0.057 A 
ATOM     58  C   UNL     1       9.626  14.299   3.350  1.00  0.00     0.134 A 
ATOM     59  C   UNL     1       7.457  15.288   3.576  1.00  0.00     0.134 A 
ATOM     60  F   UNL     1      10.552  13.629   2.647  1.00  0.00    -0.206 F 
ATOM     61  C   UNL     1       9.933  14.653   4.665  1.00  0.00     0.040 A 
ATOM     62  C   UNL     1       7.762  15.671   4.884  1.00  0.00     0.040 A 
ATOM     63  F   UNL     1       6.249  15.611   3.092  1.00  0.00    -0.206 F 
ATOM     64  C   UNL     1       9.001  15.347   5.434  1.00  0.00     0.006 A 
ENDBRANCH  43  57
BRANCH  44  65
ATOM     65  C   UNL     1       6.097  11.719  -6.488  1.00  0.00     0.057 A 
ATOM     66  C   UNL     1       6.993  11.841  -7.557  1.00  0.00     0.134 A 
ATOM     67  C   UNL     1       4.824  11.209  -6.769  1.00  0.00     0.134 A 
ATOM     68  F   UNL     1       8.221  12.341  -7.354  1.00  0.00    -0.206 F 
ATOM     69  C   UNL     1       6.631  11.491  -8.858  1.00  0.00     0.040 A 
ATOM     70  C   UNL     1       4.457  10.831  -8.061  1.00  0.00     0.040 A 
ATOM     71  F   UNL     1       3.923  11.060  -5.787  1.00  0.00    -0.206 F 
ATOM     72  C   UNL     1       5.359  10.980  -9.112  1.00  0.00     0.006 A 
ENDBRANCH  44  65
BRANCH  56  73
ATOM     73  C   UNL     1       7.401  17.895  -3.557  1.00  0.00     0.057 A 
ATOM     74  C   UNL     1       6.239  18.584  -3.926  1.00  0.00     0.134 A 
ATOM     75  C   UNL     1       8.622  18.567  -3.690  1.00  0.00     0.134 A 
ATOM     76  F   UNL     1       5.039  17.991  -3.836  1.00  0.00    -0.206 F 
ATOM     77  C   UNL     1       6.292  19.886  -4.427  1.00  0.00     0.040 A 
ATOM     78  C   UNL     1       8.686  19.877  -4.166  1.00  0.00     0.040 A 
ATOM     79  F   UNL     1       9.772  17.965  -3.348  1.00  0.00    -0.206 F 
ATOM     80  C   UNL     1       7.519  20.538  -4.541  1.00  0.00     0.006 A 
ENDBRANCH  56  73
ENDBRANCH  30  31
ENDBRANCH  22  25
ENDBRANCH  20  21
ENDBRANCH   1  20
TORSDOF 11
