REMARK SMILES Cc1ccc(S(=O)(=O)N[C@@H](Cc2cccc(F)c2)C(=O)NCCCNC(=O)c2ccc(-c3c4nc(c(-c5c(F)cccc5F)c5ccc([nH]5)c(-c5c(F)cccc5F)c5nc(c(-c6c(F)cccc6F)c6ccc3[nH]6)C=C5)C=C4)cc2)cc1
REMARK SMILES IDX 22 1 21 2 19 3 20 4 10 6 9 7 6 9 7 10 8 11 5 12 1 13 2 14
REMARK SMILES IDX 3 15 83 16 4 17 82 18 11 19 12 20 13 21 18 22 14 23 16 24
REMARK SMILES IDX 15 25 17 26 23 27 24 28 25 29 26 30 27 32 28 33 29 34 81 35
REMARK SMILES IDX 30 36 80 37 31 38 32 39 33 40 74 41 34 42 79 43 73 44 75 45
REMARK SMILES IDX 35 46 78 47 72 48 71 49 36 51 62 52 45 53 61 54 46 55 49 56
REMARK SMILES IDX 60 57 76 58 47 59 48 60 59 62 77 63 50 64 37 65 38 66 43 67
REMARK SMILES IDX 39 68 40 69 42 70 44 71 41 72 63 73 64 74 69 75 65 76 66 77
REMARK SMILES IDX 68 78 70 79 67 80 51 81 52 82 57 83 53 84 54 85 56 86 58 87
REMARK SMILES IDX 55 88
REMARK H PARENT 21 5 9 8 25 31 75 50 49 61
REMARK Flexibility Score: inf
ROOT
ATOM      1  C   UNL     1      -6.617   2.683  -1.381  1.00  0.00     0.117 C 
ENDROOT
BRANCH   1   2
ATOM      2  N   UNL     1      -5.647   3.670  -0.929  1.00  0.00    -0.355 N 
ATOM      3  C   UNL     1      -4.284   3.602  -0.960  1.00  0.00     0.238 C 
ATOM      4  O   UNL     1      -3.640   4.558  -0.519  1.00  0.00    -0.273 OA
ATOM      5  H   UNL     1      -6.024   4.497  -0.550  1.00  0.00     0.163 HD
BRANCH   3   6
ATOM      6  C   UNL     1      -3.562   2.321  -1.430  1.00  0.00     0.163 C 
BRANCH   6   7
ATOM      7  N   UNL     1      -3.907   1.379  -0.332  1.00  0.00    -0.198 NA
ATOM      8  H   UNL     1      -3.609   1.851   0.522  1.00  0.00     0.142 HD
BRANCH   7   9
ATOM      9  S   UNL     1      -3.387  -0.183  -0.160  1.00  0.00     0.241 S 
ATOM     10  O   UNL     1      -3.660  -0.871  -1.412  1.00  0.00    -0.207 OA
ATOM     11  O   UNL     1      -3.939  -0.635   1.086  1.00  0.00    -0.207 OA
BRANCH   9  12
ATOM     12  C   UNL     1      -1.632  -0.117   0.035  1.00  0.00     0.082 A 
ATOM     13  C   UNL     1       2.658  -0.064   0.063  1.00  0.00     0.044 C 
ATOM     14  C   UNL     1       1.159  -0.082   0.092  1.00  0.00    -0.051 A 
ATOM     15  C   UNL     1       0.474  -1.282  -0.136  1.00  0.00     0.005 A 
ATOM     16  C   UNL     1       0.431   1.085   0.359  1.00  0.00     0.005 A 
ATOM     17  C   UNL     1      -0.918  -1.300  -0.176  1.00  0.00     0.022 A 
ATOM     18  C   UNL     1      -0.965   1.068   0.348  1.00  0.00     0.022 A 
ENDBRANCH   9  12
ENDBRANCH   7   9
ENDBRANCH   6   7
BRANCH   6  19
ATOM     19  C   UNL     1      -3.871   1.819  -2.857  1.00  0.00     0.065 C 
BRANCH  19  20
ATOM     20  C   UNL     1      -4.441   2.749  -3.919  1.00  0.00    -0.043 A 
ATOM     21  C   UNL     1      -5.153   2.166  -4.986  1.00  0.00     0.004 A 
ATOM     22  C   UNL     1      -4.320   4.145  -3.907  1.00  0.00     0.043 A 
ATOM     23  C   UNL     1      -5.788   2.950  -5.955  1.00  0.00     0.003 A 
ATOM     24  C   UNL     1      -4.993   4.920  -4.852  1.00  0.00     0.123 A 
ATOM     25  C   UNL     1      -5.731   4.336  -5.871  1.00  0.00     0.039 A 
ATOM     26  F   UNL     1      -4.942   6.255  -4.761  1.00  0.00    -0.207 F 
ENDBRANCH  19  20
ENDBRANCH   6  19
ENDBRANCH   3   6
ENDBRANCH   1   2
BRANCH   1  27
ATOM     27  C   UNL     1      -7.559   2.254  -0.272  1.00  0.00     0.042 C 
BRANCH  27  28
ATOM     28  C   UNL     1      -8.649   3.276  -0.036  1.00  0.00     0.118 C 
BRANCH  28  29
ATOM     29  N   UNL     1      -9.774   3.193  -0.957  1.00  0.00    -0.352 N 
ATOM     30  C   UNL     1     -10.921   3.963  -1.036  1.00  0.00     0.251 C 
ATOM     31  H   UNL     1      -9.708   2.477  -1.629  1.00  0.00     0.163 HD
ATOM     32  O   UNL     1     -11.805   3.633  -1.825  1.00  0.00    -0.269 OA
BRANCH  30  33
ATOM     33  C   UNL     1     -11.020   5.269  -0.329  1.00  0.00     0.039 A 
ATOM     34  C   UNL     1     -11.754   6.295  -0.947  1.00  0.00     0.014 A 
ATOM     35  C   UNL     1     -10.177   5.581   0.724  1.00  0.00     0.014 A 
ATOM     36  C   UNL     1     -11.405   7.623  -0.718  1.00  0.00     0.010 A 
ATOM     37  C   UNL     1      -9.694   6.859   0.807  1.00  0.00     0.010 A 
ATOM     38  C   UNL     1     -10.278   7.875   0.049  1.00  0.00    -0.014 A 
BRANCH  38  39
ATOM     39  C   UNL     1      -9.610   9.153   0.200  1.00  0.00     0.031 A 
ATOM     40  C   UNL     1      -9.735   9.848   1.495  1.00  0.00     0.074 A 
ATOM     41  C   UNL     1      -8.663   9.493  -0.700  1.00  0.00     0.049 A 
ATOM     42  N   UNL     1      -9.256  11.013   1.748  1.00  0.00    -0.248 NA
ATOM     43  C   UNL     1     -10.451   9.266   2.624  1.00  0.00     0.031 C 
ATOM     44  C   UNL     1      -7.550  10.418  -0.517  1.00  0.00     0.029 A 
ATOM     45  N   UNL     1      -8.641   9.194  -2.068  1.00  0.00    -0.354 N 
ATOM     46  C   UNL     1      -9.353  11.226   3.104  1.00  0.00     0.074 A 
ATOM     47  C   UNL     1     -10.169  10.142   3.590  1.00  0.00     0.031 C 
ATOM     48  C   UNL     1      -7.140  10.845  -1.723  1.00  0.00     0.029 A 
ATOM     49  C   UNL     1      -8.098  10.346  -2.693  1.00  0.00     0.049 A 
ATOM     50  H   UNL     1      -8.939   8.362  -2.503  1.00  0.00     0.167 HD
ATOM     51  C   UNL     1      -8.631  12.248   3.647  1.00  0.00     0.037 A 
ATOM     52  C   UNL     1      -8.891  11.136  -3.481  1.00  0.00     0.037 A 
ATOM     53  C   UNL     1      -8.013  13.048   2.585  1.00  0.00     0.049 A 
ATOM     54  C   UNL     1      -9.090  12.549  -2.965  1.00  0.00     0.074 A 
ATOM     55  C   UNL     1      -6.761  13.093   1.996  1.00  0.00     0.029 A 
ATOM     56  N   UNL     1      -8.850  13.764   1.753  1.00  0.00    -0.354 N 
ATOM     57  N   UNL     1      -8.671  12.976  -1.806  1.00  0.00    -0.248 NA
ATOM     58  C   UNL     1      -9.858  13.568  -3.683  1.00  0.00     0.031 C 
ATOM     59  C   UNL     1      -6.880  13.810   0.767  1.00  0.00     0.029 A 
ATOM     60  C   UNL     1      -8.196  14.214   0.627  1.00  0.00     0.049 A 
ATOM     61  H   UNL     1      -9.801  13.934   1.942  1.00  0.00     0.167 HD
ATOM     62  C   UNL     1      -9.153  14.236  -1.581  1.00  0.00     0.074 A 
ATOM     63  C   UNL     1      -9.879  14.573  -2.791  1.00  0.00     0.031 C 
ATOM     64  C   UNL     1      -8.971  14.893  -0.400  1.00  0.00     0.037 A 
BRANCH  51  65
ATOM     65  C   UNL     1      -8.325  12.463   5.113  1.00  0.00     0.057 A 
ATOM     66  C   UNL     1      -7.303  13.360   5.489  1.00  0.00     0.134 A 
ATOM     67  C   UNL     1      -8.931  11.809   6.201  1.00  0.00     0.134 A 
ATOM     68  F   UNL     1      -6.669  14.124   4.590  1.00  0.00    -0.206 F 
ATOM     69  C   UNL     1      -6.872  13.524   6.813  1.00  0.00     0.040 A 
ATOM     70  C   UNL     1      -8.495  11.945   7.527  1.00  0.00     0.040 A 
ATOM     71  F   UNL     1     -10.007  11.034   6.069  1.00  0.00    -0.206 F 
ATOM     72  C   UNL     1      -7.452  12.797   7.838  1.00  0.00     0.006 A 
ENDBRANCH  51  65
BRANCH  52  73
ATOM     73  C   UNL     1      -9.928  10.337  -4.194  1.00  0.00     0.057 A 
ATOM     74  C   UNL     1      -9.500   9.364  -5.115  1.00  0.00     0.134 A 
ATOM     75  C   UNL     1     -11.211  10.189  -3.657  1.00  0.00     0.134 A 
ATOM     76  F   UNL     1      -8.283   9.456  -5.676  1.00  0.00    -0.206 F 
ATOM     77  C   UNL     1     -10.246   8.210  -5.363  1.00  0.00     0.040 A 
ATOM     78  C   UNL     1     -11.977   9.048  -3.920  1.00  0.00     0.040 A 
ATOM     79  F   UNL     1     -11.684  11.070  -2.764  1.00  0.00    -0.206 F 
ATOM     80  C   UNL     1     -11.471   8.031  -4.728  1.00  0.00     0.006 A 
ENDBRANCH  52  73
BRANCH  64  81
ATOM     81  C   UNL     1      -9.543  16.250  -0.118  1.00  0.00     0.057 A 
ATOM     82  C   UNL     1      -9.347  17.335  -0.980  1.00  0.00     0.134 A 
ATOM     83  C   UNL     1     -10.195  16.538   1.097  1.00  0.00     0.134 A 
ATOM     84  F   UNL     1      -8.711  17.177  -2.150  1.00  0.00    -0.206 F 
ATOM     85  C   UNL     1      -9.784  18.625  -0.657  1.00  0.00     0.040 A 
ATOM     86  C   UNL     1     -10.585  17.830   1.455  1.00  0.00     0.040 A 
ATOM     87  F   UNL     1     -10.501  15.573   1.977  1.00  0.00    -0.206 F 
ATOM     88  C   UNL     1     -10.386  18.880   0.571  1.00  0.00     0.006 A 
ENDBRANCH  64  81
ENDBRANCH  38  39
ENDBRANCH  30  33
ENDBRANCH  28  29
ENDBRANCH  27  28
ENDBRANCH   1  27
TORSDOF 15
