REMARK SMILES CC(=O)c1c[nH]c(C(=O)N[C@H]2C=C[C@H](C(=O)NCCCNC(=O)c3ccc(-c4c5nc(c(-c6c(F)cccc6F)c6ccc([nH]6)c(-c6c(F)cccc6F)c6nc(c(-c7c(F)cccc7F)c7ccc4[nH]7)C=C6)C=C5)cc3)C2)c1
REMARK SMILES IDX 18 1 17 2 15 3 16 4 14 6 11 7 12 8 78 9 13 10 10 11 8 12
REMARK SMILES IDX 9 13 7 15 4 16 5 17 79 18 6 19 2 21 1 22 3 23 19 24 20 25
REMARK SMILES IDX 21 26 22 27 23 29 24 30 25 31 77 32 26 33 76 34 27 35 28 36
REMARK SMILES IDX 29 37 70 38 30 39 75 40 69 41 71 42 31 43 74 44 68 45 67 46
REMARK SMILES IDX 32 48 58 49 41 50 57 51 42 52 45 53 56 54 72 55 43 56 44 57
REMARK SMILES IDX 55 59 73 60 46 61 33 62 34 63 39 64 35 65 36 66 38 67 40 68
REMARK SMILES IDX 37 69 59 70 60 71 65 72 61 73 62 74 64 75 66 76 63 77 47 78
REMARK SMILES IDX 48 79 53 80 49 81 50 82 52 83 54 84 51 85
REMARK H PARENT 17 5 10 14 6 20 21 28 71 47 45 58
REMARK Flexibility Score: inf
ROOT
ATOM      1  C   UNL     1      -4.945  -0.538   6.153  1.00  0.00     0.117 C 
ENDROOT
BRANCH   1   2
ATOM      2  N   UNL     1      -4.934  -0.862   4.739  1.00  0.00    -0.356 N 
ATOM      3  C   UNL     1      -4.097  -1.695   4.051  1.00  0.00     0.227 C 
ATOM      4  O   UNL     1      -4.271  -1.825   2.838  1.00  0.00    -0.274 OA
ATOM      5  H   UNL     1      -5.627  -0.420   4.198  1.00  0.00     0.163 HD
BRANCH   3   6
ATOM      6  C   UNL     1      -3.033  -2.479   4.825  1.00  0.00     0.103 C 
ATOM      7  C   UNL     1      -2.093  -4.287   3.434  1.00  0.00     0.106 C 
ATOM      8  C   UNL     1      -3.113  -4.792   4.413  1.00  0.00    -0.006 C 
ATOM      9  C   UNL     1      -1.838  -2.860   3.949  1.00  0.00     0.047 C 
ATOM     10  C   UNL     1      -3.603  -3.816   5.187  1.00  0.00    -0.016 C 
BRANCH   7  11
ATOM     11  N   UNL     1      -0.957  -5.190   3.498  1.00  0.00    -0.345 N 
ATOM     12  C   UNL     1       0.308  -5.127   2.965  1.00  0.00     0.268 C 
ATOM     13  O   UNL     1       1.067  -6.053   3.190  1.00  0.00    -0.268 OA
ATOM     14  H   UNL     1      -1.126  -6.004   4.025  1.00  0.00     0.164 HD
BRANCH  12  15
ATOM     15  C   UNL     1       0.744  -3.941   2.261  1.00  0.00     0.105 A 
ATOM     16  C   UNL     1       0.954  -1.870   1.367  1.00  0.00     0.035 A 
ATOM     17  C   UNL     1       2.205  -2.294   1.765  1.00  0.00     0.094 A 
ATOM     18  C   UNL     1       0.083  -2.981   1.525  1.00  0.00     0.045 A 
ATOM     19  N   UNL     1       2.076  -3.573   2.250  1.00  0.00    -0.356 N 
ATOM     20  H   UNL     1       2.822  -4.143   2.545  1.00  0.00     0.166 HD
BRANCH  16  21
ATOM     21  C   UNL     1       0.567  -0.529   0.955  1.00  0.00     0.161 C 
ATOM     22  C   UNL     1       1.223   0.061  -0.259  1.00  0.00     0.093 C 
ATOM     23  O   UNL     1      -0.313   0.082   1.561  1.00  0.00    -0.294 OA
ENDBRANCH  16  21
ENDBRANCH  12  15
ENDBRANCH   7  11
ENDBRANCH   3   6
ENDBRANCH   1   2
BRANCH   1  24
ATOM     24  C   UNL     1      -4.419   0.875   6.420  1.00  0.00     0.042 C 
BRANCH  24  25
ATOM     25  C   UNL     1      -5.384   1.964   5.946  1.00  0.00     0.118 C 
BRANCH  25  26
ATOM     26  N   UNL     1      -6.619   1.945   6.714  1.00  0.00    -0.352 N 
ATOM     27  C   UNL     1      -7.724   2.751   6.663  1.00  0.00     0.251 C 
ATOM     28  H   UNL     1      -6.669   1.228   7.387  1.00  0.00     0.163 HD
ATOM     29  O   UNL     1      -8.525   2.697   7.596  1.00  0.00    -0.269 OA
BRANCH  27  30
ATOM     30  C   UNL     1      -7.970   3.701   5.556  1.00  0.00     0.039 A 
ATOM     31  C   UNL     1      -8.586   4.915   5.886  1.00  0.00     0.014 A 
ATOM     32  C   UNL     1      -7.697   3.404   4.215  1.00  0.00     0.014 A 
ATOM     33  C   UNL     1      -8.866   5.848   4.894  1.00  0.00     0.010 A 
ATOM     34  C   UNL     1      -7.953   4.348   3.219  1.00  0.00     0.010 A 
ATOM     35  C   UNL     1      -8.520   5.580   3.562  1.00  0.00    -0.014 A 
BRANCH  35  36
ATOM     36  C   UNL     1      -8.570   6.713   2.605  1.00  0.00     0.031 A 
ATOM     37  C   UNL     1      -7.429   7.703   2.873  1.00  0.00     0.074 A 
ATOM     38  C   UNL     1      -9.616   6.782   1.729  1.00  0.00     0.049 A 
ATOM     39  N   UNL     1      -7.425   8.999   2.841  1.00  0.00    -0.248 NA
ATOM     40  C   UNL     1      -6.128   7.171   3.364  1.00  0.00     0.031 C 
ATOM     41  C   UNL     1     -10.601   5.704   1.522  1.00  0.00     0.029 A 
ATOM     42  N   UNL     1     -10.075   7.747   0.848  1.00  0.00    -0.354 N 
ATOM     43  C   UNL     1      -6.109   9.427   3.126  1.00  0.00     0.074 A 
ATOM     44  C   UNL     1      -5.399   8.269   3.574  1.00  0.00     0.031 C 
ATOM     45  C   UNL     1     -11.563   6.091   0.657  1.00  0.00     0.029 A 
ATOM     46  C   UNL     1     -11.317   7.453   0.221  1.00  0.00     0.049 A 
ATOM     47  H   UNL     1      -9.576   8.577   0.668  1.00  0.00     0.167 HD
ATOM     48  C   UNL     1      -5.654  10.682   2.832  1.00  0.00     0.037 A 
ATOM     49  C   UNL     1     -12.123   8.259  -0.543  1.00  0.00     0.037 A 
ATOM     50  C   UNL     1      -6.711  11.458   2.278  1.00  0.00     0.049 A 
ATOM     51  C   UNL     1     -11.396   9.526  -0.693  1.00  0.00     0.074 A 
ATOM     52  C   UNL     1      -7.861  11.984   2.805  1.00  0.00     0.029 A 
ATOM     53  N   UNL     1      -6.800  11.460   0.908  1.00  0.00    -0.354 N 
ATOM     54  N   UNL     1     -10.393   9.722  -1.494  1.00  0.00    -0.248 NA
ATOM     55  C   UNL     1     -11.775  10.653   0.172  1.00  0.00     0.031 C 
ATOM     56  C   UNL     1      -8.793  11.849   1.754  1.00  0.00     0.029 A 
ATOM     57  C   UNL     1      -8.131  11.447   0.588  1.00  0.00     0.049 A 
ATOM     58  H   UNL     1      -6.047  11.470   0.274  1.00  0.00     0.167 HD
ATOM     59  C   UNL     1      -9.834  10.864  -0.973  1.00  0.00     0.074 A 
ATOM     60  C   UNL     1     -10.872  11.541  -0.231  1.00  0.00     0.031 C 
ATOM     61  C   UNL     1      -8.510  10.878  -0.682  1.00  0.00     0.037 A 
BRANCH  48  62
ATOM     62  C   UNL     1      -4.263  11.248   2.711  1.00  0.00     0.057 A 
ATOM     63  C   UNL     1      -4.118  12.655   2.606  1.00  0.00     0.134 A 
ATOM     64  C   UNL     1      -3.141  10.499   2.342  1.00  0.00     0.134 A 
ATOM     65  F   UNL     1      -5.109  13.483   2.975  1.00  0.00    -0.206 F 
ATOM     66  C   UNL     1      -2.996  13.259   2.035  1.00  0.00     0.040 A 
ATOM     67  C   UNL     1      -1.989  11.101   1.816  1.00  0.00     0.040 A 
ATOM     68  F   UNL     1      -3.144   9.162   2.381  1.00  0.00    -0.206 F 
ATOM     69  C   UNL     1      -1.931  12.476   1.617  1.00  0.00     0.006 A 
ENDBRANCH  48  62
BRANCH  49  70
ATOM     70  C   UNL     1     -13.514   8.228  -1.149  1.00  0.00     0.057 A 
ATOM     71  C   UNL     1     -14.313   7.096  -1.325  1.00  0.00     0.134 A 
ATOM     72  C   UNL     1     -14.141   9.433  -1.585  1.00  0.00     0.134 A 
ATOM     73  F   UNL     1     -13.840   5.867  -1.102  1.00  0.00    -0.206 F 
ATOM     74  C   UNL     1     -15.648   7.172  -1.782  1.00  0.00     0.040 A 
ATOM     75  C   UNL     1     -15.472   9.528  -2.006  1.00  0.00     0.040 A 
ATOM     76  F   UNL     1     -13.489  10.602  -1.636  1.00  0.00    -0.206 F 
ATOM     77  C   UNL     1     -16.243   8.390  -2.090  1.00  0.00     0.006 A 
ENDBRANCH  49  70
BRANCH  61  78
ATOM     78  C   UNL     1      -7.679   9.939  -1.526  1.00  0.00     0.057 A 
ATOM     79  C   UNL     1      -7.547  10.177  -2.899  1.00  0.00     0.134 A 
ATOM     80  C   UNL     1      -7.109   8.748  -1.052  1.00  0.00     0.134 A 
ATOM     81  F   UNL     1      -8.059  11.292  -3.440  1.00  0.00    -0.206 F 
ATOM     82  C   UNL     1      -6.892   9.279  -3.752  1.00  0.00     0.040 A 
ATOM     83  C   UNL     1      -6.444   7.842  -1.890  1.00  0.00     0.040 A 
ATOM     84  F   UNL     1      -7.195   8.414   0.236  1.00  0.00    -0.206 F 
ATOM     85  C   UNL     1      -6.339   8.105  -3.250  1.00  0.00     0.006 A 
ENDBRANCH  61  78
ENDBRANCH  35  36
ENDBRANCH  27  30
ENDBRANCH  25  26
ENDBRANCH  24  25
ENDBRANCH   1  24
TORSDOF 13
