REMARK SMILES COc1cccc(N(CC(=O)NCCCNC(=O)c2ccc(-c3c4nc(c(-c5c(F)cccc5F)c5ccc([nH]5)c(-c5c(F)cccc5F)c5nc(c(-c6c(F)cccc6F)c6ccc3[nH]6)C=C5)C=C4)cc2)S(=O)(=O)c2ccc(C)cc2)c1
REMARK SMILES IDX 13 1 12 2 10 3 11 4 9 6 8 7 7 8 3 9 4 10 83 11 5 12 6 13
REMARK SMILES IDX 2 14 1 15 73 16 74 17 75 18 76 19 77 20 82 21 78 22 81 23
REMARK SMILES IDX 79 24 80 25 14 26 15 27 16 28 17 29 18 31 19 32 20 33 72 34
REMARK SMILES IDX 21 35 71 36 22 37 23 38 24 39 65 40 25 41 70 42 64 43 66 44
REMARK SMILES IDX 26 45 69 46 63 47 62 48 27 50 53 51 36 52 52 53 37 54 40 55
REMARK SMILES IDX 51 56 67 57 38 58 39 59 50 61 68 62 41 63 28 64 29 65 34 66
REMARK SMILES IDX 30 67 31 68 33 69 35 70 32 71 54 72 55 73 60 74 56 75 57 76
REMARK SMILES IDX 59 77 61 78 58 79 42 80 43 81 48 82 44 83 45 84 47 85 49 86
REMARK SMILES IDX 46 87
REMARK H PARENT 12 5 16 30 66 49 40 60
REMARK Flexibility Score: inf
ROOT
ATOM      1  C   UNL     1       2.538   4.240   4.798  1.00  0.00     0.117 C 
ENDROOT
BRANCH   1   2
ATOM      2  N   UNL     1       3.962   4.490   4.881  1.00  0.00    -0.354 N 
ATOM      3  C   UNL     1       4.829   4.871   3.908  1.00  0.00     0.240 C 
ATOM      4  O   UNL     1       6.005   5.040   4.231  1.00  0.00    -0.273 OA
ATOM      5  H   UNL     1       4.359   4.365   5.773  1.00  0.00     0.163 HD
BRANCH   3   6
ATOM      6  C   UNL     1       4.327   5.190   2.521  1.00  0.00     0.235 C 
BRANCH   6   7
ATOM      7  N   UNL     1       4.054   4.116   1.524  1.00  0.00    -0.257 N 
BRANCH   7   8
ATOM      8  C   UNL     1       2.633   3.865   1.163  1.00  0.00     0.056 A 
ATOM      9  C   UNL     1       0.785   2.398   0.456  1.00  0.00     0.120 A 
ATOM     10  C   UNL     1      -0.095   3.474   0.493  1.00  0.00     0.046 A 
ATOM     11  C   UNL     1       2.132   2.597   0.794  1.00  0.00     0.073 A 
ATOM     12  C   UNL     1       0.370   4.742   0.816  1.00  0.00     0.006 A 
ATOM     13  C   UNL     1       1.725   4.938   1.106  1.00  0.00     0.027 A 
BRANCH   9  14
ATOM     14  O   UNL     1       0.210   1.222   0.056  1.00  0.00    -0.497 OA
ATOM     15  C   UNL     1       0.996   0.040   0.132  1.00  0.00     0.278 C 
ENDBRANCH   9  14
ENDBRANCH   7   8
BRANCH   7  16
ATOM     16  S   UNL     1       5.095   2.745   1.495  1.00  0.00     0.264 S 
ATOM     17  O   UNL     1       4.633   1.868   2.556  1.00  0.00    -0.201 OA
ATOM     18  O   UNL     1       5.144   2.259   0.128  1.00  0.00    -0.201 OA
BRANCH  16  19
ATOM     19  C   UNL     1       6.764   3.173   1.905  1.00  0.00     0.088 A 
ATOM     20  C   UNL     1       7.487   2.232   2.655  1.00  0.00     0.022 A 
ATOM     21  C   UNL     1       7.348   4.388   1.556  1.00  0.00     0.022 A 
ATOM     22  C   UNL     1       8.757   2.540   3.132  1.00  0.00     0.005 A 
ATOM     23  C   UNL     1       8.612   4.707   2.071  1.00  0.00     0.005 A 
ATOM     24  C   UNL     1       9.307   3.801   2.889  1.00  0.00    -0.051 A 
ATOM     25  C   UNL     1      10.637   4.153   3.486  1.00  0.00     0.044 C 
ENDBRANCH  16  19
ENDBRANCH   7  16
ENDBRANCH   6   7
ENDBRANCH   3   6
ENDBRANCH   1   2
BRANCH   1  26
ATOM     26  C   UNL     1       2.220   2.759   4.924  1.00  0.00     0.042 C 
BRANCH  26  27
ATOM     27  C   UNL     1       2.685   2.157   6.243  1.00  0.00     0.118 C 
BRANCH  27  28
ATOM     28  N   UNL     1       1.999   2.747   7.387  1.00  0.00    -0.352 N 
ATOM     29  C   UNL     1       1.175   2.152   8.308  1.00  0.00     0.251 C 
ATOM     30  H   UNL     1       2.150   3.712   7.517  1.00  0.00     0.163 HD
ATOM     31  O   UNL     1       0.499   2.838   9.068  1.00  0.00    -0.269 OA
BRANCH  29  32
ATOM     32  C   UNL     1       1.098   0.680   8.369  1.00  0.00     0.039 A 
ATOM     33  C   UNL     1      -0.152   0.067   8.469  1.00  0.00     0.014 A 
ATOM     34  C   UNL     1       2.263  -0.091   8.317  1.00  0.00     0.014 A 
ATOM     35  C   UNL     1      -0.237  -1.326   8.448  1.00  0.00     0.010 A 
ATOM     36  C   UNL     1       2.170  -1.473   8.210  1.00  0.00     0.010 A 
ATOM     37  C   UNL     1       0.920  -2.104   8.279  1.00  0.00    -0.014 A 
BRANCH  37  38
ATOM     38  C   UNL     1       0.849  -3.582   8.170  1.00  0.00     0.031 A 
ATOM     39  C   UNL     1       1.517  -4.445   9.202  1.00  0.00     0.074 A 
ATOM     40  C   UNL     1       0.251  -4.141   7.100  1.00  0.00     0.049 A 
ATOM     41  N   UNL     1       1.643  -5.747   9.236  1.00  0.00    -0.248 NA
ATOM     42  C   UNL     1       2.156  -3.751  10.332  1.00  0.00     0.031 C 
ATOM     43  C   UNL     1      -0.386  -3.408   6.005  1.00  0.00     0.029 A 
ATOM     44  N   UNL     1       0.096  -5.459   6.752  1.00  0.00    -0.354 N 
ATOM     45  C   UNL     1       2.387  -6.025  10.375  1.00  0.00     0.074 A 
ATOM     46  C   UNL     1       2.732  -4.755  10.976  1.00  0.00     0.031 C 
ATOM     47  C   UNL     1      -0.884  -4.285   5.119  1.00  0.00     0.029 A 
ATOM     48  C   UNL     1      -0.565  -5.639   5.561  1.00  0.00     0.049 A 
ATOM     49  H   UNL     1       0.426  -6.205   7.303  1.00  0.00     0.167 HD
ATOM     50  C   UNL     1       2.731  -7.230  10.887  1.00  0.00     0.037 A 
ATOM     51  C   UNL     1      -0.871  -6.769   4.897  1.00  0.00     0.037 A 
ATOM     52  C   UNL     1       2.365  -8.491  10.299  1.00  0.00     0.049 A 
ATOM     53  C   UNL     1      -0.472  -8.095   5.484  1.00  0.00     0.074 A 
ATOM     54  C   UNL     1       2.609  -9.767  10.774  1.00  0.00     0.029 A 
ATOM     55  N   UNL     1       1.678  -8.633   9.102  1.00  0.00    -0.354 N 
ATOM     56  N   UNL     1       0.169  -8.346   6.599  1.00  0.00    -0.248 NA
ATOM     57  C   UNL     1      -0.844  -9.294   4.721  1.00  0.00     0.031 C 
ATOM     58  C   UNL     1       2.109 -10.683   9.842  1.00  0.00     0.029 A 
ATOM     59  C   UNL     1       1.510  -9.977   8.811  1.00  0.00     0.049 A 
ATOM     60  H   UNL     1       1.357  -7.889   8.543  1.00  0.00     0.167 HD
ATOM     61  C   UNL     1       0.255  -9.729   6.686  1.00  0.00     0.074 A 
ATOM     62  C   UNL     1      -0.415 -10.263   5.517  1.00  0.00     0.031 C 
ATOM     63  C   UNL     1       0.836 -10.490   7.646  1.00  0.00     0.037 A 
BRANCH  50  64
ATOM     64  C   UNL     1       3.542  -7.238  12.151  1.00  0.00     0.057 A 
ATOM     65  C   UNL     1       3.000  -6.841  13.380  1.00  0.00     0.134 A 
ATOM     66  C   UNL     1       4.874  -7.673  12.144  1.00  0.00     0.134 A 
ATOM     67  F   UNL     1       1.734  -6.401  13.455  1.00  0.00    -0.206 F 
ATOM     68  C   UNL     1       3.759  -6.850  14.552  1.00  0.00     0.040 A 
ATOM     69  C   UNL     1       5.635  -7.714  13.314  1.00  0.00     0.040 A 
ATOM     70  F   UNL     1       5.455  -8.072  11.003  1.00  0.00    -0.206 F 
ATOM     71  C   UNL     1       5.079  -7.294  14.521  1.00  0.00     0.006 A 
ENDBRANCH  50  64
BRANCH  51  72
ATOM     72  C   UNL     1      -1.611  -6.699   3.612  1.00  0.00     0.057 A 
ATOM     73  C   UNL     1      -2.936  -7.139   3.519  1.00  0.00     0.134 A 
ATOM     74  C   UNL     1      -1.014  -6.200   2.447  1.00  0.00     0.134 A 
ATOM     75  F   UNL     1      -3.556  -7.644   4.596  1.00  0.00    -0.206 F 
ATOM     76  C   UNL     1      -3.636  -7.106   2.312  1.00  0.00     0.040 A 
ATOM     77  C   UNL     1      -1.710  -6.137   1.239  1.00  0.00     0.040 A 
ATOM     78  F   UNL     1       0.251  -5.755   2.471  1.00  0.00    -0.206 F 
ATOM     79  C   UNL     1      -3.023  -6.598   1.168  1.00  0.00     0.006 A 
ENDBRANCH  51  72
BRANCH  63  80
ATOM     80  C   UNL     1       0.744 -11.979   7.488  1.00  0.00     0.057 A 
ATOM     81  C   UNL     1       1.485 -12.668   6.520  1.00  0.00     0.134 A 
ATOM     82  C   UNL     1      -0.068 -12.737   8.343  1.00  0.00     0.134 A 
ATOM     83  F   UNL     1       2.271 -12.000   5.662  1.00  0.00    -0.206 F 
ATOM     84  C   UNL     1       1.404 -14.056   6.392  1.00  0.00     0.040 A 
ATOM     85  C   UNL     1      -0.135 -14.127   8.242  1.00  0.00     0.040 A 
ATOM     86  F   UNL     1      -0.796 -12.139   9.298  1.00  0.00    -0.206 F 
ATOM     87  C   UNL     1       0.597 -14.789   7.260  1.00  0.00     0.006 A 
ENDBRANCH  63  80
ENDBRANCH  37  38
ENDBRANCH  29  32
ENDBRANCH  27  28
ENDBRANCH  26  27
ENDBRANCH   1  26
TORSDOF 15
