REMARK SMILES C=CC[N@H+](CC(=O)NCCCNC(=O)c1ccc(-c2c3nc(c(-c4c(F)cccc4F)c4ccc([nH]4)c(-c4c(F)cccc4F)c4nc(c(-c5c(F)cccc5F)c5ccc2[nH]5)C=C4)C=C3)cc1)[C@H](C)c1ccsc1
REMARK SMILES IDX 9 1 8 2 6 3 7 4 5 6 4 7 3 9 2 10 1 11 69 12 70 13 71 14
REMARK SMILES IDX 72 15 75 16 73 17 74 18 10 19 11 20 12 21 13 22 14 24 15 25
REMARK SMILES IDX 16 26 68 27 17 28 67 29 18 30 19 31 20 32 61 33 21 34 66 35
REMARK SMILES IDX 60 36 62 37 22 38 65 39 59 40 58 41 23 43 49 44 32 45 48 46
REMARK SMILES IDX 33 47 36 48 47 49 63 50 34 51 35 52 46 54 64 55 37 56 24 57
REMARK SMILES IDX 25 58 30 59 26 60 27 61 29 62 31 63 28 64 50 65 51 66 56 67
REMARK SMILES IDX 52 68 53 69 55 70 57 71 54 72 38 73 39 74 44 75 40 76 41 77
REMARK SMILES IDX 43 78 45 79 42 80
REMARK H PARENT 8 5 4 8 12 23 62 42 36 53
REMARK Flexibility Score: inf
ROOT
ATOM      1  C   UNL     1      -3.389   0.889   2.048  1.00  0.00     0.118 C 
ENDROOT
BRANCH   1   2
ATOM      2  N   UNL     1      -3.486   2.309   1.727  1.00  0.00    -0.351 N 
ATOM      3  C   UNL     1      -3.247   3.001   0.566  1.00  0.00     0.275 C 
ATOM      4  O   UNL     1      -3.409   4.223   0.590  1.00  0.00    -0.269 OA
ATOM      5  H   UNL     1      -3.777   2.874   2.479  1.00  0.00     0.163 HD
BRANCH   3   6
ATOM      6  C   UNL     1      -2.820   2.268  -0.717  1.00  0.00     0.364 C 
BRANCH   6   7
ATOM      7  N   UNL     1      -1.342   2.282  -0.970  1.00  0.00    -0.318 N 
ATOM      8  H   UNL     1      -0.951   3.224  -0.985  1.00  0.00     0.349 HD
BRANCH   7   9
ATOM      9  C   UNL     1      -0.659   1.624   0.145  1.00  0.00     0.291 C 
BRANCH   9  10
ATOM     10  C   UNL     1       0.835   1.667   0.266  1.00  0.00     0.025 C 
ATOM     11  C   UNL     1       1.506   2.419   1.150  1.00  0.00     0.010 C 
ENDBRANCH   9  10
ENDBRANCH   7   9
BRANCH   7  12
ATOM     12  C   UNL     1      -1.070   1.759  -2.338  1.00  0.00     0.213 C 
ATOM     13  C   UNL     1      -1.656   0.367  -2.639  1.00  0.00     0.081 C 
BRANCH  12  14
ATOM     14  C   UNL     1       0.404   1.881  -2.705  1.00  0.00     0.020 A 
ATOM     15  C   UNL     1       1.144   3.117  -2.670  1.00  0.00     0.021 A 
ATOM     16  C   UNL     1       1.237   0.848  -3.113  1.00  0.00     0.074 A 
ATOM     17  C   UNL     1       2.476   2.958  -2.979  1.00  0.00     0.065 A 
ATOM     18  S   UNL     1       2.852   1.343  -3.380  1.00  0.00    -0.152 S 
ENDBRANCH  12  14
ENDBRANCH   7  12
ENDBRANCH   6   7
ENDBRANCH   3   6
ENDBRANCH   1   2
BRANCH   1  19
ATOM     19  C   UNL     1      -2.221   0.552   2.983  1.00  0.00     0.042 C 
BRANCH  19  20
ATOM     20  C   UNL     1      -2.327   1.169   4.373  1.00  0.00     0.118 C 
BRANCH  20  21
ATOM     21  N   UNL     1      -2.775   0.190   5.349  1.00  0.00    -0.352 N 
ATOM     22  C   UNL     1      -2.083  -0.461   6.339  1.00  0.00     0.251 C 
ATOM     23  H   UNL     1      -3.730  -0.043   5.291  1.00  0.00     0.163 HD
ATOM     24  O   UNL     1      -2.593  -1.450   6.860  1.00  0.00    -0.269 OA
BRANCH  22  25
ATOM     25  C   UNL     1      -0.744  -0.008   6.799  1.00  0.00     0.039 A 
ATOM     26  C   UNL     1       0.172  -0.975   7.232  1.00  0.00     0.014 A 
ATOM     27  C   UNL     1      -0.412   1.345   6.917  1.00  0.00     0.014 A 
ATOM     28  C   UNL     1       1.411  -0.592   7.759  1.00  0.00     0.010 A 
ATOM     29  C   UNL     1       0.854   1.725   7.371  1.00  0.00     0.010 A 
ATOM     30  C   UNL     1       1.769   0.763   7.825  1.00  0.00    -0.014 A 
BRANCH  30  31
ATOM     31  C   UNL     1       3.063   1.188   8.424  1.00  0.00     0.031 A 
ATOM     32  C   UNL     1       3.082   1.992   9.697  1.00  0.00     0.074 A 
ATOM     33  C   UNL     1       4.225   0.879   7.818  1.00  0.00     0.049 A 
ATOM     34  N   UNL     1       4.103   2.492  10.349  1.00  0.00    -0.248 NA
ATOM     35  C   UNL     1       1.777   2.294  10.307  1.00  0.00     0.031 C 
ATOM     36  C   UNL     1       4.356   0.131   6.568  1.00  0.00     0.029 A 
ATOM     37  N   UNL     1       5.521   1.161   8.175  1.00  0.00    -0.354 N 
ATOM     38  C   UNL     1       3.563   3.185  11.426  1.00  0.00     0.074 A 
ATOM     39  C   UNL     1       2.124   3.078  11.317  1.00  0.00     0.031 C 
ATOM     40  C   UNL     1       5.660  -0.014   6.278  1.00  0.00     0.029 A 
ATOM     41  C   UNL     1       6.455   0.657   7.304  1.00  0.00     0.049 A 
ATOM     42  H   UNL     1       5.758   1.676   8.980  1.00  0.00     0.167 HD
ATOM     43  C   UNL     1       4.203   3.833  12.429  1.00  0.00     0.037 A 
ATOM     44  C   UNL     1       7.799   0.725   7.328  1.00  0.00     0.037 A 
ATOM     45  C   UNL     1       5.633   3.910  12.568  1.00  0.00     0.049 A 
ATOM     46  C   UNL     1       8.489   1.444   8.453  1.00  0.00     0.074 A 
ATOM     47  C   UNL     1       6.373   4.494  13.583  1.00  0.00     0.029 A 
ATOM     48  N   UNL     1       6.542   3.382  11.665  1.00  0.00    -0.354 N 
ATOM     49  N   UNL     1       7.966   2.055   9.487  1.00  0.00    -0.248 NA
ATOM     50  C   UNL     1       9.959   1.480   8.412  1.00  0.00     0.031 C 
ATOM     51  C   UNL     1       7.731   4.343  13.278  1.00  0.00     0.029 A 
ATOM     52  C   UNL     1       7.835   3.637  12.091  1.00  0.00     0.049 A 
ATOM     53  H   UNL     1       6.304   2.896  10.842  1.00  0.00     0.167 HD
ATOM     54  C   UNL     1       9.039   2.525  10.233  1.00  0.00     0.074 A 
ATOM     55  C   UNL     1      10.243   2.122   9.537  1.00  0.00     0.031 C 
ATOM     56  C   UNL     1       9.026   3.226  11.393  1.00  0.00     0.037 A 
BRANCH  43  57
ATOM     57  C   UNL     1       3.349   4.510  13.461  1.00  0.00     0.057 A 
ATOM     58  C   UNL     1       2.621   3.780  14.410  1.00  0.00     0.134 A 
ATOM     59  C   UNL     1       3.261   5.906  13.513  1.00  0.00     0.134 A 
ATOM     60  F   UNL     1       2.653   2.438  14.405  1.00  0.00    -0.206 F 
ATOM     61  C   UNL     1       1.810   4.413  15.352  1.00  0.00     0.040 A 
ATOM     62  C   UNL     1       2.473   6.552  14.466  1.00  0.00     0.040 A 
ATOM     63  F   UNL     1       3.938   6.665  12.638  1.00  0.00    -0.206 F 
ATOM     64  C   UNL     1       1.737   5.805  15.384  1.00  0.00     0.006 A 
ENDBRANCH  43  57
BRANCH  44  65
ATOM     65  C   UNL     1       8.588   0.053   6.267  1.00  0.00     0.057 A 
ATOM     66  C   UNL     1       9.284  -1.131   6.534  1.00  0.00     0.134 A 
ATOM     67  C   UNL     1       8.660   0.569   4.968  1.00  0.00     0.134 A 
ATOM     68  F   UNL     1       9.267  -1.660   7.767  1.00  0.00    -0.206 F 
ATOM     69  C   UNL     1      10.031  -1.777   5.549  1.00  0.00     0.040 A 
ATOM     70  C   UNL     1       9.388  -0.077   3.968  1.00  0.00     0.040 A 
ATOM     71  F   UNL     1       8.012   1.700   4.652  1.00  0.00    -0.206 F 
ATOM     72  C   UNL     1      10.079  -1.252   4.259  1.00  0.00     0.006 A 
ENDBRANCH  44  65
BRANCH  56  73
ATOM     73  C   UNL     1      10.352   3.576  11.997  1.00  0.00     0.057 A 
ATOM     74  C   UNL     1      11.154   4.596  11.473  1.00  0.00     0.134 A 
ATOM     75  C   UNL     1      10.815   2.906  13.137  1.00  0.00     0.134 A 
ATOM     76  F   UNL     1      10.772   5.266  10.375  1.00  0.00    -0.206 F 
ATOM     77  C   UNL     1      12.380   4.928  12.052  1.00  0.00     0.040 A 
ATOM     78  C   UNL     1      12.030   3.242  13.736  1.00  0.00     0.040 A 
ATOM     79  F   UNL     1      10.090   1.922  13.690  1.00  0.00    -0.206 F 
ATOM     80  C   UNL     1      12.818   4.253  13.190  1.00  0.00     0.006 A 
ENDBRANCH  56  73
ENDBRANCH  30  31
ENDBRANCH  22  25
ENDBRANCH  20  21
ENDBRANCH  19  20
ENDBRANCH   1  19
TORSDOF 15
