REMARK SMILES CCN(C(=O)NC[C@]1(C)CCCO1)[C@@H](C)CC(=O)NCCCNC(=O)c1ccc(-c2c3nc(c(-c4c(F)cccc4F)c4ccc([nH]4)c(-c4c(F)cccc4F)c4nc(c(-c5c(F)cccc5F)c5ccc2[nH]5)C=C4)C=C3)cc1
REMARK SMILES IDX 17 1 18 2 19 3 16 5 14 6 15 7 3 8 2 9 1 10 4 11 5 12 6 13
REMARK SMILES IDX 7 15 8 16 10 17 13 18 9 19 11 20 12 21 20 22 21 23 22 24
REMARK SMILES IDX 23 25 24 26 25 28 26 29 27 30 79 31 28 32 78 33 29 34 30 35
REMARK SMILES IDX 31 36 72 37 32 38 77 39 71 40 73 41 33 42 76 43 70 44 69 45
REMARK SMILES IDX 34 47 60 48 43 49 59 50 44 51 47 52 58 53 74 54 45 55 46 56
REMARK SMILES IDX 57 58 75 59 48 60 35 61 36 62 41 63 37 64 38 65 40 66 42 67
REMARK SMILES IDX 39 68 61 69 62 70 67 71 63 72 64 73 66 74 68 75 65 76 49 77
REMARK SMILES IDX 50 78 55 79 51 80 52 81 54 82 56 83 53 84
REMARK H PARENT 19 4 6 14 23 27 73 46 47 57
REMARK Flexibility Score: inf
ROOT
ATOM      1  C   UNL     1      -8.231   1.752  -0.416  1.00  0.00     0.222 C 
ATOM      2  O   UNL     1      -9.294   2.322  -0.163  1.00  0.00    -0.275 OA
ATOM      3  N   UNL     1      -8.268   0.432  -0.754  1.00  0.00    -0.356 N 
ATOM      4  H   UNL     1      -9.168   0.051  -0.873  1.00  0.00     0.163 HD
ENDROOT
BRANCH   1   5
ATOM      5  C   UNL     1      -6.915   2.509  -0.404  1.00  0.00     0.124 C 
BRANCH   5   6
ATOM      6  C   UNL     1      -6.216   2.482   0.967  1.00  0.00     0.093 C 
ATOM      7  C   UNL     1      -5.704   3.877   1.366  1.00  0.00     0.031 C 
BRANCH   6   8
ATOM      8  N   UNL     1      -5.128   1.465   1.143  1.00  0.00    -0.322 N 
BRANCH   8   9
ATOM      9  C   UNL     1      -3.828   1.693   0.483  1.00  0.00     0.118 C 
ATOM     10  C   UNL     1      -3.822   1.926  -1.017  1.00  0.00     0.027 C 
ENDBRANCH   8   9
BRANCH   8  11
ATOM     11  C   UNL     1      -5.168   0.803   2.365  1.00  0.00     0.317 C 
ATOM     12  O   UNL     1      -5.975   1.086   3.254  1.00  0.00    -0.249 OA
ATOM     13  N   UNL     1      -4.308  -0.185   2.666  1.00  0.00    -0.335 N 
ATOM     14  H   UNL     1      -4.087  -0.214   3.625  1.00  0.00     0.165 HD
BRANCH  13  15
ATOM     15  C   UNL     1      -3.623  -1.225   1.904  1.00  0.00     0.152 C 
BRANCH  15  16
ATOM     16  C   UNL     1      -2.212  -1.498   2.479  1.00  0.00     0.083 C 
ATOM     17  C   UNL     1      -1.665  -2.852   2.042  1.00  0.00     0.039 C 
ATOM     18  O   UNL     1      -2.313  -1.601   3.917  1.00  0.00    -0.373 OA
ATOM     19  C   UNL     1      -1.244  -0.369   2.148  1.00  0.00     0.044 C 
ATOM     20  C   UNL     1      -2.332  -3.799   3.005  1.00  0.00     0.031 C 
ATOM     21  C   UNL     1      -2.504  -2.974   4.267  1.00  0.00     0.161 C 
ENDBRANCH  15  16
ENDBRANCH  13  15
ENDBRANCH   8  11
ENDBRANCH   6   8
ENDBRANCH   5   6
ENDBRANCH   1   5
BRANCH   3  22
ATOM     22  C   UNL     1      -7.168  -0.488  -0.962  1.00  0.00     0.117 C 
BRANCH  22  23
ATOM     23  C   UNL     1      -6.860  -1.268   0.307  1.00  0.00     0.042 C 
BRANCH  23  24
ATOM     24  C   UNL     1      -7.285  -2.729   0.291  1.00  0.00     0.118 C 
BRANCH  24  25
ATOM     25  N   UNL     1      -6.424  -3.556  -0.548  1.00  0.00    -0.352 N 
ATOM     26  C   UNL     1      -5.691  -4.691  -0.299  1.00  0.00     0.251 C 
ATOM     27  H   UNL     1      -6.354  -3.236  -1.477  1.00  0.00     0.163 HD
ATOM     28  O   UNL     1      -4.939  -5.090  -1.191  1.00  0.00    -0.269 OA
BRANCH  26  29
ATOM     29  C   UNL     1      -5.726  -5.431   0.994  1.00  0.00     0.039 A 
ATOM     30  C   UNL     1      -4.611  -6.214   1.339  1.00  0.00     0.014 A 
ATOM     31  C   UNL     1      -6.817  -5.420   1.860  1.00  0.00     0.014 A 
ATOM     32  C   UNL     1      -4.560  -6.897   2.562  1.00  0.00     0.010 A 
ATOM     33  C   UNL     1      -6.731  -6.019   3.119  1.00  0.00     0.010 A 
ATOM     34  C   UNL     1      -5.605  -6.772   3.485  1.00  0.00    -0.014 A 
BRANCH  34  35
ATOM     35  C   UNL     1      -5.574  -7.439   4.817  1.00  0.00     0.031 A 
ATOM     36  C   UNL     1      -6.602  -8.479   5.156  1.00  0.00     0.074 A 
ATOM     37  C   UNL     1      -4.690  -7.054   5.758  1.00  0.00     0.049 A 
ATOM     38  N   UNL     1      -6.812  -9.091   6.293  1.00  0.00    -0.248 NA
ATOM     39  C   UNL     1      -7.531  -8.865   4.083  1.00  0.00     0.031 C 
ATOM     40  C   UNL     1      -3.663  -6.039   5.567  1.00  0.00     0.029 A 
ATOM     41  N   UNL     1      -4.526  -7.439   7.066  1.00  0.00    -0.354 N 
ATOM     42  C   UNL     1      -7.900  -9.923   6.075  1.00  0.00     0.074 A 
ATOM     43  C   UNL     1      -8.347  -9.692   4.718  1.00  0.00     0.031 C 
ATOM     44  C   UNL     1      -2.984  -5.858   6.709  1.00  0.00     0.029 A 
ATOM     45  C   UNL     1      -3.542  -6.739   7.727  1.00  0.00     0.049 A 
ATOM     46  H   UNL     1      -5.061  -8.148   7.490  1.00  0.00     0.167 HD
ATOM     47  C   UNL     1      -8.458 -10.823   6.919  1.00  0.00     0.037 A 
ATOM     48  C   UNL     1      -3.137  -6.792   9.010  1.00  0.00     0.037 A 
ATOM     49  C   UNL     1      -7.998 -11.068   8.260  1.00  0.00     0.049 A 
ATOM     50  C   UNL     1      -3.785  -7.781   9.936  1.00  0.00     0.074 A 
ATOM     51  C   UNL     1      -8.451 -12.008   9.168  1.00  0.00     0.029 A 
ATOM     52  N   UNL     1      -6.981 -10.363   8.887  1.00  0.00    -0.354 N 
ATOM     53  N   UNL     1      -4.760  -8.621   9.688  1.00  0.00    -0.248 NA
ATOM     54  C   UNL     1      -3.266  -7.846  11.308  1.00  0.00     0.031 C 
ATOM     55  C   UNL     1      -7.737 -11.845  10.359  1.00  0.00     0.029 A 
ATOM     56  C   UNL     1      -6.807 -10.833  10.178  1.00  0.00     0.049 A 
ATOM     57  H   UNL     1      -6.460  -9.636   8.475  1.00  0.00     0.167 HD
ATOM     58  C   UNL     1      -4.947  -9.341  10.860  1.00  0.00     0.074 A 
ATOM     59  C   UNL     1      -3.980  -8.841  11.816  1.00  0.00     0.031 C 
ATOM     60  C   UNL     1      -5.835 -10.331  11.116  1.00  0.00     0.037 A 
BRANCH  47  61
ATOM     61  C   UNL     1      -9.623 -11.613   6.402  1.00  0.00     0.057 A 
ATOM     62  C   UNL     1      -9.467 -12.593   5.412  1.00  0.00     0.134 A 
ATOM     63  C   UNL     1     -10.912 -11.399   6.903  1.00  0.00     0.134 A 
ATOM     64  F   UNL     1      -8.260 -12.834   4.877  1.00  0.00    -0.206 F 
ATOM     65  C   UNL     1     -10.557 -13.310   4.917  1.00  0.00     0.040 A 
ATOM     66  C   UNL     1     -12.006 -12.130   6.436  1.00  0.00     0.040 A 
ATOM     67  F   UNL     1     -11.130 -10.477   7.853  1.00  0.00    -0.206 F 
ATOM     68  C   UNL     1     -11.831 -13.083   5.435  1.00  0.00     0.006 A 
ENDBRANCH  47  61
BRANCH  48  69
ATOM     69  C   UNL     1      -2.043  -5.907   9.486  1.00  0.00     0.057 A 
ATOM     70  C   UNL     1      -0.776  -6.421   9.784  1.00  0.00     0.134 A 
ATOM     71  C   UNL     1      -2.236  -4.531   9.658  1.00  0.00     0.134 A 
ATOM     72  F   UNL     1      -0.534  -7.734   9.654  1.00  0.00    -0.206 F 
ATOM     73  C   UNL     1       0.254  -5.604  10.254  1.00  0.00     0.040 A 
ATOM     74  C   UNL     1      -1.209  -3.698  10.105  1.00  0.00     0.040 A 
ATOM     75  F   UNL     1      -3.425  -3.975   9.381  1.00  0.00    -0.206 F 
ATOM     76  C   UNL     1       0.040  -4.237  10.412  1.00  0.00     0.006 A 
ENDBRANCH  48  69
BRANCH  60  77
ATOM     77  C   UNL     1      -5.775 -10.969  12.472  1.00  0.00     0.057 A 
ATOM     78  C   UNL     1      -6.227 -10.309  13.621  1.00  0.00     0.134 A 
ATOM     79  C   UNL     1      -5.293 -12.276  12.620  1.00  0.00     0.134 A 
ATOM     80  F   UNL     1      -6.685  -9.051  13.547  1.00  0.00    -0.206 F 
ATOM     81  C   UNL     1      -6.183 -10.921  14.875  1.00  0.00     0.040 A 
ATOM     82  C   UNL     1      -5.269 -12.907  13.864  1.00  0.00     0.040 A 
ATOM     83  F   UNL     1      -4.851 -12.964  11.557  1.00  0.00    -0.206 F 
ATOM     84  C   UNL     1      -5.710 -12.226  14.997  1.00  0.00     0.006 A 
ENDBRANCH  60  77
ENDBRANCH  34  35
ENDBRANCH  26  29
ENDBRANCH  24  25
ENDBRANCH  23  24
ENDBRANCH  22  23
ENDBRANCH   3  22
TORSDOF 16
