REMARK SMILES Cc1c(NCc2ccccn2)cccc1C(=O)N1CCOC[C@@H]1CC(=O)NCCCNC(=O)c1ccc(-c2c3nc(c(-c4c(F)cccc4F)c4ccc([nH]4)c(-c4c(F)cccc4F)c4nc(c(-c5c(F)cccc5F)c5ccc2[nH]5)C=C4)C=C3)cc1
REMARK SMILES IDX 25 1 26 2 27 3 24 5 23 6 18 7 19 8 20 9 22 10 21 11 16 12
REMARK SMILES IDX 17 13 15 14 1 15 2 16 3 17 12 18 14 19 13 20 4 21 5 23 6 24
REMARK SMILES IDX 7 25 11 26 8 27 10 28 9 29 28 30 29 31 30 32 31 33 32 34
REMARK SMILES IDX 33 36 34 37 35 38 87 39 36 40 86 41 37 42 38 43 39 44 80 45
REMARK SMILES IDX 40 46 85 47 79 48 81 49 41 50 84 51 78 52 77 53 42 55 68 56
REMARK SMILES IDX 51 57 67 58 52 59 55 60 66 61 82 62 53 63 54 64 65 66 83 67
REMARK SMILES IDX 56 68 43 69 44 70 49 71 45 72 46 73 48 74 50 75 47 76 69 77
REMARK SMILES IDX 70 78 75 79 71 80 72 81 74 82 76 83 73 84 57 85 58 86 63 87
REMARK SMILES IDX 59 88 60 89 62 90 64 91 61 92
REMARK H PARENT 27 4 4 22 31 35 81 54 55 65
REMARK Flexibility Score: inf
ROOT
ATOM      1  C   UNL     1       3.479   2.611   2.733  1.00  0.00     0.222 C 
ATOM      2  O   UNL     1       3.845   2.577   3.912  1.00  0.00    -0.275 OA
ATOM      3  N   UNL     1       3.762   1.556   1.861  1.00  0.00    -0.356 N 
ATOM      4  H   UNL     1       4.651   1.138   1.796  1.00  0.00     0.163 HD
ENDROOT
BRANCH   1   5
ATOM      5  C   UNL     1       2.655   3.768   2.165  1.00  0.00     0.127 C 
BRANCH   5   6
ATOM      6  C   UNL     1       2.861   3.944   0.657  1.00  0.00     0.120 C 
ATOM      7  N   UNL     1       2.009   3.128  -0.364  1.00  0.00    -0.331 N 
ATOM      8  C   UNL     1       2.497   3.486  -1.738  1.00  0.00     0.148 C 
ATOM      9  C   UNL     1       4.039   3.267  -1.871  1.00  0.00     0.181 C 
ATOM     10  C   UNL     1       4.419   3.852   0.343  1.00  0.00     0.185 C 
ATOM     11  O   UNL     1       4.726   4.181  -1.011  1.00  0.00    -0.377 OA
BRANCH   7  12
ATOM     12  C   UNL     1       0.665   2.388  -0.271  1.00  0.00     0.254 C 
ATOM     13  O   UNL     1      -0.170   2.779  -1.105  1.00  0.00    -0.269 OA
BRANCH  12  14
ATOM     14  C   UNL     1       0.152   0.916   0.661  1.00  0.00     0.045 A 
ATOM     15  C   UNL     1       2.129  -1.303   1.092  1.00  0.00     0.047 C 
ATOM     16  C   UNL     1       0.703  -0.590   1.025  1.00  0.00    -0.015 A 
ATOM     17  C   UNL     1      -0.106  -1.614   1.527  1.00  0.00     0.038 A 
ATOM     18  C   UNL     1      -1.349  -1.135   1.917  1.00  0.00     0.026 A 
ATOM     19  C   UNL     1      -1.179   1.141   0.991  1.00  0.00     0.014 A 
ATOM     20  C   UNL     1      -1.890   0.151   1.657  1.00  0.00     0.003 A 
BRANCH  17  21
ATOM     21  N   UNL     1       0.224  -2.980   1.624  1.00  0.00    -0.379 N 
ATOM     22  H   UNL     1      -0.435  -3.447   2.188  1.00  0.00     0.160 HD
BRANCH  21  23
ATOM     23  C   UNL     1       1.300  -3.982   1.122  1.00  0.00     0.169 C 
BRANCH  23  24
ATOM     24  C   UNL     1       1.350  -4.556  -0.340  1.00  0.00     0.059 A 
ATOM     25  C   UNL     1       1.882  -3.897  -1.456  1.00  0.00     0.026 A 
ATOM     26  N   UNL     1       0.850  -5.811  -0.520  1.00  0.00    -0.259 NA
ATOM     27  C   UNL     1       1.718  -4.417  -2.752  1.00  0.00     0.004 A 
ATOM     28  C   UNL     1       0.765  -6.330  -1.776  1.00  0.00     0.111 A 
ATOM     29  C   UNL     1       1.142  -5.661  -2.920  1.00  0.00     0.020 A 
ENDBRANCH  23  24
ENDBRANCH  21  23
ENDBRANCH  17  21
ENDBRANCH  12  14
ENDBRANCH   7  12
ENDBRANCH   5   6
ENDBRANCH   1   5
BRANCH   3  30
ATOM     30  C   UNL     1       2.644   1.139   1.072  1.00  0.00     0.117 C 
BRANCH  30  31
ATOM     31  C   UNL     1       2.550   0.492  -0.651  1.00  0.00     0.042 C 
BRANCH  31  32
ATOM     32  C   UNL     1       1.243  -0.333  -1.599  1.00  0.00     0.118 C 
BRANCH  32  33
ATOM     33  N   UNL     1      -0.191   0.098  -1.954  1.00  0.00    -0.352 N 
ATOM     34  C   UNL     1      -1.504  -0.467  -2.108  1.00  0.00     0.251 C 
ATOM     35  H   UNL     1      -0.218   1.066  -2.131  1.00  0.00     0.163 HD
ATOM     36  O   UNL     1      -2.329   0.217  -2.728  1.00  0.00    -0.269 OA
BRANCH  34  37
ATOM     37  C   UNL     1      -2.077  -1.761  -1.540  1.00  0.00     0.039 A 
ATOM     38  C   UNL     1      -3.458  -2.019  -1.310  1.00  0.00     0.014 A 
ATOM     39  C   UNL     1      -1.262  -2.775  -1.152  1.00  0.00     0.014 A 
ATOM     40  C   UNL     1      -3.912  -3.074  -0.431  1.00  0.00     0.010 A 
ATOM     41  C   UNL     1      -1.721  -3.814  -0.323  1.00  0.00     0.010 A 
ATOM     42  C   UNL     1      -2.994  -3.902   0.209  1.00  0.00    -0.014 A 
BRANCH  42  43
ATOM     43  C   UNL     1      -3.037  -4.571   1.569  1.00  0.00     0.031 A 
ATOM     44  C   UNL     1      -2.271  -5.828   1.949  1.00  0.00     0.074 A 
ATOM     45  C   UNL     1      -3.291  -3.764   2.635  1.00  0.00     0.049 A 
ATOM     46  N   UNL     1      -2.094  -6.238   3.171  1.00  0.00    -0.248 NA
ATOM     47  C   UNL     1      -1.627  -6.735   1.006  1.00  0.00     0.031 C 
ATOM     48  C   UNL     1      -2.621  -3.764   3.956  1.00  0.00     0.029 A 
ATOM     49  N   UNL     1      -4.134  -2.678   2.747  1.00  0.00    -0.354 N 
ATOM     50  C   UNL     1      -1.072  -7.160   3.199  1.00  0.00     0.074 A 
ATOM     51  C   UNL     1      -0.891  -7.515   1.814  1.00  0.00     0.031 C 
ATOM     52  C   UNL     1      -3.206  -2.875   4.770  1.00  0.00     0.029 A 
ATOM     53  C   UNL     1      -4.394  -2.407   4.100  1.00  0.00     0.049 A 
ATOM     54  H   UNL     1      -4.501  -2.167   1.989  1.00  0.00     0.167 HD
ATOM     55  C   UNL     1      -0.440  -7.447   4.381  1.00  0.00     0.037 A 
ATOM     56  C   UNL     1      -5.665  -2.573   4.574  1.00  0.00     0.037 A 
ATOM     57  C   UNL     1      -1.125  -6.858   5.534  1.00  0.00     0.049 A 
ATOM     58  C   UNL     1      -5.813  -3.793   5.472  1.00  0.00     0.074 A 
ATOM     59  C   UNL     1      -0.836  -5.922   6.511  1.00  0.00     0.029 A 
ATOM     60  N   UNL     1      -2.446  -7.211   5.731  1.00  0.00    -0.354 N 
ATOM     61  N   UNL     1      -4.823  -4.447   6.018  1.00  0.00    -0.248 NA
ATOM     62  C   UNL     1      -7.103  -4.429   5.745  1.00  0.00     0.031 C 
ATOM     63  C   UNL     1      -2.044  -5.662   7.237  1.00  0.00     0.029 A 
ATOM     64  C   UNL     1      -3.043  -6.471   6.726  1.00  0.00     0.049 A 
ATOM     65  H   UNL     1      -2.908  -7.913   5.218  1.00  0.00     0.167 HD
ATOM     66  C   UNL     1      -5.288  -5.633   6.521  1.00  0.00     0.074 A 
ATOM     67  C   UNL     1      -6.729  -5.550   6.384  1.00  0.00     0.031 C 
ATOM     68  C   UNL     1      -4.472  -6.647   6.935  1.00  0.00     0.037 A 
BRANCH  55  69
ATOM     69  C   UNL     1       0.836  -8.252   4.562  1.00  0.00     0.057 A 
ATOM     70  C   UNL     1       1.192  -8.755   5.834  1.00  0.00     0.134 A 
ATOM     71  C   UNL     1       1.792  -8.493   3.560  1.00  0.00     0.134 A 
ATOM     72  F   UNL     1       0.394  -8.592   6.900  1.00  0.00    -0.206 F 
ATOM     73  C   UNL     1       2.389  -9.447   6.082  1.00  0.00     0.040 A 
ATOM     74  C   UNL     1       2.969  -9.231   3.783  1.00  0.00     0.040 A 
ATOM     75  F   UNL     1       1.670  -7.981   2.330  1.00  0.00    -0.206 F 
ATOM     76  C   UNL     1       3.276  -9.704   5.050  1.00  0.00     0.006 A 
ENDBRANCH  55  69
BRANCH  56  77
ATOM     77  C   UNL     1      -6.637  -2.084   3.549  1.00  0.00     0.057 A 
ATOM     78  C   UNL     1      -6.591  -0.703   3.267  1.00  0.00     0.134 A 
ATOM     79  C   UNL     1      -7.060  -2.937   2.519  1.00  0.00     0.134 A 
ATOM     80  F   UNL     1      -6.177   0.162   4.207  1.00  0.00    -0.206 F 
ATOM     81  C   UNL     1      -6.756  -0.217   1.968  1.00  0.00     0.040 A 
ATOM     82  C   UNL     1      -7.247  -2.452   1.220  1.00  0.00     0.040 A 
ATOM     83  F   UNL     1      -7.089  -4.264   2.702  1.00  0.00    -0.206 F 
ATOM     84  C   UNL     1      -7.040  -1.102   0.932  1.00  0.00     0.006 A 
ENDBRANCH  56  77
BRANCH  68  85
ATOM     85  C   UNL     1      -5.011  -7.929   7.510  1.00  0.00     0.057 A 
ATOM     86  C   UNL     1      -5.966  -7.921   8.536  1.00  0.00     0.134 A 
ATOM     87  C   UNL     1      -4.517  -9.197   7.145  1.00  0.00     0.134 A 
ATOM     88  F   UNL     1      -6.471  -6.766   8.995  1.00  0.00    -0.206 F 
ATOM     89  C   UNL     1      -6.428  -9.099   9.136  1.00  0.00     0.040 A 
ATOM     90  C   UNL     1      -4.935 -10.376   7.769  1.00  0.00     0.040 A 
ATOM     91  F   UNL     1      -3.630  -9.349   6.151  1.00  0.00    -0.206 F 
ATOM     92  C   UNL     1      -5.903 -10.331   8.763  1.00  0.00     0.006 A 
ENDBRANCH  68  85
ENDBRANCH  42  43
ENDBRANCH  34  37
ENDBRANCH  32  33
ENDBRANCH  31  32
ENDBRANCH  30  31
ENDBRANCH   3  30
TORSDOF 16
