REMARK SMILES CS(=O)(=O)c1ccc(C2=NN(c3ccc(C(=O)NCCCNC(=O)c4ccc(-c5c6nc(c(-c7c(F)cccc7F)c7ccc([nH]7)c(-c7c(F)cccc7F)c7nc(c(-c8c(F)cccc8F)c8ccc5[nH]8)C=C7)C=C6)cc4)cc3)[C@H](c3ccccc3)C2)cc1
REMARK SMILES IDX 19 1 18 2 16 3 17 4 15 6 12 7 13 8 80 9 14 10 79 11 11 12
REMARK SMILES IDX 9 13 10 14 88 15 81 16 8 17 5 18 6 19 90 20 7 21 89 22 2 23
REMARK SMILES IDX 1 24 3 25 4 26 82 27 83 28 87 29 84 30 86 31 85 32 20 33
REMARK SMILES IDX 21 34 22 35 23 36 24 38 25 39 26 40 78 41 27 42 77 43 28 44
REMARK SMILES IDX 29 45 30 46 71 47 31 48 76 49 70 50 72 51 32 52 75 53 69 54
REMARK SMILES IDX 68 55 33 57 59 58 42 59 58 60 43 61 46 62 57 63 73 64 44 65
REMARK SMILES IDX 45 66 56 68 74 69 47 70 34 71 35 72 40 73 36 74 37 75 39 76
REMARK SMILES IDX 41 77 38 78 60 79 61 80 66 81 62 82 63 83 65 84 67 85 64 86
REMARK SMILES IDX 48 87 49 88 54 89 50 90 51 91 53 92 55 93 52 94
REMARK H PARENT 18 5 22 37 72 56 46 67
REMARK Flexibility Score: inf
ROOT
ATOM      1  C   UNL     1       3.384  -4.624 -14.330  1.00  0.00     0.118 C 
ENDROOT
BRANCH   1   2
ATOM      2  N   UNL     1       1.996  -4.219 -14.477  1.00  0.00    -0.352 N 
ATOM      3  C   UNL     1       1.133  -3.608 -13.601  1.00  0.00     0.251 C 
ATOM      4  O   UNL     1       0.017  -3.289 -14.008  1.00  0.00    -0.269 OA
ATOM      5  H   UNL     1       1.607  -4.416 -15.360  1.00  0.00     0.163 HD
BRANCH   3   6
ATOM      6  C   UNL     1       1.533  -3.263 -12.212  1.00  0.00     0.039 A 
ATOM      7  C   UNL     1       2.380  -2.405  -9.668  1.00  0.00     0.060 A 
ATOM      8  C   UNL     1       1.459  -1.649 -10.399  1.00  0.00     0.029 A 
ATOM      9  C   UNL     1       2.791  -3.636 -10.182  1.00  0.00     0.029 A 
ATOM     10  C   UNL     1       1.036  -2.074 -11.664  1.00  0.00     0.016 A 
ATOM     11  C   UNL     1       2.360  -4.071 -11.432  1.00  0.00     0.016 A 
BRANCH   7  12
ATOM     12  N   UNL     1       2.894  -1.973  -8.461  1.00  0.00    -0.257 N 
ATOM     13  C   UNL     1       2.692  -1.389  -6.438  1.00  0.00     0.071 C 
ATOM     14  N   UNL     1       2.175  -2.163  -7.336  1.00  0.00    -0.176 NA
ATOM     15  C   UNL     1       3.814  -0.500  -6.902  1.00  0.00     0.091 C 
ATOM     16  C   UNL     1       4.023  -1.046  -8.328  1.00  0.00     0.144 C 
BRANCH  13  17
ATOM     17  C   UNL     1       2.196  -1.376  -5.055  1.00  0.00    -0.002 A 
ATOM     18  C   UNL     1       1.120  -1.442  -2.494  1.00  0.00     0.067 A 
ATOM     19  C   UNL     1       1.384  -2.641  -3.163  1.00  0.00     0.021 A 
ATOM     20  C   UNL     1       1.393  -0.209  -3.100  1.00  0.00     0.021 A 
ATOM     21  C   UNL     1       1.909  -2.606  -4.452  1.00  0.00     0.011 A 
ATOM     22  C   UNL     1       1.946  -0.177  -4.385  1.00  0.00     0.011 A 
BRANCH  18  23
ATOM     23  S   UNL     1       0.423  -1.530  -0.861  1.00  0.00     0.175 S 
ATOM     24  C   UNL     1       1.080  -0.148   0.031  1.00  0.00     0.163 C 
ATOM     25  O   UNL     1       0.966  -2.725  -0.238  1.00  0.00    -0.224 OA
ATOM     26  O   UNL     1      -1.004  -1.339  -1.008  1.00  0.00    -0.224 OA
ENDBRANCH  18  23
ENDBRANCH  13  17
BRANCH  16  27
ATOM     27  C   UNL     1       5.344  -1.747  -8.643  1.00  0.00    -0.023 A 
ATOM     28  C   UNL     1       6.236  -2.228  -7.673  1.00  0.00     0.006 A 
ATOM     29  C   UNL     1       5.679  -1.966  -9.997  1.00  0.00     0.006 A 
ATOM     30  C   UNL     1       7.414  -2.890  -8.041  1.00  0.00     0.000 A 
ATOM     31  C   UNL     1       6.837  -2.655 -10.364  1.00  0.00     0.000 A 
ATOM     32  C   UNL     1       7.710  -3.112  -9.384  1.00  0.00     0.000 A 
ENDBRANCH  16  27
ENDBRANCH   7  12
ENDBRANCH   3   6
ENDBRANCH   1   2
BRANCH   1  33
ATOM     33  C   UNL     1       3.498  -6.132 -14.115  1.00  0.00     0.042 C 
BRANCH  33  34
ATOM     34  C   UNL     1       3.238  -6.940 -15.381  1.00  0.00     0.118 C 
BRANCH  34  35
ATOM     35  N   UNL     1       4.295  -6.762 -16.365  1.00  0.00    -0.352 N 
ATOM     36  C   UNL     1       5.137  -7.684 -16.930  1.00  0.00     0.251 C 
ATOM     37  H   UNL     1       4.425  -5.836 -16.673  1.00  0.00     0.163 HD
ATOM     38  O   UNL     1       6.119  -7.301 -17.561  1.00  0.00    -0.269 OA
BRANCH  36  39
ATOM     39  C   UNL     1       4.878  -9.133 -16.781  1.00  0.00     0.039 A 
ATOM     40  C   UNL     1       5.964  -9.995 -16.604  1.00  0.00     0.014 A 
ATOM     41  C   UNL     1       3.583  -9.650 -16.863  1.00  0.00     0.014 A 
ATOM     42  C   UNL     1       5.746 -11.367 -16.465  1.00  0.00     0.010 A 
ATOM     43  C   UNL     1       3.359 -11.005 -16.640  1.00  0.00     0.010 A 
ATOM     44  C   UNL     1       4.439 -11.881 -16.454  1.00  0.00    -0.014 A 
BRANCH  44  45
ATOM     45  C   UNL     1       4.185 -13.332 -16.268  1.00  0.00     0.031 A 
ATOM     46  C   UNL     1       3.530 -14.131 -17.361  1.00  0.00     0.074 A 
ATOM     47  C   UNL     1       4.497 -13.917 -15.096  1.00  0.00     0.049 A 
ATOM     48  N   UNL     1       3.173 -15.390 -17.366  1.00  0.00    -0.248 NA
ATOM     49  C   UNL     1       3.208 -13.414 -18.606  1.00  0.00     0.031 C 
ATOM     50  C   UNL     1       5.098 -13.240 -13.945  1.00  0.00     0.029 A 
ATOM     51  N   UNL     1       4.344 -15.214 -14.675  1.00  0.00    -0.354 N 
ATOM     52  C   UNL     1       2.576 -15.610 -18.601  1.00  0.00     0.074 A 
ATOM     53  C   UNL     1       2.564 -14.343 -19.297  1.00  0.00     0.031 C 
ATOM     54  C   UNL     1       5.285 -14.132 -12.960  1.00  0.00     0.029 A 
ATOM     55  C   UNL     1       4.778 -15.431 -13.390  1.00  0.00     0.049 A 
ATOM     56  H   UNL     1       3.959 -15.922 -15.241  1.00  0.00     0.167 HD
ATOM     57  C   UNL     1       2.102 -16.769 -19.118  1.00  0.00     0.037 A 
ATOM     58  C   UNL     1       4.760 -16.548 -12.639  1.00  0.00     0.037 A 
ATOM     59  C   UNL     1       2.131 -18.032 -18.427  1.00  0.00     0.049 A 
ATOM     60  C   UNL     1       4.207 -17.817 -13.229  1.00  0.00     0.074 A 
ATOM     61  C   UNL     1       1.726 -19.273 -18.884  1.00  0.00     0.029 A 
ATOM     62  N   UNL     1       2.585 -18.212 -17.129  1.00  0.00    -0.354 N 
ATOM     63  N   UNL     1       3.710 -18.027 -14.424  1.00  0.00    -0.248 NA
ATOM     64  C   UNL     1       4.216 -19.006 -12.366  1.00  0.00     0.031 C 
ATOM     65  C   UNL     1       1.883 -20.194 -17.844  1.00  0.00     0.029 A 
ATOM     66  C   UNL     1       2.444 -19.539 -16.759  1.00  0.00     0.049 A 
ATOM     67  H   UNL     1       2.953 -17.501 -16.555  1.00  0.00     0.167 HD
ATOM     68  C   UNL     1       3.379 -19.375 -14.468  1.00  0.00     0.074 A 
ATOM     69  C   UNL     1       3.746 -19.936 -13.184  1.00  0.00     0.031 C 
ATOM     70  C   UNL     1       2.821 -20.085 -15.480  1.00  0.00     0.037 A 
BRANCH  57  71
ATOM     71  C   UNL     1       1.510 -16.723 -20.498  1.00  0.00     0.057 A 
ATOM     72  C   UNL     1       2.296 -16.491 -21.635  1.00  0.00     0.134 A 
ATOM     73  C   UNL     1       0.141 -16.946 -20.698  1.00  0.00     0.134 A 
ATOM     74  F   UNL     1       3.612 -16.259 -21.517  1.00  0.00    -0.206 F 
ATOM     75  C   UNL     1       1.739 -16.453 -22.915  1.00  0.00     0.040 A 
ATOM     76  C   UNL     1      -0.422 -16.942 -21.975  1.00  0.00     0.040 A 
ATOM     77  F   UNL     1      -0.670 -17.183 -19.656  1.00  0.00    -0.206 F 
ATOM     78  C   UNL     1       0.377 -16.686 -23.088  1.00  0.00     0.006 A 
ENDBRANCH  57  71
BRANCH  58  79
ATOM     79  C   UNL     1       5.294 -16.525 -11.253  1.00  0.00     0.057 A 
ATOM     80  C   UNL     1       6.461 -17.221 -10.916  1.00  0.00     0.134 A 
ATOM     81  C   UNL     1       4.647 -15.821 -10.231  1.00  0.00     0.134 A 
ATOM     82  F   UNL     1       7.118 -17.928 -11.848  1.00  0.00    -0.206 F 
ATOM     83  C   UNL     1       6.952 -17.238  -9.610  1.00  0.00     0.040 A 
ATOM     84  C   UNL     1       5.143 -15.805  -8.926  1.00  0.00     0.040 A 
ATOM     85  F   UNL     1       3.529 -15.126 -10.489  1.00  0.00    -0.206 F 
ATOM     86  C   UNL     1       6.294 -16.524  -8.611  1.00  0.00     0.006 A 
ENDBRANCH  58  79
BRANCH  70  87
ATOM     87  C   UNL     1       2.612 -21.555 -15.256  1.00  0.00     0.057 A 
ATOM     88  C   UNL     1       1.637 -22.042 -14.376  1.00  0.00     0.134 A 
ATOM     89  C   UNL     1       3.370 -22.497 -15.965  1.00  0.00     0.134 A 
ATOM     90  F   UNL     1       0.886 -21.195 -13.656  1.00  0.00    -0.206 F 
ATOM     91  C   UNL     1       1.442 -23.412 -14.189  1.00  0.00     0.040 A 
ATOM     92  C   UNL     1       3.162 -23.868 -15.811  1.00  0.00     0.040 A 
ATOM     93  F   UNL     1       4.313 -22.099 -16.832  1.00  0.00    -0.206 F 
ATOM     94  C   UNL     1       2.201 -24.329 -14.915  1.00  0.00     0.006 A 
ENDBRANCH  70  87
ENDBRANCH  44  45
ENDBRANCH  36  39
ENDBRANCH  34  35
ENDBRANCH  33  34
ENDBRANCH   1  33
TORSDOF 14
