REMARK SMILES O=C(CCNc1cc(N2CCC3(CC2)OCCO3)c2noc3c2c1C(=O)c1ccccc1-3)NCCCNC(=O)c1ccc(-c2c3nc(c(-c4c(F)cccc4F)c4ccc([nH]4)c(-c4c(F)cccc4F)c4nc(c(-c5c(F)cccc5F)c5ccc2[nH]5)C=C4)C=C3)cc1
REMARK SMILES IDX 34 1 33 2 1 3 2 4 3 6 4 7 5 8 6 10 7 11 24 12 8 13 23 14
REMARK SMILES IDX 25 15 19 16 22 17 26 18 27 19 20 20 21 21 32 22 28 23 31 24
REMARK SMILES IDX 29 25 30 26 9 27 10 28 14 29 11 30 13 31 12 32 15 33 18 34
REMARK SMILES IDX 16 35 17 36 35 37 36 38 37 39 38 40 39 42 40 43 41 44 93 45
REMARK SMILES IDX 42 46 92 47 43 48 44 49 45 50 86 51 46 52 91 53 85 54 87 55
REMARK SMILES IDX 47 56 90 57 84 58 83 59 48 61 74 62 57 63 73 64 58 65 61 66
REMARK SMILES IDX 72 67 88 68 59 69 60 70 71 72 89 73 62 74 49 75 50 76 55 77
REMARK SMILES IDX 51 78 52 79 54 80 56 81 53 82 75 83 76 84 81 85 77 86 78 87
REMARK SMILES IDX 80 88 82 89 79 90 63 91 64 92 69 93 65 94 66 95 68 96 70 97
REMARK SMILES IDX 67 98
REMARK H PARENT 33 5 5 9 37 41 87 60 61 71
REMARK Flexibility Score: inf
ROOT
ATOM      1  C   UNL     1       2.283   2.443   0.309  1.00  0.00     0.117 C 
ENDROOT
BRANCH   1   2
ATOM      2  N   UNL     1       2.811   1.138  -0.022  1.00  0.00    -0.356 N 
ATOM      3  O   UNL     1       0.919  -0.127   0.270  1.00  0.00    -0.275 OA
ATOM      4  C   UNL     1       2.115  -0.042   0.020  1.00  0.00     0.221 C 
ATOM      5  H   UNL     1       3.754   1.093  -0.302  1.00  0.00     0.163 HD
BRANCH   4   6
ATOM      6  C   UNL     1       3.004  -1.257  -0.161  1.00  0.00     0.121 C 
BRANCH   6   7
ATOM      7  C   UNL     1       3.876  -1.194  -1.411  1.00  0.00     0.123 C 
BRANCH   7   8
ATOM      8  N   UNL     1       4.872  -0.101  -1.336  1.00  0.00    -0.384 N 
ATOM      9  H   UNL     1       4.583   0.836  -1.240  1.00  0.00     0.160 HD
BRANCH   8  10
ATOM     10  C   UNL     1       6.241  -0.429  -1.403  1.00  0.00     0.048 A 
ATOM     11  C   UNL     1       7.084   0.085  -0.339  1.00  0.00     0.054 A 
ATOM     12  C   UNL     1       6.812  -1.083  -2.514  1.00  0.00     0.059 A 
ATOM     13  C   UNL     1       8.521   0.005  -0.257  1.00  0.00     0.069 A 
ATOM     14  C   UNL     1       8.182  -1.171  -2.381  1.00  0.00     0.065 A 
ATOM     15  C   UNL     1       6.187  -1.603  -3.760  1.00  0.00     0.196 C 
ATOM     16  C   UNL     1       9.057  -0.685  -1.376  1.00  0.00     0.138 A 
ATOM     17  C   UNL     1       8.925  -1.813  -3.310  1.00  0.00     0.176 A 
ATOM     18  O   UNL     1       5.013  -1.385  -4.031  1.00  0.00    -0.288 OA
ATOM     19  C   UNL     1       7.047  -2.390  -4.712  1.00  0.00     0.034 A 
ATOM     20  N   UNL     1      10.319  -1.025  -1.737  1.00  0.00    -0.077 NA
ATOM     21  O   UNL     1      10.226  -1.742  -2.944  1.00  0.00    -0.355 OA
ATOM     22  C   UNL     1       8.441  -2.491  -4.486  1.00  0.00     0.032 A 
ATOM     23  C   UNL     1       6.460  -3.026  -5.807  1.00  0.00     0.013 A 
ATOM     24  C   UNL     1       9.232  -3.234  -5.358  1.00  0.00     0.013 A 
ATOM     25  C   UNL     1       7.258  -3.772  -6.672  1.00  0.00     0.001 A 
ATOM     26  C   UNL     1       8.635  -3.876  -6.448  1.00  0.00     0.001 A 
BRANCH  13  27
ATOM     27  N   UNL     1       9.208   0.601   0.779  1.00  0.00    -0.369 N 
ATOM     28  C   UNL     1      10.433   1.360   0.547  1.00  0.00     0.122 C 
ATOM     29  C   UNL     1       8.937   0.232   2.162  1.00  0.00     0.122 C 
ATOM     30  C   UNL     1      10.319   2.673   1.323  1.00  0.00     0.087 C 
ATOM     31  C   UNL     1       8.778   1.504   2.979  1.00  0.00     0.087 C 
ATOM     32  C   UNL     1       9.980   2.434   2.798  1.00  0.00     0.171 C 
ATOM     33  O   UNL     1      11.121   1.871   3.476  1.00  0.00    -0.347 OA
ATOM     34  O   UNL     1       9.660   3.704   3.404  1.00  0.00    -0.347 OA
ATOM     35  C   UNL     1      11.643   2.942   4.266  1.00  0.00     0.192 C 
ATOM     36  C   UNL     1      10.419   3.744   4.610  1.00  0.00     0.192 C 
ENDBRANCH  13  27
ENDBRANCH   8  10
ENDBRANCH   7   8
ENDBRANCH   6   7
ENDBRANCH   4   6
ENDBRANCH   1   2
BRANCH   1  37
ATOM     37  C   UNL     1       2.762   2.881   1.690  1.00  0.00     0.042 C 
BRANCH  37  38
ATOM     38  C   UNL     1       4.287   2.881   1.823  1.00  0.00     0.118 C 
BRANCH  38  39
ATOM     39  N   UNL     1       4.919   4.102   1.348  1.00  0.00    -0.352 N 
ATOM     40  C   UNL     1       5.071   5.306   1.998  1.00  0.00     0.251 C 
ATOM     41  H   UNL     1       5.288   4.062   0.436  1.00  0.00     0.163 HD
ATOM     42  O   UNL     1       5.550   6.272   1.428  1.00  0.00    -0.269 OA
BRANCH  40  43
ATOM     43  C   UNL     1       4.585   5.425   3.387  1.00  0.00     0.039 A 
ATOM     44  C   UNL     1       5.049   4.558   4.379  1.00  0.00     0.014 A 
ATOM     45  C   UNL     1       3.625   6.397   3.676  1.00  0.00     0.014 A 
ATOM     46  C   UNL     1       4.458   4.575   5.635  1.00  0.00     0.010 A 
ATOM     47  C   UNL     1       3.065   6.445   4.950  1.00  0.00     0.010 A 
ATOM     48  C   UNL     1       3.462   5.515   5.921  1.00  0.00    -0.014 A 
BRANCH  48  49
ATOM     49  C   UNL     1       2.934   5.539   7.292  1.00  0.00     0.031 A 
ATOM     50  C   UNL     1       3.222   6.796   8.036  1.00  0.00     0.074 A 
ATOM     51  C   UNL     1       1.841   4.836   7.652  1.00  0.00     0.049 A 
ATOM     52  N   UNL     1       2.504   7.869   7.884  1.00  0.00    -0.248 NA
ATOM     53  C   UNL     1       4.463   7.009   8.777  1.00  0.00     0.031 C 
ATOM     54  C   UNL     1       0.758   4.473   6.731  1.00  0.00     0.029 A 
ATOM     55  N   UNL     1       1.351   4.530   8.899  1.00  0.00    -0.354 N 
ATOM     56  C   UNL     1       3.223   8.917   8.420  1.00  0.00     0.074 A 
ATOM     57  C   UNL     1       4.416   8.333   8.995  1.00  0.00     0.031 C 
ATOM     58  C   UNL     1      -0.338   4.178   7.460  1.00  0.00     0.029 A 
ATOM     59  C   UNL     1       0.011   4.156   8.877  1.00  0.00     0.049 A 
ATOM     60  H   UNL     1       1.891   4.571   9.721  1.00  0.00     0.167 HD
ATOM     61  C   UNL     1       2.814  10.207   8.323  1.00  0.00     0.037 A 
ATOM     62  C   UNL     1      -0.875   4.377   9.884  1.00  0.00     0.037 A 
ATOM     63  C   UNL     1       1.577  10.420   7.634  1.00  0.00     0.049 A 
ATOM     64  C   UNL     1      -1.008   5.873   9.871  1.00  0.00     0.074 A 
ATOM     65  C   UNL     1       1.186  10.693   6.341  1.00  0.00     0.029 A 
ATOM     66  N   UNL     1       0.406  10.260   8.335  1.00  0.00    -0.354 N 
ATOM     67  N   UNL     1      -1.782   6.554   9.068  1.00  0.00    -0.248 NA
ATOM     68  C   UNL     1       0.012   6.671  10.553  1.00  0.00     0.031 C 
ATOM     69  C   UNL     1      -0.169  10.248   6.248  1.00  0.00     0.029 A 
ATOM     70  C   UNL     1      -0.492   9.676   7.477  1.00  0.00     0.049 A 
ATOM     71  H   UNL     1       0.242  10.515   9.272  1.00  0.00     0.167 HD
ATOM     72  C   UNL     1      -1.166   7.799   8.931  1.00  0.00     0.074 A 
ATOM     73  C   UNL     1      -0.102   7.827   9.913  1.00  0.00     0.031 C 
ATOM     74  C   UNL     1      -1.416   8.648   7.893  1.00  0.00     0.037 A 
BRANCH  61  75
ATOM     75  C   UNL     1       3.504  11.359   8.925  1.00  0.00     0.057 A 
ATOM     76  C   UNL     1       4.570  12.002   8.297  1.00  0.00     0.134 A 
ATOM     77  C   UNL     1       2.929  11.972  10.044  1.00  0.00     0.134 A 
ATOM     78  F   UNL     1       5.149  11.466   7.213  1.00  0.00    -0.206 F 
ATOM     79  C   UNL     1       5.022  13.245   8.747  1.00  0.00     0.040 A 
ATOM     80  C   UNL     1       3.366  13.212  10.500  1.00  0.00     0.040 A 
ATOM     81  F   UNL     1       1.894  11.390  10.674  1.00  0.00    -0.206 F 
ATOM     82  C   UNL     1       4.408  13.860   9.840  1.00  0.00     0.006 A 
ENDBRANCH  61  75
BRANCH  62  83
ATOM     83  C   UNL     1      -0.656   3.543  11.102  1.00  0.00     0.057 A 
ATOM     84  C   UNL     1      -0.453   4.001  12.409  1.00  0.00     0.134 A 
ATOM     85  C   UNL     1      -0.655   2.142  10.942  1.00  0.00     0.134 A 
ATOM     86  F   UNL     1      -0.542   5.299  12.720  1.00  0.00    -0.206 F 
ATOM     87  C   UNL     1      -0.142   3.132  13.463  1.00  0.00     0.040 A 
ATOM     88  C   UNL     1      -0.371   1.261  11.989  1.00  0.00     0.040 A 
ATOM     89  F   UNL     1      -0.939   1.596   9.748  1.00  0.00    -0.206 F 
ATOM     90  C   UNL     1      -0.086   1.758  13.253  1.00  0.00     0.006 A 
ENDBRANCH  62  83
BRANCH  74  91
ATOM     91  C   UNL     1      -2.553   8.260   7.014  1.00  0.00     0.057 A 
ATOM     92  C   UNL     1      -2.353   7.746   5.727  1.00  0.00     0.134 A 
ATOM     93  C   UNL     1      -3.871   8.412   7.455  1.00  0.00     0.134 A 
ATOM     94  F   UNL     1      -1.115   7.550   5.245  1.00  0.00    -0.206 F 
ATOM     95  C   UNL     1      -3.427   7.433   4.893  1.00  0.00     0.040 A 
ATOM     96  C   UNL     1      -4.953   8.080   6.639  1.00  0.00     0.040 A 
ATOM     97  F   UNL     1      -4.128   8.904   8.678  1.00  0.00    -0.206 F 
ATOM     98  C   UNL     1      -4.732   7.599   5.349  1.00  0.00     0.006 A 
ENDBRANCH  74  91
ENDBRANCH  48  49
ENDBRANCH  40  43
ENDBRANCH  38  39
ENDBRANCH  37  38
ENDBRANCH   1  37
TORSDOF 14
