REMARK SMILES N#CCCn1cc(C(=O)NCCCNC(=O)c2ccc(-c3c4nc(c(-c5c(F)cccc5F)c5ccc([nH]5)c(-c5c(F)cccc5F)c5nc(c(-c6c(F)cccc6F)c6ccc3[nH]6)C=C5)C=C4)cc2)c(-c2cccc([N+](=O)[O-])c2)n1
REMARK SMILES IDX 11 1 10 2 8 3 9 4 7 6 5 7 6 8 81 9 71 10 4 11 3 12 2 13 1 14
REMARK SMILES IDX 72 15 73 16 80 17 74 18 76 19 75 20 77 21 78 22 79 23 12 24
REMARK SMILES IDX 13 25 14 26 15 27 16 29 17 30 18 31 70 32 19 33 69 34 20 35
REMARK SMILES IDX 21 36 22 37 63 38 23 39 68 40 62 41 64 42 24 43 67 44 61 45
REMARK SMILES IDX 60 46 25 48 51 49 34 50 50 51 35 52 38 53 49 54 65 55 36 56
REMARK SMILES IDX 37 57 48 59 66 60 39 61 26 62 27 63 32 64 28 65 29 66 31 67
REMARK SMILES IDX 33 68 30 69 52 70 53 71 58 72 54 73 55 74 57 75 59 76 56 77
REMARK SMILES IDX 40 78 41 79 46 80 42 81 43 82 45 83 47 84 44 85
REMARK H PARENT 10 5 14 28 64 47 38 58
REMARK Flexibility Score: inf
ROOT
ATOM      1  C   UNL     1       2.382  -0.679  -6.187  1.00  0.00     0.118 C 
ENDROOT
BRANCH   1   2
ATOM      2  N   UNL     1       2.164   0.747  -6.359  1.00  0.00    -0.352 N 
ATOM      3  C   UNL     1       2.465   1.826  -5.562  1.00  0.00     0.255 C 
ATOM      4  O   UNL     1       2.230   2.934  -6.037  1.00  0.00    -0.269 OA
ATOM      5  H   UNL     1       1.717   0.985  -7.204  1.00  0.00     0.163 HD
BRANCH   3   6
ATOM      6  C   UNL     1       3.072   1.650  -4.248  1.00  0.00     0.085 A 
ATOM      7  N   UNL     1       3.929   0.791  -2.417  1.00  0.00    -0.270 N 
ATOM      8  C   UNL     1       3.100   0.522  -3.455  1.00  0.00     0.123 A 
ATOM      9  N   UNL     1       4.323   2.066  -2.359  1.00  0.00    -0.172 NA
ATOM     10  C   UNL     1       3.770   2.628  -3.452  1.00  0.00     0.105 A 
BRANCH   7  11
ATOM     11  C   UNL     1       4.380  -0.174  -1.438  1.00  0.00     0.159 C 
BRANCH  11  12
ATOM     12  C   UNL     1       3.797   0.071  -0.069  1.00  0.00     0.144 C 
BRANCH  12  13
ATOM     13  C   UNL     1       2.277   0.071  -0.069  1.00  0.00     0.064 C 
ATOM     14  N   UNL     1       1.016   0.071  -0.069  1.00  0.00    -0.198 NA
ENDBRANCH  12  13
ENDBRANCH  11  12
ENDBRANCH   7  11
BRANCH  10  15
ATOM     15  C   UNL     1       3.958   4.054  -3.715  1.00  0.00     0.010 A 
ATOM     16  C   UNL     1       2.849   4.892  -3.914  1.00  0.00     0.011 A 
ATOM     17  C   UNL     1       5.247   4.595  -3.777  1.00  0.00     0.096 A 
ATOM     18  C   UNL     1       3.020   6.242  -4.228  1.00  0.00     0.008 A 
ATOM     19  C   UNL     1       5.412   5.950  -4.095  1.00  0.00     0.270 A 
ATOM     20  C   UNL     1       4.303   6.775  -4.330  1.00  0.00     0.085 A 
BRANCH  19  21
ATOM     21  N   UNL     1       6.764   6.509  -4.205  1.00  0.00     0.062 N 
ATOM     22  O   UNL     1       6.871   7.701  -4.529  1.00  0.00    -0.258 OA
ATOM     23  O   UNL     1       7.722   5.758  -3.973  1.00  0.00    -0.258 OA
ENDBRANCH  19  21
ENDBRANCH  10  15
ENDBRANCH   3   6
ENDBRANCH   1   2
BRANCH   1  24
ATOM     24  C   UNL     1       1.166  -1.382  -5.571  1.00  0.00     0.042 C 
BRANCH  24  25
ATOM     25  C   UNL     1       0.090  -1.687  -6.603  1.00  0.00     0.118 C 
BRANCH  25  26
ATOM     26  N   UNL     1       0.537  -2.684  -7.579  1.00  0.00    -0.352 N 
ATOM     27  C   UNL     1      -0.025  -3.034  -8.790  1.00  0.00     0.251 C 
ATOM     28  H   UNL     1       1.355  -3.175  -7.337  1.00  0.00     0.163 HD
ATOM     29  O   UNL     1       0.281  -4.083  -9.341  1.00  0.00    -0.269 OA
BRANCH  27  30
ATOM     30  C   UNL     1      -1.012  -2.132  -9.400  1.00  0.00     0.039 A 
ATOM     31  C   UNL     1      -2.193  -2.629  -9.957  1.00  0.00     0.014 A 
ATOM     32  C   UNL     1      -0.768  -0.765  -9.343  1.00  0.00     0.014 A 
ATOM     33  C   UNL     1      -3.175  -1.728 -10.362  1.00  0.00     0.010 A 
ATOM     34  C   UNL     1      -1.797   0.109  -9.583  1.00  0.00     0.010 A 
ATOM     35  C   UNL     1      -2.984  -0.356 -10.143  1.00  0.00    -0.014 A 
BRANCH  35  36
ATOM     36  C   UNL     1      -4.055   0.604 -10.405  1.00  0.00     0.031 A 
ATOM     37  C   UNL     1      -5.355   0.309  -9.741  1.00  0.00     0.074 A 
ATOM     38  C   UNL     1      -3.835   1.793 -11.007  1.00  0.00     0.049 A 
ATOM     39  N   UNL     1      -6.481   0.006 -10.298  1.00  0.00    -0.248 NA
ATOM     40  C   UNL     1      -5.386   0.243  -8.271  1.00  0.00     0.031 C 
ATOM     41  C   UNL     1      -2.551   2.365 -11.437  1.00  0.00     0.029 A 
ATOM     42  N   UNL     1      -4.715   2.801 -11.270  1.00  0.00    -0.354 N 
ATOM     43  C   UNL     1      -7.412  -0.095  -9.264  1.00  0.00     0.074 A 
ATOM     44  C   UNL     1      -6.654  -0.109  -8.042  1.00  0.00     0.031 C 
ATOM     45  C   UNL     1      -2.699   3.684 -11.684  1.00  0.00     0.029 A 
ATOM     46  C   UNL     1      -4.112   3.999 -11.630  1.00  0.00     0.049 A 
ATOM     47  H   UNL     1      -5.691   2.689 -11.209  1.00  0.00     0.167 HD
ATOM     48  C   UNL     1      -8.742   0.096  -9.496  1.00  0.00     0.037 A 
ATOM     49  C   UNL     1      -4.723   5.175 -11.895  1.00  0.00     0.037 A 
ATOM     50  C   UNL     1      -9.019   0.092 -10.910  1.00  0.00     0.049 A 
ATOM     51  C   UNL     1      -6.128   4.877 -12.233  1.00  0.00     0.074 A 
ATOM     52  C   UNL     1      -9.057  -0.839 -11.923  1.00  0.00     0.029 A 
ATOM     53  N   UNL     1      -8.970   1.329 -11.496  1.00  0.00    -0.354 N 
ATOM     54  N   UNL     1      -6.491   4.242 -13.311  1.00  0.00    -0.248 NA
ATOM     55  C   UNL     1      -7.149   4.989 -11.200  1.00  0.00     0.031 C 
ATOM     56  C   UNL     1      -8.741  -0.125 -13.117  1.00  0.00     0.029 A 
ATOM     57  C   UNL     1      -8.549   1.218 -12.793  1.00  0.00     0.049 A 
ATOM     58  H   UNL     1      -9.204   2.175 -11.050  1.00  0.00     0.167 HD
ATOM     59  C   UNL     1      -7.603   3.518 -12.926  1.00  0.00     0.074 A 
ATOM     60  C   UNL     1      -8.065   4.154 -11.699  1.00  0.00     0.031 C 
ATOM     61  C   UNL     1      -7.853   2.291 -13.467  1.00  0.00     0.037 A 
BRANCH  48  62
ATOM     62  C   UNL     1      -9.723   0.736  -8.532  1.00  0.00     0.057 A 
ATOM     63  C   UNL     1     -11.085   0.809  -8.896  1.00  0.00     0.134 A 
ATOM     64  C   UNL     1      -9.358   1.555  -7.446  1.00  0.00     0.134 A 
ATOM     65  F   UNL     1     -11.567   0.082  -9.916  1.00  0.00    -0.206 F 
ATOM     66  C   UNL     1     -11.984   1.696  -8.288  1.00  0.00     0.040 A 
ATOM     67  C   UNL     1     -10.261   2.407  -6.799  1.00  0.00     0.040 A 
ATOM     68  F   UNL     1      -8.096   1.660  -7.018  1.00  0.00    -0.206 F 
ATOM     69  C   UNL     1     -11.570   2.507  -7.241  1.00  0.00     0.006 A 
ENDBRANCH  48  62
BRANCH  49  70
ATOM     70  C   UNL     1      -4.218   6.551 -11.743  1.00  0.00     0.057 A 
ATOM     71  C   UNL     1      -4.762   7.612 -12.478  1.00  0.00     0.134 A 
ATOM     72  C   UNL     1      -3.381   6.898 -10.670  1.00  0.00     0.134 A 
ATOM     73  F   UNL     1      -5.590   7.374 -13.505  1.00  0.00    -0.206 F 
ATOM     74  C   UNL     1      -4.521   8.948 -12.139  1.00  0.00     0.040 A 
ATOM     75  C   UNL     1      -3.129   8.228 -10.322  1.00  0.00     0.040 A 
ATOM     76  F   UNL     1      -2.856   5.954  -9.874  1.00  0.00    -0.206 F 
ATOM     77  C   UNL     1      -3.716   9.259 -11.046  1.00  0.00     0.006 A 
ENDBRANCH  49  70
BRANCH  61  78
ATOM     78  C   UNL     1      -7.176   1.970 -14.766  1.00  0.00     0.057 A 
ATOM     79  C   UNL     1      -5.798   1.754 -14.908  1.00  0.00     0.134 A 
ATOM     80  C   UNL     1      -7.970   1.781 -15.900  1.00  0.00     0.134 A 
ATOM     81  F   UNL     1      -4.972   1.833 -13.859  1.00  0.00    -0.206 F 
ATOM     82  C   UNL     1      -5.232   1.405 -16.137  1.00  0.00     0.040 A 
ATOM     83  C   UNL     1      -7.422   1.401 -17.126  1.00  0.00     0.040 A 
ATOM     84  F   UNL     1      -9.303   1.925 -15.823  1.00  0.00    -0.206 F 
ATOM     85  C   UNL     1      -6.047   1.222 -17.251  1.00  0.00     0.006 A 
ENDBRANCH  61  78
ENDBRANCH  35  36
ENDBRANCH  27  30
ENDBRANCH  25  26
ENDBRANCH  24  25
ENDBRANCH   1  24
TORSDOF 15
