REMARK SMILES COc1ccc(NC2=[NH+]C(=O)/C(=C\c3ccccc3C(=O)NCCCNC(=O)c3ccc(-c4c5nc(c(-c6c(F)cccc6F)c6ccc([nH]6)c(-c6c(F)cccc6F)c6nc(c(-c7c(F)cccc7F)c7ccc4[nH]7)C=C6)C=C5)cc3)S2)cc1
REMARK SMILES IDX 23 1 22 2 20 3 21 4 19 6 14 7 15 8 16 9 18 10 17 11 13 12
REMARK SMILES IDX 7 13 8 14 9 16 83 17 10 18 12 20 11 21 6 22 3 23 4 24 85 25
REMARK SMILES IDX 5 26 84 27 2 28 1 29 24 30 25 31 26 32 27 33 28 35 29 36
REMARK SMILES IDX 30 37 82 38 31 39 81 40 32 41 33 42 34 43 75 44 35 45 80 46
REMARK SMILES IDX 74 47 76 48 36 49 79 50 73 51 72 52 37 54 63 55 46 56 62 57
REMARK SMILES IDX 47 58 50 59 61 60 77 61 48 62 49 63 60 65 78 66 51 67 38 68
REMARK SMILES IDX 39 69 44 70 40 71 41 72 43 73 45 74 42 75 64 76 65 77 70 78
REMARK SMILES IDX 66 79 67 80 69 81 71 82 68 83 52 84 53 85 58 86 54 87 55 88
REMARK SMILES IDX 57 89 59 90 56 91
REMARK H PARENT 22 5 7 15 9 19 26 34 76 53 50 64
REMARK Flexibility Score: inf
ROOT
ATOM      1  C   UNL     1      -2.498   8.471   1.225  1.00  0.00     0.118 C 
ENDROOT
BRANCH   1   2
ATOM      2  N   UNL     1      -2.112   8.961  -0.077  1.00  0.00    -0.352 N 
ATOM      3  C   UNL     1      -1.770  10.247  -0.434  1.00  0.00     0.251 C 
ATOM      4  O   UNL     1      -1.584  10.487  -1.626  1.00  0.00    -0.269 OA
ATOM      5  H   UNL     1      -2.092   8.293  -0.800  1.00  0.00     0.163 HD
BRANCH   3   6
ATOM      6  C   UNL     1      -1.760  11.363   0.559  1.00  0.00     0.047 A 
ATOM      7  C   UNL     1      -1.178  11.359   1.846  1.00  0.00    -0.011 A 
ATOM      8  C   UNL     1      -1.457  12.451   2.698  1.00  0.00     0.009 A 
ATOM      9  C   UNL     1      -2.204  13.550   2.271  1.00  0.00     0.001 A 
ATOM     10  C   UNL     1      -2.461  12.508   0.123  1.00  0.00     0.014 A 
ATOM     11  C   UNL     1      -2.679  13.594   0.970  1.00  0.00     0.001 A 
BRANCH   7  12
ATOM     12  C   UNL     1      -0.354  10.312   2.486  1.00  0.00     0.032 C 
ATOM     13  N   UNL     1       2.415   6.291   1.556  1.00  0.00    -0.235 N 
ATOM     14  C   UNL     1       1.913   7.549   1.409  1.00  0.00     0.322 C 
ATOM     15  H   UNL     1       3.104   6.177   2.250  1.00  0.00     0.313 HD
ATOM     16  N   UNL     1       1.752   8.268   0.350  1.00  0.00    -0.199 N 
ATOM     17  S   UNL     1       1.371   8.285   2.911  1.00  0.00     0.006 SA
ATOM     18  C   UNL     1       1.221   9.512   0.624  1.00  0.00     0.346 C 
ATOM     19  H   UNL     1       1.982   7.961  -0.557  1.00  0.00     0.316 HD
ATOM     20  C   UNL     1       0.637   9.554   1.994  1.00  0.00     0.110 C 
ATOM     21  O   UNL     1       1.254  10.479  -0.120  1.00  0.00    -0.240 OA
BRANCH  13  22
ATOM     22  C   UNL     1       2.064   5.135   0.834  1.00  0.00     0.125 A 
ATOM     23  C   UNL     1       1.226   2.674  -0.270  1.00  0.00     0.119 A 
ATOM     24  C   UNL     1       0.672   3.878  -0.708  1.00  0.00     0.051 A 
ATOM     25  C   UNL     1       2.278   2.708   0.639  1.00  0.00     0.051 A 
ATOM     26  C   UNL     1       1.102   5.103  -0.178  1.00  0.00     0.055 A 
ATOM     27  C   UNL     1       2.695   3.929   1.179  1.00  0.00     0.055 A 
BRANCH  23  28
ATOM     28  O   UNL     1       0.667   1.540  -0.794  1.00  0.00    -0.497 OA
ATOM     29  C   UNL     1       0.975   0.323  -0.119  1.00  0.00     0.278 C 
ENDBRANCH  23  28
ENDBRANCH  13  22
ENDBRANCH   7  12
ENDBRANCH   3   6
ENDBRANCH   1   2
BRANCH   1  30
ATOM     30  C   UNL     1      -3.418   7.269   1.220  1.00  0.00     0.042 C 
BRANCH  30  31
ATOM     31  C   UNL     1      -2.748   5.930   0.931  1.00  0.00     0.118 C 
BRANCH  31  32
ATOM     32  N   UNL     1      -1.592   5.608   1.766  1.00  0.00    -0.352 N 
ATOM     33  C   UNL     1      -1.193   4.441   2.380  1.00  0.00     0.251 C 
ATOM     34  H   UNL     1      -0.985   6.368   1.918  1.00  0.00     0.163 HD
ATOM     35  O   UNL     1      -0.172   4.452   3.067  1.00  0.00    -0.269 OA
BRANCH  33  36
ATOM     36  C   UNL     1      -2.024   3.215   2.323  1.00  0.00     0.039 A 
ATOM     37  C   UNL     1      -2.065   2.397   3.457  1.00  0.00     0.014 A 
ATOM     38  C   UNL     1      -2.844   2.921   1.237  1.00  0.00     0.014 A 
ATOM     39  C   UNL     1      -3.055   1.423   3.574  1.00  0.00     0.010 A 
ATOM     40  C   UNL     1      -3.917   2.055   1.408  1.00  0.00     0.010 A 
ATOM     41  C   UNL     1      -4.056   1.328   2.596  1.00  0.00    -0.014 A 
BRANCH  41  42
ATOM     42  C   UNL     1      -5.291   0.541   2.840  1.00  0.00     0.031 A 
ATOM     43  C   UNL     1      -5.684  -0.566   1.905  1.00  0.00     0.074 A 
ATOM     44  C   UNL     1      -6.102   0.899   3.857  1.00  0.00     0.049 A 
ATOM     45  N   UNL     1      -6.761  -1.309   1.915  1.00  0.00    -0.248 NA
ATOM     46  C   UNL     1      -4.768  -0.852   0.788  1.00  0.00     0.031 C 
ATOM     47  C   UNL     1      -5.873   2.023   4.773  1.00  0.00     0.029 A 
ATOM     48  N   UNL     1      -7.288   0.364   4.293  1.00  0.00    -0.354 N 
ATOM     49  C   UNL     1      -6.655  -2.138   0.806  1.00  0.00     0.074 A 
ATOM     50  C   UNL     1      -5.448  -1.761   0.106  1.00  0.00     0.031 C 
ATOM     51  C   UNL     1      -6.859   2.065   5.683  1.00  0.00     0.029 A 
ATOM     52  C   UNL     1      -7.811   1.001   5.395  1.00  0.00     0.049 A 
ATOM     53  H   UNL     1      -7.724  -0.404   3.858  1.00  0.00     0.167 HD
ATOM     54  C   UNL     1      -7.473  -3.147   0.426  1.00  0.00     0.037 A 
ATOM     55  C   UNL     1      -8.934   0.751   6.095  1.00  0.00     0.037 A 
ATOM     56  C   UNL     1      -8.657  -3.533   1.145  1.00  0.00     0.049 A 
ATOM     57  C   UNL     1      -9.801  -0.401   5.674  1.00  0.00     0.074 A 
ATOM     58  C   UNL     1      -9.537  -4.564   0.871  1.00  0.00     0.029 A 
ATOM     59  N   UNL     1      -9.119  -2.903   2.292  1.00  0.00    -0.354 N 
ATOM     60  N   UNL     1      -9.649  -1.221   4.663  1.00  0.00    -0.248 NA
ATOM     61  C   UNL     1     -10.990  -0.671   6.495  1.00  0.00     0.031 C 
ATOM     62  C   UNL     1     -10.544  -4.546   1.841  1.00  0.00     0.029 A 
ATOM     63  C   UNL     1     -10.271  -3.526   2.739  1.00  0.00     0.049 A 
ATOM     64  H   UNL     1      -8.691  -2.129   2.723  1.00  0.00     0.167 HD
ATOM     65  C   UNL     1     -10.703  -2.120   4.740  1.00  0.00     0.074 A 
ATOM     66  C   UNL     1     -11.478  -1.755   5.909  1.00  0.00     0.031 C 
ATOM     67  C   UNL     1     -11.008  -3.151   3.917  1.00  0.00     0.037 A 
BRANCH  54  68
ATOM     68  C   UNL     1      -7.089  -3.920  -0.801  1.00  0.00     0.057 A 
ATOM     69  C   UNL     1      -5.983  -4.782  -0.805  1.00  0.00     0.134 A 
ATOM     70  C   UNL     1      -7.838  -3.825  -1.979  1.00  0.00     0.134 A 
ATOM     71  F   UNL     1      -5.214  -4.905   0.287  1.00  0.00    -0.206 F 
ATOM     72  C   UNL     1      -5.622  -5.502  -1.944  1.00  0.00     0.040 A 
ATOM     73  C   UNL     1      -7.502  -4.560  -3.118  1.00  0.00     0.040 A 
ATOM     74  F   UNL     1      -8.909  -3.020  -2.043  1.00  0.00    -0.206 F 
ATOM     75  C   UNL     1      -6.388  -5.398  -3.103  1.00  0.00     0.006 A 
ENDBRANCH  54  68
BRANCH  55  76
ATOM     76  C   UNL     1      -9.285   1.577   7.279  1.00  0.00     0.057 A 
ATOM     77  C   UNL     1      -9.231   1.045   8.573  1.00  0.00     0.134 A 
ATOM     78  C   UNL     1      -9.704   2.907   7.149  1.00  0.00     0.134 A 
ATOM     79  F   UNL     1      -8.851  -0.227   8.764  1.00  0.00    -0.206 F 
ATOM     80  C   UNL     1      -9.609   1.792   9.691  1.00  0.00     0.040 A 
ATOM     81  C   UNL     1     -10.060   3.675   8.260  1.00  0.00     0.040 A 
ATOM     82  F   UNL     1      -9.765   3.482   5.939  1.00  0.00    -0.206 F 
ATOM     83  C   UNL     1     -10.024   3.113   9.535  1.00  0.00     0.006 A 
ENDBRANCH  55  76
BRANCH  67  84
ATOM     84  C   UNL     1     -12.205  -3.977   4.279  1.00  0.00     0.057 A 
ATOM     85  C   UNL     1     -13.509  -3.504   4.095  1.00  0.00     0.134 A 
ATOM     86  C   UNL     1     -12.046  -5.275   4.778  1.00  0.00     0.134 A 
ATOM     87  F   UNL     1     -13.723  -2.263   3.632  1.00  0.00    -0.206 F 
ATOM     88  C   UNL     1     -14.617  -4.288   4.415  1.00  0.00     0.040 A 
ATOM     89  C   UNL     1     -13.146  -6.077   5.079  1.00  0.00     0.040 A 
ATOM     90  F   UNL     1     -10.821  -5.787   4.969  1.00  0.00    -0.206 F 
ATOM     91  C   UNL     1     -14.437  -5.582   4.902  1.00  0.00     0.006 A 
ENDBRANCH  67  84
ENDBRANCH  41  42
ENDBRANCH  33  36
ENDBRANCH  31  32
ENDBRANCH  30  31
ENDBRANCH   1  30
TORSDOF 13
