REMARK SMILES CN(C)C(=O)CCc1cccc(NC(=O)[C@H]2CCCC[C@@H]2C(=O)NCCCNC(=O)c2ccc(-c3c4nc(c(-c5c(F)cccc5F)c5ccc([nH]5)c(-c5c(F)cccc5F)c5nc(c(-c6c(F)cccc6F)c6ccc3[nH]6)C=C5)C=C4)cc2)c1
REMARK SMILES IDX 22 1 23 2 24 3 21 5 16 6 17 7 18 8 20 9 19 10 14 11 13 12
REMARK SMILES IDX 15 14 12 15 8 16 9 17 85 18 10 19 11 20 7 21 6 22 4 23 1 24
REMARK SMILES IDX 2 25 3 26 5 27 25 28 26 29 27 30 28 31 29 32 30 34 31 35
REMARK SMILES IDX 32 36 84 37 33 38 83 39 34 40 35 41 36 42 77 43 37 44 82 45
REMARK SMILES IDX 76 46 78 47 38 48 81 49 75 50 74 51 39 53 65 54 48 55 64 56
REMARK SMILES IDX 49 57 52 58 63 59 79 60 50 61 51 62 62 64 80 65 53 66 40 67
REMARK SMILES IDX 41 68 46 69 42 70 43 71 45 72 47 73 44 74 66 75 67 76 72 77
REMARK SMILES IDX 68 78 69 79 71 80 73 81 70 82 54 83 55 84 60 85 56 86 57 87
REMARK SMILES IDX 59 88 61 89 58 90
REMARK H PARENT 24 4 13 13 28 33 78 52 52 63
REMARK Flexibility Score: inf
ROOT
ATOM      1  C   UNL     1      -1.818   1.688   8.536  1.00  0.00     0.223 C 
ATOM      2  O   UNL     1      -0.944   1.325   9.324  1.00  0.00    -0.275 OA
ATOM      3  N   UNL     1      -3.043   1.972   9.055  1.00  0.00    -0.356 N 
ATOM      4  H   UNL     1      -3.087   1.944  10.038  1.00  0.00     0.163 HD
ENDROOT
BRANCH   1   5
ATOM      5  C   UNL     1      -1.560   1.820   7.033  1.00  0.00     0.091 C 
ATOM      6  C   UNL     1      -0.342   0.956   6.615  1.00  0.00     0.091 C 
ATOM      7  C   UNL     1       1.017   1.643   6.873  1.00  0.00     0.014 C 
ATOM      8  C   UNL     1       1.072   3.122   6.509  1.00  0.00     0.001 C 
ATOM      9  C   UNL     1      -1.422   3.296   6.645  1.00  0.00     0.014 C 
ATOM     10  C   UNL     1      -0.098   3.896   7.094  1.00  0.00     0.001 C 
BRANCH   6  11
ATOM     11  C   UNL     1      -0.474   0.484   5.170  1.00  0.00     0.228 C 
ATOM     12  N   UNL     1      -1.284  -0.550   4.791  1.00  0.00    -0.326 N 
ATOM     13  H   UNL     1      -1.163  -0.789   3.844  1.00  0.00     0.169 HD
ATOM     14  O   UNL     1       0.165   1.033   4.265  1.00  0.00    -0.274 OA
BRANCH  12  15
ATOM     15  C   UNL     1      -2.250  -1.357   5.423  1.00  0.00     0.041 A 
ATOM     16  C   UNL     1      -3.933  -3.109   5.142  1.00  0.00    -0.045 A 
ATOM     17  C   UNL     1      -4.435  -2.818   6.412  1.00  0.00     0.004 A 
ATOM     18  C   UNL     1      -2.881  -2.332   4.630  1.00  0.00     0.029 A 
ATOM     19  C   UNL     1      -3.749  -1.947   7.237  1.00  0.00     0.002 A 
ATOM     20  C   UNL     1      -2.642  -1.256   6.754  1.00  0.00     0.026 A 
BRANCH  16  21
ATOM     21  C   UNL     1      -4.437  -4.345   4.431  1.00  0.00     0.045 C 
BRANCH  21  22
ATOM     22  C   UNL     1      -3.836  -5.642   5.008  1.00  0.00     0.105 C 
BRANCH  22  23
ATOM     23  C   UNL     1      -4.195  -5.831   6.478  1.00  0.00     0.222 C 
ATOM     24  C   UNL     1      -3.690  -5.472   8.844  1.00  0.00     0.146 C 
ATOM     25  N   UNL     1      -3.268  -5.470   7.451  1.00  0.00    -0.349 N 
ATOM     26  C   UNL     1      -1.860  -5.197   7.202  1.00  0.00     0.146 C 
ATOM     27  O   UNL     1      -5.330  -6.218   6.769  1.00  0.00    -0.275 OA
ENDBRANCH  22  23
ENDBRANCH  21  22
ENDBRANCH  16  21
ENDBRANCH  12  15
ENDBRANCH   6  11
ENDBRANCH   1   5
BRANCH   3  28
ATOM     28  C   UNL     1      -4.296   2.309   8.402  1.00  0.00     0.117 C 
BRANCH  28  29
ATOM     29  C   UNL     1      -5.376   1.257   8.651  1.00  0.00     0.042 C 
BRANCH  29  30
ATOM     30  C   UNL     1      -5.748   1.041  10.117  1.00  0.00     0.118 C 
BRANCH  30  31
ATOM     31  N   UNL     1      -6.379   2.206  10.718  1.00  0.00    -0.352 N 
ATOM     32  C   UNL     1      -7.623   2.355  11.283  1.00  0.00     0.251 C 
ATOM     33  H   UNL     1      -5.825   3.019  10.721  1.00  0.00     0.163 HD
ATOM     34  O   UNL     1      -8.020   3.476  11.579  1.00  0.00    -0.269 OA
BRANCH  32  35
ATOM     35  C   UNL     1      -8.504   1.185  11.507  1.00  0.00     0.039 A 
ATOM     36  C   UNL     1      -9.858   1.299  11.178  1.00  0.00     0.014 A 
ATOM     37  C   UNL     1      -8.020  -0.008  12.049  1.00  0.00     0.014 A 
ATOM     38  C   UNL     1     -10.703   0.193  11.304  1.00  0.00     0.010 A 
ATOM     39  C   UNL     1      -8.848  -1.131  12.113  1.00  0.00     0.010 A 
ATOM     40  C   UNL     1     -10.192  -1.048  11.719  1.00  0.00    -0.014 A 
BRANCH  40  41
ATOM     41  C   UNL     1     -11.027  -2.277  11.661  1.00  0.00     0.031 A 
ATOM     42  C   UNL     1     -11.379  -3.039  12.908  1.00  0.00     0.074 A 
ATOM     43  C   UNL     1     -11.410  -2.749  10.458  1.00  0.00     0.049 A 
ATOM     44  N   UNL     1     -12.033  -4.167  13.028  1.00  0.00    -0.248 NA
ATOM     45  C   UNL     1     -10.922  -2.470  14.184  1.00  0.00     0.031 C 
ATOM     46  C   UNL     1     -11.099  -2.127   9.169  1.00  0.00     0.029 A 
ATOM     47  N   UNL     1     -12.129  -3.869  10.118  1.00  0.00    -0.354 N 
ATOM     48  C   UNL     1     -12.061  -4.448  14.388  1.00  0.00     0.074 A 
ATOM     49  C   UNL     1     -11.321  -3.393  15.049  1.00  0.00     0.031 C 
ATOM     50  C   UNL     1     -11.634  -2.863   8.183  1.00  0.00     0.029 A 
ATOM     51  C   UNL     1     -12.283  -4.034   8.762  1.00  0.00     0.049 A 
ATOM     52  H   UNL     1     -12.498  -4.494  10.783  1.00  0.00     0.167 HD
ATOM     53  C   UNL     1     -12.660  -5.482  15.027  1.00  0.00     0.037 A 
ATOM     54  C   UNL     1     -12.861  -5.026   8.059  1.00  0.00     0.037 A 
ATOM     55  C   UNL     1     -13.401  -6.528  14.366  1.00  0.00     0.049 A 
ATOM     56  C   UNL     1     -13.482  -6.182   8.792  1.00  0.00     0.074 A 
ATOM     57  C   UNL     1     -14.097  -7.581  14.935  1.00  0.00     0.029 A 
ATOM     58  N   UNL     1     -13.530  -6.663  12.992  1.00  0.00    -0.354 N 
ATOM     59  N   UNL     1     -13.570  -6.392  10.082  1.00  0.00    -0.248 NA
ATOM     60  C   UNL     1     -14.085  -7.240   7.969  1.00  0.00     0.031 C 
ATOM     61  C   UNL     1     -14.595  -8.386  13.906  1.00  0.00     0.029 A 
ATOM     62  C   UNL     1     -14.260  -7.804  12.695  1.00  0.00     0.049 A 
ATOM     63  H   UNL     1     -13.157  -6.042  12.326  1.00  0.00     0.167 HD
ATOM     64  C   UNL     1     -14.252  -7.593  10.227  1.00  0.00     0.074 A 
ATOM     65  C   UNL     1     -14.578  -8.052   8.893  1.00  0.00     0.031 C 
ATOM     66  C   UNL     1     -14.576  -8.257  11.363  1.00  0.00     0.037 A 
BRANCH  53  67
ATOM     67  C   UNL     1     -12.538  -5.543  16.523  1.00  0.00     0.057 A 
ATOM     68  C   UNL     1     -13.199  -4.633  17.358  1.00  0.00     0.134 A 
ATOM     69  C   UNL     1     -11.799  -6.562  17.138  1.00  0.00     0.134 A 
ATOM     70  F   UNL     1     -13.919  -3.629  16.834  1.00  0.00    -0.206 F 
ATOM     71  C   UNL     1     -13.110  -4.719  18.749  1.00  0.00     0.040 A 
ATOM     72  C   UNL     1     -11.725  -6.675  18.528  1.00  0.00     0.040 A 
ATOM     73  F   UNL     1     -11.149  -7.474  16.400  1.00  0.00    -0.206 F 
ATOM     74  C   UNL     1     -12.378  -5.748  19.337  1.00  0.00     0.006 A 
ENDBRANCH  53  67
BRANCH  54  75
ATOM     75  C   UNL     1     -12.874  -4.975   6.574  1.00  0.00     0.057 A 
ATOM     76  C   UNL     1     -14.068  -4.801   5.866  1.00  0.00     0.134 A 
ATOM     77  C   UNL     1     -11.697  -5.113   5.829  1.00  0.00     0.134 A 
ATOM     78  F   UNL     1     -15.232  -4.683   6.522  1.00  0.00    -0.206 F 
ATOM     79  C   UNL     1     -14.095  -4.786   4.470  1.00  0.00     0.040 A 
ATOM     80  C   UNL     1     -11.705  -5.071   4.434  1.00  0.00     0.040 A 
ATOM     81  F   UNL     1     -10.518  -5.274   6.447  1.00  0.00    -0.206 F 
ATOM     82  C   UNL     1     -12.909  -4.916   3.750  1.00  0.00     0.006 A 
ENDBRANCH  54  75
BRANCH  66  83
ATOM     83  C   UNL     1     -15.338  -9.543  11.214  1.00  0.00     0.057 A 
ATOM     84  C   UNL     1     -14.740 -10.701  10.701  1.00  0.00     0.134 A 
ATOM     85  C   UNL     1     -16.677  -9.633  11.617  1.00  0.00     0.134 A 
ATOM     86  F   UNL     1     -13.465 -10.680  10.282  1.00  0.00    -0.206 F 
ATOM     87  C   UNL     1     -15.453 -11.894  10.570  1.00  0.00     0.040 A 
ATOM     88  C   UNL     1     -17.391 -10.828  11.520  1.00  0.00     0.040 A 
ATOM     89  F   UNL     1     -17.309  -8.564  12.125  1.00  0.00    -0.206 F 
ATOM     90  C   UNL     1     -16.780 -11.962  10.988  1.00  0.00     0.006 A 
ENDBRANCH  66  83
ENDBRANCH  40  41
ENDBRANCH  32  35
ENDBRANCH  30  31
ENDBRANCH  29  30
ENDBRANCH  28  29
ENDBRANCH   3  28
TORSDOF 15
