REMARK SMILES Cc1ccnc(C(=O)c2[nH]c3ccc(OC(F)(F)F)cc3c2CC(=O)NCCCNC(=O)c2ccc(-c3c4nc(c(-c5c(F)cccc5F)c5ccc([nH]5)c(-c5c(F)cccc5F)c5nc(c(-c6c(F)cccc6F)c6ccc3[nH]6)C=C5)C=C4)cc2)c1
REMARK SMILES IDX 27 1 26 2 24 3 25 4 23 6 22 7 9 8 10 9 11 10 21 12 12 13
REMARK SMILES IDX 20 14 13 15 14 16 7 17 8 18 6 19 1 20 2 21 3 22 87 23 4 24
REMARK SMILES IDX 5 25 15 26 16 27 17 28 18 29 19 30 28 31 29 32 30 33 31 34
REMARK SMILES IDX 32 36 33 37 34 38 86 39 35 40 85 41 36 42 37 43 38 44 79 45
REMARK SMILES IDX 39 46 84 47 78 48 80 49 40 50 83 51 77 52 76 53 41 55 67 56
REMARK SMILES IDX 50 57 66 58 51 59 54 60 65 61 81 62 52 63 53 64 64 66 82 67
REMARK SMILES IDX 55 68 42 69 43 70 48 71 44 72 45 73 47 74 49 75 46 76 68 77
REMARK SMILES IDX 69 78 74 79 70 80 71 81 73 82 75 83 72 84 56 85 57 86 62 87
REMARK SMILES IDX 58 88 59 89 61 90 63 91 60 92
REMARK H PARENT 26 5 10 11 30 35 80 54 54 65
REMARK Flexibility Score: inf
ROOT
ATOM      1  C   UNL     1       3.581  -6.923   1.052  1.00  0.00     0.117 C 
ENDROOT
BRANCH   1   2
ATOM      2  N   UNL     1       3.979  -5.561   1.356  1.00  0.00    -0.356 N 
ATOM      3  C   UNL     1       3.235  -4.520   1.829  1.00  0.00     0.224 C 
ATOM      4  O   UNL     1       3.808  -3.464   2.107  1.00  0.00    -0.275 OA
ATOM      5  H   UNL     1       4.930  -5.358   1.197  1.00  0.00     0.163 HD
BRANCH   3   6
ATOM      6  C   UNL     1       1.747  -4.683   2.079  1.00  0.00     0.138 C 
BRANCH   6   7
ATOM      7  C   UNL     1       0.914  -4.798   0.835  1.00  0.00    -0.002 A 
ATOM      8  C   UNL     1       0.902  -3.947  -0.266  1.00  0.00     0.093 A 
ATOM      9  N   UNL     1       0.020  -4.465  -1.184  1.00  0.00    -0.352 N 
ATOM     10  C   UNL     1      -0.587  -5.592  -0.692  1.00  0.00     0.046 A 
ATOM     11  H   UNL     1      -0.152  -4.080  -2.074  1.00  0.00     0.167 HD
ATOM     12  C   UNL     1      -0.054  -5.826   0.573  1.00  0.00     0.008 A 
ATOM     13  C   UNL     1      -1.548  -6.423  -1.275  1.00  0.00     0.030 A 
ATOM     14  C   UNL     1      -0.512  -6.953   1.288  1.00  0.00     0.057 A 
ATOM     15  C   UNL     1      -1.979  -7.537  -0.545  1.00  0.00     0.049 A 
ATOM     16  C   UNL     1      -1.469  -7.810   0.723  1.00  0.00     0.130 A 
BRANCH   8  17
ATOM     17  C   UNL     1       1.691  -2.760  -0.547  1.00  0.00     0.227 C 
ATOM     18  O   UNL     1       2.824  -2.861  -1.008  1.00  0.00    -0.285 OA
BRANCH  17  19
ATOM     19  C   UNL     1       1.030  -1.412  -0.366  1.00  0.00     0.113 A 
ATOM     20  C   UNL     1      -2.188   0.178   0.871  1.00  0.00     0.044 C 
ATOM     21  C   UNL     1      -0.825  -0.015   0.274  1.00  0.00    -0.047 A 
ATOM     22  C   UNL     1      -0.104   1.081  -0.202  1.00  0.00     0.023 A 
ATOM     23  C   UNL     1      -0.236  -1.283   0.208  1.00  0.00     0.036 A 
ATOM     24  C   UNL     1       1.152   0.869  -0.745  1.00  0.00     0.112 A 
ATOM     25  N   UNL     1       1.725  -0.348  -0.849  1.00  0.00    -0.253 NA
ENDBRANCH  17  19
ENDBRANCH   8  17
BRANCH  16  26
ATOM     26  O   UNL     1      -1.806  -8.868   1.521  1.00  0.00    -0.406 OA
BRANCH  26  27
ATOM     27  C   UNL     1      -2.718  -9.822   1.006  1.00  0.00     0.573 C 
ATOM     28  F   UNL     1      -3.922  -9.261   0.760  1.00  0.00    -0.132 F 
ATOM     29  F   UNL     1      -2.246 -10.390  -0.124  1.00  0.00    -0.132 F 
ATOM     30  F   UNL     1      -2.890 -10.798   1.925  1.00  0.00    -0.132 F 
ENDBRANCH  26  27
ENDBRANCH  16  26
ENDBRANCH   6   7
ENDBRANCH   3   6
ENDBRANCH   1   2
BRANCH   1  31
ATOM     31  C   UNL     1       3.281  -7.157  -0.427  1.00  0.00     0.042 C 
BRANCH  31  32
ATOM     32  C   UNL     1       4.457  -6.912  -1.369  1.00  0.00     0.118 C 
BRANCH  32  33
ATOM     33  N   UNL     1       5.510  -7.905  -1.216  1.00  0.00    -0.352 N 
ATOM     34  C   UNL     1       6.057  -8.763  -2.136  1.00  0.00     0.251 C 
ATOM     35  H   UNL     1       5.889  -7.971  -0.310  1.00  0.00     0.163 HD
ATOM     36  O   UNL     1       6.823  -9.647  -1.757  1.00  0.00    -0.269 OA
BRANCH  34  37
ATOM     37  C   UNL     1       5.733  -8.657  -3.577  1.00  0.00     0.039 A 
ATOM     38  C   UNL     1       5.485  -9.835  -4.292  1.00  0.00     0.014 A 
ATOM     39  C   UNL     1       5.751  -7.429  -4.246  1.00  0.00     0.014 A 
ATOM     40  C   UNL     1       5.207  -9.781  -5.661  1.00  0.00     0.010 A 
ATOM     41  C   UNL     1       5.450  -7.372  -5.609  1.00  0.00     0.010 A 
ATOM     42  C   UNL     1       5.175  -8.547  -6.325  1.00  0.00    -0.014 A 
BRANCH  42  43
ATOM     43  C   UNL     1       4.872  -8.470  -7.774  1.00  0.00     0.031 A 
ATOM     44  C   UNL     1       5.970  -8.214  -8.764  1.00  0.00     0.074 A 
ATOM     45  C   UNL     1       3.603  -8.601  -8.203  1.00  0.00     0.049 A 
ATOM     46  N   UNL     1       5.881  -7.963 -10.045  1.00  0.00    -0.248 NA
ATOM     47  C   UNL     1       7.345  -8.237  -8.243  1.00  0.00     0.031 C 
ATOM     48  C   UNL     1       2.442  -8.863  -7.353  1.00  0.00     0.029 A 
ATOM     49  N   UNL     1       3.083  -8.526  -9.470  1.00  0.00    -0.354 N 
ATOM     50  C   UNL     1       7.183  -7.754 -10.477  1.00  0.00     0.074 A 
ATOM     51  C   UNL     1       8.046  -7.937  -9.328  1.00  0.00     0.031 C 
ATOM     52  C   UNL     1       1.345  -8.940  -8.125  1.00  0.00     0.029 A 
ATOM     53  C   UNL     1       1.724  -8.706  -9.516  1.00  0.00     0.049 A 
ATOM     54  H   UNL     1       3.632  -8.358 -10.269  1.00  0.00     0.167 HD
ATOM     55  C   UNL     1       7.619  -7.425 -11.716  1.00  0.00     0.037 A 
ATOM     56  C   UNL     1       0.878  -8.672 -10.561  1.00  0.00     0.037 A 
ATOM     57  C   UNL     1       6.777  -7.269 -12.871  1.00  0.00     0.049 A 
ATOM     58  C   UNL     1       1.392  -8.368 -11.935  1.00  0.00     0.074 A 
ATOM     59  C   UNL     1       7.128  -6.889 -14.155  1.00  0.00     0.029 A 
ATOM     60  N   UNL     1       5.413  -7.511 -12.884  1.00  0.00    -0.354 N 
ATOM     61  N   UNL     1       2.614  -8.090 -12.314  1.00  0.00    -0.248 NA
ATOM     62  C   UNL     1       0.405  -8.359 -13.025  1.00  0.00     0.031 C 
ATOM     63  C   UNL     1       5.975  -6.915 -14.951  1.00  0.00     0.029 A 
ATOM     64  C   UNL     1       4.910  -7.310 -14.158  1.00  0.00     0.049 A 
ATOM     65  H   UNL     1       4.880  -7.785 -12.103  1.00  0.00     0.167 HD
ATOM     66  C   UNL     1       2.543  -7.855 -13.679  1.00  0.00     0.074 A 
ATOM     67  C   UNL     1       1.160  -8.041 -14.069  1.00  0.00     0.031 C 
ATOM     68  C   UNL     1       3.535  -7.502 -14.530  1.00  0.00     0.037 A 
BRANCH  55  69
ATOM     69  C   UNL     1       9.085  -7.185 -11.873  1.00  0.00     0.057 A 
ATOM     70  C   UNL     1       9.961  -8.224 -12.202  1.00  0.00     0.134 A 
ATOM     71  C   UNL     1       9.619  -5.901 -11.709  1.00  0.00     0.134 A 
ATOM     72  F   UNL     1       9.504  -9.476 -12.360  1.00  0.00    -0.206 F 
ATOM     73  C   UNL     1      11.329  -7.995 -12.360  1.00  0.00     0.040 A 
ATOM     74  C   UNL     1      10.984  -5.659 -11.866  1.00  0.00     0.040 A 
ATOM     75  F   UNL     1       8.825  -4.870 -11.386  1.00  0.00    -0.206 F 
ATOM     76  C   UNL     1      11.842  -6.708 -12.193  1.00  0.00     0.006 A 
ENDBRANCH  55  69
BRANCH  56  77
ATOM     77  C   UNL     1      -0.563  -8.919 -10.341  1.00  0.00     0.057 A 
ATOM     78  C   UNL     1      -1.097 -10.206 -10.465  1.00  0.00     0.134 A 
ATOM     79  C   UNL     1      -1.431  -7.877 -10.001  1.00  0.00     0.134 A 
ATOM     80  F   UNL     1      -0.306 -11.236 -10.802  1.00  0.00    -0.206 F 
ATOM     81  C   UNL     1      -2.454 -10.449 -10.260  1.00  0.00     0.040 A 
ATOM     82  C   UNL     1      -2.790  -8.107  -9.791  1.00  0.00     0.040 A 
ATOM     83  F   UNL     1      -0.968  -6.624  -9.876  1.00  0.00    -0.206 F 
ATOM     84  C   UNL     1      -3.304  -9.397  -9.920  1.00  0.00     0.006 A 
ENDBRANCH  56  77
BRANCH  68  85
ATOM     85  C   UNL     1       3.154  -7.286 -15.958  1.00  0.00     0.057 A 
ATOM     86  C   UNL     1       2.763  -6.023 -16.414  1.00  0.00     0.134 A 
ATOM     87  C   UNL     1       3.196  -8.334 -16.884  1.00  0.00     0.134 A 
ATOM     88  F   UNL     1       2.696  -4.984 -15.568  1.00  0.00    -0.206 F 
ATOM     89  C   UNL     1       2.422  -5.808 -17.750  1.00  0.00     0.040 A 
ATOM     90  C   UNL     1       2.857  -8.132 -18.222  1.00  0.00     0.040 A 
ATOM     91  F   UNL     1       3.554  -9.568 -16.498  1.00  0.00    -0.206 F 
ATOM     92  C   UNL     1       2.470  -6.865 -18.658  1.00  0.00     0.006 A 
ENDBRANCH  68  85
ENDBRANCH  42  43
ENDBRANCH  34  37
ENDBRANCH  32  33
ENDBRANCH  31  32
ENDBRANCH   1  31
TORSDOF 15
