REMARK SMILES NC(=O)C[C@@H](CC(=O)NCCCNC(=O)c1ccc(-c2c3nc(c(-c4c(F)cccc4F)c4ccc([nH]4)c(-c4c(F)cccc4F)c4nc(c(-c5c(F)cccc5F)c5ccc2[nH]5)C=C4)C=C3)cc1)c1cccc(Br)c1
REMARK SMILES IDX 10 1 9 2 7 3 8 4 6 6 5 7 4 8 2 9 1 10 3 13 70 14 71 15 76 16
REMARK SMILES IDX 72 17 74 18 73 19 75 20 11 21 12 22 13 23 14 24 15 26 16 27
REMARK SMILES IDX 17 28 69 29 18 30 68 31 19 32 20 33 21 34 62 35 22 36 67 37
REMARK SMILES IDX 61 38 63 39 23 40 66 41 60 42 59 43 24 45 50 46 33 47 49 48
REMARK SMILES IDX 34 49 37 50 48 51 64 52 35 53 36 54 47 56 65 57 38 58 25 59
REMARK SMILES IDX 26 60 31 61 27 62 28 63 30 64 32 65 29 66 51 67 52 68 57 69
REMARK SMILES IDX 53 70 54 71 56 72 58 73 55 74 39 75 40 76 45 77 41 78 42 79
REMARK SMILES IDX 44 80 46 81 43 82
REMARK H PARENT 9 5 1 11 1 12 13 25 63 44 37 55
REMARK Flexibility Score: inf
ROOT
ATOM      1  C   UNL     1       2.243   0.101   2.047  1.00  0.00     0.117 C 
ENDROOT
BRANCH   1   2
ATOM      2  N   UNL     1       3.567  -0.405   1.766  1.00  0.00    -0.356 N 
ATOM      3  C   UNL     1       4.023  -1.217   0.779  1.00  0.00     0.220 C 
ATOM      4  O   UNL     1       5.234  -1.455   0.773  1.00  0.00    -0.275 OA
ATOM      5  H   UNL     1       4.259  -0.108   2.400  1.00  0.00     0.163 HD
BRANCH   3   6
ATOM      6  C   UNL     1       3.124  -1.774  -0.314  1.00  0.00     0.108 C 
BRANCH   6   7
ATOM      7  C   UNL     1       2.084  -2.896  -0.073  1.00  0.00     0.038 C 
BRANCH   7   8
ATOM      8  C   UNL     1       0.689  -2.554   0.483  1.00  0.00     0.108 C 
BRANCH   8   9
ATOM      9  C   UNL     1      -0.298  -1.681  -0.276  1.00  0.00     0.218 C 
ATOM     10  N   UNL     1       0.105  -0.537  -0.876  1.00  0.00    -0.370 N 
ATOM     11  H   UNL     1      -0.545   0.018  -1.365  1.00  0.00     0.159 HD
ATOM     12  H   UNL     1       1.048  -0.260  -0.825  1.00  0.00     0.159 HD
ATOM     13  O   UNL     1      -1.503  -1.929  -0.264  1.00  0.00    -0.275 OA
ENDBRANCH   8   9
ENDBRANCH   7   8
BRANCH   7  14
ATOM     14  C   UNL     1       2.631  -4.115   0.688  1.00  0.00    -0.043 A 
ATOM     15  C   UNL     1       2.314  -5.406   0.228  1.00  0.00     0.004 A 
ATOM     16  C   UNL     1       3.379  -4.018   1.873  1.00  0.00     0.019 A 
ATOM     17  C   UNL     1       2.759  -6.548   0.904  1.00  0.00     0.001 A 
ATOM     18  C   UNL     1       3.844  -5.160   2.531  1.00  0.00     0.018 A 
ATOM     19  C   UNL     1       3.538  -6.426   2.052  1.00  0.00     0.016 A 
ATOM     20  Br  UNL     1       4.895  -4.971   4.094  1.00  0.00    -0.051 Br
ENDBRANCH   7  14
ENDBRANCH   6   7
ENDBRANCH   3   6
ENDBRANCH   1   2
BRANCH   1  21
ATOM     21  C   UNL     1       1.593  -0.623   3.221  1.00  0.00     0.042 C 
BRANCH  21  22
ATOM     22  C   UNL     1       2.106  -0.212   4.588  1.00  0.00     0.118 C 
BRANCH  22  23
ATOM     23  N   UNL     1       1.724   1.144   4.938  1.00  0.00    -0.352 N 
ATOM     24  C   UNL     1       0.963   1.619   5.972  1.00  0.00     0.251 C 
ATOM     25  H   UNL     1       2.069   1.837   4.330  1.00  0.00     0.163 HD
ATOM     26  O   UNL     1       0.613   2.802   5.947  1.00  0.00    -0.269 OA
BRANCH  24  27
ATOM     27  C   UNL     1       0.551   0.760   7.108  1.00  0.00     0.039 A 
ATOM     28  C   UNL     1      -0.658   1.046   7.752  1.00  0.00     0.014 A 
ATOM     29  C   UNL     1       1.361  -0.265   7.602  1.00  0.00     0.014 A 
ATOM     30  C   UNL     1      -1.052   0.305   8.868  1.00  0.00     0.010 A 
ATOM     31  C   UNL     1       0.916  -1.075   8.645  1.00  0.00     0.010 A 
ATOM     32  C   UNL     1      -0.273  -0.771   9.319  1.00  0.00    -0.014 A 
BRANCH  32  33
ATOM     33  C   UNL     1      -0.648  -1.530  10.539  1.00  0.00     0.031 A 
ATOM     34  C   UNL     1       0.257  -1.516  11.744  1.00  0.00     0.074 A 
ATOM     35  C   UNL     1      -1.785  -2.252  10.558  1.00  0.00     0.049 A 
ATOM     36  N   UNL     1       0.111  -2.118  12.898  1.00  0.00    -0.248 NA
ATOM     37  C   UNL     1       1.508  -0.749  11.628  1.00  0.00     0.031 C 
ATOM     38  C   UNL     1      -2.715  -2.396   9.436  1.00  0.00     0.029 A 
ATOM     39  N   UNL     1      -2.353  -2.997  11.559  1.00  0.00    -0.354 N 
ATOM     40  C   UNL     1       1.257  -1.822  13.627  1.00  0.00     0.074 A 
ATOM     41  C   UNL     1       2.116  -1.042  12.767  1.00  0.00     0.031 C 
ATOM     42  C   UNL     1      -3.756  -3.151   9.824  1.00  0.00     0.029 A 
ATOM     43  C   UNL     1      -3.554  -3.564  11.209  1.00  0.00     0.049 A 
ATOM     44  H   UNL     1      -1.939  -3.114  12.445  1.00  0.00     0.167 HD
ATOM     45  C   UNL     1       1.556  -2.142  14.909  1.00  0.00     0.037 A 
ATOM     46  C   UNL     1      -4.400  -4.323  11.930  1.00  0.00     0.037 A 
ATOM     47  C   UNL     1       0.680  -2.882  15.778  1.00  0.00     0.049 A 
ATOM     48  C   UNL     1      -4.070  -4.628  13.365  1.00  0.00     0.074 A 
ATOM     49  C   UNL     1       0.857  -3.207  17.111  1.00  0.00     0.029 A 
ATOM     50  N   UNL     1      -0.546  -3.407  15.397  1.00  0.00    -0.354 N 
ATOM     51  N   UNL     1      -3.015  -4.282  14.063  1.00  0.00    -0.248 NA
ATOM     52  C   UNL     1      -5.057  -5.414  14.117  1.00  0.00     0.031 C 
ATOM     53  C   UNL     1      -0.247  -3.959  17.527  1.00  0.00     0.029 A 
ATOM     54  C   UNL     1      -1.132  -4.062  16.466  1.00  0.00     0.049 A 
ATOM     55  H   UNL     1      -0.941  -3.325  14.499  1.00  0.00     0.167 HD
ATOM     56  C   UNL     1      -3.224  -4.782  15.341  1.00  0.00     0.074 A 
ATOM     57  C   UNL     1      -4.514  -5.440  15.325  1.00  0.00     0.031 C 
ATOM     58  C   UNL     1      -2.421  -4.705  16.431  1.00  0.00     0.037 A 
BRANCH  45  59
ATOM     59  C   UNL     1       2.881  -1.680  15.445  1.00  0.00     0.057 A 
ATOM     60  C   UNL     1       3.153  -0.325  15.684  1.00  0.00     0.134 A 
ATOM     61  C   UNL     1       3.895  -2.601  15.739  1.00  0.00     0.134 A 
ATOM     62  F   UNL     1       2.232   0.611  15.410  1.00  0.00    -0.206 F 
ATOM     63  C   UNL     1       4.394   0.099  16.161  1.00  0.00     0.040 A 
ATOM     64  C   UNL     1       5.130  -2.191  16.245  1.00  0.00     0.040 A 
ATOM     65  F   UNL     1       3.702  -3.913  15.541  1.00  0.00    -0.206 F 
ATOM     66  C   UNL     1       5.386  -0.836  16.449  1.00  0.00     0.006 A 
ENDBRANCH  45  59
BRANCH  46  67
ATOM     67  C   UNL     1      -5.667  -4.802  11.322  1.00  0.00     0.057 A 
ATOM     68  C   UNL     1      -6.902  -4.275  11.718  1.00  0.00     0.134 A 
ATOM     69  C   UNL     1      -5.676  -5.794  10.335  1.00  0.00     0.134 A 
ATOM     70  F   UNL     1      -6.959  -3.333  12.671  1.00  0.00    -0.206 F 
ATOM     71  C   UNL     1      -8.102  -4.730  11.170  1.00  0.00     0.040 A 
ATOM     72  C   UNL     1      -6.866  -6.242   9.760  1.00  0.00     0.040 A 
ATOM     73  F   UNL     1      -4.525  -6.332   9.906  1.00  0.00    -0.206 F 
ATOM     74  C   UNL     1      -8.085  -5.714  10.183  1.00  0.00     0.006 A 
ENDBRANCH  46  67
BRANCH  58  75
ATOM     75  C   UNL     1      -2.937  -5.316  17.701  1.00  0.00     0.057 A 
ATOM     76  C   UNL     1      -3.028  -6.703  17.872  1.00  0.00     0.134 A 
ATOM     77  C   UNL     1      -3.330  -4.503  18.772  1.00  0.00     0.134 A 
ATOM     78  F   UNL     1      -2.678  -7.535  16.881  1.00  0.00    -0.206 F 
ATOM     79  C   UNL     1      -3.525  -7.259  19.052  1.00  0.00     0.040 A 
ATOM     80  C   UNL     1      -3.801  -5.048  19.966  1.00  0.00     0.040 A 
ATOM     81  F   UNL     1      -3.257  -3.167  18.676  1.00  0.00    -0.206 F 
ATOM     82  C   UNL     1      -3.908  -6.431  20.105  1.00  0.00     0.006 A 
ENDBRANCH  58  75
ENDBRANCH  32  33
ENDBRANCH  24  27
ENDBRANCH  22  23
ENDBRANCH  21  22
ENDBRANCH   1  21
TORSDOF 14
