REMARK SMILES Cc1cc(C(=O)N[C@H](C(=O)NCCCNC(=O)c2ccc(-c3c4nc(c(-c5c(F)cccc5F)c5ccc([nH]5)c(-c5c(F)cccc5F)c5nc(c(-c6c(F)cccc6F)c6ccc3[nH]6)C=C5)C=C4)cc2)c2c(C)n[nH]c2C)c2ccc(C)c(C)c2n1
REMARK SMILES IDX 13 1 12 2 11 3 9 4 10 5 8 7 7 8 5 9 6 10 4 12 1 13 2 14 3 15
REMARK SMILES IDX 87 16 86 17 79 18 84 19 80 20 82 21 85 22 81 23 83 24 72 25
REMARK SMILES IDX 73 26 77 27 74 28 75 29 76 30 78 31 14 33 15 34 16 35 17 37
REMARK SMILES IDX 18 38 19 39 71 40 20 41 70 42 21 43 22 44 23 45 64 46 24 47
REMARK SMILES IDX 69 48 63 49 65 50 25 51 68 52 62 53 61 54 26 56 52 57 35 58
REMARK SMILES IDX 51 59 36 60 39 61 50 62 66 63 37 64 38 65 49 67 67 68 40 69
REMARK SMILES IDX 27 70 28 71 33 72 29 73 30 74 32 75 34 76 31 77 53 78 54 79
REMARK SMILES IDX 59 80 55 81 56 82 58 83 60 84 57 85 41 86 42 87 47 88 43 89
REMARK SMILES IDX 44 90 46 91 48 92 45 93
REMARK H PARENT 11 6 7 11 76 32 15 36 65 55 39 66
REMARK Flexibility Score: inf
ROOT
ATOM      1  C   UNL     1      -4.858  -0.177  -6.535  1.00  0.00     0.042 C 
ENDROOT
BRANCH   1   2
ATOM      2  C   UNL     1      -3.928   0.063  -5.357  1.00  0.00     0.117 C 
BRANCH   2   3
ATOM      3  N   UNL     1      -2.721  -0.739  -5.431  1.00  0.00    -0.354 N 
ATOM      4  C   UNL     1      -1.620  -0.766  -4.640  1.00  0.00     0.247 C 
ATOM      5  O   UNL     1      -0.766  -1.608  -4.956  1.00  0.00    -0.272 OA
ATOM      6  H   UNL     1      -2.697  -1.372  -6.184  1.00  0.00     0.163 HD
BRANCH   4   7
ATOM      7  C   UNL     1      -1.308   0.232  -3.502  1.00  0.00     0.206 C 
BRANCH   7   8
ATOM      8  N   UNL     1      -0.146   1.017  -3.934  1.00  0.00    -0.336 N 
ATOM      9  C   UNL     1       0.726   1.856  -3.289  1.00  0.00     0.252 C 
ATOM     10  O   UNL     1       1.794   2.103  -3.847  1.00  0.00    -0.269 OA
ATOM     11  H   UNL     1       0.049   0.921  -4.894  1.00  0.00     0.165 HD
BRANCH   9  12
ATOM     12  C   UNL     1       0.394   2.513  -1.997  1.00  0.00     0.051 A 
ATOM     13  C   UNL     1      -1.553   1.692   1.103  1.00  0.00     0.067 C 
ATOM     14  C   UNL     1      -0.671   2.406   0.124  1.00  0.00     0.039 A 
ATOM     15  C   UNL     1      -0.163   1.751  -0.975  1.00  0.00     0.038 A 
ATOM     16  N   UNL     1      -0.493   3.727   0.318  1.00  0.00    -0.253 NA
ATOM     17  C   UNL     1       0.165   4.465  -0.596  1.00  0.00     0.074 A 
ATOM     18  C   UNL     1       0.606   3.909  -1.814  1.00  0.00     0.013 A 
ATOM     19  C   UNL     1       0.389   5.828  -0.326  1.00  0.00    -0.022 A 
ATOM     20  C   UNL     1       1.205   4.776  -2.762  1.00  0.00     0.011 A 
ATOM     21  C   UNL     1       0.996   6.674  -1.280  1.00  0.00    -0.046 A 
ATOM     22  C   UNL     1      -0.063   6.357   1.018  1.00  0.00     0.047 C 
ATOM     23  C   UNL     1       1.395   6.131  -2.499  1.00  0.00     0.004 A 
ATOM     24  C   UNL     1       1.247   8.133  -1.017  1.00  0.00     0.044 C 
ENDBRANCH   9  12
ENDBRANCH   7   8
BRANCH   7  25
ATOM     25  C   UNL     1      -2.449   1.026  -2.949  1.00  0.00     0.027 A 
ATOM     26  C   UNL     1      -3.419   0.513  -2.027  1.00  0.00     0.065 A 
ATOM     27  C   UNL     1      -2.848   2.341  -3.150  1.00  0.00     0.038 A 
ATOM     28  C   UNL     1      -3.558  -0.875  -1.509  1.00  0.00     0.069 C 
ATOM     29  N   UNL     1      -4.296   1.446  -1.654  1.00  0.00    -0.180 NA
ATOM     30  N   UNL     1      -3.908   2.546  -2.309  1.00  0.00    -0.282 N 
ATOM     31  C   UNL     1      -2.365   3.429  -4.033  1.00  0.00     0.066 C 
ATOM     32  H   UNL     1      -4.343   3.422  -2.196  1.00  0.00     0.190 HD
ENDBRANCH   7  25
ENDBRANCH   4   7
ENDBRANCH   2   3
ENDBRANCH   1   2
BRANCH   1  33
ATOM     33  C   UNL     1      -5.342  -1.621  -6.612  1.00  0.00     0.118 C 
BRANCH  33  34
ATOM     34  N   UNL     1      -6.377  -1.944  -5.642  1.00  0.00    -0.352 N 
ATOM     35  C   UNL     1      -7.738  -1.737  -5.670  1.00  0.00     0.251 C 
ATOM     36  H   UNL     1      -6.048  -2.387  -4.826  1.00  0.00     0.163 HD
ATOM     37  O   UNL     1      -8.416  -1.995  -4.687  1.00  0.00    -0.269 OA
BRANCH  35  38
ATOM     38  C   UNL     1      -8.373  -1.147  -6.869  1.00  0.00     0.039 A 
ATOM     39  C   UNL     1      -9.331  -0.142  -6.702  1.00  0.00     0.014 A 
ATOM     40  C   UNL     1      -8.036  -1.576  -8.150  1.00  0.00     0.014 A 
ATOM     41  C   UNL     1      -9.881   0.487  -7.823  1.00  0.00     0.010 A 
ATOM     42  C   UNL     1      -8.487  -0.872  -9.258  1.00  0.00     0.010 A 
ATOM     43  C   UNL     1      -9.428   0.155  -9.109  1.00  0.00    -0.014 A 
BRANCH  43  44
ATOM     44  C   UNL     1      -9.960   0.815 -10.327  1.00  0.00     0.031 A 
ATOM     45  C   UNL     1     -10.658  -0.016 -11.371  1.00  0.00     0.074 A 
ATOM     46  C   UNL     1      -9.735   2.126 -10.540  1.00  0.00     0.049 A 
ATOM     47  N   UNL     1     -11.065   0.324 -12.566  1.00  0.00    -0.248 NA
ATOM     48  C   UNL     1     -10.886  -1.433 -11.041  1.00  0.00     0.031 C 
ATOM     49  C   UNL     1      -9.024   3.028  -9.632  1.00  0.00     0.029 A 
ATOM     50  N   UNL     1     -10.069   2.924 -11.605  1.00  0.00    -0.354 N 
ATOM     51  C   UNL     1     -11.563  -0.840 -13.138  1.00  0.00     0.074 A 
ATOM     52  C   UNL     1     -11.349  -1.907 -12.186  1.00  0.00     0.031 C 
ATOM     53  C   UNL     1      -8.993   4.259 -10.169  1.00  0.00     0.029 A 
ATOM     54  C   UNL     1      -9.649   4.225 -11.472  1.00  0.00     0.049 A 
ATOM     55  H   UNL     1     -10.563   2.595 -12.390  1.00  0.00     0.167 HD
ATOM     56  C   UNL     1     -12.175  -1.003 -14.334  1.00  0.00     0.037 A 
ATOM     57  C   UNL     1      -9.775   5.268 -12.313  1.00  0.00     0.037 A 
ATOM     58  C   UNL     1     -12.437   0.069 -15.255  1.00  0.00     0.049 A 
ATOM     59  C   UNL     1     -10.477   5.066 -13.628  1.00  0.00     0.074 A 
ATOM     60  C   UNL     1     -13.117   0.028 -16.458  1.00  0.00     0.029 A 
ATOM     61  N   UNL     1     -12.035   1.382 -15.063  1.00  0.00    -0.354 N 
ATOM     62  N   UNL     1     -11.002   3.974 -14.127  1.00  0.00    -0.248 NA
ATOM     63  C   UNL     1     -10.607   6.246 -14.495  1.00  0.00     0.031 C 
ATOM     64  C   UNL     1     -13.103   1.314 -17.010  1.00  0.00     0.029 A 
ATOM     65  C   UNL     1     -12.442   2.160 -16.133  1.00  0.00     0.049 A 
ATOM     66  H   UNL     1     -11.534   1.712 -14.283  1.00  0.00     0.167 HD
ATOM     67  C   UNL     1     -11.550   4.340 -15.350  1.00  0.00     0.074 A 
ATOM     68  C   UNL     1     -11.305   5.758 -15.510  1.00  0.00     0.031 C 
ATOM     69  C   UNL     1     -12.197   3.573 -16.261  1.00  0.00     0.037 A 
BRANCH  56  70
ATOM     70  C   UNL     1     -12.614  -2.392 -14.696  1.00  0.00     0.057 A 
ATOM     71  C   UNL     1     -11.968  -3.106 -15.712  1.00  0.00     0.134 A 
ATOM     72  C   UNL     1     -13.677  -3.024 -14.037  1.00  0.00     0.134 A 
ATOM     73  F   UNL     1     -10.944  -2.559 -16.386  1.00  0.00    -0.206 F 
ATOM     74  C   UNL     1     -12.357  -4.402 -16.053  1.00  0.00     0.040 A 
ATOM     75  C   UNL     1     -14.057  -4.330 -14.350  1.00  0.00     0.040 A 
ATOM     76  F   UNL     1     -14.326  -2.401 -13.042  1.00  0.00    -0.206 F 
ATOM     77  C   UNL     1     -13.399  -5.021 -15.364  1.00  0.00     0.006 A 
ENDBRANCH  56  70
BRANCH  57  78
ATOM     78  C   UNL     1      -9.252   6.606 -11.939  1.00  0.00     0.057 A 
ATOM     79  C   UNL     1      -7.880   6.878 -11.912  1.00  0.00     0.134 A 
ATOM     80  C   UNL     1     -10.124   7.658 -11.635  1.00  0.00     0.134 A 
ATOM     81  F   UNL     1      -6.992   5.911 -12.185  1.00  0.00    -0.206 F 
ATOM     82  C   UNL     1      -7.393   8.150 -11.603  1.00  0.00     0.040 A 
ATOM     83  C   UNL     1      -9.653   8.940 -11.347  1.00  0.00     0.040 A 
ATOM     84  F   UNL     1     -11.451   7.463 -11.662  1.00  0.00    -0.206 F 
ATOM     85  C   UNL     1      -8.282   9.188 -11.329  1.00  0.00     0.006 A 
ENDBRANCH  57  78
BRANCH  69  86
ATOM     86  C   UNL     1     -12.714   4.263 -17.487  1.00  0.00     0.057 A 
ATOM     87  C   UNL     1     -14.087   4.481 -17.656  1.00  0.00     0.134 A 
ATOM     88  C   UNL     1     -11.858   4.683 -18.512  1.00  0.00     0.134 A 
ATOM     89  F   UNL     1     -14.959   4.094 -16.712  1.00  0.00    -0.206 F 
ATOM     90  C   UNL     1     -14.591   5.091 -18.804  1.00  0.00     0.040 A 
ATOM     91  C   UNL     1     -12.348   5.317 -19.654  1.00  0.00     0.040 A 
ATOM     92  F   UNL     1     -10.531   4.516 -18.402  1.00  0.00    -0.206 F 
ATOM     93  C   UNL     1     -13.720   5.517 -19.804  1.00  0.00     0.006 A 
ENDBRANCH  69  86
ENDBRANCH  43  44
ENDBRANCH  35  38
ENDBRANCH  33  34
ENDBRANCH   1  33
TORSDOF 13
