REMARK SMILES Cc1cccc(CS(=O)(=O)c2ccc(C(=O)NCCCNC(=O)c3ccc(-c4c5nc(c(-c6c(F)cccc6F)c6ccc([nH]6)c(-c6c(F)cccc6F)c6nc(c(-c7c(F)cccc7F)c7ccc4[nH]7)C=C6)C=C5)cc3)cc2F)n1
REMARK SMILES IDX 18 1 17 2 15 3 16 4 14 6 11 7 12 8 79 9 13 10 78 11 80 12
REMARK SMILES IDX 8 13 9 14 10 15 7 16 6 17 1 18 2 19 3 20 81 21 4 22 5 23
REMARK SMILES IDX 19 24 20 25 21 26 22 27 23 29 24 30 25 31 77 32 26 33 76 34
REMARK SMILES IDX 27 35 28 36 29 37 70 38 30 39 75 40 69 41 71 42 31 43 74 44
REMARK SMILES IDX 68 45 67 46 32 48 58 49 41 50 57 51 42 52 45 53 56 54 72 55
REMARK SMILES IDX 43 56 44 57 55 59 73 60 46 61 33 62 34 63 39 64 35 65 36 66
REMARK SMILES IDX 38 67 40 68 37 69 59 70 60 71 65 72 61 73 62 74 64 75 66 76
REMARK SMILES IDX 63 77 47 78 48 79 53 80 49 81 50 82 52 83 54 84 51 85
REMARK H PARENT 17 5 21 28 71 47 45 58
REMARK Flexibility Score: inf
ROOT
ATOM      1  C   UNL     1      -2.512   2.389   8.037  1.00  0.00     0.118 C 
ENDROOT
BRANCH   1   2
ATOM      2  N   UNL     1      -2.549   1.004   7.603  1.00  0.00    -0.352 N 
ATOM      3  C   UNL     1      -2.407   0.429   6.369  1.00  0.00     0.251 C 
ATOM      4  O   UNL     1      -2.455  -0.798   6.287  1.00  0.00    -0.269 OA
ATOM      5  H   UNL     1      -2.706   0.359   8.330  1.00  0.00     0.163 HD
BRANCH   3   6
ATOM      6  C   UNL     1      -2.136   1.216   5.140  1.00  0.00     0.042 A 
ATOM      7  C   UNL     1      -1.499   2.573   2.759  1.00  0.00     0.103 A 
ATOM      8  C   UNL     1      -0.922   1.331   3.037  1.00  0.00     0.024 A 
ATOM      9  C   UNL     1      -2.381   3.131   3.679  1.00  0.00     0.142 A 
ATOM     10  C   UNL     1      -1.264   0.644   4.205  1.00  0.00     0.015 A 
ATOM     11  C   UNL     1      -2.712   2.454   4.856  1.00  0.00     0.054 A 
ATOM     12  F   UNL     1      -2.935   4.334   3.495  1.00  0.00    -0.206 F 
BRANCH   7  13
ATOM     13  S   UNL     1      -1.014   3.473   1.306  1.00  0.00     0.186 S 
ATOM     14  O   UNL     1       0.437   3.562   1.355  1.00  0.00    -0.223 OA
ATOM     15  O   UNL     1      -1.783   4.703   1.275  1.00  0.00    -0.223 OA
BRANCH  13  16
ATOM     16  C   UNL     1      -1.565   2.544  -0.113  1.00  0.00     0.198 C 
BRANCH  16  17
ATOM     17  C   UNL     1      -0.982   1.166  -0.154  1.00  0.00     0.056 A 
ATOM     18  C   UNL     1       2.430  -0.207  -0.136  1.00  0.00     0.067 C 
ATOM     19  C   UNL     1       0.934  -0.169  -0.187  1.00  0.00     0.038 A 
ATOM     20  C   UNL     1       0.177  -1.331  -0.165  1.00  0.00     0.023 A 
ATOM     21  N   UNL     1       0.365   1.059  -0.200  1.00  0.00    -0.257 NA
ATOM     22  C   UNL     1      -1.210  -1.220  -0.167  1.00  0.00     0.004 A 
ATOM     23  C   UNL     1      -1.801   0.041  -0.164  1.00  0.00     0.025 A 
ENDBRANCH  16  17
ENDBRANCH  13  16
ENDBRANCH   7  13
ENDBRANCH   3   6
ENDBRANCH   1   2
BRANCH   1  24
ATOM     24  C   UNL     1      -3.924   2.914   8.293  1.00  0.00     0.042 C 
BRANCH  24  25
ATOM     25  C   UNL     1      -4.561   2.337   9.554  1.00  0.00     0.118 C 
BRANCH  25  26
ATOM     26  N   UNL     1      -3.918   2.830  10.763  1.00  0.00    -0.352 N 
ATOM     27  C   UNL     1      -4.444   3.538  11.814  1.00  0.00     0.251 C 
ATOM     28  H   UNL     1      -2.958   2.624  10.838  1.00  0.00     0.163 HD
ATOM     29  O   UNL     1      -3.690   4.068  12.625  1.00  0.00    -0.269 OA
BRANCH  27  30
ATOM     30  C   UNL     1      -5.908   3.673  11.975  1.00  0.00     0.039 A 
ATOM     31  C   UNL     1      -6.429   4.900  12.394  1.00  0.00     0.014 A 
ATOM     32  C   UNL     1      -6.761   2.586  11.765  1.00  0.00     0.014 A 
ATOM     33  C   UNL     1      -7.807   5.051  12.555  1.00  0.00     0.010 A 
ATOM     34  C   UNL     1      -8.140   2.756  11.856  1.00  0.00     0.010 A 
ATOM     35  C   UNL     1      -8.676   3.988  12.259  1.00  0.00    -0.014 A 
BRANCH  35  36
ATOM     36  C   UNL     1     -10.148   4.146  12.365  1.00  0.00     0.031 A 
ATOM     37  C   UNL     1     -10.927   3.340  13.367  1.00  0.00     0.074 A 
ATOM     38  C   UNL     1     -10.789   4.975  11.518  1.00  0.00     0.049 A 
ATOM     39  N   UNL     1     -12.221   3.288  13.558  1.00  0.00    -0.248 NA
ATOM     40  C   UNL     1     -10.154   2.459  14.257  1.00  0.00     0.031 C 
ATOM     41  C   UNL     1     -10.146   5.783  10.481  1.00  0.00     0.029 A 
ATOM     42  N   UNL     1     -12.123   5.271  11.392  1.00  0.00    -0.354 N 
ATOM     43  C   UNL     1     -12.416   2.364  14.576  1.00  0.00     0.074 A 
ATOM     44  C   UNL     1     -11.114   1.841  14.930  1.00  0.00     0.031 C 
ATOM     45  C   UNL     1     -11.081   6.505   9.844  1.00  0.00     0.029 A 
ATOM     46  C   UNL     1     -12.392   6.181  10.398  1.00  0.00     0.049 A 
ATOM     47  H   UNL     1     -12.820   4.871  11.959  1.00  0.00     0.167 HD
ATOM     48  C   UNL     1     -13.574   2.003  15.178  1.00  0.00     0.037 A 
ATOM     49  C   UNL     1     -13.564   6.692   9.976  1.00  0.00     0.037 A 
ATOM     50  C   UNL     1     -14.862   2.549  14.842  1.00  0.00     0.049 A 
ATOM     51  C   UNL     1     -14.837   6.264  10.649  1.00  0.00     0.074 A 
ATOM     52  C   UNL     1     -16.086   2.288  15.432  1.00  0.00     0.029 A 
ATOM     53  N   UNL     1     -15.093   3.466  13.828  1.00  0.00    -0.354 N 
ATOM     54  N   UNL     1     -15.002   5.425  11.643  1.00  0.00    -0.248 NA
ATOM     55  C   UNL     1     -16.087   6.852  10.146  1.00  0.00     0.031 C 
ATOM     56  C   UNL     1     -17.065   3.011  14.745  1.00  0.00     0.029 A 
ATOM     57  C   UNL     1     -16.444   3.764  13.761  1.00  0.00     0.049 A 
ATOM     58  H   UNL     1     -14.400   3.849  13.243  1.00  0.00     0.167 HD
ATOM     59  C   UNL     1     -16.366   5.402  11.900  1.00  0.00     0.074 A 
ATOM     60  C   UNL     1     -16.984   6.320  10.965  1.00  0.00     0.031 C 
ATOM     61  C   UNL     1     -17.044   4.684  12.828  1.00  0.00     0.037 A 
BRANCH  48  62
ATOM     62  C   UNL     1     -13.506   0.979  16.273  1.00  0.00     0.057 A 
ATOM     63  C   UNL     1     -14.064  -0.294  16.099  1.00  0.00     0.134 A 
ATOM     64  C   UNL     1     -12.950   1.274  17.525  1.00  0.00     0.134 A 
ATOM     65  F   UNL     1     -14.619  -0.641  14.927  1.00  0.00    -0.206 F 
ATOM     66  C   UNL     1     -14.084  -1.231  17.133  1.00  0.00     0.040 A 
ATOM     67  C   UNL     1     -12.939   0.336  18.558  1.00  0.00     0.040 A 
ATOM     68  F   UNL     1     -12.389   2.471  17.754  1.00  0.00    -0.206 F 
ATOM     69  C   UNL     1     -13.517  -0.918  18.367  1.00  0.00     0.006 A 
ENDBRANCH  48  62
BRANCH  49  70
ATOM     70  C   UNL     1     -13.575   7.694   8.880  1.00  0.00     0.057 A 
ATOM     71  C   UNL     1     -13.262   7.343   7.561  1.00  0.00     0.134 A 
ATOM     72  C   UNL     1     -13.866   9.038   9.138  1.00  0.00     0.134 A 
ATOM     73  F   UNL     1     -12.965   6.073   7.249  1.00  0.00    -0.206 F 
ATOM     74  C   UNL     1     -13.218   8.297   6.542  1.00  0.00     0.040 A 
ATOM     75  C   UNL     1     -13.850   9.998   8.125  1.00  0.00     0.040 A 
ATOM     76  F   UNL     1     -14.189   9.431  10.379  1.00  0.00    -0.206 F 
ATOM     77  C   UNL     1     -13.516   9.629   6.823  1.00  0.00     0.006 A 
ENDBRANCH  49  70
BRANCH  61  78
ATOM     78  C   UNL     1     -18.531   4.870  12.903  1.00  0.00     0.057 A 
ATOM     79  C   UNL     1     -19.113   5.516  14.001  1.00  0.00     0.134 A 
ATOM     80  C   UNL     1     -19.389   4.335  11.936  1.00  0.00     0.134 A 
ATOM     81  F   UNL     1     -18.346   6.041  14.969  1.00  0.00    -0.206 F 
ATOM     82  C   UNL     1     -20.498   5.608  14.144  1.00  0.00     0.040 A 
ATOM     83  C   UNL     1     -20.776   4.443  12.054  1.00  0.00     0.040 A 
ATOM     84  F   UNL     1     -18.894   3.713  10.855  1.00  0.00    -0.206 F 
ATOM     85  C   UNL     1     -21.334   5.071  13.167  1.00  0.00     0.006 A 
ENDBRANCH  61  78
ENDBRANCH  35  36
ENDBRANCH  27  30
ENDBRANCH  25  26
ENDBRANCH  24  25
ENDBRANCH   1  24
TORSDOF 13
