REMARK SMILES COc1ccccc1N1C(=O)CC[C@H]1CC(=O)NCCCNC(=O)c1ccc(-c2c3nc(c(-c4c(F)cccc4F)c4ccc([nH]4)c(-c4c(F)cccc4F)c4nc(c(-c5c(F)cccc5F)c5ccc2[nH]5)C=C4)C=C3)cc1
REMARK SMILES IDX 19 1 18 2 16 3 17 4 15 6 14 7 9 8 10 9 11 10 12 11 13 12
REMARK SMILES IDX 8 13 3 14 4 15 5 16 7 17 6 18 2 19 1 20 20 21 21 22 22 23
REMARK SMILES IDX 23 24 24 26 25 27 26 28 78 29 27 30 77 31 28 32 29 33 30 34
REMARK SMILES IDX 71 35 31 36 76 37 70 38 72 39 32 40 75 41 69 42 68 43 33 45
REMARK SMILES IDX 59 46 42 47 58 48 43 49 46 50 57 51 73 52 44 53 45 54 56 56
REMARK SMILES IDX 74 57 47 58 34 59 35 60 40 61 36 62 37 63 39 64 41 65 38 66
REMARK SMILES IDX 60 67 61 68 66 69 62 70 63 71 65 72 67 73 64 74 48 75 49 76
REMARK SMILES IDX 54 77 50 78 51 79 53 80 55 81 52 82
REMARK H PARENT 18 5 22 25 72 44 46 55
REMARK Flexibility Score: inf
ROOT
ATOM      1  C   UNL     1       7.018   0.557   2.451  1.00  0.00     0.117 C 
ENDROOT
BRANCH   1   2
ATOM      2  N   UNL     1       6.138   0.356   3.580  1.00  0.00    -0.356 N 
ATOM      3  C   UNL     1       5.236  -0.621   3.832  1.00  0.00     0.222 C 
ATOM      4  O   UNL     1       4.912  -0.777   5.015  1.00  0.00    -0.275 OA
ATOM      5  H   UNL     1       6.207   1.043   4.282  1.00  0.00     0.163 HD
BRANCH   3   6
ATOM      6  C   UNL     1       4.665  -1.540   2.772  1.00  0.00     0.125 C 
BRANCH   6   7
ATOM      7  C   UNL     1       3.813  -1.028   1.593  1.00  0.00     0.100 C 
ATOM      8  N   UNL     1       3.156   0.272   1.610  1.00  0.00    -0.305 N 
ATOM      9  C   UNL     1       3.271   0.930   0.373  1.00  0.00     0.227 C 
ATOM     10  O   UNL     1       2.873   2.040   0.073  1.00  0.00    -0.275 OA
ATOM     11  C   UNL     1       4.010   0.029  -0.586  1.00  0.00     0.103 C 
ATOM     12  C   UNL     1       4.615  -1.050   0.288  1.00  0.00     0.036 C 
BRANCH   8  13
ATOM     13  C   UNL     1       2.049   0.536   2.474  1.00  0.00     0.086 A 
ATOM     14  C   UNL     1       0.731   0.718   2.009  1.00  0.00     0.142 A 
ATOM     15  C   UNL     1      -0.319   0.965   2.908  1.00  0.00     0.048 A 
ATOM     16  C   UNL     1      -0.079   1.024   4.278  1.00  0.00     0.004 A 
ATOM     17  C   UNL     1       2.263   0.649   3.850  1.00  0.00     0.030 A 
ATOM     18  C   UNL     1       1.217   0.878   4.748  1.00  0.00     0.002 A 
BRANCH  14  19
ATOM     19  O   UNL     1       0.392   0.756   0.681  1.00  0.00    -0.495 OA
ATOM     20  C   UNL     1       0.267  -0.540   0.110  1.00  0.00     0.278 C 
ENDBRANCH  14  19
ENDBRANCH   8  13
ENDBRANCH   6   7
ENDBRANCH   3   6
ENDBRANCH   1   2
BRANCH   1  21
ATOM     21  C   UNL     1       6.554   1.661   1.511  1.00  0.00     0.042 C 
BRANCH  21  22
ATOM     22  C   UNL     1       6.534   3.062   2.106  1.00  0.00     0.118 C 
BRANCH  22  23
ATOM     23  N   UNL     1       7.875   3.564   2.349  1.00  0.00    -0.352 N 
ATOM     24  C   UNL     1       8.598   4.530   1.695  1.00  0.00     0.251 C 
ATOM     25  H   UNL     1       8.341   3.143   3.107  1.00  0.00     0.163 HD
ATOM     26  O   UNL     1       9.809   4.598   1.895  1.00  0.00    -0.269 OA
BRANCH  24  27
ATOM     27  C   UNL     1       7.958   5.485   0.758  1.00  0.00     0.039 A 
ATOM     28  C   UNL     1       8.688   5.917  -0.354  1.00  0.00     0.014 A 
ATOM     29  C   UNL     1       6.694   6.029   1.002  1.00  0.00     0.014 A 
ATOM     30  C   UNL     1       8.144   6.861  -1.230  1.00  0.00     0.010 A 
ATOM     31  C   UNL     1       6.118   6.909   0.085  1.00  0.00     0.010 A 
ATOM     32  C   UNL     1       6.843   7.351  -1.031  1.00  0.00    -0.014 A 
BRANCH  32  33
ATOM     33  C   UNL     1       6.246   8.343  -1.964  1.00  0.00     0.031 A 
ATOM     34  C   UNL     1       5.890   9.725  -1.482  1.00  0.00     0.074 A 
ATOM     35  C   UNL     1       5.986   7.991  -3.238  1.00  0.00     0.049 A 
ATOM     36  N   UNL     1       5.326  10.711  -2.134  1.00  0.00    -0.248 NA
ATOM     37  C   UNL     1       6.188  10.034  -0.074  1.00  0.00     0.031 C 
ATOM     38  C   UNL     1       6.245   6.673  -3.820  1.00  0.00     0.029 A 
ATOM     39  N   UNL     1       5.439   8.709  -4.272  1.00  0.00    -0.354 N 
ATOM     40  C   UNL     1       5.188  11.745  -1.216  1.00  0.00     0.074 A 
ATOM     41  C   UNL     1       5.681  11.251   0.051  1.00  0.00     0.031 C 
ATOM     42  C   UNL     1       5.877   6.682  -5.111  1.00  0.00     0.029 A 
ATOM     43  C   UNL     1       5.320   7.991  -5.438  1.00  0.00     0.049 A 
ATOM     44  H   UNL     1       5.158   9.648  -4.187  1.00  0.00     0.167 HD
ATOM     45  C   UNL     1       4.714  12.999  -1.414  1.00  0.00     0.037 A 
ATOM     46  C   UNL     1       4.809   8.343  -6.633  1.00  0.00     0.037 A 
ATOM     47  C   UNL     1       4.241  13.495  -2.681  1.00  0.00     0.049 A 
ATOM     48  C   UNL     1       4.277   9.737  -6.824  1.00  0.00     0.074 A 
ATOM     49  C   UNL     1       3.794  14.766  -2.996  1.00  0.00     0.029 A 
ATOM     50  N   UNL     1       4.146  12.739  -3.840  1.00  0.00    -0.354 N 
ATOM     51  N   UNL     1       4.218  10.726  -5.966  1.00  0.00    -0.248 NA
ATOM     52  C   UNL     1       3.745  10.066  -8.155  1.00  0.00     0.031 C 
ATOM     53  C   UNL     1       3.381  14.766  -4.332  1.00  0.00     0.029 A 
ATOM     54  C   UNL     1       3.625  13.511  -4.866  1.00  0.00     0.049 A 
ATOM     55  H   UNL     1       4.409  11.794  -3.921  1.00  0.00     0.167 HD
ATOM     56  C   UNL     1       3.674  11.800  -6.658  1.00  0.00     0.074 A 
ATOM     57  C   UNL     1       3.434  11.346  -8.012  1.00  0.00     0.031 C 
ATOM     58  C   UNL     1       3.399  13.050  -6.212  1.00  0.00     0.037 A 
BRANCH  45  59
ATOM     59  C   UNL     1       4.681  13.925  -0.231  1.00  0.00     0.057 A 
ATOM     60  C   UNL     1       5.854  14.433   0.345  1.00  0.00     0.134 A 
ATOM     61  C   UNL     1       3.462  14.347   0.314  1.00  0.00     0.134 A 
ATOM     62  F   UNL     1       7.056  14.064  -0.122  1.00  0.00    -0.206 F 
ATOM     63  C   UNL     1       5.815  15.303   1.437  1.00  0.00     0.040 A 
ATOM     64  C   UNL     1       3.409  15.239   1.386  1.00  0.00     0.040 A 
ATOM     65  F   UNL     1       2.300  13.909  -0.194  1.00  0.00    -0.206 F 
ATOM     66  C   UNL     1       4.589  15.714   1.956  1.00  0.00     0.006 A 
ENDBRANCH  45  59
BRANCH  46  67
ATOM     67  C   UNL     1       4.792   7.365  -7.752  1.00  0.00     0.057 A 
ATOM     68  C   UNL     1       5.608   7.537  -8.876  1.00  0.00     0.134 A 
ATOM     69  C   UNL     1       3.955   6.243  -7.729  1.00  0.00     0.134 A 
ATOM     70  F   UNL     1       6.418   8.602  -8.966  1.00  0.00    -0.206 F 
ATOM     71  C   UNL     1       5.577   6.642  -9.947  1.00  0.00     0.040 A 
ATOM     72  C   UNL     1       3.934   5.325  -8.779  1.00  0.00     0.040 A 
ATOM     73  F   UNL     1       3.154   6.017  -6.677  1.00  0.00    -0.206 F 
ATOM     74  C   UNL     1       4.741   5.528  -9.897  1.00  0.00     0.006 A 
ENDBRANCH  46  67
BRANCH  58  75
ATOM     75  C   UNL     1       2.849  14.031  -7.207  1.00  0.00     0.057 A 
ATOM     76  C   UNL     1       1.546  13.929  -7.710  1.00  0.00     0.134 A 
ATOM     77  C   UNL     1       3.626  15.114  -7.641  1.00  0.00     0.134 A 
ATOM     78  F   UNL     1       0.754  12.909  -7.346  1.00  0.00    -0.206 F 
ATOM     79  C   UNL     1       1.043  14.855  -8.627  1.00  0.00     0.040 A 
ATOM     80  C   UNL     1       3.124  16.062  -8.533  1.00  0.00     0.040 A 
ATOM     81  F   UNL     1       4.879  15.278  -7.192  1.00  0.00    -0.206 F 
ATOM     82  C   UNL     1       1.831  15.929  -9.035  1.00  0.00     0.006 A 
ENDBRANCH  58  75
ENDBRANCH  32  33
ENDBRANCH  24  27
ENDBRANCH  22  23
ENDBRANCH  21  22
ENDBRANCH   1  21
TORSDOF 13
