REMARK SMILES COc1ccc([C@@H](CC(=O)NCCCNC(=O)c2ccc(-c3c4nc(c(-c5c(F)cccc5F)c5ccc([nH]5)c(-c5c(F)cccc5F)c5nc(c(-c6c(F)cccc6F)c6ccc3[nH]6)C=C5)C=C4)cc2)NC(=O)c2ccc(Cl)c([N+](=O)[O-])c2)cc1
REMARK SMILES IDX 12 1 11 2 9 3 10 4 8 6 7 7 6 8 3 9 4 10 86 11 5 12 85 13
REMARK SMILES IDX 2 14 1 15 72 16 73 17 74 19 75 20 76 21 84 22 77 23 80 24
REMARK SMILES IDX 78 25 79 26 81 27 82 28 83 29 13 30 14 31 15 32 16 33 17 35
REMARK SMILES IDX 18 36 19 37 71 38 20 39 70 40 21 41 22 42 23 43 64 44 24 45
REMARK SMILES IDX 69 46 63 47 65 48 25 49 68 50 62 51 61 52 26 54 52 55 35 56
REMARK SMILES IDX 51 57 36 58 39 59 50 60 66 61 37 62 38 63 49 65 67 66 40 67
REMARK SMILES IDX 27 68 28 69 33 70 29 71 30 72 32 73 34 74 31 75 53 76 54 77
REMARK SMILES IDX 59 78 55 79 56 80 58 81 60 82 57 83 41 84 42 85 47 86 43 87
REMARK SMILES IDX 44 88 46 89 48 90 45 91
REMARK H PARENT 11 5 72 18 15 34 65 53 39 64
REMARK Flexibility Score: inf
ROOT
ATOM      1  C   UNL     1      -0.057  -4.922   3.201  1.00  0.00     0.117 C 
ENDROOT
BRANCH   1   2
ATOM      2  N   UNL     1      -0.428  -6.247   2.725  1.00  0.00    -0.356 N 
ATOM      3  C   UNL     1       0.200  -7.058   1.828  1.00  0.00     0.222 C 
ATOM      4  O   UNL     1      -0.455  -7.972   1.322  1.00  0.00    -0.275 OA
ATOM      5  H   UNL     1      -1.257  -6.612   3.109  1.00  0.00     0.163 HD
BRANCH   3   6
ATOM      6  C   UNL     1       1.669  -6.889   1.501  1.00  0.00     0.129 C 
BRANCH   6   7
ATOM      7  C   UNL     1       1.965  -6.440   0.058  1.00  0.00     0.122 C 
BRANCH   7   8
ATOM      8  C   UNL     1       1.721  -4.953  -0.162  1.00  0.00    -0.025 A 
ATOM      9  C   UNL     1       1.172  -2.192  -0.222  1.00  0.00     0.118 A 
ATOM     10  C   UNL     1       0.364  -3.083  -0.925  1.00  0.00     0.047 A 
ATOM     11  C   UNL     1       2.293  -2.659   0.458  1.00  0.00     0.047 A 
ATOM     12  C   UNL     1       0.643  -4.456  -0.909  1.00  0.00     0.010 A 
ATOM     13  C   UNL     1       2.572  -4.028   0.475  1.00  0.00     0.010 A 
BRANCH   9  14
ATOM     14  O   UNL     1       0.706  -0.914  -0.084  1.00  0.00    -0.497 OA
ATOM     15  C   UNL     1       1.641   0.086  -0.470  1.00  0.00     0.278 C 
ENDBRANCH   9  14
ENDBRANCH   7   8
BRANCH   7  16
ATOM     16  N   UNL     1       1.311  -7.291  -0.937  1.00  0.00    -0.345 N 
ATOM     17  C   UNL     1       1.807  -7.822  -2.099  1.00  0.00     0.252 C 
ATOM     18  H   UNL     1       0.372  -7.516  -0.742  1.00  0.00     0.164 HD
ATOM     19  O   UNL     1       1.067  -8.278  -2.962  1.00  0.00    -0.269 OA
BRANCH  17  20
ATOM     20  C   UNL     1       3.266  -7.859  -2.311  1.00  0.00     0.046 A 
ATOM     21  C   UNL     1       3.806  -7.328  -3.484  1.00  0.00     0.016 A 
ATOM     22  C   UNL     1       4.097  -8.438  -1.350  1.00  0.00     0.101 A 
ATOM     23  C   UNL     1       5.194  -7.302  -3.661  1.00  0.00     0.028 A 
ATOM     24  C   UNL     1       5.485  -8.382  -1.529  1.00  0.00     0.288 A 
ATOM     25  C   UNL     1       6.047  -7.806  -2.671  1.00  0.00     0.118 A 
ATOM     26  Cl  UNL     1       7.744  -7.613  -2.916  1.00  0.00    -0.077 Cl
BRANCH  24  27
ATOM     27  N   UNL     1       6.309  -8.876  -0.443  1.00  0.00     0.064 N 
ATOM     28  O   UNL     1       7.191  -9.699  -0.711  1.00  0.00    -0.258 OA
ATOM     29  O   UNL     1       6.024  -8.470   0.693  1.00  0.00    -0.258 OA
ENDBRANCH  24  27
ENDBRANCH  17  20
ENDBRANCH   7  16
ENDBRANCH   6   7
ENDBRANCH   3   6
ENDBRANCH   1   2
BRANCH   1  30
ATOM     30  C   UNL     1      -0.700  -3.847   2.328  1.00  0.00     0.042 C 
BRANCH  30  31
ATOM     31  C   UNL     1      -2.167  -3.568   2.630  1.00  0.00     0.118 C 
BRANCH  31  32
ATOM     32  N   UNL     1      -2.330  -2.469   3.564  1.00  0.00    -0.352 N 
ATOM     33  C   UNL     1      -2.500  -1.119   3.370  1.00  0.00     0.251 C 
ATOM     34  H   UNL     1      -2.317  -2.741   4.511  1.00  0.00     0.163 HD
ATOM     35  O   UNL     1      -2.360  -0.380   4.345  1.00  0.00    -0.269 OA
BRANCH  33  36
ATOM     36  C   UNL     1      -2.833  -0.509   2.053  1.00  0.00     0.039 A 
ATOM     37  C   UNL     1      -2.365   0.789   1.798  1.00  0.00     0.014 A 
ATOM     38  C   UNL     1      -3.685  -1.104   1.119  1.00  0.00     0.014 A 
ATOM     39  C   UNL     1      -2.711   1.460   0.618  1.00  0.00     0.010 A 
ATOM     40  C   UNL     1      -3.973  -0.463  -0.094  1.00  0.00     0.010 A 
ATOM     41  C   UNL     1      -3.498   0.830  -0.357  1.00  0.00    -0.014 A 
BRANCH  41  42
ATOM     42  C   UNL     1      -3.826   1.506  -1.645  1.00  0.00     0.031 A 
ATOM     43  C   UNL     1      -5.250   1.847  -2.000  1.00  0.00     0.074 A 
ATOM     44  C   UNL     1      -2.847   1.774  -2.532  1.00  0.00     0.049 A 
ATOM     45  N   UNL     1      -5.729   2.339  -3.116  1.00  0.00    -0.248 NA
ATOM     46  C   UNL     1      -6.269   1.591  -0.972  1.00  0.00     0.031 C 
ATOM     47  C   UNL     1      -1.428   1.486  -2.331  1.00  0.00     0.029 A 
ATOM     48  N   UNL     1      -2.897   2.333  -3.787  1.00  0.00    -0.354 N 
ATOM     49  C   UNL     1      -7.104   2.432  -2.933  1.00  0.00     0.074 A 
ATOM     50  C   UNL     1      -7.385   1.917  -1.610  1.00  0.00     0.031 C 
ATOM     51  C   UNL     1      -0.740   1.879  -3.414  1.00  0.00     0.029 A 
ATOM     52  C   UNL     1      -1.673   2.399  -4.409  1.00  0.00     0.049 A 
ATOM     53  H   UNL     1      -3.730   2.655  -4.201  1.00  0.00     0.167 HD
ATOM     54  C   UNL     1      -8.044   2.914  -3.783  1.00  0.00     0.037 A 
ATOM     55  C   UNL     1      -1.338   2.805  -5.649  1.00  0.00     0.037 A 
ATOM     56  C   UNL     1      -7.769   3.454  -5.090  1.00  0.00     0.049 A 
ATOM     57  C   UNL     1      -2.405   3.290  -6.590  1.00  0.00     0.074 A 
ATOM     58  C   UNL     1      -8.654   4.026  -5.989  1.00  0.00     0.029 A 
ATOM     59  N   UNL     1      -6.519   3.484  -5.688  1.00  0.00    -0.354 N 
ATOM     60  N   UNL     1      -3.692   3.413  -6.383  1.00  0.00    -0.248 NA
ATOM     61  C   UNL     1      -1.972   3.683  -7.939  1.00  0.00     0.031 C 
ATOM     62  C   UNL     1      -7.948   4.362  -7.148  1.00  0.00     0.029 A 
ATOM     63  C   UNL     1      -6.616   4.036  -6.956  1.00  0.00     0.049 A 
ATOM     64  H   UNL     1      -5.687   3.162  -5.273  1.00  0.00     0.167 HD
ATOM     65  C   UNL     1      -4.221   3.912  -7.567  1.00  0.00     0.074 A 
ATOM     66  C   UNL     1      -3.114   4.083  -8.483  1.00  0.00     0.031 C 
ATOM     67  C   UNL     1      -5.511   4.201  -7.864  1.00  0.00     0.037 A 
BRANCH  54  68
ATOM     68  C   UNL     1      -9.474   2.878  -3.329  1.00  0.00     0.057 A 
ATOM     69  C   UNL     1      -9.961   3.757  -2.354  1.00  0.00     0.134 A 
ATOM     70  C   UNL     1     -10.386   1.991  -3.914  1.00  0.00     0.134 A 
ATOM     71  F   UNL     1      -9.137   4.627  -1.750  1.00  0.00    -0.206 F 
ATOM     72  C   UNL     1     -11.301   3.741  -1.962  1.00  0.00     0.040 A 
ATOM     73  C   UNL     1     -11.733   1.981  -3.547  1.00  0.00     0.040 A 
ATOM     74  F   UNL     1      -9.987   1.130  -4.863  1.00  0.00    -0.206 F 
ATOM     75  C   UNL     1     -12.192   2.855  -2.564  1.00  0.00     0.006 A 
ENDBRANCH  54  68
BRANCH  55  76
ATOM     76  C   UNL     1       0.080   2.754  -6.084  1.00  0.00     0.057 A 
ATOM     77  C   UNL     1       0.820   3.927  -6.270  1.00  0.00     0.134 A 
ATOM     78  C   UNL     1       0.726   1.536  -6.329  1.00  0.00     0.134 A 
ATOM     79  F   UNL     1       0.249   5.124  -6.073  1.00  0.00    -0.206 F 
ATOM     80  C   UNL     1       2.149   3.892  -6.696  1.00  0.00     0.040 A 
ATOM     81  C   UNL     1       2.061   1.485  -6.732  1.00  0.00     0.040 A 
ATOM     82  F   UNL     1       0.070   0.378  -6.166  1.00  0.00    -0.206 F 
ATOM     83  C   UNL     1       2.775   2.667  -6.922  1.00  0.00     0.006 A 
ENDBRANCH  55  76
BRANCH  67  84
ATOM     84  C   UNL     1      -5.797   4.750  -9.230  1.00  0.00     0.057 A 
ATOM     85  C   UNL     1      -5.786   3.932 -10.367  1.00  0.00     0.134 A 
ATOM     86  C   UNL     1      -6.133   6.098  -9.405  1.00  0.00     0.134 A 
ATOM     87  F   UNL     1      -5.457   2.635 -10.268  1.00  0.00    -0.206 F 
ATOM     88  C   UNL     1      -6.087   4.440 -11.632  1.00  0.00     0.040 A 
ATOM     89  C   UNL     1      -6.457   6.612 -10.662  1.00  0.00     0.040 A 
ATOM     90  F   UNL     1      -6.167   6.933  -8.356  1.00  0.00    -0.206 F 
ATOM     91  C   UNL     1      -6.431   5.782 -11.780  1.00  0.00     0.006 A 
ENDBRANCH  67  84
ENDBRANCH  41  42
ENDBRANCH  33  36
ENDBRANCH  31  32
ENDBRANCH  30  31
ENDBRANCH   1  30
TORSDOF 16
