REMARK SMILES Cc1c(CCC(=O)N[C@@H](C)C(=O)NCCCNC(=O)c2ccc(-c3c4nc(c(-c5c(F)cccc5F)c5ccc([nH]5)c(-c5c(F)cccc5F)c5nc(c(-c6c(F)cccc6F)c6ccc3[nH]6)C=C5)C=C4)cc2)c(=O)oc2cc3oc4c(c3cc12)CCCC4
REMARK SMILES IDX 14 1 13 2 11 3 12 4 9 6 10 7 8 8 6 9 7 10 5 12 4 13 3 14
REMARK SMILES IDX 1 15 2 16 85 17 74 18 77 19 84 20 75 21 76 22 78 23 83 24
REMARK SMILES IDX 79 25 82 26 80 27 81 28 86 29 89 30 87 31 88 32 15 33 16 34
REMARK SMILES IDX 17 35 18 36 19 38 20 39 21 40 73 41 22 42 72 43 23 44 24 45
REMARK SMILES IDX 25 46 66 47 26 48 71 49 65 50 67 51 27 52 70 53 64 54 63 55
REMARK SMILES IDX 28 57 54 58 37 59 53 60 38 61 41 62 52 63 68 64 39 65 40 66
REMARK SMILES IDX 51 68 69 69 42 70 29 71 30 72 35 73 31 74 32 75 34 76 36 77
REMARK SMILES IDX 33 78 55 79 56 80 61 81 57 82 58 83 60 84 62 85 59 86 43 87
REMARK SMILES IDX 44 88 49 89 45 90 46 91 48 92 50 93 47 94
REMARK H PARENT 13 5 8 11 17 37 67 56 41 67
REMARK Flexibility Score: inf
ROOT
ATOM      1  C   UNL     1       1.327  -0.453   4.395  1.00  0.00     0.117 C 
ENDROOT
BRANCH   1   2
ATOM      2  N   UNL     1       2.380   0.533   4.194  1.00  0.00    -0.354 N 
ATOM      3  C   UNL     1       3.125   0.888   3.107  1.00  0.00     0.242 C 
ATOM      4  O   UNL     1       4.173   1.495   3.361  1.00  0.00    -0.273 OA
ATOM      5  H   UNL     1       2.598   1.046   5.005  1.00  0.00     0.163 HD
BRANCH   3   6
ATOM      6  C   UNL     1       2.647   0.726   1.637  1.00  0.00     0.168 C 
ATOM      7  C   UNL     1       1.810  -0.499   1.319  1.00  0.00     0.041 C 
BRANCH   6   8
ATOM      8  N   UNL     1       3.769   0.671   0.690  1.00  0.00    -0.345 N 
ATOM      9  C   UNL     1       3.683   1.073  -0.618  1.00  0.00     0.220 C 
ATOM     10  O   UNL     1       4.049   0.308  -1.509  1.00  0.00    -0.275 OA
ATOM     11  H   UNL     1       4.632   0.326   1.013  1.00  0.00     0.164 HD
BRANCH   9  12
ATOM     12  C   UNL     1       3.229   2.492  -0.912  1.00  0.00     0.105 C 
BRANCH  12  13
ATOM     13  C   UNL     1       1.870   2.640  -1.611  1.00  0.00     0.053 C 
BRANCH  13  14
ATOM     14  C   UNL     1       0.706   2.661  -0.644  1.00  0.00     0.042 A 
ATOM     15  C   UNL     1      -0.354   0.560  -1.550  1.00  0.00     0.046 C 
ATOM     16  C   UNL     1      -0.202   1.673  -0.545  1.00  0.00    -0.030 A 
ATOM     17  C   UNL     1      -0.996   1.652   0.684  1.00  0.00     0.022 A 
ATOM     18  C   UNL     1       0.578   3.891   0.203  1.00  0.00     0.339 A 
ATOM     19  C   UNL     1      -1.228   2.829   1.394  1.00  0.00     0.142 A 
ATOM     20  C   UNL     1      -1.396   0.447   1.252  1.00  0.00     0.024 A 
ATOM     21  O   UNL     1       1.394   4.803   0.131  1.00  0.00    -0.246 OA
ATOM     22  O   UNL     1      -0.554   4.000   1.008  1.00  0.00    -0.422 OA
ATOM     23  C   UNL     1      -2.063   2.899   2.524  1.00  0.00     0.095 A 
ATOM     24  C   UNL     1      -2.053   0.459   2.480  1.00  0.00     0.025 A 
ATOM     25  C   UNL     1      -2.513   1.667   2.988  1.00  0.00     0.138 A 
ATOM     26  C   UNL     1      -2.499  -0.543   3.353  1.00  0.00     0.001 A 
ATOM     27  O   UNL     1      -3.515   1.406   3.894  1.00  0.00    -0.461 OA
ATOM     28  C   UNL     1      -3.589   0.045   3.947  1.00  0.00     0.108 A 
ATOM     29  C   UNL     1      -2.388  -2.015   3.271  1.00  0.00     0.040 C 
ATOM     30  C   UNL     1      -4.884  -0.685   4.044  1.00  0.00     0.076 C 
ATOM     31  C   UNL     1      -3.670  -2.562   2.631  1.00  0.00     0.005 C 
ATOM     32  C   UNL     1      -4.920  -1.642   2.804  1.00  0.00     0.008 C 
ENDBRANCH  13  14
ENDBRANCH  12  13
ENDBRANCH   9  12
ENDBRANCH   6   8
ENDBRANCH   3   6
ENDBRANCH   1   2
BRANCH   1  33
ATOM     33  C   UNL     1       1.929  -1.848   4.539  1.00  0.00     0.042 C 
BRANCH  33  34
ATOM     34  C   UNL     1       2.440  -2.066   5.963  1.00  0.00     0.118 C 
BRANCH  34  35
ATOM     35  N   UNL     1       1.450  -2.704   6.819  1.00  0.00    -0.352 N 
ATOM     36  C   UNL     1       0.988  -4.008   6.815  1.00  0.00     0.251 C 
ATOM     37  H   UNL     1       1.048  -2.120   7.502  1.00  0.00     0.163 HD
ATOM     38  O   UNL     1       0.042  -4.332   7.497  1.00  0.00    -0.269 OA
BRANCH  36  39
ATOM     39  C   UNL     1       1.630  -4.988   5.909  1.00  0.00     0.039 A 
ATOM     40  C   UNL     1       3.019  -5.106   5.869  1.00  0.00     0.014 A 
ATOM     41  C   UNL     1       0.823  -5.773   5.078  1.00  0.00     0.014 A 
ATOM     42  C   UNL     1       3.611  -5.880   4.886  1.00  0.00     0.010 A 
ATOM     43  C   UNL     1       1.419  -6.606   4.132  1.00  0.00     0.010 A 
ATOM     44  C   UNL     1       2.812  -6.621   4.011  1.00  0.00    -0.014 A 
BRANCH  44  45
ATOM     45  C   UNL     1       3.535  -7.490   3.082  1.00  0.00     0.031 A 
ATOM     46  C   UNL     1       3.487  -8.930   3.457  1.00  0.00     0.074 A 
ATOM     47  C   UNL     1       3.740  -7.162   1.793  1.00  0.00     0.049 A 
ATOM     48  N   UNL     1       2.483  -9.698   3.152  1.00  0.00    -0.248 NA
ATOM     49  C   UNL     1       4.414  -9.510   4.427  1.00  0.00     0.031 C 
ATOM     50  C   UNL     1       2.790  -6.415   0.964  1.00  0.00     0.029 A 
ATOM     51  N   UNL     1       4.684  -7.624   0.910  1.00  0.00    -0.354 N 
ATOM     52  C   UNL     1       2.600 -10.835   3.925  1.00  0.00     0.074 A 
ATOM     53  C   UNL     1       3.817 -10.681   4.693  1.00  0.00     0.031 C 
ATOM     54  C   UNL     1       3.091  -6.638  -0.333  1.00  0.00     0.029 A 
ATOM     55  C   UNL     1       4.337  -7.393  -0.416  1.00  0.00     0.049 A 
ATOM     56  H   UNL     1       5.516  -8.070   1.186  1.00  0.00     0.167 HD
ATOM     57  C   UNL     1       1.688 -11.840   3.906  1.00  0.00     0.037 A 
ATOM     58  C   UNL     1       4.706  -8.197  -1.449  1.00  0.00     0.037 A 
ATOM     59  C   UNL     1       0.606 -11.688   2.983  1.00  0.00     0.049 A 
ATOM     60  C   UNL     1       3.827  -9.398  -1.195  1.00  0.00     0.074 A 
ATOM     61  C   UNL     1      -0.696 -11.238   3.010  1.00  0.00     0.029 A 
ATOM     62  N   UNL     1       0.847 -11.989   1.663  1.00  0.00    -0.354 N 
ATOM     63  N   UNL     1       2.559  -9.501  -1.501  1.00  0.00    -0.248 NA
ATOM     64  C   UNL     1       4.298 -10.396  -0.231  1.00  0.00     0.031 C 
ATOM     65  C   UNL     1      -1.001 -10.872   1.661  1.00  0.00     0.029 A 
ATOM     66  C   UNL     1       0.157 -11.073   0.911  1.00  0.00     0.049 A 
ATOM     67  H   UNL     1       1.409 -12.722   1.323  1.00  0.00     0.167 HD
ATOM     68  C   UNL     1       2.022 -10.392  -0.567  1.00  0.00     0.074 A 
ATOM     69  C   UNL     1       3.151 -10.933   0.159  1.00  0.00     0.031 C 
ATOM     70  C   UNL     1       0.687 -10.498  -0.305  1.00  0.00     0.037 A 
BRANCH  57  71
ATOM     71  C   UNL     1       1.857 -13.106   4.636  1.00  0.00     0.057 A 
ATOM     72  C   UNL     1       2.332 -14.220   3.936  1.00  0.00     0.134 A 
ATOM     73  C   UNL     1       1.411 -13.290   5.944  1.00  0.00     0.134 A 
ATOM     74  F   UNL     1       2.766 -14.086   2.671  1.00  0.00    -0.206 F 
ATOM     75  C   UNL     1       2.330 -15.491   4.503  1.00  0.00     0.040 A 
ATOM     76  C   UNL     1       1.408 -14.559   6.528  1.00  0.00     0.040 A 
ATOM     77  F   UNL     1       0.940 -12.257   6.658  1.00  0.00    -0.206 F 
ATOM     78  C   UNL     1       1.855 -15.664   5.801  1.00  0.00     0.006 A 
ENDBRANCH  57  71
BRANCH  58  79
ATOM     79  C   UNL     1       6.188  -8.265  -1.667  1.00  0.00     0.057 A 
ATOM     80  C   UNL     1       6.906  -7.053  -1.764  1.00  0.00     0.134 A 
ATOM     81  C   UNL     1       6.956  -9.429  -1.776  1.00  0.00     0.134 A 
ATOM     82  F   UNL     1       6.255  -5.878  -1.788  1.00  0.00    -0.206 F 
ATOM     83  C   UNL     1       8.301  -7.004  -1.825  1.00  0.00     0.040 A 
ATOM     84  C   UNL     1       8.357  -9.396  -1.815  1.00  0.00     0.040 A 
ATOM     85  F   UNL     1       6.385 -10.638  -1.836  1.00  0.00    -0.206 F 
ATOM     86  C   UNL     1       9.034  -8.182  -1.818  1.00  0.00     0.006 A 
ENDBRANCH  58  79
BRANCH  70  87
ATOM     87  C   UNL     1      -0.215  -9.752  -1.224  1.00  0.00     0.057 A 
ATOM     88  C   UNL     1      -0.416 -10.202  -2.533  1.00  0.00     0.134 A 
ATOM     89  C   UNL     1      -0.926  -8.617  -0.812  1.00  0.00     0.134 A 
ATOM     90  F   UNL     1       0.227 -11.290  -2.986  1.00  0.00    -0.206 F 
ATOM     91  C   UNL     1      -1.309  -9.561  -3.393  1.00  0.00     0.040 A 
ATOM     92  C   UNL     1      -1.841  -7.984  -1.654  1.00  0.00     0.040 A 
ATOM     93  F   UNL     1      -0.768  -8.113   0.423  1.00  0.00    -0.206 F 
ATOM     94  C   UNL     1      -2.035  -8.457  -2.950  1.00  0.00     0.006 A 
ENDBRANCH  70  87
ENDBRANCH  44  45
ENDBRANCH  36  39
ENDBRANCH  34  35
ENDBRANCH  33  34
ENDBRANCH   1  33
TORSDOF 14
