REMARK SMILES O=C(NCCCNC(=O)c1ccc(CN2CC(=O)N3CCCC[C@@H]3C2=O)o1)c1ccc(-c2c3nc(c(-c4c(F)cccc4F)c4ccc([nH]4)c(-c4c(F)cccc4F)c4nc(c(-c5c(F)cccc5F)c5ccc2[nH]5)C=C4)C=C3)cc1
REMARK SMILES IDX 5 1 4 2 3 3 1 4 2 5 28 7 29 8 81 9 30 10 80 11 31 12 32 13
REMARK SMILES IDX 33 14 74 15 34 16 79 17 73 18 75 19 35 20 78 21 72 22 71 23
REMARK SMILES IDX 36 25 62 26 45 27 61 28 46 29 49 30 60 31 76 32 47 33 48 34
REMARK SMILES IDX 59 36 77 37 50 38 37 39 38 40 43 41 39 42 40 43 42 44 44 45
REMARK SMILES IDX 41 46 63 47 64 48 69 49 65 50 66 51 68 52 70 53 67 54 51 55
REMARK SMILES IDX 52 56 57 57 53 58 54 59 56 60 58 61 55 62 6 63 7 64 8 65
REMARK SMILES IDX 9 67 10 68 11 69 27 70 12 71 13 72 14 73 15 74 16 75 25 76
REMARK SMILES IDX 17 77 24 78 26 79 18 80 19 81 23 82 20 83 22 84 21 85
REMARK H PARENT 3 6 75 24 49 35 7 66
REMARK Flexibility Score: inf
ROOT
ATOM      1  C   UNL     1       4.650   0.561   2.759  1.00  0.00     0.042 C 
ENDROOT
BRANCH   1   2
ATOM      2  C   UNL     1       4.563  -0.422   1.590  1.00  0.00     0.118 C 
BRANCH   2   3
ATOM      3  N   UNL     1       3.190  -0.679   1.182  1.00  0.00    -0.352 N 
ATOM      4  O   UNL     1       1.279  -0.459   0.037  1.00  0.00    -0.269 OA
ATOM      5  C   UNL     1       2.501  -0.324   0.052  1.00  0.00     0.251 C 
ATOM      6  H   UNL     1       2.664  -1.199   1.831  1.00  0.00     0.163 HD
BRANCH   5   7
ATOM      7  C   UNL     1       3.182   0.214  -1.148  1.00  0.00     0.039 A 
ATOM      8  C   UNL     1       4.367  -0.343  -1.637  1.00  0.00     0.014 A 
ATOM      9  C   UNL     1       2.543   1.228  -1.875  1.00  0.00     0.014 A 
ATOM     10  C   UNL     1       4.948   0.161  -2.804  1.00  0.00     0.010 A 
ATOM     11  C   UNL     1       3.104   1.706  -3.063  1.00  0.00     0.010 A 
ATOM     12  C   UNL     1       4.319   1.185  -3.529  1.00  0.00    -0.014 A 
BRANCH  12  13
ATOM     13  C   UNL     1       4.912   1.666  -4.801  1.00  0.00     0.031 A 
ATOM     14  C   UNL     1       5.572   3.011  -4.883  1.00  0.00     0.074 A 
ATOM     15  C   UNL     1       4.850   0.885  -5.895  1.00  0.00     0.049 A 
ATOM     16  N   UNL     1       6.169   3.574  -5.904  1.00  0.00    -0.248 NA
ATOM     17  C   UNL     1       5.554   3.836  -3.666  1.00  0.00     0.031 C 
ATOM     18  C   UNL     1       4.202  -0.425  -5.963  1.00  0.00     0.029 A 
ATOM     19  N   UNL     1       5.348   1.079  -7.158  1.00  0.00    -0.354 N 
ATOM     20  C   UNL     1       6.579   4.824  -5.462  1.00  0.00     0.074 A 
ATOM     21  C   UNL     1       6.157   4.942  -4.081  1.00  0.00     0.031 C 
ATOM     22  C   UNL     1       4.366  -0.930  -7.196  1.00  0.00     0.029 A 
ATOM     23  C   UNL     1       5.117   0.025  -8.006  1.00  0.00     0.049 A 
ATOM     24  H   UNL     1       5.826   1.896  -7.431  1.00  0.00     0.167 HD
ATOM     25  C   UNL     1       7.250   5.783  -6.140  1.00  0.00     0.037 A 
ATOM     26  C   UNL     1       5.474  -0.156  -9.290  1.00  0.00     0.037 A 
ATOM     27  C   UNL     1       7.707   5.665  -7.499  1.00  0.00     0.049 A 
ATOM     28  C   UNL     1       6.251   0.905 -10.008  1.00  0.00     0.074 A 
ATOM     29  C   UNL     1       8.463   6.561  -8.237  1.00  0.00     0.029 A 
ATOM     30  N   UNL     1       7.450   4.583  -8.324  1.00  0.00    -0.354 N 
ATOM     31  N   UNL     1       6.674   2.060  -9.559  1.00  0.00    -0.248 NA
ATOM     32  C   UNL     1       6.593   0.639 -11.413  1.00  0.00     0.031 C 
ATOM     33  C   UNL     1       8.650   6.024  -9.518  1.00  0.00     0.029 A 
ATOM     34  C   UNL     1       8.018   4.793  -9.569  1.00  0.00     0.049 A 
ATOM     35  H   UNL     1       6.939   3.783  -8.063  1.00  0.00     0.167 HD
ATOM     36  C   UNL     1       7.329   2.662 -10.624  1.00  0.00     0.074 A 
ATOM     37  C   UNL     1       7.259   1.740 -11.739  1.00  0.00     0.031 C 
ATOM     38  C   UNL     1       7.929   3.874 -10.671  1.00  0.00     0.037 A 
BRANCH  25  39
ATOM     39  C   UNL     1       7.534   7.058  -5.413  1.00  0.00     0.057 A 
ATOM     40  C   UNL     1       8.638   7.182  -4.562  1.00  0.00     0.134 A 
ATOM     41  C   UNL     1       6.715   8.179  -5.590  1.00  0.00     0.134 A 
ATOM     42  F   UNL     1       9.449   6.136  -4.345  1.00  0.00    -0.206 F 
ATOM     43  C   UNL     1       8.915   8.380  -3.903  1.00  0.00     0.040 A 
ATOM     44  C   UNL     1       6.986   9.385  -4.943  1.00  0.00     0.040 A 
ATOM     45  F   UNL     1       5.641   8.117  -6.392  1.00  0.00    -0.206 F 
ATOM     46  C   UNL     1       8.089   9.487  -4.096  1.00  0.00     0.006 A 
ENDBRANCH  25  39
BRANCH  26  47
ATOM     47  C   UNL     1       5.108  -1.415  -9.974  1.00  0.00     0.057 A 
ATOM     48  C   UNL     1       6.029  -2.462 -10.089  1.00  0.00     0.134 A 
ATOM     49  C   UNL     1       3.829  -1.606 -10.505  1.00  0.00     0.134 A 
ATOM     50  F   UNL     1       7.273  -2.322  -9.608  1.00  0.00    -0.206 F 
ATOM     51  C   UNL     1       5.687  -3.663 -10.710  1.00  0.00     0.040 A 
ATOM     52  C   UNL     1       3.472  -2.804 -11.122  1.00  0.00     0.040 A 
ATOM     53  F   UNL     1       2.911  -0.632 -10.423  1.00  0.00    -0.206 F 
ATOM     54  C   UNL     1       4.403  -3.837 -11.225  1.00  0.00     0.006 A 
ENDBRANCH  26  47
BRANCH  38  55
ATOM     55  C   UNL     1       8.540   4.275 -11.975  1.00  0.00     0.057 A 
ATOM     56  C   UNL     1       7.766   4.857 -12.985  1.00  0.00     0.134 A 
ATOM     57  C   UNL     1       9.907   4.102 -12.215  1.00  0.00     0.134 A 
ATOM     58  F   UNL     1       6.447   5.036 -12.814  1.00  0.00    -0.206 F 
ATOM     59  C   UNL     1       8.333   5.249 -14.198  1.00  0.00     0.040 A 
ATOM     60  C   UNL     1      10.487   4.496 -13.421  1.00  0.00     0.040 A 
ATOM     61  F   UNL     1      10.697   3.547 -11.283  1.00  0.00    -0.206 F 
ATOM     62  C   UNL     1       9.698   5.070 -14.418  1.00  0.00     0.006 A 
ENDBRANCH  38  55
ENDBRANCH  12  13
ENDBRANCH   5   7
ENDBRANCH   2   3
ENDBRANCH   1   2
BRANCH   1  63
ATOM     63  C   UNL     1       3.939   0.105   4.033  1.00  0.00     0.118 C 
BRANCH  63  64
ATOM     64  N   UNL     1       4.511  -1.111   4.581  1.00  0.00    -0.349 N 
ATOM     65  C   UNL     1       5.444  -1.292   5.571  1.00  0.00     0.286 C 
ATOM     66  H   UNL     1       4.174  -1.943   4.176  1.00  0.00     0.163 HD
ATOM     67  O   UNL     1       5.928  -2.430   5.659  1.00  0.00    -0.266 OA
BRANCH  65  68
ATOM     68  C   UNL     1       5.815  -0.211   6.455  1.00  0.00     0.191 A 
ATOM     69  C   UNL     1       5.114   0.810   7.075  1.00  0.00     0.056 A 
ATOM     70  O   UNL     1       7.109  -0.181   6.898  1.00  0.00    -0.454 OA
ATOM     71  C   UNL     1       6.027   1.494   7.919  1.00  0.00     0.048 A 
ATOM     72  C   UNL     1       7.232   0.840   7.792  1.00  0.00     0.124 A 
BRANCH  72  73
ATOM     73  C   UNL     1       8.552   0.952   8.476  1.00  0.00     0.195 C 
BRANCH  73  74
ATOM     74  N   UNL     1       8.624  -0.148   9.423  1.00  0.00    -0.324 N 
ATOM     75  C   UNL     1       8.267   0.081  10.809  1.00  0.00     0.220 C 
ATOM     76  C   UNL     1       9.186  -1.356   9.038  1.00  0.00     0.246 C 
ATOM     77  C   UNL     1       7.706  -1.121  11.565  1.00  0.00     0.242 C 
ATOM     78  C   UNL     1       8.513  -2.566   9.725  1.00  0.00     0.174 C 
ATOM     79  O   UNL     1       9.914  -1.465   8.054  1.00  0.00    -0.272 OA
ATOM     80  O   UNL     1       7.064  -0.962  12.603  1.00  0.00    -0.273 OA
ATOM     81  N   UNL     1       8.171  -2.366  11.142  1.00  0.00    -0.329 N 
ATOM     82  C   UNL     1       9.367  -3.821   9.504  1.00  0.00     0.035 C 
ATOM     83  C   UNL     1       7.712  -3.531  11.891  1.00  0.00     0.120 C 
ATOM     84  C   UNL     1       8.766  -5.041  10.190  1.00  0.00     0.004 C 
ATOM     85  C   UNL     1       8.581  -4.762  11.674  1.00  0.00     0.022 C 
ENDBRANCH  73  74
ENDBRANCH  72  73
ENDBRANCH  65  68
ENDBRANCH  63  64
ENDBRANCH   1  63
TORSDOF 12
