REMARK SMILES COc1c(C)cccc1C(=O)NC(=S)Nc1ccc(C(=O)NCCCNC(=O)c2ccc(-c3c4nc(c(-c5c(F)cccc5F)c5ccc([nH]5)c(-c5c(F)cccc5F)c5nc(c(-c6c(F)cccc6F)c6ccc3[nH]6)C=C5)C=C4)cc2)cc1C
REMARK SMILES IDX 20 1 21 2 22 3 19 5 16 6 17 7 84 8 18 9 83 10 85 11 15 12
REMARK SMILES IDX 13 14 14 15 12 16 10 17 11 18 9 20 3 21 4 22 5 23 6 24 8 25
REMARK SMILES IDX 7 26 2 27 1 28 23 29 24 30 25 31 26 32 27 33 28 35 29 36
REMARK SMILES IDX 30 37 82 38 31 39 81 40 32 41 33 42 34 43 75 44 35 45 80 46
REMARK SMILES IDX 74 47 76 48 36 49 79 50 73 51 72 52 37 54 63 55 46 56 62 57
REMARK SMILES IDX 47 58 50 59 61 60 77 61 48 62 49 63 60 65 78 66 51 67 38 68
REMARK SMILES IDX 39 69 44 70 40 71 41 72 43 73 45 74 42 75 64 76 65 77 70 78
REMARK SMILES IDX 66 79 67 80 69 81 71 82 68 83 52 84 53 85 58 86 54 87 55 88
REMARK SMILES IDX 57 89 59 90 56 91
REMARK H PARENT 22 4 15 13 12 19 26 34 76 53 50 64
REMARK Flexibility Score: inf
ROOT
ATOM      1  C   UNL     1       1.506  -0.650   5.751  1.00  0.00     0.251 C 
ATOM      2  O   UNL     1       2.535  -1.224   6.106  1.00  0.00    -0.269 OA
ATOM      3  N   UNL     1       0.460  -0.582   6.640  1.00  0.00    -0.352 N 
ATOM      4  H   UNL     1       0.623  -0.205   7.535  1.00  0.00     0.163 HD
ENDROOT
BRANCH   1   5
ATOM      5  C   UNL     1       1.393  -0.020   4.337  1.00  0.00     0.040 A 
ATOM      6  C   UNL     1       1.801   0.715   0.812  1.00  0.00     0.043 A 
ATOM      7  C   UNL     1       1.763  -0.993   1.419  1.00  0.00     0.027 A 
ATOM      8  C   UNL     1       1.924   2.063   1.832  1.00  0.00    -0.027 A 
ATOM      9  C   UNL     1       1.563  -1.415   3.173  1.00  0.00     0.016 A 
ATOM     10  C   UNL     1       1.657   1.824   3.525  1.00  0.00     0.019 A 
ATOM     11  C   UNL     1       2.792   3.210   1.401  1.00  0.00     0.046 C 
BRANCH   6  12
ATOM     12  N   UNL     1       0.682   1.102  -0.046  1.00  0.00    -0.332 N 
ATOM     13  H   UNL     1       0.714   0.719  -0.953  1.00  0.00     0.169 HD
BRANCH  12  14
ATOM     14  C   UNL     1      -0.419   1.919   0.197  1.00  0.00     0.177 C 
ATOM     15  S   UNL     1      -1.127   2.638  -1.153  1.00  0.00    -0.040 S 
BRANCH  14  16
ATOM     16  N   UNL     1      -1.126   2.136   1.427  1.00  0.00    -0.299 N 
ATOM     17  C   UNL     1      -1.355   1.964   2.879  1.00  0.00     0.261 C 
ATOM     18  O   UNL     1      -2.374   2.404   3.406  1.00  0.00    -0.269 OA
ATOM     19  H   UNL     1      -1.868   2.723   1.155  1.00  0.00     0.172 HD
BRANCH  17  20
ATOM     20  C   UNL     1      -0.360   1.279   3.719  1.00  0.00     0.082 A 
ATOM     21  C   UNL     1       0.680   0.430   2.615  1.00  0.00     0.134 A 
ATOM     22  C   UNL     1       2.689   0.332   2.978  1.00  0.00    -0.008 A 
ATOM     23  C   UNL     1       3.957  -0.338   2.349  1.00  0.00     0.048 C 
ATOM     24  C   UNL     1       3.265   1.038   4.568  1.00  0.00     0.007 A 
ATOM     25  C   UNL     1       0.316   1.901   5.224  1.00  0.00     0.018 A 
ATOM     26  C   UNL     1       2.054   1.771   5.659  1.00  0.00     0.001 A 
BRANCH  21  27
ATOM     27  O   UNL     1      -0.367  -0.677   2.300  1.00  0.00    -0.496 OA
ATOM     28  C   UNL     1      -0.950  -0.965   1.014  1.00  0.00     0.278 C 
ENDBRANCH  21  27
ENDBRANCH  17  20
ENDBRANCH  14  16
ENDBRANCH  12  14
ENDBRANCH   6  12
ENDBRANCH   1   5
BRANCH   3  29
ATOM     29  C   UNL     1      -0.866  -1.040   6.310  1.00  0.00     0.118 C 
BRANCH  29  30
ATOM     30  C   UNL     1      -0.852  -2.556   6.200  1.00  0.00     0.042 C 
BRANCH  30  31
ATOM     31  C   UNL     1      -0.697  -3.229   7.550  1.00  0.00     0.118 C 
BRANCH  31  32
ATOM     32  N   UNL     1      -1.975  -3.287   8.238  1.00  0.00    -0.352 N 
ATOM     33  C   UNL     1      -2.518  -4.273   9.028  1.00  0.00     0.251 C 
ATOM     34  H   UNL     1      -2.544  -2.492   8.119  1.00  0.00     0.163 HD
ATOM     35  O   UNL     1      -3.738  -4.311   9.169  1.00  0.00    -0.269 OA
BRANCH  33  36
ATOM     36  C   UNL     1      -1.642  -5.072   9.930  1.00  0.00     0.039 A 
ATOM     37  C   UNL     1      -2.132  -5.133  11.245  1.00  0.00     0.014 A 
ATOM     38  C   UNL     1      -0.276  -5.126   9.695  1.00  0.00     0.014 A 
ATOM     39  C   UNL     1      -1.280  -4.831  12.290  1.00  0.00     0.010 A 
ATOM     40  C   UNL     1       0.542  -4.663  10.682  1.00  0.00     0.010 A 
ATOM     41  C   UNL     1       0.010  -4.454  11.954  1.00  0.00    -0.014 A 
BRANCH  41  42
ATOM     42  C   UNL     1       0.993  -3.976  12.888  1.00  0.00     0.031 A 
ATOM     43  C   UNL     1       1.816  -5.033  13.487  1.00  0.00     0.074 A 
ATOM     44  C   UNL     1       1.211  -2.643  12.894  1.00  0.00     0.049 A 
ATOM     45  N   UNL     1       2.558  -4.886  14.514  1.00  0.00    -0.248 NA
ATOM     46  C   UNL     1       1.821  -6.410  12.981  1.00  0.00     0.031 C 
ATOM     47  C   UNL     1       2.334  -1.877  13.414  1.00  0.00     0.029 A 
ATOM     48  N   UNL     1       0.274  -1.662  12.537  1.00  0.00    -0.354 N 
ATOM     49  C   UNL     1       3.378  -5.994  14.594  1.00  0.00     0.074 A 
ATOM     50  C   UNL     1       2.789  -6.964  13.713  1.00  0.00     0.031 C 
ATOM     51  C   UNL     1       1.920  -0.617  13.658  1.00  0.00     0.029 A 
ATOM     52  C   UNL     1       0.483  -0.583  13.422  1.00  0.00     0.049 A 
ATOM     53  H   UNL     1      -0.394  -1.715  11.815  1.00  0.00     0.167 HD
ATOM     54  C   UNL     1       4.544  -5.854  15.284  1.00  0.00     0.037 A 
ATOM     55  C   UNL     1      -0.459  -0.336  14.384  1.00  0.00     0.037 A 
ATOM     56  C   UNL     1       4.546  -4.530  15.917  1.00  0.00     0.049 A 
ATOM     57  C   UNL     1       0.066  -0.698  15.758  1.00  0.00     0.074 A 
ATOM     58  C   UNL     1       5.051  -3.309  15.502  1.00  0.00     0.029 A 
ATOM     59  N   UNL     1       3.572  -4.252  16.870  1.00  0.00    -0.354 N 
ATOM     60  N   UNL     1       0.989  -1.601  15.978  1.00  0.00    -0.248 NA
ATOM     61  C   UNL     1      -0.334   0.005  16.973  1.00  0.00     0.031 C 
ATOM     62  C   UNL     1       4.279  -2.290  16.131  1.00  0.00     0.029 A 
ATOM     63  C   UNL     1       3.328  -2.892  16.940  1.00  0.00     0.049 A 
ATOM     64  H   UNL     1       3.118  -4.931  17.420  1.00  0.00     0.167 HD
ATOM     65  C   UNL     1       1.335  -1.583  17.303  1.00  0.00     0.074 A 
ATOM     66  C   UNL     1       0.477  -0.563  17.882  1.00  0.00     0.031 C 
ATOM     67  C   UNL     1       2.306  -2.379  17.845  1.00  0.00     0.037 A 
BRANCH  54  68
ATOM     68  C   UNL     1       5.769  -6.738  15.197  1.00  0.00     0.057 A 
ATOM     69  C   UNL     1       6.999  -6.266  15.702  1.00  0.00     0.134 A 
ATOM     70  C   UNL     1       5.851  -8.010  14.599  1.00  0.00     0.134 A 
ATOM     71  F   UNL     1       7.093  -5.090  16.337  1.00  0.00    -0.206 F 
ATOM     72  C   UNL     1       8.205  -6.971  15.580  1.00  0.00     0.040 A 
ATOM     73  C   UNL     1       7.053  -8.723  14.463  1.00  0.00     0.040 A 
ATOM     74  F   UNL     1       4.783  -8.656  14.132  1.00  0.00    -0.206 F 
ATOM     75  C   UNL     1       8.239  -8.202  14.949  1.00  0.00     0.006 A 
ENDBRANCH  54  68
BRANCH  55  76
ATOM     76  C   UNL     1      -1.844  -0.564  13.855  1.00  0.00     0.057 A 
ATOM     77  C   UNL     1      -2.251   0.247  12.773  1.00  0.00     0.134 A 
ATOM     78  C   UNL     1      -2.495  -1.793  13.995  1.00  0.00     0.134 A 
ATOM     79  F   UNL     1      -1.701   1.460  12.600  1.00  0.00    -0.206 F 
ATOM     80  C   UNL     1      -3.091  -0.231  11.762  1.00  0.00     0.040 A 
ATOM     81  C   UNL     1      -3.369  -2.264  13.004  1.00  0.00     0.040 A 
ATOM     82  F   UNL     1      -2.192  -2.617  15.008  1.00  0.00    -0.206 F 
ATOM     83  C   UNL     1      -3.610  -1.516  11.851  1.00  0.00     0.006 A 
ENDBRANCH  55  76
BRANCH  67  84
ATOM     84  C   UNL     1       2.420  -2.691  19.318  1.00  0.00     0.057 A 
ATOM     85  C   UNL     1       1.342  -2.622  20.212  1.00  0.00     0.134 A 
ATOM     86  C   UNL     1       3.604  -3.247  19.856  1.00  0.00     0.134 A 
ATOM     87  F   UNL     1       0.113  -2.265  19.814  1.00  0.00    -0.206 F 
ATOM     88  C   UNL     1       1.459  -2.977  21.559  1.00  0.00     0.040 A 
ATOM     89  C   UNL     1       3.704  -3.689  21.175  1.00  0.00     0.040 A 
ATOM     90  F   UNL     1       4.710  -3.421  19.118  1.00  0.00    -0.206 F 
ATOM     91  C   UNL     1       2.638  -3.525  22.043  1.00  0.00     0.006 A 
ENDBRANCH  67  84
ENDBRANCH  41  42
ENDBRANCH  33  36
ENDBRANCH  31  32
ENDBRANCH  30  31
ENDBRANCH  29  30
ENDBRANCH   3  29
TORSDOF 15
