REMARK SMILES O=C(NCCCNC(=O)[C@]1(Cc2cn3ccccc3n2)CCC[NH2+]C1)c1ccc(-c2c3nc(c(-c4c(F)cccc4F)c4ccc([nH]4)c(-c4c(F)cccc4F)c4nc(c(-c5c(F)cccc5F)c5ccc2[nH]5)C=C4)C=C3)cc1
REMARK SMILES IDX 5 1 4 2 3 3 1 4 2 5 26 7 27 8 79 9 28 10 78 11 29 12 30 13
REMARK SMILES IDX 31 14 72 15 32 16 77 17 71 18 73 19 33 20 76 21 70 22 69 23
REMARK SMILES IDX 34 25 60 26 43 27 59 28 44 29 47 30 58 31 74 32 45 33 46 34
REMARK SMILES IDX 57 36 75 37 48 38 35 39 36 40 41 41 37 42 38 43 40 44 42 45
REMARK SMILES IDX 39 46 61 47 62 48 67 49 63 50 64 51 66 52 68 53 65 54 49 55
REMARK SMILES IDX 50 56 55 57 51 58 52 59 54 60 56 61 53 62 6 63 7 64 8 65
REMARK SMILES IDX 9 67 10 68 21 69 25 70 22 71 24 72 23 73 11 76 12 77 13 78
REMARK SMILES IDX 20 79 14 80 19 81 15 82 18 83 16 84 17 85
REMARK H PARENT 3 6 73 24 47 35 7 66 24 74 24 75
REMARK Flexibility Score: inf
ROOT
ATOM      1  C   UNL     1       4.070  -2.407  -1.282  1.00  0.00     0.042 C 
ENDROOT
BRANCH   1   2
ATOM      2  C   UNL     1       4.010  -0.888  -1.403  1.00  0.00     0.118 C 
BRANCH   2   3
ATOM      3  N   UNL     1       2.674  -0.361  -1.167  1.00  0.00    -0.352 N 
ATOM      4  O   UNL     1       0.901   0.355   0.018  1.00  0.00    -0.269 OA
ATOM      5  C   UNL     1       2.122   0.169  -0.030  1.00  0.00     0.251 C 
ATOM      6  H   UNL     1       2.073  -0.389  -1.947  1.00  0.00     0.163 HD
BRANCH   5   7
ATOM      7  C   UNL     1       2.950   0.513   1.148  1.00  0.00     0.039 A 
ATOM      8  C   UNL     1       4.168   1.182   1.014  1.00  0.00     0.014 A 
ATOM      9  C   UNL     1       2.453   0.239   2.428  1.00  0.00     0.014 A 
ATOM     10  C   UNL     1       4.940   1.464   2.141  1.00  0.00     0.010 A 
ATOM     11  C   UNL     1       3.191   0.596   3.563  1.00  0.00     0.010 A 
ATOM     12  C   UNL     1       4.454   1.192   3.430  1.00  0.00    -0.014 A 
BRANCH  12  13
ATOM     13  C   UNL     1       5.250   1.602   4.618  1.00  0.00     0.031 A 
ATOM     14  C   UNL     1       5.816   0.584   5.570  1.00  0.00     0.074 A 
ATOM     15  C   UNL     1       5.481   2.913   4.828  1.00  0.00     0.049 A 
ATOM     16  N   UNL     1       6.572   0.773   6.624  1.00  0.00    -0.248 NA
ATOM     17  C   UNL     1       5.486  -0.825   5.314  1.00  0.00     0.031 C 
ATOM     18  C   UNL     1       4.967   4.002   3.995  1.00  0.00     0.029 A 
ATOM     19  N   UNL     1       6.219   3.553   5.792  1.00  0.00    -0.354 N 
ATOM     20  C   UNL     1       6.791  -0.487   7.168  1.00  0.00     0.074 A 
ATOM     21  C   UNL     1       6.067  -1.430   6.341  1.00  0.00     0.031 C 
ATOM     22  C   UNL     1       5.447   5.169   4.451  1.00  0.00     0.029 A 
ATOM     23  C   UNL     1       6.258   4.918   5.637  1.00  0.00     0.049 A 
ATOM     24  H   UNL     1       6.677   3.080   6.524  1.00  0.00     0.167 HD
ATOM     25  C   UNL     1       7.534  -0.827   8.249  1.00  0.00     0.037 A 
ATOM     26  C   UNL     1       6.873   5.865   6.369  1.00  0.00     0.037 A 
ATOM     27  C   UNL     1       8.267   0.110   9.064  1.00  0.00     0.049 A 
ATOM     28  C   UNL     1       7.677   5.461   7.570  1.00  0.00     0.074 A 
ATOM     29  C   UNL     1       9.091  -0.149  10.147  1.00  0.00     0.029 A 
ATOM     30  N   UNL     1       8.256   1.486   8.893  1.00  0.00    -0.354 N 
ATOM     31  N   UNL     1       7.923   4.261   8.034  1.00  0.00    -0.248 NA
ATOM     32  C   UNL     1       8.287   6.546   8.351  1.00  0.00     0.031 C 
ATOM     33  C   UNL     1       9.542   1.074  10.658  1.00  0.00     0.029 A 
ATOM     34  C   UNL     1       9.039   2.091   9.864  1.00  0.00     0.049 A 
ATOM     35  H   UNL     1       7.765   1.963   8.185  1.00  0.00     0.167 HD
ATOM     36  C   UNL     1       8.734   4.443   9.146  1.00  0.00     0.074 A 
ATOM     37  C   UNL     1       8.952   5.869   9.277  1.00  0.00     0.031 C 
ATOM     38  C   UNL     1       9.251   3.511   9.984  1.00  0.00     0.037 A 
BRANCH  25  39
ATOM     39  C   UNL     1       7.580  -2.280   8.629  1.00  0.00     0.057 A 
ATOM     40  C   UNL     1       8.280  -3.224   7.867  1.00  0.00     0.134 A 
ATOM     41  C   UNL     1       6.950  -2.733   9.795  1.00  0.00     0.134 A 
ATOM     42  F   UNL     1       8.899  -2.859   6.734  1.00  0.00    -0.206 F 
ATOM     43  C   UNL     1       8.329  -4.570   8.236  1.00  0.00     0.040 A 
ATOM     44  C   UNL     1       7.012  -4.071  10.188  1.00  0.00     0.040 A 
ATOM     45  F   UNL     1       6.271  -1.880  10.578  1.00  0.00    -0.206 F 
ATOM     46  C   UNL     1       7.698  -4.995   9.403  1.00  0.00     0.006 A 
ENDBRANCH  25  39
BRANCH  26  47
ATOM     47  C   UNL     1       6.768   7.292   5.972  1.00  0.00     0.057 A 
ATOM     48  C   UNL     1       7.874   7.982   5.466  1.00  0.00     0.134 A 
ATOM     49  C   UNL     1       5.563   7.996   6.086  1.00  0.00     0.134 A 
ATOM     50  F   UNL     1       9.060   7.366   5.351  1.00  0.00    -0.206 F 
ATOM     51  C   UNL     1       7.792   9.326   5.099  1.00  0.00     0.040 A 
ATOM     52  C   UNL     1       5.459   9.332   5.699  1.00  0.00     0.040 A 
ATOM     53  F   UNL     1       4.465   7.387   6.559  1.00  0.00    -0.206 F 
ATOM     54  C   UNL     1       6.578  10.003   5.210  1.00  0.00     0.006 A 
ENDBRANCH  26  47
BRANCH  38  55
ATOM     55  C   UNL     1      10.131   4.006  11.094  1.00  0.00     0.057 A 
ATOM     56  C   UNL     1       9.613   4.690  12.201  1.00  0.00     0.134 A 
ATOM     57  C   UNL     1      11.513   3.784  11.061  1.00  0.00     0.134 A 
ATOM     58  F   UNL     1       8.299   4.950  12.286  1.00  0.00    -0.206 F 
ATOM     59  C   UNL     1      10.442   5.159  13.223  1.00  0.00     0.040 A 
ATOM     60  C   UNL     1      12.349   4.224  12.088  1.00  0.00     0.040 A 
ATOM     61  F   UNL     1      12.073   3.130  10.032  1.00  0.00    -0.206 F 
ATOM     62  C   UNL     1      11.814   4.921  13.169  1.00  0.00     0.006 A 
ENDBRANCH  38  55
ENDBRANCH  12  13
ENDBRANCH   5   7
ENDBRANCH   2   3
ENDBRANCH   1   2
BRANCH   1  63
ATOM     63  C   UNL     1       3.558  -3.179  -2.496  1.00  0.00     0.117 C 
BRANCH  63  64
ATOM     64  N   UNL     1       4.074  -2.695  -3.764  1.00  0.00    -0.355 N 
ATOM     65  C   UNL     1       5.100  -3.025  -4.585  1.00  0.00     0.232 C 
ATOM     66  H   UNL     1       3.549  -1.939  -4.113  1.00  0.00     0.163 HD
ATOM     67  O   UNL     1       5.231  -2.249  -5.543  1.00  0.00    -0.274 OA
BRANCH  65  68
ATOM     68  C   UNL     1       6.072  -4.206  -4.382  1.00  0.00     0.104 C 
ATOM     69  C   UNL     1       7.113  -4.211  -5.548  1.00  0.00     0.029 C 
ATOM     70  C   UNL     1       5.337  -5.583  -4.377  1.00  0.00     0.277 C 
ATOM     71  C   UNL     1       6.548  -4.790  -6.853  1.00  0.00     0.063 C 
ATOM     72  N   UNL     1       4.863  -6.089  -5.664  1.00  0.00    -0.345 N 
ATOM     73  C   UNL     1       5.957  -6.174  -6.626  1.00  0.00     0.260 C 
ATOM     74  H   UNL     1       4.463  -7.018  -5.531  1.00  0.00     0.346 HD
ATOM     75  H   UNL     1       4.159  -5.447  -6.028  1.00  0.00     0.346 HD
BRANCH  68  76
ATOM     76  C   UNL     1       6.824  -4.152  -3.037  1.00  0.00     0.080 C 
BRANCH  76  77
ATOM     77  C   UNL     1       7.375  -2.908  -2.432  1.00  0.00     0.061 A 
ATOM     78  C   UNL     1       7.351  -1.567  -2.760  1.00  0.00     0.116 A 
ATOM     79  N   UNL     1       7.940  -3.076  -1.183  1.00  0.00    -0.234 NA
ATOM     80  N   UNL     1       7.804  -0.900  -1.637  1.00  0.00    -0.307 N 
ATOM     81  C   UNL     1       8.168  -1.873  -0.715  1.00  0.00     0.136 A 
ATOM     82  C   UNL     1       7.852   0.466  -1.352  1.00  0.00     0.093 A 
ATOM     83  C   UNL     1       8.632  -1.445   0.558  1.00  0.00     0.048 A 
ATOM     84  C   UNL     1       8.264   0.869  -0.135  1.00  0.00     0.018 A 
ATOM     85  C   UNL     1       8.665  -0.130   0.846  1.00  0.00     0.005 A 
ENDBRANCH  76  77
ENDBRANCH  68  76
ENDBRANCH  65  68
ENDBRANCH  63  64
ENDBRANCH   1  63
TORSDOF 12
