REMARK SMILES CC(C)(C)OC(=O)N1CCC[C@@H](CC2CCCCC2)[C@@H]1C(=O)NCCCNC(=O)c1ccc(-c2c3nc(c(-c4c(F)cccc4F)c4ccc([nH]4)c(-c4c(F)cccc4F)c4nc(c(-c5c(F)cccc5F)c5ccc2[nH]5)C=C4)C=C3)cc1
REMARK SMILES IDX 24 1 23 2 21 3 22 4 20 6 8 7 9 8 10 9 12 10 11 11 6 12 7 13
REMARK SMILES IDX 5 14 2 15 1 16 3 17 4 18 13 19 14 20 15 21 19 22 16 23 18 24
REMARK SMILES IDX 17 25 25 26 26 27 27 28 28 29 29 31 30 32 31 33 83 34 32 35
REMARK SMILES IDX 82 36 33 37 34 38 35 39 76 40 36 41 81 42 75 43 77 44 37 45
REMARK SMILES IDX 80 46 74 47 73 48 38 50 64 51 47 52 63 53 48 54 51 55 62 56
REMARK SMILES IDX 78 57 49 58 50 59 61 61 79 62 52 63 39 64 40 65 45 66 41 67
REMARK SMILES IDX 42 68 44 69 46 70 43 71 65 72 66 73 71 74 67 75 68 76 70 77
REMARK SMILES IDX 72 78 69 79 53 80 54 81 59 82 55 83 56 84 58 85 60 86 57 87
REMARK H PARENT 23 5 27 30 77 49 51 60
REMARK Flexibility Score: inf
ROOT
ATOM      1  C   UNL     1       2.635   4.535  -1.640  1.00  0.00     0.117 C 
ENDROOT
BRANCH   1   2
ATOM      2  N   UNL     1       3.186   3.709  -0.582  1.00  0.00    -0.354 N 
ATOM      3  C   UNL     1       2.950   3.738   0.762  1.00  0.00     0.243 C 
ATOM      4  O   UNL     1       3.630   2.993   1.473  1.00  0.00    -0.273 OA
ATOM      5  H   UNL     1       3.828   3.024  -0.878  1.00  0.00     0.163 HD
BRANCH   3   6
ATOM      6  C   UNL     1       1.992   4.782   1.381  1.00  0.00     0.181 C 
ATOM      7  N   UNL     1       0.663   4.856   0.703  1.00  0.00    -0.296 N 
ATOM      8  C   UNL     1      -0.143   6.038   0.973  1.00  0.00     0.124 C 
ATOM      9  C   UNL     1       0.614   7.310   0.654  1.00  0.00     0.022 C 
ATOM     10  C   UNL     1       2.755   6.165   1.351  1.00  0.00     0.022 C 
ATOM     11  C   UNL     1       1.844   7.384   1.543  1.00  0.00     0.008 C 
BRANCH   7  12
ATOM     12  C   UNL     1      -0.026   3.774   0.145  1.00  0.00     0.410 C 
ATOM     13  O   UNL     1      -1.074   3.913  -0.465  1.00  0.00    -0.224 OA
BRANCH  12  14
ATOM     14  O   UNL     1       0.604   2.580   0.293  1.00  0.00    -0.444 OA
BRANCH  14  15
ATOM     15  C   UNL     1       0.171   1.402  -0.449  1.00  0.00     0.106 C 
ATOM     16  C   UNL     1       0.947   0.231   0.171  1.00  0.00     0.056 C 
ATOM     17  C   UNL     1       0.579   1.528  -1.922  1.00  0.00     0.056 C 
ATOM     18  C   UNL     1      -1.329   1.107  -0.324  1.00  0.00     0.056 C 
ENDBRANCH  14  15
ENDBRANCH  12  14
ENDBRANCH   7  12
BRANCH  10  19
ATOM     19  C   UNL     1       4.099   6.266   2.135  1.00  0.00     0.010 C 
BRANCH  19  20
ATOM     20  C   UNL     1       4.205   6.273   3.679  1.00  0.00    -0.011 C 
ATOM     21  C   UNL     1       3.600   7.516   4.350  1.00  0.00     0.003 C 
ATOM     22  C   UNL     1       3.739   4.969   4.334  1.00  0.00     0.003 C 
ATOM     23  C   UNL     1       3.724   7.491   5.872  1.00  0.00     0.000 C 
ATOM     24  C   UNL     1       3.873   4.994   5.854  1.00  0.00     0.000 C 
ATOM     25  C   UNL     1       3.149   6.199   6.440  1.00  0.00     0.000 C 
ENDBRANCH  19  20
ENDBRANCH  10  19
ENDBRANCH   3   6
ENDBRANCH   1   2
BRANCH   1  26
ATOM     26  C   UNL     1       3.730   5.204  -2.447  1.00  0.00     0.042 C 
BRANCH  26  27
ATOM     27  C   UNL     1       4.640   4.208  -3.146  1.00  0.00     0.118 C 
BRANCH  27  28
ATOM     28  N   UNL     1       3.921   3.355  -4.085  1.00  0.00    -0.352 N 
ATOM     29  C   UNL     1       4.060   3.252  -5.447  1.00  0.00     0.251 C 
ATOM     30  H   UNL     1       3.238   2.769  -3.686  1.00  0.00     0.163 HD
ATOM     31  O   UNL     1       3.240   2.632  -6.114  1.00  0.00    -0.269 OA
BRANCH  29  32
ATOM     32  C   UNL     1       5.204   3.915  -6.099  1.00  0.00     0.039 A 
ATOM     33  C   UNL     1       4.989   4.677  -7.249  1.00  0.00     0.014 A 
ATOM     34  C   UNL     1       6.482   3.806  -5.546  1.00  0.00     0.014 A 
ATOM     35  C   UNL     1       6.051   5.390  -7.805  1.00  0.00     0.010 A 
ATOM     36  C   UNL     1       7.511   4.592  -6.040  1.00  0.00     0.010 A 
ATOM     37  C   UNL     1       7.310   5.381  -7.182  1.00  0.00    -0.014 A 
BRANCH  37  38
ATOM     38  C   UNL     1       8.451   6.159  -7.717  1.00  0.00     0.031 A 
ATOM     39  C   UNL     1       9.687   5.436  -8.174  1.00  0.00     0.074 A 
ATOM     40  C   UNL     1       8.411   7.505  -7.707  1.00  0.00     0.049 A 
ATOM     41  N   UNL     1      10.840   5.924  -8.551  1.00  0.00    -0.248 NA
ATOM     42  C   UNL     1       9.630   3.964  -8.170  1.00  0.00     0.031 C 
ATOM     43  C   UNL     1       7.286   8.319  -7.240  1.00  0.00     0.029 A 
ATOM     44  N   UNL     1       9.351   8.427  -8.090  1.00  0.00    -0.354 N 
ATOM     45  C   UNL     1      11.650   4.824  -8.799  1.00  0.00     0.074 A 
ATOM     46  C   UNL     1      10.877   3.645  -8.477  1.00  0.00     0.031 C 
ATOM     47  C   UNL     1       7.594   9.618  -7.385  1.00  0.00     0.029 A 
ATOM     48  C   UNL     1       8.949   9.729  -7.917  1.00  0.00     0.049 A 
ATOM     49  H   UNL     1      10.232   8.179  -8.454  1.00  0.00     0.167 HD
ATOM     50  C   UNL     1      12.915   4.796  -9.279  1.00  0.00     0.037 A 
ATOM     51  C   UNL     1       9.605  10.879  -8.154  1.00  0.00     0.037 A 
ATOM     52  C   UNL     1      13.662   5.971  -9.639  1.00  0.00     0.049 A 
ATOM     53  C   UNL     1      11.004  10.823  -8.702  1.00  0.00     0.074 A 
ATOM     54  C   UNL     1      14.927   6.053 -10.192  1.00  0.00     0.029 A 
ATOM     55  N   UNL     1      13.204   7.271  -9.486  1.00  0.00    -0.354 N 
ATOM     56  N   UNL     1      11.739   9.775  -8.985  1.00  0.00    -0.248 NA
ATOM     57  C   UNL     1      11.663  12.110  -8.968  1.00  0.00     0.031 C 
ATOM     58  C   UNL     1      15.248   7.405 -10.345  1.00  0.00     0.029 A 
ATOM     59  C   UNL     1      14.167   8.164  -9.925  1.00  0.00     0.049 A 
ATOM     60  H   UNL     1      12.325   7.522  -9.121  1.00  0.00     0.167 HD
ATOM     61  C   UNL     1      12.933  10.273  -9.491  1.00  0.00     0.074 A 
ATOM     62  C   UNL     1      12.820  11.717  -9.484  1.00  0.00     0.031 C 
ATOM     63  C   UNL     1      14.024   9.597  -9.924  1.00  0.00     0.037 A 
BRANCH  50  64
ATOM     64  C   UNL     1      13.558   3.452  -9.452  1.00  0.00     0.057 A 
ATOM     65  C   UNL     1      13.140   2.556 -10.444  1.00  0.00     0.134 A 
ATOM     66  C   UNL     1      14.619   3.055  -8.628  1.00  0.00     0.134 A 
ATOM     67  F   UNL     1      12.118   2.869 -11.256  1.00  0.00    -0.206 F 
ATOM     68  C   UNL     1      13.733   1.301 -10.593  1.00  0.00     0.040 A 
ATOM     69  C   UNL     1      15.239   1.814  -8.785  1.00  0.00     0.040 A 
ATOM     70  F   UNL     1      15.071   3.866  -7.660  1.00  0.00    -0.206 F 
ATOM     71  C   UNL     1      14.791   0.931  -9.765  1.00  0.00     0.006 A 
ENDBRANCH  50  64
BRANCH  51  72
ATOM     72  C   UNL     1       8.938  12.181  -7.905  1.00  0.00     0.057 A 
ATOM     73  C   UNL     1       8.541  12.999  -8.969  1.00  0.00     0.134 A 
ATOM     74  C   UNL     1       8.687  12.642  -6.608  1.00  0.00     0.134 A 
ATOM     75  F   UNL     1       8.770  12.619 -10.235  1.00  0.00    -0.206 F 
ATOM     76  C   UNL     1       7.935  14.238  -8.754  1.00  0.00     0.040 A 
ATOM     77  C   UNL     1       8.060  13.869  -6.377  1.00  0.00     0.040 A 
ATOM     78  F   UNL     1       9.035  11.901  -5.546  1.00  0.00    -0.206 F 
ATOM     79  C   UNL     1       7.689  14.674  -7.453  1.00  0.00     0.006 A 
ENDBRANCH  51  72
BRANCH  63  80
ATOM     80  C   UNL     1      15.163  10.407 -10.465  1.00  0.00     0.057 A 
ATOM     81  C   UNL     1      16.014  11.138  -9.627  1.00  0.00     0.134 A 
ATOM     82  C   UNL     1      15.439  10.415 -11.838  1.00  0.00     0.134 A 
ATOM     83  F   UNL     1      15.794  11.180  -8.305  1.00  0.00    -0.206 F 
ATOM     84  C   UNL     1      17.091  11.862 -10.139  1.00  0.00     0.040 A 
ATOM     85  C   UNL     1      16.527  11.115 -12.359  1.00  0.00     0.040 A 
ATOM     86  F   UNL     1      14.665   9.727 -12.692  1.00  0.00    -0.206 F 
ATOM     87  C   UNL     1      17.354  11.846 -11.508  1.00  0.00     0.006 A 
ENDBRANCH  63  80
ENDBRANCH  37  38
ENDBRANCH  29  32
ENDBRANCH  27  28
ENDBRANCH  26  27
ENDBRANCH   1  26
TORSDOF 15
