REMARK SMILES Cc1ccc2oc(C(=O)N[C@@H]3C=C[C@H](C(=O)NCCCNC(=O)c4ccc(-c5c6nc(c(-c7c(F)cccc7F)c7ccc([nH]7)c(-c7c(F)cccc7F)c7nc(c(-c8c(F)cccc8F)c8ccc5[nH]8)C=C7)C=C6)cc4)C3)cc2c1
REMARK SMILES IDX 19 1 18 2 17 3 15 4 16 5 14 7 11 8 12 9 78 10 13 11 10 12
REMARK SMILES IDX 8 13 9 14 7 16 1 17 2 18 3 19 81 20 4 21 80 22 5 23 79 24
REMARK SMILES IDX 6 25 20 26 21 27 22 28 23 30 24 31 25 32 77 33 26 34 76 35
REMARK SMILES IDX 27 36 28 37 29 38 70 39 30 40 75 41 69 42 71 43 31 44 74 45
REMARK SMILES IDX 68 46 67 47 32 49 58 50 41 51 57 52 42 53 45 54 56 55 72 56
REMARK SMILES IDX 43 57 44 58 55 60 73 61 46 62 33 63 34 64 39 65 35 66 36 67
REMARK SMILES IDX 38 68 40 69 37 70 59 71 60 72 65 73 61 74 62 75 64 76 66 77
REMARK SMILES IDX 63 78 47 79 48 80 53 81 49 82 50 83 52 84 54 85 51 86
REMARK H PARENT 17 6 10 15 21 29 71 48 45 59
REMARK Flexibility Score: inf
ROOT
ATOM      1  C   UNL     1       1.207  -7.774   3.584  1.00  0.00     0.042 C 
ENDROOT
BRANCH   1   2
ATOM      2  C   UNL     1       1.665  -6.883   2.439  1.00  0.00     0.117 C 
BRANCH   2   3
ATOM      3  N   UNL     1       0.965  -5.619   2.348  1.00  0.00    -0.356 N 
ATOM      4  C   UNL     1       1.349  -4.369   1.988  1.00  0.00     0.227 C 
ATOM      5  O   UNL     1       0.407  -3.591   1.783  1.00  0.00    -0.274 OA
ATOM      6  H   UNL     1       0.014  -5.680   2.599  1.00  0.00     0.163 HD
BRANCH   4   7
ATOM      7  C   UNL     1       2.809  -3.841   1.975  1.00  0.00     0.103 C 
ATOM      8  C   UNL     1       3.641  -3.088  -0.237  1.00  0.00     0.106 C 
ATOM      9  C   UNL     1       4.393  -4.264   0.255  1.00  0.00    -0.006 C 
ATOM     10  C   UNL     1       2.898  -2.619   1.024  1.00  0.00     0.047 C 
ATOM     11  C   UNL     1       3.974  -4.648   1.473  1.00  0.00    -0.016 C 
BRANCH   8  12
ATOM     12  N   UNL     1       2.812  -3.252  -1.432  1.00  0.00    -0.343 N 
ATOM     13  C   UNL     1       2.180  -4.201  -2.204  1.00  0.00     0.287 C 
ATOM     14  O   UNL     1       1.598  -3.734  -3.194  1.00  0.00    -0.266 OA
ATOM     15  H   UNL     1       2.645  -2.365  -1.825  1.00  0.00     0.164 HD
BRANCH  13  16
ATOM     16  C   UNL     1       2.202  -5.622  -1.935  1.00  0.00     0.192 A 
ATOM     17  C   UNL     1       2.542 -11.358  -0.140  1.00  0.00     0.044 C 
ATOM     18  C   UNL     1       2.325 -10.123  -0.965  1.00  0.00    -0.050 A 
ATOM     19  C   UNL     1       1.770 -10.158  -2.253  1.00  0.00     0.007 A 
ATOM     20  C   UNL     1       2.677  -8.895  -0.403  1.00  0.00     0.015 A 
ATOM     21  C   UNL     1       1.565  -8.986  -3.013  1.00  0.00     0.048 A 
ATOM     22  C   UNL     1       2.422  -7.724  -1.124  1.00  0.00     0.021 A 
ATOM     23  C   UNL     1       1.909  -7.783  -2.404  1.00  0.00     0.135 A 
ATOM     24  C   UNL     1       2.504  -6.362  -0.823  1.00  0.00     0.065 A 
ATOM     25  O   UNL     1       1.794  -6.516  -2.917  1.00  0.00    -0.451 OA
ENDBRANCH  13  16
ENDBRANCH   8  12
ENDBRANCH   4   7
ENDBRANCH   2   3
ENDBRANCH   1   2
BRANCH   1  26
ATOM     26  C   UNL     1      -0.235  -8.270   3.490  1.00  0.00     0.118 C 
BRANCH  26  27
ATOM     27  N   UNL     1      -0.467  -9.261   2.446  1.00  0.00    -0.352 N 
ATOM     28  C   UNL     1      -1.071 -10.499   2.509  1.00  0.00     0.251 C 
ATOM     29  H   UNL     1      -0.140  -9.006   1.553  1.00  0.00     0.163 HD
ATOM     30  O   UNL     1      -1.084 -11.212   1.506  1.00  0.00    -0.269 OA
BRANCH  28  31
ATOM     31  C   UNL     1      -1.666 -11.012   3.769  1.00  0.00     0.039 A 
ATOM     32  C   UNL     1      -1.527 -12.373   4.070  1.00  0.00     0.014 A 
ATOM     33  C   UNL     1      -2.372 -10.190   4.648  1.00  0.00     0.014 A 
ATOM     34  C   UNL     1      -2.020 -12.883   5.276  1.00  0.00     0.010 A 
ATOM     35  C   UNL     1      -2.781 -10.677   5.890  1.00  0.00     0.010 A 
ATOM     36  C   UNL     1      -2.616 -12.030   6.218  1.00  0.00    -0.014 A 
BRANCH  36  37
ATOM     37  C   UNL     1      -3.090 -12.537   7.534  1.00  0.00     0.031 A 
ATOM     38  C   UNL     1      -4.547 -12.452   7.903  1.00  0.00     0.074 A 
ATOM     39  C   UNL     1      -2.205 -13.011   8.433  1.00  0.00     0.049 A 
ATOM     40  N   UNL     1      -5.139 -12.774   9.026  1.00  0.00    -0.248 NA
ATOM     41  C   UNL     1      -5.454 -11.899   6.885  1.00  0.00     0.031 C 
ATOM     42  C   UNL     1      -0.756 -13.090   8.238  1.00  0.00     0.029 A 
ATOM     43  N   UNL     1      -2.396 -13.508   9.699  1.00  0.00    -0.354 N 
ATOM     44  C   UNL     1      -6.476 -12.437   8.859  1.00  0.00     0.074 A 
ATOM     45  C   UNL     1      -6.598 -11.837   7.548  1.00  0.00     0.031 C 
ATOM     46  C   UNL     1      -0.193 -13.624   9.334  1.00  0.00     0.029 A 
ATOM     47  C   UNL     1      -1.234 -13.903  10.318  1.00  0.00     0.049 A 
ATOM     48  H   UNL     1      -3.281 -13.574  10.123  1.00  0.00     0.167 HD
ATOM     49  C   UNL     1      -7.517 -12.632   9.705  1.00  0.00     0.037 A 
ATOM     50  C   UNL     1      -1.030 -14.435  11.538  1.00  0.00     0.037 A 
ATOM     51  C   UNL     1      -7.409 -13.263  10.994  1.00  0.00     0.049 A 
ATOM     52  C   UNL     1      -2.205 -14.700  12.437  1.00  0.00     0.074 A 
ATOM     53  C   UNL     1      -8.413 -13.552  11.903  1.00  0.00     0.029 A 
ATOM     54  N   UNL     1      -6.223 -13.713  11.554  1.00  0.00    -0.354 N 
ATOM     55  N   UNL     1      -3.472 -14.430  12.241  1.00  0.00    -0.248 NA
ATOM     56  C   UNL     1      -1.922 -15.361  13.719  1.00  0.00     0.031 C 
ATOM     57  C   UNL     1      -7.831 -14.158  13.022  1.00  0.00     0.029 A 
ATOM     58  C   UNL     1      -6.469 -14.278  12.794  1.00  0.00     0.049 A 
ATOM     59  H   UNL     1      -5.337 -13.642  11.131  1.00  0.00     0.167 HD
ATOM     60  C   UNL     1      -4.141 -14.912  13.358  1.00  0.00     0.074 A 
ATOM     61  C   UNL     1      -3.140 -15.500  14.224  1.00  0.00     0.031 C 
ATOM     62  C   UNL     1      -5.466 -14.871  13.640  1.00  0.00     0.037 A 
BRANCH  49  63
ATOM     63  C   UNL     1      -8.866 -12.160   9.246  1.00  0.00     0.057 A 
ATOM     64  C   UNL     1      -9.557 -12.801   8.209  1.00  0.00     0.134 A 
ATOM     65  C   UNL     1      -9.479 -11.050   9.841  1.00  0.00     0.134 A 
ATOM     66  F   UNL     1      -9.018 -13.861   7.587  1.00  0.00    -0.206 F 
ATOM     67  C   UNL     1     -10.791 -12.333   7.754  1.00  0.00     0.040 A 
ATOM     68  C   UNL     1     -10.726 -10.590   9.414  1.00  0.00     0.040 A 
ATOM     69  F   UNL     1      -8.876 -10.394  10.844  1.00  0.00    -0.206 F 
ATOM     70  C   UNL     1     -11.380 -11.226   8.360  1.00  0.00     0.006 A 
ENDBRANCH  49  63
BRANCH  50  71
ATOM     71  C   UNL     1       0.344 -14.802  11.959  1.00  0.00     0.057 A 
ATOM     72  C   UNL     1       0.748 -16.141  12.002  1.00  0.00     0.134 A 
ATOM     73  C   UNL     1       1.285 -13.829  12.312  1.00  0.00     0.134 A 
ATOM     74  F   UNL     1      -0.117 -17.117  11.690  1.00  0.00    -0.206 F 
ATOM     75  C   UNL     1       2.037 -16.502  12.395  1.00  0.00     0.040 A 
ATOM     76  C   UNL     1       2.584 -14.175  12.688  1.00  0.00     0.040 A 
ATOM     77  F   UNL     1       0.959 -12.528  12.281  1.00  0.00    -0.206 F 
ATOM     78  C   UNL     1       2.962 -15.516  12.735  1.00  0.00     0.006 A 
ENDBRANCH  50  71
BRANCH  62  79
ATOM     79  C   UNL     1      -5.914 -15.517  14.917  1.00  0.00     0.057 A 
ATOM     80  C   UNL     1      -5.680 -14.930  16.166  1.00  0.00     0.134 A 
ATOM     81  C   UNL     1      -6.613 -16.730  14.892  1.00  0.00     0.134 A 
ATOM     82  F   UNL     1      -5.005 -13.774  16.258  1.00  0.00    -0.206 F 
ATOM     83  C   UNL     1      -6.105 -15.539  17.349  1.00  0.00     0.040 A 
ATOM     84  C   UNL     1      -7.062 -17.338  16.065  1.00  0.00     0.040 A 
ATOM     85  F   UNL     1      -6.875 -17.341  13.727  1.00  0.00    -0.206 F 
ATOM     86  C   UNL     1      -6.802 -16.744  17.299  1.00  0.00     0.006 A 
ENDBRANCH  62  79
ENDBRANCH  36  37
ENDBRANCH  28  31
ENDBRANCH  26  27
ENDBRANCH   1  26
TORSDOF 12
