REMARK SMILES O=C(CNc1nc(-c2ccccc2)c(-c2ccccc2)s1)NCCCNC(=O)c1ccc(-c2c3nc(c(-c4c(F)cccc4F)c4ccc([nH]4)c(-c4c(F)cccc4F)c4nc(c(-c5c(F)cccc5F)c5ccc2[nH]5)C=C4)C=C3)cc1
REMARK SMILES IDX 23 1 22 2 1 3 2 4 3 6 4 7 5 9 6 10 21 11 7 12 14 13 8 14
REMARK SMILES IDX 9 15 13 16 10 17 12 18 11 19 15 20 16 21 20 22 17 23 19 24
REMARK SMILES IDX 18 25 24 26 25 27 26 28 27 29 28 31 29 32 30 33 82 34 31 35
REMARK SMILES IDX 81 36 32 37 33 38 34 39 75 40 35 41 80 42 74 43 76 44 36 45
REMARK SMILES IDX 79 46 73 47 72 48 37 50 63 51 46 52 62 53 47 54 50 55 61 56
REMARK SMILES IDX 77 57 48 58 49 59 60 61 78 62 51 63 38 64 39 65 44 66 40 67
REMARK SMILES IDX 41 68 43 69 45 70 42 71 64 72 65 73 70 74 66 75 67 76 69 77
REMARK SMILES IDX 71 78 68 79 52 80 53 81 58 82 54 83 55 84 57 85 59 86 56 87
REMARK H PARENT 22 5 4 8 26 30 76 49 50 60
REMARK Flexibility Score: inf
ROOT
ATOM      1  C   UNL     1       2.205  -1.039  -2.136  1.00  0.00     0.117 C 
ENDROOT
BRANCH   1   2
ATOM      2  N   UNL     1       2.881  -0.528  -0.963  1.00  0.00    -0.355 N 
ATOM      3  O   UNL     1       1.071   0.528  -0.008  1.00  0.00    -0.273 OA
ATOM      4  C   UNL     1       2.247   0.182   0.043  1.00  0.00     0.239 C 
ATOM      5  H   UNL     1       3.847  -0.695  -0.875  1.00  0.00     0.163 HD
BRANCH   4   6
ATOM      6  C   UNL     1       3.176   0.518   1.225  1.00  0.00     0.215 C 
BRANCH   6   7
ATOM      7  N   UNL     1       4.141  -0.562   1.393  1.00  0.00    -0.352 N 
ATOM      8  H   UNL     1       3.827  -1.494   1.338  1.00  0.00     0.163 HD
BRANCH   7   9
ATOM      9  C   UNL     1       5.444  -0.328   1.622  1.00  0.00     0.184 A 
ATOM     10  N   UNL     1       5.960   0.801   2.040  1.00  0.00    -0.220 NA
ATOM     11  S   UNL     1       6.577  -1.585   1.315  1.00  0.00    -0.096 S 
ATOM     12  C   UNL     1       7.341   0.689   2.126  1.00  0.00     0.091 A 
ATOM     13  C   UNL     1       7.867  -0.525   1.707  1.00  0.00     0.064 A 
BRANCH  12  14
ATOM     14  C   UNL     1       8.154   1.771   2.660  1.00  0.00     0.002 A 
ATOM     15  C   UNL     1       9.184   2.345   1.905  1.00  0.00     0.010 A 
ATOM     16  C   UNL     1       7.956   2.188   3.982  1.00  0.00     0.010 A 
ATOM     17  C   UNL     1      10.030   3.297   2.478  1.00  0.00     0.001 A 
ATOM     18  C   UNL     1       8.806   3.136   4.555  1.00  0.00     0.001 A 
ATOM     19  C   UNL     1       9.847   3.684   3.805  1.00  0.00     0.000 A 
ENDBRANCH  12  14
BRANCH  13  20
ATOM     20  C   UNL     1       9.248  -0.998   1.611  1.00  0.00    -0.006 A 
ATOM     21  C   UNL     1       9.785  -1.367   0.369  1.00  0.00     0.009 A 
ATOM     22  C   UNL     1      10.068  -1.038   2.746  1.00  0.00     0.009 A 
ATOM     23  C   UNL     1      11.119  -1.764   0.265  1.00  0.00     0.001 A 
ATOM     24  C   UNL     1      11.402  -1.435   2.640  1.00  0.00     0.001 A 
ATOM     25  C   UNL     1      11.927  -1.796   1.400  1.00  0.00     0.000 A 
ENDBRANCH  13  20
ENDBRANCH   7   9
ENDBRANCH   6   7
ENDBRANCH   4   6
ENDBRANCH   1   2
BRANCH   1  26
ATOM     26  C   UNL     1       2.491  -0.218  -3.387  1.00  0.00     0.042 C 
BRANCH  26  27
ATOM     27  C   UNL     1       3.960  -0.182  -3.803  1.00  0.00     0.118 C 
BRANCH  27  28
ATOM     28  N   UNL     1       4.479  -1.478  -4.224  1.00  0.00    -0.352 N 
ATOM     29  C   UNL     1       5.145  -1.830  -5.374  1.00  0.00     0.251 C 
ATOM     30  H   UNL     1       4.329  -2.214  -3.587  1.00  0.00     0.163 HD
ATOM     31  O   UNL     1       5.408  -3.009  -5.593  1.00  0.00    -0.269 OA
BRANCH  29  32
ATOM     32  C   UNL     1       5.518  -0.800  -6.369  1.00  0.00     0.039 A 
ATOM     33  C   UNL     1       5.261  -1.043  -7.723  1.00  0.00     0.014 A 
ATOM     34  C   UNL     1       6.112   0.401  -5.976  1.00  0.00     0.014 A 
ATOM     35  C   UNL     1       5.514  -0.047  -8.670  1.00  0.00     0.010 A 
ATOM     36  C   UNL     1       6.300   1.417  -6.910  1.00  0.00     0.010 A 
ATOM     37  C   UNL     1       5.990   1.210  -8.264  1.00  0.00    -0.014 A 
BRANCH  37  38
ATOM     38  C   UNL     1       6.150   2.336  -9.220  1.00  0.00     0.031 A 
ATOM     39  C   UNL     1       7.508   2.930  -9.465  1.00  0.00     0.074 A 
ATOM     40  C   UNL     1       5.061   2.896  -9.783  1.00  0.00     0.049 A 
ATOM     41  N   UNL     1       7.833   4.016 -10.119  1.00  0.00    -0.248 NA
ATOM     42  C   UNL     1       8.652   2.221  -8.870  1.00  0.00     0.031 C 
ATOM     43  C   UNL     1       3.683   2.435  -9.607  1.00  0.00     0.029 A 
ATOM     44  N   UNL     1       4.940   3.994 -10.599  1.00  0.00    -0.354 N 
ATOM     45  C   UNL     1       9.210   4.135  -9.994  1.00  0.00     0.074 A 
ATOM     46  C   UNL     1       9.657   3.031  -9.170  1.00  0.00     0.031 C 
ATOM     47  C   UNL     1       2.858   3.240 -10.295  1.00  0.00     0.029 A 
ATOM     48  C   UNL     1       3.640   4.301 -10.921  1.00  0.00     0.049 A 
ATOM     49  H   UNL     1       5.712   4.513 -10.922  1.00  0.00     0.167 HD
ATOM     50  C   UNL     1      10.030   5.072 -10.527  1.00  0.00     0.037 A 
ATOM     51  C   UNL     1       3.132   5.333 -11.622  1.00  0.00     0.037 A 
ATOM     52  C   UNL     1       9.588   6.154 -11.368  1.00  0.00     0.049 A 
ATOM     53  C   UNL     1       4.061   6.370 -12.190  1.00  0.00     0.074 A 
ATOM     54  C   UNL     1      10.351   7.123 -11.997  1.00  0.00     0.029 A 
ATOM     55  N   UNL     1       8.266   6.409 -11.697  1.00  0.00    -0.354 N 
ATOM     56  N   UNL     1       5.366   6.446 -12.100  1.00  0.00    -0.248 NA
ATOM     57  C   UNL     1       3.447   7.464 -12.957  1.00  0.00     0.031 C 
ATOM     58  C   UNL     1       9.486   7.988 -12.675  1.00  0.00     0.029 A 
ATOM     59  C   UNL     1       8.189   7.529 -12.508  1.00  0.00     0.049 A 
ATOM     60  H   UNL     1       7.495   5.873 -11.399  1.00  0.00     0.167 HD
ATOM     61  C   UNL     1       5.733   7.571 -12.829  1.00  0.00     0.074 A 
ATOM     62  C   UNL     1       4.513   8.146 -13.355  1.00  0.00     0.031 C 
ATOM     63  C   UNL     1       6.971   8.076 -13.046  1.00  0.00     0.037 A 
BRANCH  50  64
ATOM     64  C   UNL     1      11.495   4.970 -10.215  1.00  0.00     0.057 A 
ATOM     65  C   UNL     1      12.297   3.957 -10.756  1.00  0.00     0.134 A 
ATOM     66  C   UNL     1      12.119   5.919  -9.396  1.00  0.00     0.134 A 
ATOM     67  F   UNL     1      11.759   3.010 -11.540  1.00  0.00    -0.206 F 
ATOM     68  C   UNL     1      13.661   3.876 -10.473  1.00  0.00     0.040 A 
ATOM     69  C   UNL     1      13.488   5.864  -9.127  1.00  0.00     0.040 A 
ATOM     70  F   UNL     1      11.411   6.920  -8.851  1.00  0.00    -0.206 F 
ATOM     71  C   UNL     1      14.261   4.836  -9.661  1.00  0.00     0.006 A 
ENDBRANCH  50  64
BRANCH  51  72
ATOM     72  C   UNL     1       1.666   5.436 -11.835  1.00  0.00     0.057 A 
ATOM     73  C   UNL     1       1.107   5.223 -13.100  1.00  0.00     0.134 A 
ATOM     74  C   UNL     1       0.792   5.753 -10.788  1.00  0.00     0.134 A 
ATOM     75  F   UNL     1       1.895   4.936 -14.146  1.00  0.00    -0.206 F 
ATOM     76  C   UNL     1      -0.266   5.340 -13.322  1.00  0.00     0.040 A 
ATOM     77  C   UNL     1      -0.586   5.848 -10.991  1.00  0.00     0.040 A 
ATOM     78  F   UNL     1       1.265   5.962  -9.551  1.00  0.00    -0.206 F 
ATOM     79  C   UNL     1      -1.117   5.649 -12.263  1.00  0.00     0.006 A 
ENDBRANCH  51  72
BRANCH  63  80
ATOM     80  C   UNL     1       7.083   9.278 -13.937  1.00  0.00     0.057 A 
ATOM     81  C   UNL     1       6.708  10.557 -13.510  1.00  0.00     0.134 A 
ATOM     82  C   UNL     1       7.635   9.157 -15.219  1.00  0.00     0.134 A 
ATOM     83  F   UNL     1       6.162  10.737 -12.298  1.00  0.00    -0.206 F 
ATOM     84  C   UNL     1       6.868  11.674 -14.332  1.00  0.00     0.040 A 
ATOM     85  C   UNL     1       7.821  10.269 -16.041  1.00  0.00     0.040 A 
ATOM     86  F   UNL     1       8.021   7.960 -15.685  1.00  0.00    -0.206 F 
ATOM     87  C   UNL     1       7.435  11.532 -15.598  1.00  0.00     0.006 A 
ENDBRANCH  63  80
ENDBRANCH  37  38
ENDBRANCH  29  32
ENDBRANCH  27  28
ENDBRANCH  26  27
ENDBRANCH   1  26
TORSDOF 14
