REMARK SMILES O=C(NCCCNC(=O)c1ccc(-c2c3nc(c(-c4c(F)cccc4F)c4ccc([nH]4)c(-c4c(F)cccc4F)c4nc(c(-c5c(F)cccc5F)c5ccc2[nH]5)C=C4)C=C3)cc1)C1=Cc2cc(Cl)cc(-c3ccc(Cl)cc3)c2O[C@@H]1C(F)(F)F
REMARK SMILES IDX 5 1 4 2 3 3 1 4 2 5 64 7 65 8 81 9 66 10 80 11 67 12 79 13
REMARK SMILES IDX 68 14 71 15 69 16 70 17 82 18 83 19 84 20 85 21 72 22 73 23
REMARK SMILES IDX 78 24 74 25 77 26 75 27 76 28 6 29 7 30 8 31 9 33 10 34
REMARK SMILES IDX 11 35 63 36 12 37 62 38 13 39 14 40 15 41 56 42 16 43 61 44
REMARK SMILES IDX 55 45 57 46 17 47 60 48 54 49 53 50 18 52 44 53 27 54 43 55
REMARK SMILES IDX 28 56 31 57 42 58 58 59 29 60 30 61 41 63 59 64 32 65 19 66
REMARK SMILES IDX 20 67 25 68 21 69 22 70 24 71 26 72 23 73 45 74 46 75 51 76
REMARK SMILES IDX 47 77 48 78 50 79 52 80 49 81 33 82 34 83 39 84 35 85 36 86
REMARK SMILES IDX 38 87 40 88 37 89
REMARK H PARENT 3 6 7 32 57 51 31 62
REMARK Flexibility Score: inf
ROOT
ATOM      1  C   UNL     1       3.852  -3.011  -0.065  1.00  0.00     0.042 C 
ENDROOT
BRANCH   1   2
ATOM      2  C   UNL     1       2.791  -2.030  -0.570  1.00  0.00     0.118 C 
BRANCH   2   3
ATOM      3  N   UNL     1       1.990  -1.447   0.512  1.00  0.00    -0.352 N 
ATOM      4  O   UNL     1       1.170   0.218   1.821  1.00  0.00    -0.270 OA
ATOM      5  C   UNL     1       2.038  -0.191   1.064  1.00  0.00     0.251 C 
ATOM      6  H   UNL     1       1.315  -2.048   0.902  1.00  0.00     0.163 HD
BRANCH   5   7
ATOM      7  C   UNL     1       3.162   0.661   0.655  1.00  0.00     0.067 C 
ATOM      8  C   UNL     1       4.390   0.280   1.025  1.00  0.00     0.025 C 
ATOM      9  C   UNL     1       2.918   1.670  -0.419  1.00  0.00     0.314 C 
ATOM     10  C   UNL     1       5.426   0.509   0.015  1.00  0.00     0.019 A 
ATOM     11  O   UNL     1       3.790   1.433  -1.553  1.00  0.00    -0.475 OA
ATOM     12  C   UNL     1       6.691  -0.037   0.237  1.00  0.00     0.032 A 
ATOM     13  C   UNL     1       5.031   0.897  -1.285  1.00  0.00     0.135 A 
ATOM     14  C   UNL     1       7.525  -0.287  -0.847  1.00  0.00     0.042 A 
ATOM     15  C   UNL     1       5.844   0.585  -2.387  1.00  0.00     0.026 A 
ATOM     16  Cl  UNL     1       9.017  -1.105  -0.593  1.00  0.00    -0.084 Cl
ATOM     17  C   UNL     1       7.101  -0.003  -2.145  1.00  0.00     0.033 A 
BRANCH   9  18
ATOM     18  C   UNL     1       3.018   3.112   0.109  1.00  0.00     0.429 C 
ATOM     19  F   UNL     1       2.700   4.010  -0.855  1.00  0.00    -0.167 F 
ATOM     20  F   UNL     1       2.162   3.328   1.137  1.00  0.00    -0.167 F 
ATOM     21  F   UNL     1       4.259   3.422   0.550  1.00  0.00    -0.167 F 
ENDBRANCH   9  18
BRANCH  15  22
ATOM     22  C   UNL     1       5.353   0.638  -3.774  1.00  0.00    -0.015 A 
ATOM     23  C   UNL     1       4.500  -0.375  -4.253  1.00  0.00     0.010 A 
ATOM     24  C   UNL     1       5.803   1.605  -4.679  1.00  0.00     0.010 A 
ATOM     25  C   UNL     1       4.174  -0.473  -5.606  1.00  0.00     0.021 A 
ATOM     26  C   UNL     1       5.456   1.526  -6.033  1.00  0.00     0.021 A 
ATOM     27  C   UNL     1       4.665   0.474  -6.494  1.00  0.00     0.041 A 
ATOM     28  Cl  UNL     1       4.308   0.332  -8.170  1.00  0.00    -0.084 Cl
ENDBRANCH  15  22
ENDBRANCH   5   7
ENDBRANCH   2   3
ENDBRANCH   1   2
BRANCH   1  29
ATOM     29  C   UNL     1       4.379  -3.929  -1.167  1.00  0.00     0.118 C 
BRANCH  29  30
ATOM     30  N   UNL     1       5.132  -3.267  -2.218  1.00  0.00    -0.352 N 
ATOM     31  C   UNL     1       5.844  -3.799  -3.274  1.00  0.00     0.251 C 
ATOM     32  H   UNL     1       5.134  -2.283  -2.169  1.00  0.00     0.163 HD
ATOM     33  O   UNL     1       6.409  -3.034  -4.053  1.00  0.00    -0.269 OA
BRANCH  31  34
ATOM     34  C   UNL     1       6.050  -5.265  -3.419  1.00  0.00     0.039 A 
ATOM     35  C   UNL     1       7.291  -5.704  -3.899  1.00  0.00     0.014 A 
ATOM     36  C   UNL     1       5.112  -6.210  -3.009  1.00  0.00     0.014 A 
ATOM     37  C   UNL     1       7.642  -7.053  -3.810  1.00  0.00     0.010 A 
ATOM     38  C   UNL     1       5.495  -7.534  -2.819  1.00  0.00     0.010 A 
ATOM     39  C   UNL     1       6.780  -7.959  -3.175  1.00  0.00    -0.014 A 
BRANCH  39  40
ATOM     40  C   UNL     1       7.241  -9.312  -2.772  1.00  0.00     0.031 A 
ATOM     41  C   UNL     1       6.535 -10.544  -3.257  1.00  0.00     0.074 A 
ATOM     42  C   UNL     1       8.226  -9.410  -1.855  1.00  0.00     0.049 A 
ATOM     43  N   UNL     1       6.735 -11.794  -2.926  1.00  0.00    -0.248 NA
ATOM     44  C   UNL     1       5.425 -10.345  -4.203  1.00  0.00     0.031 C 
ATOM     45  C   UNL     1       8.914  -8.278  -1.224  1.00  0.00     0.029 A 
ATOM     46  N   UNL     1       8.815 -10.508  -1.283  1.00  0.00    -0.354 N 
ATOM     47  C   UNL     1       5.761 -12.524  -3.594  1.00  0.00     0.074 A 
ATOM     48  C   UNL     1       4.939 -11.573  -4.312  1.00  0.00     0.031 C 
ATOM     49  C   UNL     1       9.856  -8.741  -0.389  1.00  0.00     0.029 A 
ATOM     50  C   UNL     1       9.818 -10.197  -0.395  1.00  0.00     0.049 A 
ATOM     51  H   UNL     1       8.545 -11.433  -1.488  1.00  0.00     0.167 HD
ATOM     52  C   UNL     1       5.582 -13.866  -3.623  1.00  0.00     0.037 A 
ATOM     53  C   UNL     1      10.622 -10.997   0.328  1.00  0.00     0.037 A 
ATOM     54  C   UNL     1       6.436 -14.806  -2.948  1.00  0.00     0.049 A 
ATOM     55  C   UNL     1      10.467 -12.484   0.200  1.00  0.00     0.074 A 
ATOM     56  C   UNL     1       6.396 -16.189  -2.979  1.00  0.00     0.029 A 
ATOM     57  N   UNL     1       7.497 -14.454  -2.126  1.00  0.00    -0.354 N 
ATOM     58  N   UNL     1       9.591 -13.163  -0.501  1.00  0.00    -0.248 NA
ATOM     59  C   UNL     1      11.415 -13.317   0.952  1.00  0.00     0.031 C 
ATOM     60  C   UNL     1       7.422 -16.674  -2.160  1.00  0.00     0.029 A 
ATOM     61  C   UNL     1       8.118 -15.593  -1.642  1.00  0.00     0.049 A 
ATOM     62  H   UNL     1       7.768 -13.531  -1.917  1.00  0.00     0.167 HD
ATOM     63  C   UNL     1       9.891 -14.500  -0.290  1.00  0.00     0.074 A 
ATOM     64  C   UNL     1      11.044 -14.537   0.588  1.00  0.00     0.031 C 
ATOM     65  C   UNL     1       9.266 -15.601  -0.773  1.00  0.00     0.037 A 
BRANCH  52  66
ATOM     66  C   UNL     1       4.429 -14.390  -4.428  1.00  0.00     0.057 A 
ATOM     67  C   UNL     1       4.429 -14.348  -5.829  1.00  0.00     0.134 A 
ATOM     68  C   UNL     1       3.312 -14.956  -3.800  1.00  0.00     0.134 A 
ATOM     69  F   UNL     1       5.463 -13.807  -6.492  1.00  0.00    -0.206 F 
ATOM     70  C   UNL     1       3.348 -14.820  -6.575  1.00  0.00     0.040 A 
ATOM     71  C   UNL     1       2.235 -15.454  -4.536  1.00  0.00     0.040 A 
ATOM     72  F   UNL     1       3.248 -15.032  -2.462  1.00  0.00    -0.206 F 
ATOM     73  C   UNL     1       2.248 -15.380  -5.928  1.00  0.00     0.006 A 
ENDBRANCH  52  66
BRANCH  53  74
ATOM     74  C   UNL     1      11.676 -10.409   1.192  1.00  0.00     0.057 A 
ATOM     75  C   UNL     1      13.026 -10.488   0.828  1.00  0.00     0.134 A 
ATOM     76  C   UNL     1      11.367  -9.751   2.387  1.00  0.00     0.134 A 
ATOM     77  F   UNL     1      13.384 -11.117  -0.300  1.00  0.00    -0.206 F 
ATOM     78  C   UNL     1      14.033  -9.951   1.631  1.00  0.00     0.040 A 
ATOM     79  C   UNL     1      12.362  -9.190   3.190  1.00  0.00     0.040 A 
ATOM     80  F   UNL     1      10.092  -9.630   2.784  1.00  0.00    -0.206 F 
ATOM     81  C   UNL     1      13.701  -9.296   2.816  1.00  0.00     0.006 A 
ENDBRANCH  53  74
BRANCH  65  82
ATOM     82  C   UNL     1       9.833 -16.928  -0.375  1.00  0.00     0.057 A 
ATOM     83  C   UNL     1       9.640 -17.452   0.909  1.00  0.00     0.134 A 
ATOM     84  C   UNL     1      10.555 -17.700  -1.292  1.00  0.00     0.134 A 
ATOM     85  F   UNL     1       8.969 -16.751   1.836  1.00  0.00    -0.206 F 
ATOM     86  C   UNL     1      10.162 -18.693   1.273  1.00  0.00     0.040 A 
ATOM     87  C   UNL     1      11.065 -18.951  -0.946  1.00  0.00     0.040 A 
ATOM     88  F   UNL     1      10.770 -17.253  -2.539  1.00  0.00    -0.206 F 
ATOM     89  C   UNL     1      10.873 -19.448   0.342  1.00  0.00     0.006 A 
ENDBRANCH  65  82
ENDBRANCH  39  40
ENDBRANCH  31  34
ENDBRANCH  29  30
ENDBRANCH   1  29
TORSDOF 12
