REMARK SMILES C[C@@H]1C[C@@H](C)CN(C(=O)CSc2csc(C(=O)NCCCNC(=O)c3ccc(-c4c5nc(c(-c6c(F)cccc6F)c6ccc([nH]6)c(-c6c(F)cccc6F)c6nc(c(-c7c(F)cccc7F)c7ccc4[nH]7)C=C6)C=C5)cc3)c2)C1
REMARK SMILES IDX 19 1 18 2 16 3 17 4 15 6 12 7 13 8 79 9 14 10 11 11 10 12
REMARK SMILES IDX 8 13 1 14 2 15 3 16 80 17 4 18 7 19 6 20 5 21 9 22 20 23
REMARK SMILES IDX 21 24 22 25 23 26 24 28 25 29 26 30 78 31 27 32 77 33 28 34
REMARK SMILES IDX 29 35 30 36 71 37 31 38 76 39 70 40 72 41 32 42 75 43 69 44
REMARK SMILES IDX 68 45 33 47 59 48 42 49 58 50 43 51 46 52 57 53 73 54 44 55
REMARK SMILES IDX 45 56 56 58 74 59 47 60 34 61 35 62 40 63 36 64 37 65 39 66
REMARK SMILES IDX 41 67 38 68 60 69 61 70 66 71 62 72 63 73 65 74 67 75 64 76
REMARK SMILES IDX 48 77 49 78 54 79 50 80 51 81 53 82 55 83 52 84
REMARK H PARENT 18 5 22 27 72 46 46 57
REMARK Flexibility Score: inf
ROOT
ATOM      1  C   UNL     1       6.326   1.186  -4.544  1.00  0.00     0.118 C 
ENDROOT
BRANCH   1   2
ATOM      2  N   UNL     1       6.247  -0.197  -4.116  1.00  0.00    -0.351 N 
ATOM      3  C   UNL     1       5.170  -0.987  -3.782  1.00  0.00     0.261 C 
ATOM      4  O   UNL     1       5.437  -2.166  -3.541  1.00  0.00    -0.268 OA
ATOM      5  H   UNL     1       7.118  -0.652  -4.053  1.00  0.00     0.163 HD
BRANCH   3   6
ATOM      6  C   UNL     1       3.817  -0.447  -3.767  1.00  0.00     0.093 A 
ATOM      7  C   UNL     1       1.933   0.942  -3.763  1.00  0.00     0.019 A 
ATOM      8  C   UNL     1       1.355  -0.285  -3.981  1.00  0.00     0.080 A 
ATOM      9  C   UNL     1       3.337   0.837  -3.577  1.00  0.00     0.040 A 
ATOM     10  S   UNL     1       2.508  -1.544  -3.992  1.00  0.00    -0.137 S 
BRANCH   7  11
ATOM     11  S   UNL     1       1.012   2.434  -3.785  1.00  0.00    -0.115 SA
BRANCH  11  12
ATOM     12  C   UNL     1       1.926   3.572  -2.709  1.00  0.00     0.175 C 
BRANCH  12  13
ATOM     13  C   UNL     1       2.169   3.026  -1.311  1.00  0.00     0.232 C 
ATOM     14  C   UNL     1       1.212  -0.129   0.262  1.00  0.00     0.009 C 
ATOM     15  C   UNL     1       0.541   1.003   1.045  1.00  0.00     0.006 C 
ATOM     16  C   UNL     1      -0.936   1.181   0.636  1.00  0.00     0.010 C 
ATOM     17  C   UNL     1       1.318   2.322   0.890  1.00  0.00     0.122 C 
ATOM     18  C   UNL     1      -1.093   1.871  -0.732  1.00  0.00     0.006 C 
ATOM     19  N   UNL     1       1.102   2.909  -0.431  1.00  0.00    -0.341 N 
ATOM     20  C   UNL     1      -0.300   3.184  -0.741  1.00  0.00     0.122 C 
ATOM     21  C   UNL     1      -2.559   2.119  -1.070  1.00  0.00     0.009 C 
ATOM     22  O   UNL     1       3.324   2.739  -0.977  1.00  0.00    -0.274 OA
ENDBRANCH  12  13
ENDBRANCH  11  12
ENDBRANCH   7  11
ENDBRANCH   3   6
ENDBRANCH   1   2
BRANCH   1  23
ATOM     23  C   UNL     1       6.715   2.110  -3.390  1.00  0.00     0.042 C 
BRANCH  23  24
ATOM     24  C   UNL     1       8.202   2.054  -3.047  1.00  0.00     0.118 C 
BRANCH  24  25
ATOM     25  N   UNL     1       9.024   2.622  -4.107  1.00  0.00    -0.352 N 
ATOM     26  C   UNL     1      10.000   3.582  -4.059  1.00  0.00     0.251 C 
ATOM     27  H   UNL     1       8.849   2.256  -5.004  1.00  0.00     0.163 HD
ATOM     28  O   UNL     1      10.417   4.060  -5.112  1.00  0.00    -0.269 OA
BRANCH  26  29
ATOM     29  C   UNL     1      10.558   4.053  -2.772  1.00  0.00     0.039 A 
ATOM     30  C   UNL     1      10.911   5.402  -2.658  1.00  0.00     0.014 A 
ATOM     31  C   UNL     1      10.817   3.176  -1.715  1.00  0.00     0.014 A 
ATOM     32  C   UNL     1      11.495   5.875  -1.481  1.00  0.00     0.010 A 
ATOM     33  C   UNL     1      11.343   3.660  -0.518  1.00  0.00     0.010 A 
ATOM     34  C   UNL     1      11.703   5.011  -0.396  1.00  0.00    -0.014 A 
BRANCH  34  35
ATOM     35  C   UNL     1      12.325   5.502   0.859  1.00  0.00     0.031 A 
ATOM     36  C   UNL     1      13.683   5.009   1.275  1.00  0.00     0.074 A 
ATOM     37  C   UNL     1      11.649   6.362   1.644  1.00  0.00     0.049 A 
ATOM     38  N   UNL     1      14.371   5.289   2.354  1.00  0.00    -0.248 NA
ATOM     39  C   UNL     1      14.348   4.058   0.370  1.00  0.00     0.031 C 
ATOM     40  C   UNL     1      10.309   6.882   1.371  1.00  0.00     0.029 A 
ATOM     41  N   UNL     1      11.998   6.947   2.835  1.00  0.00    -0.354 N 
ATOM     42  C   UNL     1      15.536   4.537   2.266  1.00  0.00     0.074 A 
ATOM     43  C   UNL     1      15.444   3.756   1.052  1.00  0.00     0.031 C 
ATOM     44  C   UNL     1       9.957   7.726   2.355  1.00  0.00     0.029 A 
ATOM     45  C   UNL     1      11.033   7.784   3.339  1.00  0.00     0.049 A 
ATOM     46  H   UNL     1      12.858   6.783   3.285  1.00  0.00     0.167 HD
ATOM     47  C   UNL     1      16.595   4.514   3.110  1.00  0.00     0.037 A 
ATOM     48  C   UNL     1      11.019   8.516   4.469  1.00  0.00     0.037 A 
ATOM     49  C   UNL     1      16.699   5.313   4.303  1.00  0.00     0.049 A 
ATOM     50  C   UNL     1      12.215   8.490   5.377  1.00  0.00     0.074 A 
ATOM     51  C   UNL     1      17.751   5.396   5.199  1.00  0.00     0.029 A 
ATOM     52  N   UNL     1      15.713   6.173   4.764  1.00  0.00    -0.354 N 
ATOM     53  N   UNL     1      13.332   7.815   5.255  1.00  0.00    -0.248 NA
ATOM     54  C   UNL     1      12.153   9.338   6.576  1.00  0.00     0.031 C 
ATOM     55  C   UNL     1      17.389   6.285   6.218  1.00  0.00     0.029 A 
ATOM     56  C   UNL     1      16.128   6.784   5.935  1.00  0.00     0.049 A 
ATOM     57  H   UNL     1      14.845   6.325   4.323  1.00  0.00     0.167 HD
ATOM     58  C   UNL     1      14.117   8.177   6.342  1.00  0.00     0.074 A 
ATOM     59  C   UNL     1      13.352   9.140   7.107  1.00  0.00     0.031 C 
ATOM     60  C   UNL     1      15.358   7.750   6.677  1.00  0.00     0.037 A 
BRANCH  47  61
ATOM     61  C   UNL     1      17.731   3.596   2.766  1.00  0.00     0.057 A 
ATOM     62  C   UNL     1      18.594   3.860   1.694  1.00  0.00     0.134 A 
ATOM     63  C   UNL     1      17.982   2.449   3.529  1.00  0.00     0.134 A 
ATOM     64  F   UNL     1      18.401   4.935   0.915  1.00  0.00    -0.206 F 
ATOM     65  C   UNL     1      19.648   3.002   1.376  1.00  0.00     0.040 A 
ATOM     66  C   UNL     1      19.049   1.597   3.237  1.00  0.00     0.040 A 
ATOM     67  F   UNL     1      17.199   2.140   4.573  1.00  0.00    -0.206 F 
ATOM     68  C   UNL     1      19.882   1.869   2.153  1.00  0.00     0.006 A 
ENDBRANCH  47  61
BRANCH  48  69
ATOM     69  C   UNL     1       9.845   9.366   4.786  1.00  0.00     0.057 A 
ATOM     70  C   UNL     1       9.921  10.760   4.692  1.00  0.00     0.134 A 
ATOM     71  C   UNL     1       8.626   8.810   5.190  1.00  0.00     0.134 A 
ATOM     72  F   UNL     1      11.068  11.350   4.327  1.00  0.00    -0.206 F 
ATOM     73  C   UNL     1       8.832  11.574   5.006  1.00  0.00     0.040 A 
ATOM     74  C   UNL     1       7.522   9.610   5.486  1.00  0.00     0.040 A 
ATOM     75  F   UNL     1       8.489   7.480   5.292  1.00  0.00    -0.206 F 
ATOM     76  C   UNL     1       7.626  10.998   5.401  1.00  0.00     0.006 A 
ENDBRANCH  48  69
BRANCH  60  77
ATOM     77  C   UNL     1      15.980   8.354   7.900  1.00  0.00     0.057 A 
ATOM     78  C   UNL     1      15.557   8.012   9.190  1.00  0.00     0.134 A 
ATOM     79  C   UNL     1      17.032   9.271   7.784  1.00  0.00     0.134 A 
ATOM     80  F   UNL     1      14.545   7.149   9.368  1.00  0.00    -0.206 F 
ATOM     81  C   UNL     1      16.142   8.581  10.322  1.00  0.00     0.040 A 
ATOM     82  C   UNL     1      17.640   9.829   8.908  1.00  0.00     0.040 A 
ATOM     83  F   UNL     1      17.488   9.635   6.576  1.00  0.00    -0.206 F 
ATOM     84  C   UNL     1      17.191   9.489  10.183  1.00  0.00     0.006 A 
ENDBRANCH  60  77
ENDBRANCH  34  35
ENDBRANCH  26  29
ENDBRANCH  24  25
ENDBRANCH  23  24
ENDBRANCH   1  23
TORSDOF 13
