REMARK SMILES CC(C)(CC(=O)NCCCNC(=O)c1ccc(-c2c3nc(c(-c4c(F)cccc4F)c4ccc([nH]4)c(-c4c(F)cccc4F)c4nc(c(-c5c(F)cccc5F)c5ccc2[nH]5)C=C4)C=C3)cc1)Cc1nc([C@@]2(C)CCCO2)no1
REMARK SMILES IDX 8 1 7 2 5 3 6 4 4 6 2 7 1 8 3 9 68 10 69 11 70 12 79 13
REMARK SMILES IDX 71 14 78 15 72 16 73 17 74 18 77 19 75 20 76 21 9 22 10 23
REMARK SMILES IDX 11 24 12 25 13 27 14 28 15 29 67 30 16 31 66 32 17 33 18 34
REMARK SMILES IDX 19 35 60 36 20 37 65 38 59 39 61 40 21 41 64 42 58 43 57 44
REMARK SMILES IDX 22 46 48 47 31 48 47 49 32 50 35 51 46 52 62 53 33 54 34 55
REMARK SMILES IDX 45 57 63 58 36 59 23 60 24 61 29 62 25 63 26 64 28 65 30 66
REMARK SMILES IDX 27 67 49 68 50 69 55 70 51 71 52 72 54 73 56 74 53 75 37 76
REMARK SMILES IDX 38 77 43 78 39 79 40 80 42 81 44 82 41 83
REMARK H PARENT 7 5 11 26 61 45 35 56
REMARK Flexibility Score: inf
ROOT
ATOM      1  C   UNL     1      -0.867   1.664   0.799  1.00  0.00     0.117 C 
ENDROOT
BRANCH   1   2
ATOM      2  N   UNL     1      -1.508   1.308  -0.453  1.00  0.00    -0.356 N 
ATOM      3  C   UNL     1      -1.642   0.118  -1.089  1.00  0.00     0.220 C 
ATOM      4  O   UNL     1      -2.396   0.075  -2.063  1.00  0.00    -0.275 OA
ATOM      5  H   UNL     1      -1.918   2.067  -0.927  1.00  0.00     0.163 HD
BRANCH   3   6
ATOM      6  C   UNL     1      -0.932  -1.132  -0.610  1.00  0.00     0.107 C 
BRANCH   6   7
ATOM      7  C   UNL     1       0.511  -1.440  -1.108  1.00  0.00    -0.018 C 
ATOM      8  C   UNL     1       1.579  -0.741  -0.250  1.00  0.00     0.012 C 
ATOM      9  C   UNL     1       0.727  -2.961  -0.855  1.00  0.00     0.012 C 
BRANCH   7  10
ATOM     10  C   UNL     1       0.764  -1.209  -2.627  1.00  0.00     0.107 C 
BRANCH  10  11
ATOM     11  C   UNL     1       0.528   0.152  -3.183  1.00  0.00     0.227 A 
ATOM     12  N   UNL     1      -0.260   0.500  -4.171  1.00  0.00    -0.193 NA
ATOM     13  O   UNL     1       1.226   1.202  -2.664  1.00  0.00    -0.339 OA
ATOM     14  C   UNL     1      -0.095   1.865  -4.228  1.00  0.00     0.203 A 
ATOM     15  N   UNL     1       0.792   2.346  -3.339  1.00  0.00    -0.059 NA
BRANCH  14  16
ATOM     16  C   UNL     1      -0.869   2.742  -5.185  1.00  0.00     0.128 C 
ATOM     17  C   UNL     1      -1.785   1.901  -6.093  1.00  0.00     0.051 C 
ATOM     18  C   UNL     1      -1.686   3.817  -4.450  1.00  0.00     0.046 C 
ATOM     19  O   UNL     1       0.013   3.476  -6.081  1.00  0.00    -0.367 OA
ATOM     20  C   UNL     1      -1.726   4.954  -5.443  1.00  0.00     0.032 C 
ATOM     21  C   UNL     1      -0.362   4.858  -6.087  1.00  0.00     0.161 C 
ENDBRANCH  14  16
ENDBRANCH  10  11
ENDBRANCH   7  10
ENDBRANCH   6   7
ENDBRANCH   3   6
ENDBRANCH   1   2
BRANCH   1  22
ATOM     22  C   UNL     1       0.341   2.576   0.612  1.00  0.00     0.042 C 
BRANCH  22  23
ATOM     23  C   UNL     1       0.055   3.879  -0.121  1.00  0.00     0.118 C 
BRANCH  23  24
ATOM     24  N   UNL     1      -0.469   4.905   0.764  1.00  0.00    -0.352 N 
ATOM     25  C   UNL     1       0.144   6.023   1.270  1.00  0.00     0.251 C 
ATOM     26  H   UNL     1      -1.404   4.779   1.044  1.00  0.00     0.163 HD
ATOM     27  O   UNL     1      -0.404   6.649   2.181  1.00  0.00    -0.269 OA
BRANCH  25  28
ATOM     28  C   UNL     1       1.456   6.487   0.758  1.00  0.00     0.039 A 
ATOM     29  C   UNL     1       2.389   6.997   1.667  1.00  0.00     0.014 A 
ATOM     30  C   UNL     1       1.755   6.489  -0.607  1.00  0.00     0.014 A 
ATOM     31  C   UNL     1       3.628   7.465   1.216  1.00  0.00     0.010 A 
ATOM     32  C   UNL     1       3.019   6.880  -1.049  1.00  0.00     0.010 A 
ATOM     33  C   UNL     1       3.963   7.392  -0.145  1.00  0.00    -0.014 A 
BRANCH  33  34
ATOM     34  C   UNL     1       5.267   7.898  -0.650  1.00  0.00     0.031 A 
ATOM     35  C   UNL     1       5.303   9.075  -1.590  1.00  0.00     0.074 A 
ATOM     36  C   UNL     1       6.415   7.286  -0.299  1.00  0.00     0.049 A 
ATOM     37  N   UNL     1       6.325   9.614  -2.206  1.00  0.00    -0.248 NA
ATOM     38  C   UNL     1       4.014   9.718  -1.894  1.00  0.00     0.031 C 
ATOM     39  C   UNL     1       6.522   6.125   0.585  1.00  0.00     0.029 A 
ATOM     40  N   UNL     1       7.715   7.555  -0.653  1.00  0.00    -0.354 N 
ATOM     41  C   UNL     1       5.803  10.646  -2.976  1.00  0.00     0.074 A 
ATOM     42  C   UNL     1       4.368  10.626  -2.792  1.00  0.00     0.031 C 
ATOM     43  C   UNL     1       7.817   5.795   0.723  1.00  0.00     0.029 A 
ATOM     44  C   UNL     1       8.628   6.696  -0.092  1.00  0.00     0.049 A 
ATOM     45  H   UNL     1       7.968   8.294  -1.252  1.00  0.00     0.167 HD
ATOM     46  C   UNL     1       6.457  11.546  -3.748  1.00  0.00     0.037 A 
ATOM     47  C   UNL     1       9.967   6.636  -0.226  1.00  0.00     0.037 A 
ATOM     48  C   UNL     1       7.885  11.588  -3.913  1.00  0.00     0.049 A 
ATOM     49  C   UNL     1      10.667   7.635  -1.106  1.00  0.00     0.074 A 
ATOM     50  C   UNL     1       8.642  12.477  -4.657  1.00  0.00     0.029 A 
ATOM     51  N   UNL     1       8.773  10.708  -3.317  1.00  0.00    -0.354 N 
ATOM     52  N   UNL     1      10.161   8.623  -1.802  1.00  0.00    -0.248 NA
ATOM     53  C   UNL     1      12.129   7.511  -1.216  1.00  0.00     0.031 C 
ATOM     54  C   UNL     1       9.988  12.120  -4.529  1.00  0.00     0.029 A 
ATOM     55  C   UNL     1      10.071  11.030  -3.678  1.00  0.00     0.049 A 
ATOM     56  H   UNL     1       8.520   9.963  -2.724  1.00  0.00     0.167 HD
ATOM     57  C   UNL     1      11.241   9.257  -2.403  1.00  0.00     0.074 A 
ATOM     58  C   UNL     1      12.431   8.549  -1.984  1.00  0.00     0.031 C 
ATOM     59  C   UNL     1      11.246  10.331  -3.230  1.00  0.00     0.037 A 
BRANCH  46  60
ATOM     60  C   UNL     1       5.630  12.574  -4.461  1.00  0.00     0.057 A 
ATOM     61  C   UNL     1       5.021  13.631  -3.772  1.00  0.00     0.134 A 
ATOM     62  C   UNL     1       5.473  12.534  -5.852  1.00  0.00     0.134 A 
ATOM     63  F   UNL     1       5.124  13.720  -2.437  1.00  0.00    -0.206 F 
ATOM     64  C   UNL     1       4.268  14.599  -4.437  1.00  0.00     0.040 A 
ATOM     65  C   UNL     1       4.742  13.510  -6.532  1.00  0.00     0.040 A 
ATOM     66  F   UNL     1       6.034  11.552  -6.573  1.00  0.00    -0.206 F 
ATOM     67  C   UNL     1       4.133  14.544  -5.823  1.00  0.00     0.006 A 
ENDBRANCH  46  60
BRANCH  47  68
ATOM     68  C   UNL     1      10.749   5.606   0.504  1.00  0.00     0.057 A 
ATOM     69  C   UNL     1      11.596   5.962   1.561  1.00  0.00     0.134 A 
ATOM     70  C   UNL     1      10.698   4.255   0.144  1.00  0.00     0.134 A 
ATOM     71  F   UNL     1      11.703   7.245   1.937  1.00  0.00    -0.206 F 
ATOM     72  C   UNL     1      12.384   5.015   2.217  1.00  0.00     0.040 A 
ATOM     73  C   UNL     1      11.463   3.294   0.807  1.00  0.00     0.040 A 
ATOM     74  F   UNL     1       9.904   3.850  -0.858  1.00  0.00    -0.206 F 
ATOM     75  C   UNL     1      12.316   3.675   1.841  1.00  0.00     0.006 A 
ENDBRANCH  47  68
BRANCH  59  76
ATOM     76  C   UNL     1      12.579  10.836  -3.691  1.00  0.00     0.057 A 
ATOM     77  C   UNL     1      13.331  10.162  -4.661  1.00  0.00     0.134 A 
ATOM     78  C   UNL     1      13.098  12.035  -3.186  1.00  0.00     0.134 A 
ATOM     79  F   UNL     1      12.894   9.002  -5.174  1.00  0.00    -0.206 F 
ATOM     80  C   UNL     1      14.562  10.653  -5.099  1.00  0.00     0.040 A 
ATOM     81  C   UNL     1      14.316  12.547  -3.631  1.00  0.00     0.040 A 
ATOM     82  F   UNL     1      12.423  12.733  -2.259  1.00  0.00    -0.206 F 
ATOM     83  C   UNL     1      15.054  11.853  -4.588  1.00  0.00     0.006 A 
ENDBRANCH  59  76
ENDBRANCH  33  34
ENDBRANCH  25  28
ENDBRANCH  23  24
ENDBRANCH  22  23
ENDBRANCH   1  22
TORSDOF 14
