REMARK SMILES CS(=O)(=O)c1ccc(C(=O)N2C[C@@H](C(=O)NCCCNC(=O)c3ccc(-c4c5nc(c(-c6c(F)cccc6F)c6ccc([nH]6)c(-c6c(F)cccc6F)c6nc(c(-c7c(F)cccc7F)c7ccc4[nH]7)C=C6)C=C5)cc3)[C@H](c3ccncc3)C2)cc1
REMARK SMILES IDX 17 1 16 2 14 3 15 4 13 6 11 7 12 8 84 9 77 10 9 11 10 12
REMARK SMILES IDX 8 13 5 14 6 15 86 16 7 17 85 18 2 19 1 20 3 21 4 22 78 23
REMARK SMILES IDX 79 24 83 25 80 26 82 27 81 28 18 29 19 30 20 31 21 32 22 34
REMARK SMILES IDX 23 35 24 36 76 37 25 38 75 39 26 40 27 41 28 42 69 43 29 44
REMARK SMILES IDX 74 45 68 46 70 47 30 48 73 49 67 50 66 51 31 53 57 54 40 55
REMARK SMILES IDX 56 56 41 57 44 58 55 59 71 60 42 61 43 62 54 64 72 65 45 66
REMARK SMILES IDX 32 67 33 68 38 69 34 70 35 71 37 72 39 73 36 74 58 75 59 76
REMARK SMILES IDX 64 77 60 78 61 79 63 80 65 81 62 82 46 83 47 84 52 85 48 86
REMARK SMILES IDX 49 87 51 88 53 89 50 90
REMARK H PARENT 16 5 20 33 70 52 44 63
REMARK Flexibility Score: inf
ROOT
ATOM      1  C   UNL     1       1.062   9.566   3.628  1.00  0.00     0.117 C 
ENDROOT
BRANCH   1   2
ATOM      2  N   UNL     1       0.421   9.386   4.920  1.00  0.00    -0.356 N 
ATOM      3  C   UNL     1       0.631   8.438   5.878  1.00  0.00     0.225 C 
ATOM      4  O   UNL     1       0.028   8.545   6.945  1.00  0.00    -0.275 OA
ATOM      5  H   UNL     1      -0.272  10.050   5.138  1.00  0.00     0.163 HD
BRANCH   3   6
ATOM      6  C   UNL     1       1.583   7.294   5.609  1.00  0.00     0.107 C 
ATOM      7  N   UNL     1       2.007   5.085   6.134  1.00  0.00    -0.337 N 
ATOM      8  C   UNL     1       0.886   5.975   5.921  1.00  0.00     0.134 C 
ATOM      9  C   UNL     1       3.026   5.783   6.896  1.00  0.00     0.129 C 
ATOM     10  C   UNL     1       2.824   7.287   6.559  1.00  0.00     0.053 C 
BRANCH   7  11
ATOM     11  C   UNL     1       2.184   3.772   5.749  1.00  0.00     0.253 C 
ATOM     12  O   UNL     1       2.941   3.014   6.356  1.00  0.00    -0.269 OA
BRANCH  11  13
ATOM     13  C   UNL     1       1.571   3.277   4.481  1.00  0.00     0.040 A 
ATOM     14  C   UNL     1       0.757   2.247   2.002  1.00  0.00     0.067 A 
ATOM     15  C   UNL     1       0.991   1.375   3.067  1.00  0.00     0.021 A 
ATOM     16  C   UNL     1       0.928   3.623   2.164  1.00  0.00     0.021 A 
ATOM     17  C   UNL     1       1.396   1.895   4.305  1.00  0.00     0.015 A 
ATOM     18  C   UNL     1       1.356   4.130   3.391  1.00  0.00     0.015 A 
BRANCH  14  19
ATOM     19  S   UNL     1       0.301   1.660   0.386  1.00  0.00     0.175 S 
ATOM     20  C   UNL     1       1.039   0.064   0.188  1.00  0.00     0.163 C 
ATOM     21  O   UNL     1       0.956   2.542  -0.569  1.00  0.00    -0.224 OA
ATOM     22  O   UNL     1      -1.136   1.505   0.402  1.00  0.00    -0.224 OA
ENDBRANCH  14  19
ENDBRANCH  11  13
ENDBRANCH   7  11
BRANCH  10  23
ATOM     23  C   UNL     1       3.998   8.047   5.949  1.00  0.00    -0.039 A 
ATOM     24  C   UNL     1       3.887   9.436   5.775  1.00  0.00     0.024 A 
ATOM     25  C   UNL     1       5.199   7.456   5.544  1.00  0.00     0.024 A 
ATOM     26  C   UNL     1       4.921  10.141   5.173  1.00  0.00     0.111 A 
ATOM     27  C   UNL     1       6.191   8.249   4.976  1.00  0.00     0.111 A 
ATOM     28  N   UNL     1       6.071   9.574   4.765  1.00  0.00    -0.265 NA
ENDBRANCH  10  23
ENDBRANCH   3   6
ENDBRANCH   1   2
BRANCH   1  29
ATOM     29  C   UNL     1       0.349   8.845   2.492  1.00  0.00     0.042 C 
BRANCH  29  30
ATOM     30  C   UNL     1      -1.085   9.305   2.250  1.00  0.00     0.118 C 
BRANCH  30  31
ATOM     31  N   UNL     1      -1.185  10.703   1.856  1.00  0.00    -0.352 N 
ATOM     32  C   UNL     1      -1.723  11.280   0.731  1.00  0.00     0.251 C 
ATOM     33  H   UNL     1      -0.804  11.341   2.502  1.00  0.00     0.163 HD
ATOM     34  O   UNL     1      -1.581  12.486   0.546  1.00  0.00    -0.269 OA
BRANCH  32  35
ATOM     35  C   UNL     1      -2.446  10.466  -0.272  1.00  0.00     0.039 A 
ATOM     36  C   UNL     1      -2.231  10.725  -1.630  1.00  0.00     0.014 A 
ATOM     37  C   UNL     1      -3.349   9.471   0.109  1.00  0.00     0.014 A 
ATOM     38  C   UNL     1      -2.859   9.938  -2.599  1.00  0.00     0.010 A 
ATOM     39  C   UNL     1      -3.909   8.635  -0.854  1.00  0.00     0.010 A 
ATOM     40  C   UNL     1      -3.672   8.858  -2.219  1.00  0.00    -0.014 A 
BRANCH  40  41
ATOM     41  C   UNL     1      -4.288   7.954  -3.226  1.00  0.00     0.031 A 
ATOM     42  C   UNL     1      -5.786   7.849  -3.330  1.00  0.00     0.074 A 
ATOM     43  C   UNL     1      -3.505   7.171  -3.994  1.00  0.00     0.049 A 
ATOM     44  N   UNL     1      -6.511   7.038  -4.059  1.00  0.00    -0.248 NA
ATOM     45  C   UNL     1      -6.574   8.758  -2.482  1.00  0.00     0.031 C 
ATOM     46  C   UNL     1      -2.041   7.147  -3.968  1.00  0.00     0.029 A 
ATOM     47  N   UNL     1      -3.833   6.226  -4.936  1.00  0.00    -0.354 N 
ATOM     48  C   UNL     1      -7.833   7.323  -3.742  1.00  0.00     0.074 A 
ATOM     49  C   UNL     1      -7.812   8.350  -2.723  1.00  0.00     0.031 C 
ATOM     50  C   UNL     1      -1.598   6.245  -4.859  1.00  0.00     0.029 A 
ATOM     51  C   UNL     1      -2.743   5.594  -5.487  1.00  0.00     0.049 A 
ATOM     52  H   UNL     1      -4.761   6.020  -5.192  1.00  0.00     0.167 HD
ATOM     53  C   UNL     1      -8.963   6.793  -4.266  1.00  0.00     0.037 A 
ATOM     54  C   UNL     1      -2.674   4.590  -6.383  1.00  0.00     0.037 A 
ATOM     55  C   UNL     1      -8.985   5.793  -5.301  1.00  0.00     0.049 A 
ATOM     56  C   UNL     1      -3.947   4.007  -6.936  1.00  0.00     0.074 A 
ATOM     57  C   UNL     1     -10.081   5.237  -5.938  1.00  0.00     0.029 A 
ATOM     58  N   UNL     1      -7.859   5.198  -5.850  1.00  0.00    -0.354 N 
ATOM     59  N   UNL     1      -5.189   4.333  -6.674  1.00  0.00    -0.248 NA
ATOM     60  C   UNL     1      -3.807   2.918  -7.914  1.00  0.00     0.031 C 
ATOM     61  C   UNL     1      -9.621   4.271  -6.838  1.00  0.00     0.029 A 
ATOM     62  C   UNL     1      -8.236   4.267  -6.804  1.00  0.00     0.049 A 
ATOM     63  H   UNL     1      -6.930   5.407  -5.599  1.00  0.00     0.167 HD
ATOM     64  C   UNL     1      -5.974   3.521  -7.483  1.00  0.00     0.074 A 
ATOM     65  C   UNL     1      -5.069   2.693  -8.251  1.00  0.00     0.031 C 
ATOM     66  C   UNL     1      -7.324   3.469  -7.582  1.00  0.00     0.037 A 
BRANCH  53  67
ATOM     67  C   UNL     1     -10.279   7.284  -3.735  1.00  0.00     0.057 A 
ATOM     68  C   UNL     1     -10.753   8.573  -4.011  1.00  0.00     0.134 A 
ATOM     69  C   UNL     1     -11.110   6.437  -2.990  1.00  0.00     0.134 A 
ATOM     70  F   UNL     1     -10.003   9.438  -4.711  1.00  0.00    -0.206 F 
ATOM     71  C   UNL     1     -11.996   9.009  -3.550  1.00  0.00     0.040 A 
ATOM     72  C   UNL     1     -12.367   6.852  -2.547  1.00  0.00     0.040 A 
ATOM     73  F   UNL     1     -10.722   5.187  -2.696  1.00  0.00    -0.206 F 
ATOM     74  C   UNL     1     -12.811   8.143  -2.823  1.00  0.00     0.006 A 
ENDBRANCH  53  67
BRANCH  54  75
ATOM     75  C   UNL     1      -1.355   4.066  -6.824  1.00  0.00     0.057 A 
ATOM     76  C   UNL     1      -0.908   4.248  -8.139  1.00  0.00     0.134 A 
ATOM     77  C   UNL     1      -0.528   3.341  -5.959  1.00  0.00     0.134 A 
ATOM     78  F   UNL     1      -1.665   4.916  -9.022  1.00  0.00    -0.206 F 
ATOM     79  C   UNL     1       0.297   3.703  -8.586  1.00  0.00     0.040 A 
ATOM     80  C   UNL     1       0.695   2.817  -6.383  1.00  0.00     0.040 A 
ATOM     81  F   UNL     1      -0.895   3.133  -4.687  1.00  0.00    -0.206 F 
ATOM     82  C   UNL     1       1.104   2.987  -7.704  1.00  0.00     0.006 A 
ENDBRANCH  54  75
BRANCH  66  83
ATOM     83  C   UNL     1      -7.910   2.534  -8.600  1.00  0.00     0.057 A 
ATOM     84  C   UNL     1      -7.894   1.144  -8.432  1.00  0.00     0.134 A 
ATOM     85  C   UNL     1      -8.546   3.040  -9.741  1.00  0.00     0.134 A 
ATOM     86  F   UNL     1      -7.291   0.594  -7.367  1.00  0.00    -0.206 F 
ATOM     87  C   UNL     1      -8.472   0.290  -9.373  1.00  0.00     0.040 A 
ATOM     88  C   UNL     1      -9.152   2.198 -10.674  1.00  0.00     0.040 A 
ATOM     89  F   UNL     1      -8.605   4.363  -9.958  1.00  0.00    -0.206 F 
ATOM     90  C   UNL     1      -9.111   0.818 -10.493  1.00  0.00     0.006 A 
ENDBRANCH  66  83
ENDBRANCH  40  41
ENDBRANCH  32  35
ENDBRANCH  30  31
ENDBRANCH  29  30
ENDBRANCH   1  29
TORSDOF 14
