REMARK SMILES O=C(CCN1C(=O)[C@@H]2[C@@H](C1=O)[C@H]1c3ccccc3[C@]2(Br)c2ccccc21)NCCCNC(=O)c1ccc(-c2c3nc(c(-c4c(F)cccc4F)c4ccc([nH]4)c(-c4c(F)cccc4F)c4nc(c(-c5c(F)cccc5F)c5ccc2[nH]5)C=C4)C=C3)cc1
REMARK SMILES IDX 29 1 28 2 27 3 1 4 2 5 3 7 4 8 5 9 6 10 10 11 7 12 8 13 9 14
REMARK SMILES IDX 11 15 19 16 12 17 21 18 20 19 18 20 26 21 13 22 22 23 17 24
REMARK SMILES IDX 25 25 14 26 23 27 16 28 24 29 15 30 30 31 31 32 32 33 33 35
REMARK SMILES IDX 34 36 35 37 87 38 36 39 86 40 37 41 38 42 39 43 80 44 40 45
REMARK SMILES IDX 85 46 79 47 81 48 41 49 84 50 78 51 77 52 42 54 68 55 51 56
REMARK SMILES IDX 67 57 52 58 55 59 66 60 82 61 53 62 54 63 65 65 83 66 56 67
REMARK SMILES IDX 43 68 44 69 49 70 45 71 46 72 48 73 50 74 47 75 69 76 70 77
REMARK SMILES IDX 75 78 71 79 72 80 74 81 76 82 73 83 57 84 58 85 63 86 59 87
REMARK SMILES IDX 60 88 62 89 64 90 61 91
REMARK H PARENT 27 6 31 34 81 53 55 64
REMARK Flexibility Score: inf
ROOT
ATOM      1  C   UNL     1       1.368   2.087   2.869  1.00  0.00     0.042 C 
ENDROOT
BRANCH   1   2
ATOM      2  C   UNL     1       1.579   1.988   1.356  1.00  0.00     0.117 C 
BRANCH   2   3
ATOM      3  N   UNL     1       2.301   0.806   0.906  1.00  0.00    -0.356 N 
ATOM      4  O   UNL     1       1.071   0.584  -1.019  1.00  0.00    -0.275 OA
ATOM      5  C   UNL     1       1.999   0.213  -0.304  1.00  0.00     0.221 C 
ATOM      6  H   UNL     1       3.013   0.426   1.470  1.00  0.00     0.163 HD
BRANCH   5   7
ATOM      7  C   UNL     1       2.904  -0.925  -0.736  1.00  0.00     0.122 C 
BRANCH   7   8
ATOM      8  C   UNL     1       3.944  -0.471  -1.767  1.00  0.00     0.138 C 
BRANCH   8   9
ATOM      9  N   UNL     1       5.068   0.327  -1.282  1.00  0.00    -0.281 N 
ATOM     10  C   UNL     1       5.400   0.539   0.049  1.00  0.00     0.235 C 
ATOM     11  C   UNL     1       5.910   1.065  -2.130  1.00  0.00     0.234 C 
ATOM     12  O   UNL     1       5.035  -0.071   1.045  1.00  0.00    -0.274 OA
ATOM     13  C   UNL     1       6.106   1.841  -0.004  1.00  0.00     0.118 C 
ATOM     14  C   UNL     1       6.994   1.596  -1.226  1.00  0.00     0.105 C 
ATOM     15  O   UNL     1       5.851   1.181  -3.338  1.00  0.00    -0.274 OA
ATOM     16  C   UNL     1       6.848   2.686   1.022  1.00  0.00     0.088 C 
ATOM     17  C   UNL     1       7.929   2.815  -1.395  1.00  0.00     0.063 C 
ATOM     18  C   UNL     1       6.648   4.073   0.345  1.00  0.00    -0.022 A 
ATOM     19  Br  UNL     1       6.071   2.479   2.733  1.00  0.00    -0.074 Br
ATOM     20  C   UNL     1       8.361   2.454   1.037  1.00  0.00    -0.022 A 
ATOM     21  C   UNL     1       7.196   4.104  -0.985  1.00  0.00    -0.035 A 
ATOM     22  C   UNL     1       8.957   2.578  -0.254  1.00  0.00    -0.035 A 
ATOM     23  C   UNL     1       5.910   5.153   0.812  1.00  0.00     0.006 A 
ATOM     24  C   UNL     1       9.172   2.329   2.168  1.00  0.00     0.006 A 
ATOM     25  C   UNL     1       7.044   5.226  -1.787  1.00  0.00     0.005 A 
ATOM     26  C   UNL     1      10.340   2.569  -0.389  1.00  0.00     0.005 A 
ATOM     27  C   UNL     1       5.735   6.263  -0.015  1.00  0.00     0.000 A 
ATOM     28  C   UNL     1      10.556   2.322   2.025  1.00  0.00     0.000 A 
ATOM     29  C   UNL     1       6.307   6.305  -1.294  1.00  0.00     0.000 A 
ATOM     30  C   UNL     1      11.134   2.441   0.757  1.00  0.00     0.000 A 
ENDBRANCH   8   9
ENDBRANCH   7   8
ENDBRANCH   5   7
ENDBRANCH   2   3
ENDBRANCH   1   2
BRANCH   1  31
ATOM     31  C   UNL     1       2.592   2.528   3.664  1.00  0.00     0.118 C 
BRANCH  31  32
ATOM     32  N   UNL     1       3.022   3.886   3.361  1.00  0.00    -0.352 N 
ATOM     33  C   UNL     1       3.814   4.776   4.049  1.00  0.00     0.251 C 
ATOM     34  H   UNL     1       2.684   4.232   2.503  1.00  0.00     0.163 HD
ATOM     35  O   UNL     1       3.930   5.910   3.582  1.00  0.00    -0.269 OA
BRANCH  33  36
ATOM     36  C   UNL     1       4.518   4.448   5.319  1.00  0.00     0.039 A 
ATOM     37  C   UNL     1       4.829   3.147   5.723  1.00  0.00     0.014 A 
ATOM     38  C   UNL     1       4.906   5.519   6.143  1.00  0.00     0.014 A 
ATOM     39  C   UNL     1       5.405   2.900   6.958  1.00  0.00     0.010 A 
ATOM     40  C   UNL     1       5.471   5.281   7.398  1.00  0.00     0.010 A 
ATOM     41  C   UNL     1       5.650   3.961   7.827  1.00  0.00    -0.014 A 
BRANCH  41  42
ATOM     42  C   UNL     1       5.776   3.624   9.256  1.00  0.00     0.031 A 
ATOM     43  C   UNL     1       4.525   3.698  10.088  1.00  0.00     0.074 A 
ATOM     44  C   UNL     1       6.913   3.095   9.730  1.00  0.00     0.049 A 
ATOM     45  N   UNL     1       4.341   3.391  11.344  1.00  0.00    -0.248 NA
ATOM     46  C   UNL     1       3.307   4.167   9.401  1.00  0.00     0.031 C 
ATOM     47  C   UNL     1       8.134   2.883   8.951  1.00  0.00     0.029 A 
ATOM     48  N   UNL     1       7.212   2.604  10.971  1.00  0.00    -0.354 N 
ATOM     49  C   UNL     1       2.997   3.641  11.595  1.00  0.00     0.074 A 
ATOM     50  C   UNL     1       2.415   4.150  10.376  1.00  0.00     0.031 C 
ATOM     51  C   UNL     1       9.050   2.288   9.734  1.00  0.00     0.029 A 
ATOM     52  C   UNL     1       8.492   2.120  11.073  1.00  0.00     0.049 A 
ATOM     53  H   UNL     1       6.572   2.599  11.718  1.00  0.00     0.167 HD
ATOM     54  C   UNL     1       2.309   3.454  12.744  1.00  0.00     0.037 A 
ATOM     55  C   UNL     1       9.132   1.618  12.144  1.00  0.00     0.037 A 
ATOM     56  C   UNL     1       2.914   2.947  13.945  1.00  0.00     0.049 A 
ATOM     57  C   UNL     1       8.375   1.523  13.442  1.00  0.00     0.074 A 
ATOM     58  C   UNL     1       2.344   2.750  15.188  1.00  0.00     0.029 A 
ATOM     59  N   UNL     1       4.245   2.560  14.043  1.00  0.00    -0.354 N 
ATOM     60  N   UNL     1       7.115   1.801  13.689  1.00  0.00    -0.248 NA
ATOM     61  C   UNL     1       9.128   1.055  14.611  1.00  0.00     0.031 C 
ATOM     62  C   UNL     1       3.345   2.289  16.051  1.00  0.00     0.029 A 
ATOM     63  C   UNL     1       4.523   2.146  15.332  1.00  0.00     0.049 A 
ATOM     64  H   UNL     1       4.894   2.578  13.303  1.00  0.00     0.167 HD
ATOM     65  C   UNL     1       6.920   1.526  15.035  1.00  0.00     0.074 A 
ATOM     66  C   UNL     1       8.187   1.035  15.543  1.00  0.00     0.031 C 
ATOM     67  C   UNL     1       5.803   1.668  15.792  1.00  0.00     0.037 A 
BRANCH  54  68
ATOM     68  C   UNL     1       0.863   3.857  12.752  1.00  0.00     0.057 A 
ATOM     69  C   UNL     1       0.448   4.993  13.458  1.00  0.00     0.134 A 
ATOM     70  C   UNL     1      -0.115   3.152  12.036  1.00  0.00     0.134 A 
ATOM     71  F   UNL     1       1.332   5.719  14.159  1.00  0.00    -0.206 F 
ATOM     72  C   UNL     1      -0.882   5.415  13.451  1.00  0.00     0.040 A 
ATOM     73  C   UNL     1      -1.445   3.580  11.998  1.00  0.00     0.040 A 
ATOM     74  F   UNL     1       0.217   2.072  11.312  1.00  0.00    -0.206 F 
ATOM     75  C   UNL     1      -1.832   4.713  12.711  1.00  0.00     0.006 A 
ENDBRANCH  54  68
BRANCH  55  76
ATOM     76  C   UNL     1      10.557   1.211  12.048  1.00  0.00     0.057 A 
ATOM     77  C   UNL     1      11.566   2.153  11.806  1.00  0.00     0.134 A 
ATOM     78  C   UNL     1      10.953  -0.120  12.220  1.00  0.00     0.134 A 
ATOM     79  F   UNL     1      11.258   3.447  11.632  1.00  0.00    -0.206 F 
ATOM     80  C   UNL     1      12.911   1.787  11.730  1.00  0.00     0.040 A 
ATOM     81  C   UNL     1      12.297  -0.497  12.175  1.00  0.00     0.040 A 
ATOM     82  F   UNL     1      10.039  -1.069  12.473  1.00  0.00    -0.206 F 
ATOM     83  C   UNL     1      13.280   0.459  11.924  1.00  0.00     0.006 A 
ENDBRANCH  55  76
BRANCH  67  84
ATOM     84  C   UNL     1       5.912   1.260  17.231  1.00  0.00     0.057 A 
ATOM     85  C   UNL     1       5.265   0.108  17.693  1.00  0.00     0.134 A 
ATOM     86  C   UNL     1       6.639   2.016  18.159  1.00  0.00     0.134 A 
ATOM     87  F   UNL     1       4.543  -0.652  16.856  1.00  0.00    -0.206 F 
ATOM     88  C   UNL     1       5.341  -0.281  19.030  1.00  0.00     0.040 A 
ATOM     89  C   UNL     1       6.748   1.620  19.492  1.00  0.00     0.040 A 
ATOM     90  F   UNL     1       7.291   3.124  17.773  1.00  0.00    -0.206 F 
ATOM     91  C   UNL     1       6.093   0.470  19.931  1.00  0.00     0.006 A 
ENDBRANCH  67  84
ENDBRANCH  41  42
ENDBRANCH  33  36
ENDBRANCH  31  32
ENDBRANCH   1  31
TORSDOF 12
