REMARK SMILES COCC[C@@H](C)NC(=O)N1Cc2nc[nH]c2C[C@@H]1C(=O)NCCCNC(=O)c1ccc(-c2c3nc(c(-c4c(F)cccc4F)c4ccc([nH]4)c(-c4c(F)cccc4F)c4nc(c(-c5c(F)cccc5F)c5ccc2[nH]5)C=C4)C=C3)cc1
REMARK SMILES IDX 19 1 20 2 21 3 18 5 10 6 11 7 12 8 17 9 13 10 16 11 14 12
REMARK SMILES IDX 15 13 8 15 7 16 9 18 5 19 6 20 4 21 3 22 2 23 1 24 22 25
REMARK SMILES IDX 23 26 24 27 25 28 26 29 27 31 28 32 29 33 81 34 30 35 80 36
REMARK SMILES IDX 31 37 32 38 33 39 74 40 34 41 79 42 73 43 75 44 35 45 78 46
REMARK SMILES IDX 72 47 71 48 36 50 62 51 45 52 61 53 46 54 49 55 60 56 76 57
REMARK SMILES IDX 47 58 48 59 59 61 77 62 50 63 37 64 38 65 43 66 39 67 40 68
REMARK SMILES IDX 42 69 44 70 41 71 63 72 64 73 69 74 65 75 66 76 68 77 70 78
REMARK SMILES IDX 67 79 51 80 52 81 57 82 53 83 54 84 56 85 58 86 55 87
REMARK H PARENT 21 4 15 14 7 17 25 30 75 49 49 60
REMARK Flexibility Score: inf
ROOT
ATOM      1  C   UNL     1       2.031  -2.336   1.135  1.00  0.00     0.243 C 
ATOM      2  O   UNL     1       2.772  -2.597   2.087  1.00  0.00    -0.273 OA
ATOM      3  N   UNL     1       2.560  -1.555   0.144  1.00  0.00    -0.354 N 
ATOM      4  H   UNL     1       3.472  -1.236   0.331  1.00  0.00     0.163 HD
ENDROOT
BRANCH   1   5
ATOM      5  C   UNL     1       0.589  -2.873   1.058  1.00  0.00     0.182 C 
ATOM      6  N   UNL     1      -0.441  -2.419   2.061  1.00  0.00    -0.306 N 
ATOM      7  C   UNL     1      -1.820  -2.919   1.817  1.00  0.00     0.180 C 
ATOM      8  C   UNL     1      -1.790  -4.327   1.317  1.00  0.00     0.081 A 
ATOM      9  C   UNL     1       0.720  -4.427   1.029  1.00  0.00     0.091 C 
ATOM     10  N   UNL     1      -2.889  -5.106   1.071  1.00  0.00    -0.240 NA
ATOM     11  C   UNL     1      -0.644  -4.993   0.950  1.00  0.00     0.042 A 
ATOM     12  C   UNL     1      -2.408  -6.243   0.611  1.00  0.00     0.197 A 
ATOM     13  N   UNL     1      -1.040  -6.222   0.521  1.00  0.00    -0.348 N 
ATOM     14  H   UNL     1      -0.459  -6.952   0.207  1.00  0.00     0.167 HD
BRANCH   6  15
ATOM     15  C   UNL     1      -0.116  -2.262   3.389  1.00  0.00     0.318 C 
ATOM     16  N   UNL     1       0.577  -1.142   3.733  1.00  0.00    -0.335 N 
ATOM     17  H   UNL     1       0.910  -1.123   4.660  1.00  0.00     0.165 HD
ATOM     18  O   UNL     1      -0.541  -2.985   4.286  1.00  0.00    -0.249 OA
BRANCH  16  19
ATOM     19  C   UNL     1       0.899   0.033   2.933  1.00  0.00     0.083 C 
ATOM     20  C   UNL     1       2.307   0.518   3.283  1.00  0.00     0.031 C 
BRANCH  19  21
ATOM     21  C   UNL     1      -0.161   1.137   3.118  1.00  0.00     0.053 C 
BRANCH  21  22
ATOM     22  C   UNL     1      -0.206   2.119   1.940  1.00  0.00     0.162 C 
BRANCH  22  23
ATOM     23  O   UNL     1      -1.067   1.848   0.834  1.00  0.00    -0.385 OA
ATOM     24  C   UNL     1      -1.589   0.545   0.669  1.00  0.00     0.194 C 
ENDBRANCH  22  23
ENDBRANCH  21  22
ENDBRANCH  19  21
ENDBRANCH  16  19
ENDBRANCH   6  15
ENDBRANCH   1   5
BRANCH   3  25
ATOM     25  C   UNL     1       2.026  -1.104  -1.143  1.00  0.00     0.117 C 
BRANCH  25  26
ATOM     26  C   UNL     1       1.600   0.367  -1.146  1.00  0.00     0.042 C 
BRANCH  26  27
ATOM     27  C   UNL     1       2.752   1.314  -0.887  1.00  0.00     0.118 C 
BRANCH  27  28
ATOM     28  N   UNL     1       3.177   2.182  -1.970  1.00  0.00    -0.352 N 
ATOM     29  C   UNL     1       3.937   3.341  -1.903  1.00  0.00     0.251 C 
ATOM     30  H   UNL     1       2.886   1.914  -2.872  1.00  0.00     0.163 HD
ATOM     31  O   UNL     1       4.151   3.974  -2.940  1.00  0.00    -0.269 OA
BRANCH  29  32
ATOM     32  C   UNL     1       4.488   3.846  -0.613  1.00  0.00     0.039 A 
ATOM     33  C   UNL     1       4.970   5.157  -0.488  1.00  0.00     0.014 A 
ATOM     34  C   UNL     1       4.552   3.018   0.502  1.00  0.00     0.014 A 
ATOM     35  C   UNL     1       5.543   5.565   0.721  1.00  0.00     0.010 A 
ATOM     36  C   UNL     1       4.851   3.490   1.740  1.00  0.00     0.010 A 
ATOM     37  C   UNL     1       5.509   4.693   1.815  1.00  0.00    -0.014 A 
BRANCH  37  38
ATOM     38  C   UNL     1       6.133   4.957   3.095  1.00  0.00     0.031 A 
ATOM     39  C   UNL     1       5.515   6.065   3.841  1.00  0.00     0.074 A 
ATOM     40  C   UNL     1       6.974   4.076   3.686  1.00  0.00     0.049 A 
ATOM     41  N   UNL     1       6.020   7.227   4.074  1.00  0.00    -0.248 NA
ATOM     42  C   UNL     1       4.106   5.924   4.242  1.00  0.00     0.031 C 
ATOM     43  C   UNL     1       7.363   2.728   3.239  1.00  0.00     0.029 A 
ATOM     44  N   UNL     1       7.585   4.170   4.896  1.00  0.00    -0.354 N 
ATOM     45  C   UNL     1       5.078   7.888   4.851  1.00  0.00     0.074 A 
ATOM     46  C   UNL     1       3.855   7.143   4.722  1.00  0.00     0.031 C 
ATOM     47  C   UNL     1       7.968   2.068   4.252  1.00  0.00     0.029 A 
ATOM     48  C   UNL     1       8.157   2.990   5.356  1.00  0.00     0.049 A 
ATOM     49  H   UNL     1       7.619   5.010   5.408  1.00  0.00     0.167 HD
ATOM     50  C   UNL     1       5.465   8.827   5.756  1.00  0.00     0.037 A 
ATOM     51  C   UNL     1       8.720   2.789   6.572  1.00  0.00     0.037 A 
ATOM     52  C   UNL     1       6.829   9.243   5.515  1.00  0.00     0.049 A 
ATOM     53  C   UNL     1       9.025   4.127   7.139  1.00  0.00     0.074 A 
ATOM     54  C   UNL     1       7.504   9.789   4.440  1.00  0.00     0.029 A 
ATOM     55  N   UNL     1       7.802   8.740   6.346  1.00  0.00    -0.354 N 
ATOM     56  N   UNL     1       9.928   4.935   6.656  1.00  0.00    -0.248 NA
ATOM     57  C   UNL     1       8.009   4.755   7.970  1.00  0.00     0.031 C 
ATOM     58  C   UNL     1       8.787   9.166   4.451  1.00  0.00     0.029 A 
ATOM     59  C   UNL     1       8.847   8.325   5.563  1.00  0.00     0.049 A 
ATOM     60  H   UNL     1       7.756   8.688   7.329  1.00  0.00     0.167 HD
ATOM     61  C   UNL     1       9.362   6.199   6.755  1.00  0.00     0.074 A 
ATOM     62  C   UNL     1       8.229   6.036   7.662  1.00  0.00     0.031 C 
ATOM     63  C   UNL     1       9.686   7.186   5.869  1.00  0.00     0.037 A 
BRANCH  50  64
ATOM     64  C   UNL     1       4.776   9.071   7.077  1.00  0.00     0.057 A 
ATOM     65  C   UNL     1       5.214  10.143   7.875  1.00  0.00     0.134 A 
ATOM     66  C   UNL     1       3.917   8.159   7.726  1.00  0.00     0.134 A 
ATOM     67  F   UNL     1       6.036  11.080   7.378  1.00  0.00    -0.206 F 
ATOM     68  C   UNL     1       4.901  10.245   9.235  1.00  0.00     0.040 A 
ATOM     69  C   UNL     1       3.553   8.283   9.069  1.00  0.00     0.040 A 
ATOM     70  F   UNL     1       3.462   7.046   7.141  1.00  0.00    -0.206 F 
ATOM     71  C   UNL     1       4.075   9.307   9.839  1.00  0.00     0.006 A 
ENDBRANCH  50  64
BRANCH  51  72
ATOM     72  C   UNL     1       8.768   1.554   7.387  1.00  0.00     0.057 A 
ATOM     73  C   UNL     1       9.671   1.414   8.450  1.00  0.00     0.134 A 
ATOM     74  C   UNL     1       7.743   0.594   7.318  1.00  0.00     0.134 A 
ATOM     75  F   UNL     1      10.659   2.304   8.624  1.00  0.00    -0.206 F 
ATOM     76  C   UNL     1       9.549   0.393   9.403  1.00  0.00     0.040 A 
ATOM     77  C   UNL     1       7.612  -0.433   8.259  1.00  0.00     0.040 A 
ATOM     78  F   UNL     1       6.782   0.675   6.386  1.00  0.00    -0.206 F 
ATOM     79  C   UNL     1       8.509  -0.528   9.316  1.00  0.00     0.006 A 
ENDBRANCH  51  72
BRANCH  63  80
ATOM     80  C   UNL     1      10.866   6.961   4.962  1.00  0.00     0.057 A 
ATOM     81  C   UNL     1      10.918   5.972   3.968  1.00  0.00     0.134 A 
ATOM     82  C   UNL     1      11.916   7.884   4.987  1.00  0.00     0.134 A 
ATOM     83  F   UNL     1       9.917   5.099   3.803  1.00  0.00    -0.206 F 
ATOM     84  C   UNL     1      11.981   5.888   3.063  1.00  0.00     0.040 A 
ATOM     85  C   UNL     1      12.968   7.832   4.069  1.00  0.00     0.040 A 
ATOM     86  F   UNL     1      11.910   8.890   5.876  1.00  0.00    -0.206 F 
ATOM     87  C   UNL     1      13.006   6.827   3.106  1.00  0.00     0.006 A 
ENDBRANCH  63  80
ENDBRANCH  37  38
ENDBRANCH  29  32
ENDBRANCH  27  28
ENDBRANCH  26  27
ENDBRANCH  25  26
ENDBRANCH   3  25
TORSDOF 15
