REMARK SMILES Cc1ccc(C(c2ccccc2)(c2ccccc2)n2cnc(C[C@H]([NH3+])C(=O)NCCCNC(=O)c3ccc(-c4c5nc(c(-c6c(F)cccc6F)c6ccc([nH]6)c(-c6c(F)cccc6F)c6nc(c(-c7c(F)cccc7F)c7ccc4[nH]7)C=C6)C=C5)cc3)c2)cc1
REMARK SMILES IDX 29 1 28 2 26 3 27 4 24 6 23 7 22 8 19 9 20 10 89 11 21 12
REMARK SMILES IDX 6 13 5 14 1 15 2 16 3 17 91 18 4 19 90 20 7 21 8 22 12 23
REMARK SMILES IDX 9 24 11 25 10 26 13 27 14 28 18 29 15 30 17 31 16 32 25 33
REMARK SMILES IDX 30 37 31 38 32 39 33 40 34 42 35 43 36 44 88 45 37 46 87 47
REMARK SMILES IDX 38 48 39 49 40 50 81 51 41 52 86 53 80 54 82 55 42 56 85 57
REMARK SMILES IDX 79 58 78 59 43 61 69 62 52 63 68 64 53 65 56 66 67 67 83 68
REMARK SMILES IDX 54 69 55 70 66 72 84 73 57 74 44 75 45 76 50 77 46 78 47 79
REMARK SMILES IDX 49 80 51 81 48 82 70 83 71 84 76 85 72 86 73 87 75 88 77 89
REMARK SMILES IDX 74 90 58 91 59 92 64 93 60 94 61 95 63 96 65 97 62 98
REMARK H PARENT 28 5 25 34 25 35 25 36 32 41 82 60 56 71
REMARK Flexibility Score: inf
ROOT
ATOM      1  C   UNL     1      -5.446  -7.243   1.149  1.00  0.00     0.118 C 
ENDROOT
BRANCH   1   2
ATOM      2  N   UNL     1      -6.740  -6.750   1.576  1.00  0.00    -0.351 N 
ATOM      3  C   UNL     1      -7.368  -5.553   1.391  1.00  0.00     0.278 C 
ATOM      4  O   UNL     1      -8.425  -5.389   2.013  1.00  0.00    -0.268 OA
ATOM      5  H   UNL     1      -7.264  -7.400   2.097  1.00  0.00     0.163 HD
BRANCH   3   6
ATOM      6  C   UNL     1      -6.769  -4.407   0.542  1.00  0.00     0.276 C 
BRANCH   6   7
ATOM      7  C   UNL     1      -6.405  -4.727  -0.911  1.00  0.00     0.133 C 
BRANCH   7   8
ATOM      8  C   UNL     1      -7.498  -5.271  -1.755  1.00  0.00     0.065 A 
ATOM      9  N   UNL     1      -8.821  -5.673  -3.461  1.00  0.00    -0.319 N 
ATOM     10  C   UNL     1      -9.403  -6.081  -2.281  1.00  0.00     0.201 A 
ATOM     11  C   UNL     1      -7.547  -5.275  -3.129  1.00  0.00     0.112 A 
ATOM     12  N   UNL     1      -8.629  -5.841  -1.246  1.00  0.00    -0.241 NA
BRANCH   9  13
ATOM     13  C   UNL     1      -9.498  -5.569  -4.799  1.00  0.00     0.121 C 
BRANCH  13  14
ATOM     14  C   UNL     1      -9.601  -7.008  -5.449  1.00  0.00    -0.013 A 
ATOM     15  C   UNL     1      -9.986 -10.899  -7.355  1.00  0.00     0.044 C 
ATOM     16  C   UNL     1      -9.840  -9.550  -6.717  1.00  0.00    -0.051 A 
ATOM     17  C   UNL     1      -9.292  -9.436  -5.437  1.00  0.00     0.004 A 
ATOM     18  C   UNL     1     -10.245  -8.392  -7.380  1.00  0.00     0.004 A 
ATOM     19  C   UNL     1      -9.171  -8.187  -4.813  1.00  0.00     0.007 A 
ATOM     20  C   UNL     1     -10.116  -7.145  -6.762  1.00  0.00     0.007 A 
ENDBRANCH  13  14
BRANCH  13  21
ATOM     21  C   UNL     1     -10.941  -4.947  -4.534  1.00  0.00    -0.013 A 
ATOM     22  C   UNL     1     -11.104  -3.802  -3.717  1.00  0.00     0.007 A 
ATOM     23  C   UNL     1     -12.137  -5.534  -4.999  1.00  0.00     0.007 A 
ATOM     24  C   UNL     1     -12.358  -3.232  -3.464  1.00  0.00     0.000 A 
ATOM     25  C   UNL     1     -13.395  -4.974  -4.738  1.00  0.00     0.000 A 
ATOM     26  C   UNL     1     -13.504  -3.813  -3.986  1.00  0.00     0.000 A 
ENDBRANCH  13  21
BRANCH  13  27
ATOM     27  C   UNL     1      -8.574  -4.636  -5.712  1.00  0.00    -0.013 A 
ATOM     28  C   UNL     1      -7.625  -5.197  -6.604  1.00  0.00     0.007 A 
ATOM     29  C   UNL     1      -8.485  -3.239  -5.523  1.00  0.00     0.007 A 
ATOM     30  C   UNL     1      -6.666  -4.417  -7.262  1.00  0.00     0.000 A 
ATOM     31  C   UNL     1      -7.504  -2.464  -6.155  1.00  0.00     0.000 A 
ATOM     32  C   UNL     1      -6.595  -3.052  -7.024  1.00  0.00     0.000 A 
ENDBRANCH  13  27
ENDBRANCH   9  13
ENDBRANCH   7   8
ENDBRANCH   6   7
BRANCH   6  33
ATOM     33  N   UNL     1      -5.615  -3.802   1.263  1.00  0.00    -0.347 N 
ATOM     34  H   UNL     1      -4.868  -4.492   1.348  1.00  0.00     0.345 HD
ATOM     35  H   UNL     1      -5.912  -3.505   2.192  1.00  0.00     0.345 HD
ATOM     36  H   UNL     1      -5.273  -2.995   0.741  1.00  0.00     0.345 HD
ENDBRANCH   6  33
ENDBRANCH   3   6
ENDBRANCH   1   2
BRANCH   1  37
ATOM     37  C   UNL     1      -4.377  -7.048   2.215  1.00  0.00     0.042 C 
BRANCH  37  38
ATOM     38  C   UNL     1      -4.413  -8.129   3.280  1.00  0.00     0.118 C 
BRANCH  38  39
ATOM     39  N   UNL     1      -3.664  -9.335   2.942  1.00  0.00    -0.352 N 
ATOM     40  C   UNL     1      -3.557 -10.537   3.627  1.00  0.00     0.251 C 
ATOM     41  H   UNL     1      -3.158  -9.289   2.099  1.00  0.00     0.163 HD
ATOM     42  O   UNL     1      -2.839 -11.421   3.189  1.00  0.00    -0.269 OA
BRANCH  40  43
ATOM     43  C   UNL     1      -4.436 -10.802   4.798  1.00  0.00     0.039 A 
ATOM     44  C   UNL     1      -5.041 -12.063   4.885  1.00  0.00     0.014 A 
ATOM     45  C   UNL     1      -4.863  -9.772   5.624  1.00  0.00     0.014 A 
ATOM     46  C   UNL     1      -6.247 -12.194   5.569  1.00  0.00     0.010 A 
ATOM     47  C   UNL     1      -6.124  -9.855   6.171  1.00  0.00     0.010 A 
ATOM     48  C   UNL     1      -6.845 -11.049   6.087  1.00  0.00    -0.014 A 
BRANCH  48  49
ATOM     49  C   UNL     1      -8.255 -10.964   6.439  1.00  0.00     0.031 A 
ATOM     50  C   UNL     1      -8.667 -10.770   7.843  1.00  0.00     0.074 A 
ATOM     51  C   UNL     1      -9.179 -10.914   5.453  1.00  0.00     0.049 A 
ATOM     52  N   UNL     1      -9.835 -11.066   8.303  1.00  0.00    -0.248 NA
ATOM     53  C   UNL     1      -7.767 -10.247   8.863  1.00  0.00     0.031 C 
ATOM     54  C   UNL     1     -10.575 -10.501   5.570  1.00  0.00     0.029 A 
ATOM     55  N   UNL     1      -9.075 -11.421   4.149  1.00  0.00    -0.354 N 
ATOM     56  C   UNL     1      -9.946 -10.505   9.555  1.00  0.00     0.074 A 
ATOM     57  C   UNL     1      -8.609 -10.071   9.885  1.00  0.00     0.031 C 
ATOM     58  C   UNL     1     -11.267 -11.014   4.541  1.00  0.00     0.029 A 
ATOM     59  C   UNL     1     -10.365 -11.890   3.815  1.00  0.00     0.049 A 
ATOM     60  H   UNL     1      -8.270 -11.445   3.583  1.00  0.00     0.167 HD
ATOM     61  C   UNL     1     -11.185 -10.342  10.104  1.00  0.00     0.037 A 
ATOM     62  C   UNL     1     -10.603 -13.209   3.561  1.00  0.00     0.037 A 
ATOM     63  C   UNL     1     -12.222 -10.894   9.232  1.00  0.00     0.049 A 
ATOM     64  C   UNL     1     -11.621 -13.837   4.481  1.00  0.00     0.074 A 
ATOM     65  C   UNL     1     -13.099 -10.307   8.333  1.00  0.00     0.029 A 
ATOM     66  N   UNL     1     -12.260 -12.262   8.979  1.00  0.00    -0.354 N 
ATOM     67  N   UNL     1     -11.948 -13.353   5.647  1.00  0.00    -0.248 NA
ATOM     68  C   UNL     1     -12.342 -15.065   4.165  1.00  0.00     0.031 C 
ATOM     69  C   UNL     1     -13.658 -11.329   7.528  1.00  0.00     0.029 A 
ATOM     70  C   UNL     1     -13.125 -12.539   7.938  1.00  0.00     0.049 A 
ATOM     71  H   UNL     1     -11.743 -12.938   9.473  1.00  0.00     0.167 HD
ATOM     72  C   UNL     1     -12.876 -14.172   6.243  1.00  0.00     0.074 A 
ATOM     73  C   UNL     1     -13.105 -15.216   5.262  1.00  0.00     0.031 C 
ATOM     74  C   UNL     1     -13.361 -13.907   7.495  1.00  0.00     0.037 A 
BRANCH  61  75
ATOM     75  C   UNL     1     -11.480  -9.411  11.264  1.00  0.00     0.057 A 
ATOM     76  C   UNL     1     -12.741  -8.793  11.396  1.00  0.00     0.134 A 
ATOM     77  C   UNL     1     -10.556  -9.032  12.253  1.00  0.00     0.134 A 
ATOM     78  F   UNL     1     -13.783  -9.140  10.632  1.00  0.00    -0.206 F 
ATOM     79  C   UNL     1     -13.007  -7.783  12.332  1.00  0.00     0.040 A 
ATOM     80  C   UNL     1     -10.788  -7.986  13.160  1.00  0.00     0.040 A 
ATOM     81  F   UNL     1      -9.411  -9.700  12.435  1.00  0.00    -0.206 F 
ATOM     82  C   UNL     1     -12.014  -7.343  13.189  1.00  0.00     0.006 A 
ENDBRANCH  61  75
BRANCH  62  83
ATOM     83  C   UNL     1      -9.443 -13.913   2.960  1.00  0.00     0.057 A 
ATOM     84  C   UNL     1      -9.043 -13.558   1.660  1.00  0.00     0.134 A 
ATOM     85  C   UNL     1      -8.516 -14.603   3.745  1.00  0.00     0.134 A 
ATOM     86  F   UNL     1      -9.889 -12.897   0.853  1.00  0.00    -0.206 F 
ATOM     87  C   UNL     1      -7.741 -13.774   1.203  1.00  0.00     0.040 A 
ATOM     88  C   UNL     1      -7.211 -14.834   3.293  1.00  0.00     0.040 A 
ATOM     89  F   UNL     1      -8.815 -14.954   5.004  1.00  0.00    -0.206 F 
ATOM     90  C   UNL     1      -6.809 -14.384   2.037  1.00  0.00     0.006 A 
ENDBRANCH  62  83
BRANCH  74  91
ATOM     91  C   UNL     1     -14.180 -14.825   8.385  1.00  0.00     0.057 A 
ATOM     92  C   UNL     1     -14.284 -16.216   8.233  1.00  0.00     0.134 A 
ATOM     93  C   UNL     1     -14.812 -14.319   9.549  1.00  0.00     0.134 A 
ATOM     94  F   UNL     1     -13.644 -16.872   7.259  1.00  0.00    -0.206 F 
ATOM     95  C   UNL     1     -15.010 -17.025   9.122  1.00  0.00     0.040 A 
ATOM     96  C   UNL     1     -15.488 -15.124  10.472  1.00  0.00     0.040 A 
ATOM     97  F   UNL     1     -14.783 -13.017   9.867  1.00  0.00    -0.206 F 
ATOM     98  C   UNL     1     -15.605 -16.484  10.252  1.00  0.00     0.006 A 
ENDBRANCH  74  91
ENDBRANCH  48  49
ENDBRANCH  40  43
ENDBRANCH  38  39
ENDBRANCH  37  38
ENDBRANCH   1  37
TORSDOF 17
