REMARK SMILES C[C@@H](O)[C@@H](NC(=O)c1csc(-c2ccsc2)n1)C(=O)NCCCNC(=O)c1ccc(-c2c3nc(c(-c4c(F)cccc4F)c4ccc([nH]4)c(-c4c(F)cccc4F)c4nc(c(-c5c(F)cccc5F)c5ccc2[nH]5)C=C4)C=C3)cc1
REMARK SMILES IDX 21 1 20 2 18 3 19 4 4 6 2 7 1 8 3 9 5 11 6 12 7 14 8 15 9 16
REMARK SMILES IDX 17 17 10 18 11 19 12 20 13 21 16 22 14 23 15 24 22 25 23 26
REMARK SMILES IDX 24 27 25 28 26 30 27 31 28 32 80 33 29 34 79 35 30 36 31 37
REMARK SMILES IDX 32 38 73 39 33 40 78 41 72 42 74 43 34 44 77 45 71 46 70 47
REMARK SMILES IDX 35 49 61 50 44 51 60 52 45 53 48 54 59 55 75 56 46 57 47 58
REMARK SMILES IDX 58 60 76 61 49 62 36 63 37 64 42 65 38 66 39 67 41 68 43 69
REMARK SMILES IDX 40 70 62 71 63 72 68 73 64 74 65 75 67 76 69 77 66 78 50 79
REMARK SMILES IDX 51 80 56 81 52 82 53 83 55 84 57 85 54 86
REMARK H PARENT 20 5 3 10 5 13 24 29 74 48 48 59
REMARK Flexibility Score: inf
ROOT
ATOM      1  C   UNL     1       0.001   2.491   3.045  1.00  0.00     0.117 C 
ENDROOT
BRANCH   1   2
ATOM      2  N   UNL     1      -0.541   3.298   1.970  1.00  0.00    -0.354 N 
ATOM      3  C   UNL     1      -1.062   2.935   0.764  1.00  0.00     0.245 C 
ATOM      4  O   UNL     1      -1.328   3.855  -0.015  1.00  0.00    -0.273 OA
ATOM      5  H   UNL     1      -0.530   4.268   2.138  1.00  0.00     0.163 HD
BRANCH   3   6
ATOM      6  C   UNL     1      -1.146   1.456   0.339  1.00  0.00     0.200 C 
BRANCH   6   7
ATOM      7  C   UNL     1       0.312   1.094  -0.111  1.00  0.00     0.143 C 
ATOM      8  C   UNL     1       0.571  -0.385  -0.373  1.00  0.00     0.041 C 
BRANCH   7   9
ATOM      9  O   UNL     1       0.634   1.775  -1.328  1.00  0.00    -0.391 OA
ATOM     10  H   UNL     1       0.053   1.461  -2.038  1.00  0.00     0.211 HD
ENDBRANCH   7   9
ENDBRANCH   6   7
BRANCH   6  11
ATOM     11  N   UNL     1      -1.665   0.518   1.361  1.00  0.00    -0.337 N 
ATOM     12  C   UNL     1      -2.773   0.580   2.177  1.00  0.00     0.271 C 
ATOM     13  H   UNL     1      -1.122  -0.295   1.477  1.00  0.00     0.164 HD
ATOM     14  O   UNL     1      -3.106  -0.453   2.759  1.00  0.00    -0.267 OA
BRANCH  12  15
ATOM     15  C   UNL     1      -3.374   1.870   2.504  1.00  0.00     0.139 A 
ATOM     16  C   UNL     1      -3.510   2.295   3.816  1.00  0.00     0.101 A 
ATOM     17  N   UNL     1      -3.807   2.793   1.559  1.00  0.00    -0.231 NA
ATOM     18  S   UNL     1      -3.876   3.964   3.855  1.00  0.00    -0.122 S 
ATOM     19  C   UNL     1      -4.042   3.954   2.142  1.00  0.00     0.125 A 
BRANCH  19  20
ATOM     20  C   UNL     1      -4.415   5.177   1.357  1.00  0.00     0.021 A 
ATOM     21  C   UNL     1      -5.103   5.152   0.108  1.00  0.00     0.023 A 
ATOM     22  C   UNL     1      -4.121   6.465   1.754  1.00  0.00     0.076 A 
ATOM     23  C   UNL     1      -5.352   6.419  -0.373  1.00  0.00     0.065 A 
ATOM     24  S   UNL     1      -4.686   7.631   0.634  1.00  0.00    -0.152 S 
ENDBRANCH  19  20
ENDBRANCH  12  15
ENDBRANCH   6  11
ENDBRANCH   3   6
ENDBRANCH   1   2
BRANCH   1  25
ATOM     25  C   UNL     1       1.257   3.118   3.623  1.00  0.00     0.042 C 
BRANCH  25  26
ATOM     26  C   UNL     1       1.018   4.481   4.255  1.00  0.00     0.118 C 
BRANCH  26  27
ATOM     27  N   UNL     1       0.136   4.432   5.414  1.00  0.00    -0.352 N 
ATOM     28  C   UNL     1       0.347   4.956   6.667  1.00  0.00     0.251 C 
ATOM     29  H   UNL     1      -0.720   3.964   5.283  1.00  0.00     0.163 HD
ATOM     30  O   UNL     1      -0.423   4.712   7.589  1.00  0.00    -0.269 OA
BRANCH  28  31
ATOM     31  C   UNL     1       1.541   5.793   6.889  1.00  0.00     0.039 A 
ATOM     32  C   UNL     1       2.401   5.488   7.945  1.00  0.00     0.014 A 
ATOM     33  C   UNL     1       1.843   6.826   5.996  1.00  0.00     0.014 A 
ATOM     34  C   UNL     1       3.612   6.172   8.058  1.00  0.00     0.010 A 
ATOM     35  C   UNL     1       3.086   7.440   6.058  1.00  0.00     0.010 A 
ATOM     36  C   UNL     1       3.981   7.122   7.090  1.00  0.00    -0.014 A 
BRANCH  36  37
ATOM     37  C   UNL     1       5.296   7.806   7.138  1.00  0.00     0.031 A 
ATOM     38  C   UNL     1       5.353   9.298   7.307  1.00  0.00     0.074 A 
ATOM     39  C   UNL     1       6.427   7.100   6.946  1.00  0.00     0.049 A 
ATOM     40  N   UNL     1       6.390  10.095   7.275  1.00  0.00    -0.248 NA
ATOM     41  C   UNL     1       4.068   9.991   7.499  1.00  0.00     0.031 C 
ATOM     42  C   UNL     1       6.498   5.656   6.710  1.00  0.00     0.029 A 
ATOM     43  N   UNL     1       7.736   7.506   6.906  1.00  0.00    -0.354 N 
ATOM     44  C   UNL     1       5.880  11.379   7.418  1.00  0.00     0.074 A 
ATOM     45  C   UNL     1       4.440  11.261   7.480  1.00  0.00     0.031 C 
ATOM     46  C   UNL     1       7.785   5.295   6.577  1.00  0.00     0.029 A 
ATOM     47  C   UNL     1       8.625   6.483   6.684  1.00  0.00     0.049 A 
ATOM     48  H   UNL     1       8.013   8.444   7.026  1.00  0.00     0.167 HD
ATOM     49  C   UNL     1       6.553  12.549   7.516  1.00  0.00     0.037 A 
ATOM     50  C   UNL     1       9.967   6.504   6.577  1.00  0.00     0.037 A 
ATOM     51  C   UNL     1       7.986  12.659   7.498  1.00  0.00     0.049 A 
ATOM     52  C   UNL     1      10.693   7.812   6.716  1.00  0.00     0.074 A 
ATOM     53  C   UNL     1       8.767  13.789   7.662  1.00  0.00     0.029 A 
ATOM     54  N   UNL     1       8.854  11.594   7.310  1.00  0.00    -0.354 N 
ATOM     55  N   UNL     1      10.203   9.011   6.918  1.00  0.00    -0.248 NA
ATOM     56  C   UNL     1      12.159   7.770   6.620  1.00  0.00     0.031 C 
ATOM     57  C   UNL     1      10.109  13.411   7.543  1.00  0.00     0.029 A 
ATOM     58  C   UNL     1      10.163  12.041   7.342  1.00  0.00     0.049 A 
ATOM     59  H   UNL     1       8.579  10.658   7.174  1.00  0.00     0.167 HD
ATOM     60  C   UNL     1      11.298   9.861   6.998  1.00  0.00     0.074 A 
ATOM     61  C   UNL     1      12.479   9.039   6.836  1.00  0.00     0.031 C 
ATOM     62  C   UNL     1      11.324  11.203   7.188  1.00  0.00     0.037 A 
BRANCH  49  63
ATOM     63  C   UNL     1       5.738  13.800   7.666  1.00  0.00     0.057 A 
ATOM     64  C   UNL     1       5.041  14.088   8.847  1.00  0.00     0.134 A 
ATOM     65  C   UNL     1       5.661  14.734   6.625  1.00  0.00     0.134 A 
ATOM     66  F   UNL     1       5.060  13.226   9.875  1.00  0.00    -0.206 F 
ATOM     67  C   UNL     1       4.274  15.246   8.978  1.00  0.00     0.040 A 
ATOM     68  C   UNL     1       4.919  15.908   6.754  1.00  0.00     0.040 A 
ATOM     69  F   UNL     1       6.307  14.520   5.469  1.00  0.00    -0.206 F 
ATOM     70  C   UNL     1       4.216  16.163   7.930  1.00  0.00     0.006 A 
ENDBRANCH  49  63
BRANCH  50  71
ATOM     71  C   UNL     1      10.716   5.241   6.359  1.00  0.00     0.057 A 
ATOM     72  C   UNL     1      11.486   4.678   7.382  1.00  0.00     0.134 A 
ATOM     73  C   UNL     1      10.684   4.572   5.130  1.00  0.00     0.134 A 
ATOM     74  F   UNL     1      11.568   5.284   8.576  1.00  0.00    -0.206 F 
ATOM     75  C   UNL     1      12.214   3.503   7.188  1.00  0.00     0.040 A 
ATOM     76  C   UNL     1      11.391   3.385   4.928  1.00  0.00     0.040 A 
ATOM     77  F   UNL     1       9.957   5.056   4.113  1.00  0.00    -0.206 F 
ATOM     78  C   UNL     1      12.164   2.851   5.958  1.00  0.00     0.006 A 
ENDBRANCH  50  71
BRANCH  62  79
ATOM     79  C   UNL     1      12.670  11.857   7.262  1.00  0.00     0.057 A 
ATOM     80  C   UNL     1      13.455  12.058   6.121  1.00  0.00     0.134 A 
ATOM     81  C   UNL     1      13.166  12.326   8.485  1.00  0.00     0.134 A 
ATOM     82  F   UNL     1      13.040  11.618   4.924  1.00  0.00    -0.206 F 
ATOM     83  C   UNL     1      14.697  12.690   6.196  1.00  0.00     0.040 A 
ATOM     84  C   UNL     1      14.396  12.979   8.568  1.00  0.00     0.040 A 
ATOM     85  F   UNL     1      12.458  12.170   9.613  1.00  0.00    -0.206 F 
ATOM     86  C   UNL     1      15.168  13.158   7.422  1.00  0.00     0.006 A 
ENDBRANCH  62  79
ENDBRANCH  36  37
ENDBRANCH  28  31
ENDBRANCH  26  27
ENDBRANCH  25  26
ENDBRANCH   1  25
TORSDOF 15
