REMARK SMILES O=C(NCCCNC(=O)c1ccc(-c2c3nc(c(-c4c(F)cccc4F)c4ccc([nH]4)c(-c4c(F)cccc4F)c4nc(c(-c5c(F)cccc5F)c5ccc2[nH]5)C=C4)C=C3)cc1)C1=NN(c2ccc([N+](=O)[O-])cc2)[C@H](c2ccccc2)C1
REMARK SMILES IDX 5 1 4 2 3 3 1 4 2 5 64 7 65 8 83 9 66 10 76 11 67 12 68 13
REMARK SMILES IDX 75 14 69 15 74 16 70 17 71 18 72 19 73 20 77 21 78 22 82 23
REMARK SMILES IDX 79 24 81 25 80 26 6 27 7 28 8 29 9 31 10 32 11 33 63 34
REMARK SMILES IDX 12 35 62 36 13 37 14 38 15 39 56 40 16 41 61 42 55 43 57 44
REMARK SMILES IDX 17 45 60 46 54 47 53 48 18 50 44 51 27 52 43 53 28 54 31 55
REMARK SMILES IDX 42 56 58 57 29 58 30 59 41 61 59 62 32 63 19 64 20 65 25 66
REMARK SMILES IDX 21 67 22 68 24 69 26 70 23 71 45 72 46 73 51 74 47 75 48 76
REMARK SMILES IDX 50 77 52 78 49 79 33 80 34 81 39 82 35 83 36 84 38 85 40 86
REMARK SMILES IDX 37 87
REMARK H PARENT 3 6 7 30 57 49 31 60
REMARK Flexibility Score: inf
ROOT
ATOM      1  C   UNL     1       4.901  -1.983   1.060  1.00  0.00     0.042 C 
ENDROOT
BRANCH   1   2
ATOM      2  C   UNL     1       4.386  -1.253  -0.173  1.00  0.00     0.118 C 
BRANCH   2   3
ATOM      3  N   UNL     1       2.944  -1.039  -0.142  1.00  0.00    -0.351 N 
ATOM      4  O   UNL     1       1.030   0.193  -0.066  1.00  0.00    -0.268 OA
ATOM      5  C   UNL     1       2.256   0.150  -0.091  1.00  0.00     0.267 C 
ATOM      6  H   UNL     1       2.390  -1.853  -0.161  1.00  0.00     0.163 HD
BRANCH   5   7
ATOM      7  C   UNL     1       3.021   1.439  -0.004  1.00  0.00     0.128 C 
ATOM      8  N   UNL     1       4.079   1.675  -0.709  1.00  0.00    -0.171 NA
ATOM      9  C   UNL     1       2.556   2.536   0.892  1.00  0.00     0.096 C 
ATOM     10  N   UNL     1       4.615   2.816  -0.215  1.00  0.00    -0.257 N 
ATOM     11  C   UNL     1       3.757   3.493   0.777  1.00  0.00     0.144 C 
BRANCH  10  12
ATOM     12  C   UNL     1       5.641   3.410  -0.932  1.00  0.00     0.061 A 
ATOM     13  C   UNL     1       5.475   3.754  -2.282  1.00  0.00     0.035 A 
ATOM     14  C   UNL     1       6.900   3.605  -0.348  1.00  0.00     0.035 A 
ATOM     15  C   UNL     1       6.518   4.328  -3.017  1.00  0.00     0.088 A 
ATOM     16  C   UNL     1       7.953   4.181  -1.063  1.00  0.00     0.088 A 
ATOM     17  C   UNL     1       7.753   4.549  -2.397  1.00  0.00     0.269 A 
BRANCH  17  18
ATOM     18  N   UNL     1       8.848   5.169  -3.149  1.00  0.00     0.062 N 
ATOM     19  O   UNL     1       8.679   5.362  -4.362  1.00  0.00    -0.258 OA
ATOM     20  O   UNL     1       9.876   5.472  -2.526  1.00  0.00    -0.258 OA
ENDBRANCH  17  18
ENDBRANCH  10  12
BRANCH  11  21
ATOM     21  C   UNL     1       4.491   3.825   2.071  1.00  0.00    -0.023 A 
ATOM     22  C   UNL     1       4.417   3.054   3.242  1.00  0.00     0.006 A 
ATOM     23  C   UNL     1       5.305   4.976   2.102  1.00  0.00     0.006 A 
ATOM     24  C   UNL     1       5.122   3.423   4.394  1.00  0.00     0.000 A 
ATOM     25  C   UNL     1       6.043   5.318   3.236  1.00  0.00     0.000 A 
ATOM     26  C   UNL     1       5.944   4.545   4.387  1.00  0.00     0.000 A 
ENDBRANCH  11  21
ENDBRANCH   5   7
ENDBRANCH   2   3
ENDBRANCH   1   2
BRANCH   1  27
ATOM     27  C   UNL     1       4.426  -3.424   1.183  1.00  0.00     0.118 C 
BRANCH  27  28
ATOM     28  N   UNL     1       4.853  -4.259   0.071  1.00  0.00    -0.352 N 
ATOM     29  C   UNL     1       5.560  -5.434   0.047  1.00  0.00     0.251 C 
ATOM     30  H   UNL     1       4.588  -3.924  -0.816  1.00  0.00     0.163 HD
ATOM     31  O   UNL     1       5.934  -5.881  -1.035  1.00  0.00    -0.269 OA
BRANCH  29  32
ATOM     32  C   UNL     1       5.899  -6.159   1.292  1.00  0.00     0.039 A 
ATOM     33  C   UNL     1       7.136  -6.808   1.363  1.00  0.00     0.014 A 
ATOM     34  C   UNL     1       5.009  -6.252   2.365  1.00  0.00     0.014 A 
ATOM     35  C   UNL     1       7.497  -7.500   2.521  1.00  0.00     0.010 A 
ATOM     36  C   UNL     1       5.405  -6.867   3.552  1.00  0.00     0.010 A 
ATOM     37  C   UNL     1       6.648  -7.508   3.640  1.00  0.00    -0.014 A 
BRANCH  37  38
ATOM     38  C   UNL     1       7.059  -8.187   4.896  1.00  0.00     0.031 A 
ATOM     39  C   UNL     1       6.291  -9.371   5.418  1.00  0.00     0.074 A 
ATOM     40  C   UNL     1       8.114  -7.714   5.589  1.00  0.00     0.049 A 
ATOM     41  N   UNL     1       6.514 -10.094   6.487  1.00  0.00    -0.248 NA
ATOM     42  C   UNL     1       5.103  -9.784   4.654  1.00  0.00     0.031 C 
ATOM     43  C   UNL     1       8.905  -6.537   5.226  1.00  0.00     0.029 A 
ATOM     44  N   UNL     1       8.704  -8.169   6.741  1.00  0.00    -0.354 N 
ATOM     45  C   UNL     1       5.494 -11.037   6.528  1.00  0.00     0.074 A 
ATOM     46  C   UNL     1       4.618 -10.758   5.410  1.00  0.00     0.031 C 
ATOM     47  C   UNL     1       9.900  -6.385   6.114  1.00  0.00     0.029 A 
ATOM     48  C   UNL     1       9.800  -7.433   7.124  1.00  0.00     0.049 A 
ATOM     49  H   UNL     1       8.375  -8.948   7.244  1.00  0.00     0.167 HD
ATOM     50  C   UNL     1       5.316 -12.059   7.399  1.00  0.00     0.037 A 
ATOM     51  C   UNL     1      10.635  -7.591   8.168  1.00  0.00     0.037 A 
ATOM     52  C   UNL     1       6.198 -12.351   8.499  1.00  0.00     0.049 A 
ATOM     53  C   UNL     1      10.428  -8.745   9.108  1.00  0.00     0.074 A 
ATOM     54  C   UNL     1       6.133 -13.396   9.405  1.00  0.00     0.029 A 
ATOM     55  N   UNL     1       7.308 -11.594   8.844  1.00  0.00    -0.354 N 
ATOM     56  N   UNL     1       9.501  -9.671   9.090  1.00  0.00    -0.248 NA
ATOM     57  C   UNL     1      11.395  -8.882  10.206  1.00  0.00     0.031 C 
ATOM     58  C   UNL     1       7.180 -13.249  10.322  1.00  0.00     0.029 A 
ATOM     59  C   UNL     1       7.926 -12.140   9.958  1.00  0.00     0.049 A 
ATOM     60  H   UNL     1       7.612 -10.788   8.367  1.00  0.00     0.167 HD
ATOM     61  C   UNL     1       9.788 -10.516  10.155  1.00  0.00     0.074 A 
ATOM     62  C   UNL     1      10.988 -10.002  10.784  1.00  0.00     0.031 C 
ATOM     63  C   UNL     1       9.119 -11.618  10.575  1.00  0.00     0.037 A 
BRANCH  50  64
ATOM     64  C   UNL     1       4.120 -12.944   7.191  1.00  0.00     0.057 A 
ATOM     65  C   UNL     1       4.034 -13.826   6.104  1.00  0.00     0.134 A 
ATOM     66  C   UNL     1       3.056 -12.940   8.102  1.00  0.00     0.134 A 
ATOM     67  F   UNL     1       5.012 -13.871   5.187  1.00  0.00    -0.206 F 
ATOM     68  C   UNL     1       2.922 -14.649   5.917  1.00  0.00     0.040 A 
ATOM     69  C   UNL     1       1.952 -13.779   7.941  1.00  0.00     0.040 A 
ATOM     70  F   UNL     1       3.075 -12.126   9.168  1.00  0.00    -0.206 F 
ATOM     71  C   UNL     1       1.880 -14.632   6.841  1.00  0.00     0.006 A 
ENDBRANCH  50  64
BRANCH  51  72
ATOM     72  C   UNL     1      11.772  -6.655   8.357  1.00  0.00     0.057 A 
ATOM     73  C   UNL     1      13.092  -7.074   8.150  1.00  0.00     0.134 A 
ATOM     74  C   UNL     1      11.570  -5.330   8.756  1.00  0.00     0.134 A 
ATOM     75  F   UNL     1      13.350  -8.338   7.784  1.00  0.00    -0.206 F 
ATOM     76  C   UNL     1      14.172  -6.215   8.357  1.00  0.00     0.040 A 
ATOM     77  C   UNL     1      12.639  -4.452   8.941  1.00  0.00     0.040 A 
ATOM     78  F   UNL     1      10.329  -4.865   8.961  1.00  0.00    -0.206 F 
ATOM     79  C   UNL     1      13.946  -4.897   8.750  1.00  0.00     0.006 A 
ENDBRANCH  51  72
BRANCH  63  80
ATOM     80  C   UNL     1       9.693 -12.355  11.751  1.00  0.00     0.057 A 
ATOM     81  C   UNL     1       9.662 -11.823  13.047  1.00  0.00     0.134 A 
ATOM     82  C   UNL     1      10.283 -13.614  11.583  1.00  0.00     0.134 A 
ATOM     83  F   UNL     1       9.122 -10.615  13.273  1.00  0.00    -0.206 F 
ATOM     84  C   UNL     1      10.232 -12.499  14.127  1.00  0.00     0.040 A 
ATOM     85  C   UNL     1      10.830 -14.313  12.660  1.00  0.00     0.040 A 
ATOM     86  F   UNL     1      10.337 -14.186  10.371  1.00  0.00    -0.206 F 
ATOM     87  C   UNL     1      10.815 -13.750  13.935  1.00  0.00     0.006 A 
ENDBRANCH  63  80
ENDBRANCH  37  38
ENDBRANCH  29  32
ENDBRANCH  27  28
ENDBRANCH   1  27
TORSDOF 13
