REMARK SMILES COC(=O)c1ccc2c(c1)=N[C@H](c1cn(CCC(=O)NCCCNC(=O)c3ccc(-c4c5nc(c(-c6c(F)cccc6F)c6ccc([nH]6)c(-c6c(F)cccc6F)c6nc(c(-c7c(F)cccc7F)c7ccc4[nH]7)C=C6)C=C5)cc3)c3ccccc13)N=2
REMARK SMILES IDX 18 1 19 2 20 3 17 5 16 6 15 7 13 8 14 9 86 10 81 11 85 12
REMARK SMILES IDX 82 13 84 14 83 15 12 16 5 17 6 18 10 19 7 20 9 21 8 22 11 23
REMARK SMILES IDX 87 24 3 25 4 26 2 27 1 28 21 29 22 30 23 31 24 32 25 33
REMARK SMILES IDX 26 35 27 36 28 37 80 38 29 39 79 40 30 41 31 42 32 43 73 44
REMARK SMILES IDX 33 45 78 46 72 47 74 48 34 49 77 50 71 51 70 52 35 54 61 55
REMARK SMILES IDX 44 56 60 57 45 58 48 59 59 60 75 61 46 62 47 63 58 65 76 66
REMARK SMILES IDX 49 67 36 68 37 69 42 70 38 71 39 72 41 73 43 74 40 75 62 76
REMARK SMILES IDX 63 77 68 78 64 79 65 80 67 81 69 82 66 83 50 84 51 85 56 86
REMARK SMILES IDX 52 87 53 88 55 89 57 90 54 91
REMARK H PARENT 20 4 24 34 74 53 48 64
REMARK Flexibility Score: inf
ROOT
ATOM      1  C   UNL     1      -0.718   6.719  11.168  1.00  0.00     0.221 C 
ATOM      2  O   UNL     1      -1.114   6.119  12.173  1.00  0.00    -0.275 OA
ATOM      3  N   UNL     1      -1.677   7.222  10.337  1.00  0.00    -0.356 N 
ATOM      4  H   UNL     1      -2.588   6.955  10.597  1.00  0.00     0.163 HD
ENDROOT
BRANCH   1   5
ATOM      5  C   UNL     1       0.768   6.927  10.951  1.00  0.00     0.122 C 
BRANCH   5   6
ATOM      6  C   UNL     1       1.571   5.601  11.039  1.00  0.00     0.132 C 
BRANCH   6   7
ATOM      7  N   UNL     1       1.682   4.872   9.765  1.00  0.00    -0.347 N 
ATOM      8  C   UNL     1       0.914   5.444   7.778  1.00  0.00     0.024 A 
ATOM      9  C   UNL     1       2.019   5.565   8.628  1.00  0.00     0.094 A 
ATOM     10  C   UNL     1      -0.101   4.796   8.592  1.00  0.00     0.007 A 
ATOM     11  C   UNL     1       0.747   3.960   9.318  1.00  0.00     0.048 A 
ATOM     12  C   UNL     1      -1.393   4.274   8.439  1.00  0.00     0.011 A 
ATOM     13  C   UNL     1       0.708   2.579   9.043  1.00  0.00     0.027 A 
ATOM     14  C   UNL     1      -1.580   2.900   8.341  1.00  0.00     0.001 A 
ATOM     15  C   UNL     1      -0.480   2.074   8.481  1.00  0.00     0.002 A 
BRANCH   8  16
ATOM     16  C   UNL     1       1.043   5.777   6.322  1.00  0.00     0.255 C 
ATOM     17  C   UNL     1       1.401   2.395   3.382  1.00  0.00     0.062 A 
ATOM     18  C   UNL     1       0.244   3.087   2.834  1.00  0.00     0.018 A 
ATOM     19  C   UNL     1       2.148   2.950   4.354  1.00  0.00     0.046 A 
ATOM     20  C   UNL     1      -0.286   4.183   3.391  1.00  0.00     0.031 A 
ATOM     21  C   UNL     1       1.640   4.177   4.978  1.00  0.00     0.087 A 
ATOM     22  C   UNL     1       0.296   4.670   4.636  1.00  0.00     0.086 A 
ATOM     23  N   UNL     1       2.195   4.935   5.850  1.00  0.00    -0.252 NA
ATOM     24  N   UNL     1      -0.153   5.533   5.479  1.00  0.00    -0.252 NA
BRANCH  17  25
ATOM     25  C   UNL     1       1.860   1.096   2.818  1.00  0.00     0.337 C 
ATOM     26  O   UNL     1       3.006   0.656   2.941  1.00  0.00    -0.246 OA
BRANCH  25  27
ATOM     27  O   UNL     1       0.842   0.470   2.182  1.00  0.00    -0.465 OA
ATOM     28  C   UNL     1       1.192  -0.714   1.458  1.00  0.00     0.282 C 
ENDBRANCH  25  27
ENDBRANCH  17  25
ENDBRANCH   8  16
ENDBRANCH   6   7
ENDBRANCH   5   6
ENDBRANCH   1   5
BRANCH   3  29
ATOM     29  C   UNL     1      -1.650   8.070   9.144  1.00  0.00     0.117 C 
BRANCH  29  30
ATOM     30  C   UNL     1      -2.310   7.500   7.859  1.00  0.00     0.042 C 
BRANCH  30  31
ATOM     31  C   UNL     1      -3.528   6.583   8.016  1.00  0.00     0.118 C 
BRANCH  31  32
ATOM     32  N   UNL     1      -4.817   7.082   7.596  1.00  0.00    -0.352 N 
ATOM     33  C   UNL     1      -5.594   6.807   6.497  1.00  0.00     0.251 C 
ATOM     34  H   UNL     1      -5.212   7.741   8.212  1.00  0.00     0.163 HD
ATOM     35  O   UNL     1      -6.786   7.114   6.545  1.00  0.00    -0.269 OA
BRANCH  33  36
ATOM     36  C   UNL     1      -5.055   6.303   5.212  1.00  0.00     0.039 A 
ATOM     37  C   UNL     1      -4.150   5.258   5.052  1.00  0.00     0.014 A 
ATOM     38  C   UNL     1      -5.552   6.942   4.066  1.00  0.00     0.014 A 
ATOM     39  C   UNL     1      -3.607   5.009   3.789  1.00  0.00     0.010 A 
ATOM     40  C   UNL     1      -5.011   6.688   2.811  1.00  0.00     0.010 A 
ATOM     41  C   UNL     1      -3.936   5.813   2.688  1.00  0.00    -0.014 A 
BRANCH  41  42
ATOM     42  C   UNL     1      -3.153   5.747   1.432  1.00  0.00     0.031 A 
ATOM     43  C   UNL     1      -3.019   4.406   0.790  1.00  0.00     0.074 A 
ATOM     44  C   UNL     1      -2.647   6.863   0.839  1.00  0.00     0.049 A 
ATOM     45  N   UNL     1      -1.945   3.882   0.289  1.00  0.00    -0.248 NA
ATOM     46  C   UNL     1      -4.188   3.513   0.741  1.00  0.00     0.031 C 
ATOM     47  C   UNL     1      -2.869   8.248   1.281  1.00  0.00     0.029 A 
ATOM     48  N   UNL     1      -1.937   7.047  -0.329  1.00  0.00    -0.354 N 
ATOM     49  C   UNL     1      -2.338   2.686  -0.310  1.00  0.00     0.074 A 
ATOM     50  C   UNL     1      -3.700   2.454   0.092  1.00  0.00     0.031 C 
ATOM     51  C   UNL     1      -2.586   9.100   0.275  1.00  0.00     0.029 A 
ATOM     52  C   UNL     1      -2.011   8.351  -0.825  1.00  0.00     0.049 A 
ATOM     53  H   UNL     1      -1.428   6.329  -0.771  1.00  0.00     0.167 HD
ATOM     54  C   UNL     1      -1.578   2.097  -1.272  1.00  0.00     0.037 A 
ATOM     55  C   UNL     1      -1.671   8.822  -2.052  1.00  0.00     0.037 A 
ATOM     56  C   UNL     1      -0.221   2.567  -1.273  1.00  0.00     0.049 A 
ATOM     57  C   UNL     1      -0.711   7.899  -2.678  1.00  0.00     0.074 A 
ATOM     58  C   UNL     1       0.995   2.144  -0.791  1.00  0.00     0.029 A 
ATOM     59  N   UNL     1      -0.046   3.838  -1.732  1.00  0.00    -0.354 N 
ATOM     60  N   UNL     1       0.516   7.751  -2.269  1.00  0.00    -0.248 NA
ATOM     61  C   UNL     1      -1.191   6.903  -3.632  1.00  0.00     0.031 C 
ATOM     62  C   UNL     1       1.883   3.248  -0.865  1.00  0.00     0.029 A 
ATOM     63  C   UNL     1       1.226   4.288  -1.500  1.00  0.00     0.049 A 
ATOM     64  H   UNL     1      -0.748   4.367  -2.175  1.00  0.00     0.167 HD
ATOM     65  C   UNL     1       0.793   6.438  -2.561  1.00  0.00     0.074 A 
ATOM     66  C   UNL     1      -0.194   6.021  -3.548  1.00  0.00     0.031 C 
ATOM     67  C   UNL     1       1.525   5.678  -1.706  1.00  0.00     0.037 A 
BRANCH  54  68
ATOM     68  C   UNL     1      -2.138   1.406  -2.491  1.00  0.00     0.057 A 
ATOM     69  C   UNL     1      -3.396   1.726  -3.041  1.00  0.00     0.134 A 
ATOM     70  C   UNL     1      -1.283   0.672  -3.334  1.00  0.00     0.134 A 
ATOM     71  F   UNL     1      -4.284   2.483  -2.386  1.00  0.00    -0.206 F 
ATOM     72  C   UNL     1      -3.765   1.371  -4.342  1.00  0.00     0.040 A 
ATOM     73  C   UNL     1      -1.625   0.351  -4.654  1.00  0.00     0.040 A 
ATOM     74  F   UNL     1      -0.060   0.302  -2.924  1.00  0.00    -0.206 F 
ATOM     75  C   UNL     1      -2.866   0.712  -5.166  1.00  0.00     0.006 A 
ENDBRANCH  54  68
BRANCH  55  76
ATOM     76  C   UNL     1      -2.274   9.929  -2.834  1.00  0.00     0.057 A 
ATOM     77  C   UNL     1      -3.644  10.222  -2.732  1.00  0.00     0.134 A 
ATOM     78  C   UNL     1      -1.596  10.524  -3.910  1.00  0.00     0.134 A 
ATOM     79  F   UNL     1      -4.403   9.650  -1.787  1.00  0.00    -0.206 F 
ATOM     80  C   UNL     1      -4.307  11.035  -3.657  1.00  0.00     0.040 A 
ATOM     81  C   UNL     1      -2.250  11.334  -4.849  1.00  0.00     0.040 A 
ATOM     82  F   UNL     1      -0.295  10.275  -4.120  1.00  0.00    -0.206 F 
ATOM     83  C   UNL     1      -3.614  11.581  -4.731  1.00  0.00     0.006 A 
ENDBRANCH  55  76
BRANCH  67  84
ATOM     84  C   UNL     1       2.538   6.335  -0.834  1.00  0.00     0.057 A 
ATOM     85  C   UNL     1       3.882   5.990  -1.021  1.00  0.00     0.134 A 
ATOM     86  C   UNL     1       2.236   7.197   0.228  1.00  0.00     0.134 A 
ATOM     87  F   UNL     1       4.231   5.144  -2.003  1.00  0.00    -0.206 F 
ATOM     88  C   UNL     1       4.888   6.462  -0.180  1.00  0.00     0.040 A 
ATOM     89  C   UNL     1       3.241   7.704   1.058  1.00  0.00     0.040 A 
ATOM     90  F   UNL     1       0.969   7.525   0.517  1.00  0.00    -0.206 F 
ATOM     91  C   UNL     1       4.569   7.327   0.861  1.00  0.00     0.006 A 
ENDBRANCH  67  84
ENDBRANCH  41  42
ENDBRANCH  33  36
ENDBRANCH  31  32
ENDBRANCH  30  31
ENDBRANCH  29  30
ENDBRANCH   3  29
TORSDOF 15
