REMARK SMILES C[C@H]1SC[C@H](C(=O)NCCCNC(=O)c2ccc(-c3c4nc(c(-c5c(F)cccc5F)c5ccc([nH]5)c(-c5c(F)cccc5F)c5nc(c(-c6c(F)cccc6F)c6ccc3[nH]6)C=C5)C=C4)cc2)N1C(=O)[C@@H]1CSc2ccccc21
REMARK SMILES IDX 10 1 9 2 8 3 6 4 7 5 5 7 1 8 2 9 3 10 69 11 4 12 70 13 71 14
REMARK SMILES IDX 72 15 73 16 80 17 74 18 75 19 79 20 76 21 78 22 77 23 11 24
REMARK SMILES IDX 12 25 13 26 14 28 15 29 16 30 68 31 17 32 67 33 18 34 19 35
REMARK SMILES IDX 20 36 61 37 21 38 66 39 60 40 62 41 22 42 65 43 59 44 58 45
REMARK SMILES IDX 23 47 49 48 32 49 48 50 33 51 36 52 47 53 63 54 34 55 35 56
REMARK SMILES IDX 46 58 64 59 37 60 24 61 25 62 30 63 26 64 27 65 29 66 31 67
REMARK SMILES IDX 28 68 50 69 51 70 56 71 52 72 53 73 55 74 57 75 54 76 38 77
REMARK SMILES IDX 39 78 44 79 40 80 41 81 43 82 45 83 42 84
REMARK H PARENT 8 6 12 27 62 46 36 57
REMARK Flexibility Score: inf
ROOT
ATOM      1  C   UNL     1       8.719  -1.405   0.143  1.00  0.00     0.042 C 
ENDROOT
BRANCH   1   2
ATOM      2  C   UNL     1       7.354  -1.907   0.575  1.00  0.00     0.117 C 
BRANCH   2   3
ATOM      3  N   UNL     1       7.451  -2.955   1.568  1.00  0.00    -0.354 N 
ATOM      4  C   UNL     1       7.030  -2.979   2.862  1.00  0.00     0.243 C 
ATOM      5  O   UNL     1       7.434  -3.909   3.569  1.00  0.00    -0.273 OA
ATOM      6  H   UNL     1       7.891  -3.780   1.259  1.00  0.00     0.163 HD
BRANCH   4   7
ATOM      7  C   UNL     1       6.281  -1.793   3.494  1.00  0.00     0.185 C 
ATOM      8  C   UNL     1       4.220   0.390   4.393  1.00  0.00     0.043 C 
ATOM      9  C   UNL     1       5.066   0.275   3.124  1.00  0.00     0.141 C 
ATOM     10  S   UNL     1       6.729   0.877   3.510  1.00  0.00    -0.135 SA
ATOM     11  N   UNL     1       5.245  -1.104   2.698  1.00  0.00    -0.318 N 
ATOM     12  C   UNL     1       7.362  -0.773   3.897  1.00  0.00     0.107 C 
BRANCH  11  13
ATOM     13  C   UNL     1       4.333  -1.856   1.972  1.00  0.00     0.232 C 
ATOM     14  O   UNL     1       4.360  -3.091   2.041  1.00  0.00    -0.274 OA
BRANCH  13  15
ATOM     15  C   UNL     1       3.311  -1.219   1.012  1.00  0.00     0.120 C 
ATOM     16  C   UNL     1       3.903  -0.268  -0.040  1.00  0.00     0.093 C 
ATOM     17  C   UNL     1       2.188  -0.526   1.725  1.00  0.00    -0.021 A 
ATOM     18  S   UNL     1       3.121   1.373   0.139  1.00  0.00    -0.125 SA
ATOM     19  C   UNL     1       2.055   0.831   1.439  1.00  0.00     0.011 A 
ATOM     20  C   UNL     1       1.360  -1.139   2.664  1.00  0.00     0.006 A 
ATOM     21  C   UNL     1       1.191   1.625   2.174  1.00  0.00     0.015 A 
ATOM     22  C   UNL     1       0.471  -0.350   3.391  1.00  0.00     0.000 A 
ATOM     23  C   UNL     1       0.410   1.031   3.168  1.00  0.00     0.001 A 
ENDBRANCH  13  15
ENDBRANCH  11  13
ENDBRANCH   4   7
ENDBRANCH   2   3
ENDBRANCH   1   2
BRANCH   1  24
ATOM     24  C   UNL     1       9.574  -2.473  -0.515  1.00  0.00     0.118 C 
BRANCH  24  25
ATOM     25  N   UNL     1       8.995  -2.964  -1.758  1.00  0.00    -0.352 N 
ATOM     26  C   UNL     1       9.493  -2.911  -3.035  1.00  0.00     0.251 C 
ATOM     27  H   UNL     1       8.116  -3.399  -1.669  1.00  0.00     0.163 HD
ATOM     28  O   UNL     1       8.771  -3.195  -3.989  1.00  0.00    -0.269 OA
BRANCH  26  29
ATOM     29  C   UNL     1      10.890  -2.490  -3.264  1.00  0.00     0.039 A 
ATOM     30  C   UNL     1      11.175  -1.628  -4.325  1.00  0.00     0.014 A 
ATOM     31  C   UNL     1      11.918  -2.938  -2.429  1.00  0.00     0.014 A 
ATOM     32  C   UNL     1      12.477  -1.161  -4.503  1.00  0.00     0.010 A 
ATOM     33  C   UNL     1      13.190  -2.391  -2.544  1.00  0.00     0.010 A 
ATOM     34  C   UNL     1      13.487  -1.505  -3.589  1.00  0.00    -0.014 A 
BRANCH  34  35
ATOM     35  C   UNL     1      14.861  -0.959  -3.712  1.00  0.00     0.031 A 
ATOM     36  C   UNL     1      16.024  -1.887  -3.930  1.00  0.00     0.074 A 
ATOM     37  C   UNL     1      15.069   0.363  -3.563  1.00  0.00     0.049 A 
ATOM     38  N   UNL     1      17.301  -1.610  -4.005  1.00  0.00    -0.248 NA
ATOM     39  C   UNL     1      15.715  -3.321  -4.052  1.00  0.00     0.031 C 
ATOM     40  C   UNL     1      14.030   1.361  -3.301  1.00  0.00     0.029 A 
ATOM     41  N   UNL     1      16.228   1.096  -3.606  1.00  0.00    -0.354 N 
ATOM     42  C   UNL     1      17.944  -2.831  -4.167  1.00  0.00     0.074 A 
ATOM     43  C   UNL     1      16.925  -3.855  -4.115  1.00  0.00     0.031 C 
ATOM     44  C   UNL     1      14.593   2.578  -3.241  1.00  0.00     0.029 A 
ATOM     45  C   UNL     1      16.036   2.443  -3.414  1.00  0.00     0.049 A 
ATOM     46  H   UNL     1      17.114   0.695  -3.759  1.00  0.00     0.167 HD
ATOM     47  C   UNL     1      19.261  -3.075  -4.366  1.00  0.00     0.037 A 
ATOM     48  C   UNL     1      16.924   3.454  -3.375  1.00  0.00     0.037 A 
ATOM     49  C   UNL     1      20.269  -2.051  -4.434  1.00  0.00     0.049 A 
ATOM     50  C   UNL     1      18.384   3.153  -3.572  1.00  0.00     0.074 A 
ATOM     51  C   UNL     1      21.622  -2.188  -4.692  1.00  0.00     0.029 A 
ATOM     52  N   UNL     1      20.035  -0.698  -4.234  1.00  0.00    -0.354 N 
ATOM     53  N   UNL     1      18.970   2.002  -3.800  1.00  0.00    -0.248 NA
ATOM     54  C   UNL     1      19.308   4.294  -3.509  1.00  0.00     0.031 C 
ATOM     55  C   UNL     1      22.215  -0.926  -4.590  1.00  0.00     0.029 A 
ATOM     56  C   UNL     1      21.223   0.007  -4.332  1.00  0.00     0.049 A 
ATOM     57  H   UNL     1      19.154  -0.298  -4.050  1.00  0.00     0.167 HD
ATOM     58  C   UNL     1      20.323   2.285  -3.943  1.00  0.00     0.074 A 
ATOM     59  C   UNL     1      20.468   3.717  -3.788  1.00  0.00     0.031 C 
ATOM     60  C   UNL     1      21.351   1.435  -4.183  1.00  0.00     0.037 A 
BRANCH  47  61
ATOM     61  C   UNL     1      19.682  -4.510  -4.520  1.00  0.00     0.057 A 
ATOM     62  C   UNL     1      19.318  -5.276  -5.636  1.00  0.00     0.134 A 
ATOM     63  C   UNL     1      20.479  -5.128  -3.549  1.00  0.00     0.134 A 
ATOM     64  F   UNL     1      18.545  -4.750  -6.599  1.00  0.00    -0.206 F 
ATOM     65  C   UNL     1      19.700  -6.612  -5.763  1.00  0.00     0.040 A 
ATOM     66  C   UNL     1      20.895  -6.455  -3.680  1.00  0.00     0.040 A 
ATOM     67  F   UNL     1      20.872  -4.454  -2.457  1.00  0.00    -0.206 F 
ATOM     68  C   UNL     1      20.497  -7.204  -4.786  1.00  0.00     0.006 A 
ENDBRANCH  47  61
BRANCH  48  69
ATOM     69  C   UNL     1      16.459   4.849  -3.167  1.00  0.00     0.057 A 
ATOM     70  C   UNL     1      16.547   5.798  -4.193  1.00  0.00     0.134 A 
ATOM     71  C   UNL     1      15.929   5.273  -1.943  1.00  0.00     0.134 A 
ATOM     72  F   UNL     1      17.062   5.457  -5.384  1.00  0.00    -0.206 F 
ATOM     73  C   UNL     1      16.149   7.122  -4.003  1.00  0.00     0.040 A 
ATOM     74  C   UNL     1      15.500   6.587  -1.747  1.00  0.00     0.040 A 
ATOM     75  F   UNL     1      15.808   4.412  -0.922  1.00  0.00    -0.206 F 
ATOM     76  C   UNL     1      15.619   7.518  -2.777  1.00  0.00     0.006 A 
ENDBRANCH  48  69
BRANCH  60  77
ATOM     77  C   UNL     1      22.719   2.036  -4.336  1.00  0.00     0.057 A 
ATOM     78  C   UNL     1      23.418   2.581  -3.252  1.00  0.00     0.134 A 
ATOM     79  C   UNL     1      23.359   2.036  -5.583  1.00  0.00     0.134 A 
ATOM     80  F   UNL     1      22.858   2.625  -2.034  1.00  0.00    -0.206 F 
ATOM     81  C   UNL     1      24.694   3.128  -3.408  1.00  0.00     0.040 A 
ATOM     82  C   UNL     1      24.645   2.551  -5.744  1.00  0.00     0.040 A 
ATOM     83  F   UNL     1      22.750   1.521  -6.662  1.00  0.00    -0.206 F 
ATOM     84  C   UNL     1      25.314   3.106  -4.656  1.00  0.00     0.006 A 
ENDBRANCH  60  77
ENDBRANCH  34  35
ENDBRANCH  26  29
ENDBRANCH  24  25
ENDBRANCH   1  24
TORSDOF 12
