REMARK SMILES O=C(CCOc1cccc(/C=C2\CCn3c2nc2cc(Cl)ccc2c3=O)c1)NCCCNC(=O)c1ccc(-c2c3nc(c(-c4c(F)cccc4F)c4ccc([nH]4)c(-c4c(F)cccc4F)c4nc(c(-c5c(F)cccc5F)c5ccc2[nH]5)C=C4)C=C3)cc1
REMARK SMILES IDX 29 1 28 2 1 3 2 4 3 6 4 7 5 8 6 9 7 10 27 11 8 12 10 13 9 14
REMARK SMILES IDX 11 15 12 16 13 17 16 18 14 19 15 20 17 21 25 22 18 23 24 24
REMARK SMILES IDX 26 25 19 26 23 27 20 28 22 29 21 30 30 31 31 32 32 33 33 34
REMARK SMILES IDX 34 36 35 37 36 38 88 39 37 40 87 41 38 42 39 43 40 44 81 45
REMARK SMILES IDX 41 46 86 47 80 48 82 49 42 50 85 51 79 52 78 53 43 55 69 56
REMARK SMILES IDX 52 57 68 58 53 59 56 60 67 61 83 62 54 63 55 64 66 66 84 67
REMARK SMILES IDX 57 68 44 69 45 70 50 71 46 72 47 73 49 74 51 75 48 76 70 77
REMARK SMILES IDX 71 78 76 79 72 80 73 81 75 82 77 83 74 84 58 85 59 86 64 87
REMARK SMILES IDX 60 88 61 89 63 90 65 91 62 92
REMARK H PARENT 28 5 32 35 82 54 56 65
REMARK Flexibility Score: inf
ROOT
ATOM      1  C   UNL     1       1.638   1.398   0.774  1.00  0.00     0.117 C 
ENDROOT
BRANCH   1   2
ATOM      2  N   UNL     1       2.569   0.317   0.581  1.00  0.00    -0.356 N 
ATOM      3  O   UNL     1       0.991  -1.204  -0.116  1.00  0.00    -0.275 OA
ATOM      4  C   UNL     1       2.162  -0.865   0.011  1.00  0.00     0.223 C 
ATOM      5  H   UNL     1       3.507   0.426   0.860  1.00  0.00     0.163 HD
BRANCH   4   6
ATOM      6  C   UNL     1       3.298  -1.633  -0.603  1.00  0.00     0.141 C 
BRANCH   6   7
ATOM      7  C   UNL     1       3.543  -1.052  -1.996  1.00  0.00     0.239 C 
BRANCH   7   8
ATOM      8  O   UNL     1       4.321   0.148  -1.922  1.00  0.00    -0.493 OA
BRANCH   8   9
ATOM      9  C   UNL     1       3.820   1.296  -2.484  1.00  0.00     0.119 A 
ATOM     10  C   UNL     1       4.775   2.130  -3.052  1.00  0.00     0.046 A 
ATOM     11  C   UNL     1       2.504   1.769  -2.332  1.00  0.00     0.054 A 
ATOM     12  C   UNL     1       4.391   3.373  -3.561  1.00  0.00     0.004 A 
ATOM     13  C   UNL     1       2.170   3.129  -2.567  1.00  0.00    -0.022 A 
ATOM     14  C   UNL     1       3.083   3.860  -3.345  1.00  0.00     0.008 A 
BRANCH  13  15
ATOM     15  C   UNL     1       1.103   3.810  -1.652  1.00  0.00     0.015 C 
ATOM     16  C   UNL     1       1.438   4.752  -0.699  1.00  0.00    -0.003 C 
ATOM     17  C   UNL     1       2.716   5.495  -0.885  1.00  0.00     0.061 C 
ATOM     18  C   UNL     1       1.659   4.313   0.792  1.00  0.00     0.139 A 
ATOM     19  C   UNL     1       3.769   4.436  -0.479  1.00  0.00     0.132 C 
ATOM     20  N   UNL     1       3.110   3.411   0.454  1.00  0.00    -0.292 N 
ATOM     21  N   UNL     1       1.190   4.553   2.154  1.00  0.00    -0.230 NA
ATOM     22  C   UNL     1       3.938   2.327   1.642  1.00  0.00     0.261 A 
ATOM     23  C   UNL     1       1.842   3.649   3.623  1.00  0.00     0.080 A 
ATOM     24  C   UNL     1       3.267   2.557   3.459  1.00  0.00     0.066 A 
ATOM     25  O   UNL     1       4.855   1.600   1.287  1.00  0.00    -0.269 OA
ATOM     26  C   UNL     1       1.087   3.531   4.759  1.00  0.00     0.049 A 
ATOM     27  C   UNL     1       3.570   1.629   4.417  1.00  0.00     0.017 A 
ATOM     28  C   UNL     1       1.492   2.493   5.636  1.00  0.00     0.043 A 
ATOM     29  C   UNL     1       2.646   1.606   5.480  1.00  0.00     0.021 A 
ATOM     30  Cl  UNL     1       0.445   2.149   6.981  1.00  0.00    -0.084 Cl
ENDBRANCH  13  15
ENDBRANCH   8   9
ENDBRANCH   7   8
ENDBRANCH   6   7
ENDBRANCH   4   6
ENDBRANCH   1   2
BRANCH   1  31
ATOM     31  C   UNL     1       1.927   2.539   1.877  1.00  0.00     0.042 C 
BRANCH  31  32
ATOM     32  C   UNL     1       3.322   4.205   2.235  1.00  0.00     0.118 C 
BRANCH  32  33
ATOM     33  N   UNL     1       4.982   4.209   1.813  1.00  0.00    -0.352 N 
ATOM     34  C   UNL     1       5.890   5.218   1.783  1.00  0.00     0.251 C 
ATOM     35  H   UNL     1       5.338   3.330   1.548  1.00  0.00     0.163 HD
ATOM     36  O   UNL     1       6.633   5.429   0.836  1.00  0.00    -0.269 OA
BRANCH  34  37
ATOM     37  C   UNL     1       6.050   5.897   3.021  1.00  0.00     0.039 A 
ATOM     38  C   UNL     1       6.003   7.282   3.070  1.00  0.00     0.014 A 
ATOM     39  C   UNL     1       6.299   5.047   4.099  1.00  0.00     0.014 A 
ATOM     40  C   UNL     1       6.216   7.856   4.296  1.00  0.00     0.010 A 
ATOM     41  C   UNL     1       6.450   5.614   5.322  1.00  0.00     0.010 A 
ATOM     42  C   UNL     1       6.444   7.012   5.395  1.00  0.00    -0.014 A 
BRANCH  42  43
ATOM     43  C   UNL     1       6.789   7.564   6.687  1.00  0.00     0.031 A 
ATOM     44  C   UNL     1       8.194   7.391   7.145  1.00  0.00     0.074 A 
ATOM     45  C   UNL     1       5.779   8.041   7.420  1.00  0.00     0.049 A 
ATOM     46  N   UNL     1       8.701   7.626   8.318  1.00  0.00    -0.248 NA
ATOM     47  C   UNL     1       9.144   6.810   6.173  1.00  0.00     0.031 C 
ATOM     48  C   UNL     1       4.379   8.128   6.987  1.00  0.00     0.029 A 
ATOM     49  N   UNL     1       5.775   8.515   8.690  1.00  0.00    -0.354 N 
ATOM     50  C   UNL     1      10.019   7.203   8.234  1.00  0.00     0.074 A 
ATOM     51  C   UNL     1      10.218   6.631   6.925  1.00  0.00     0.031 C 
ATOM     52  C   UNL     1       3.651   8.652   7.983  1.00  0.00     0.029 A 
ATOM     53  C   UNL     1       4.532   8.898   9.115  1.00  0.00     0.049 A 
ATOM     54  H   UNL     1       6.583   8.577   9.249  1.00  0.00     0.167 HD
ATOM     55  C   UNL     1      10.972   7.322   9.182  1.00  0.00     0.037 A 
ATOM     56  C   UNL     1       4.181   9.398  10.307  1.00  0.00     0.037 A 
ATOM     57  C   UNL     1      10.704   7.929  10.456  1.00  0.00     0.049 A 
ATOM     58  C   UNL     1       5.279   9.585  11.313  1.00  0.00     0.074 A 
ATOM     59  C   UNL     1      11.569   8.176  11.501  1.00  0.00     0.029 A 
ATOM     60  N   UNL     1       9.451   8.397  10.843  1.00  0.00    -0.354 N 
ATOM     61  N   UNL     1       6.546   9.248  11.225  1.00  0.00    -0.248 NA
ATOM     62  C   UNL     1       4.910  10.239  12.568  1.00  0.00     0.031 C 
ATOM     63  C   UNL     1      10.832   8.772  12.532  1.00  0.00     0.029 A 
ATOM     64  C   UNL     1       9.518   8.936  12.112  1.00  0.00     0.049 A 
ATOM     65  H   UNL     1       8.636   8.350  10.292  1.00  0.00     0.167 HD
ATOM     66  C   UNL     1       7.138   9.674  12.402  1.00  0.00     0.074 A 
ATOM     67  C   UNL     1       6.085  10.310  13.176  1.00  0.00     0.031 C 
ATOM     68  C   UNL     1       8.424   9.555  12.821  1.00  0.00     0.037 A 
BRANCH  55  69
ATOM     69  C   UNL     1      12.338   6.801   8.854  1.00  0.00     0.057 A 
ATOM     70  C   UNL     1      13.135   7.385   7.857  1.00  0.00     0.134 A 
ATOM     71  C   UNL     1      12.858   5.684   9.519  1.00  0.00     0.134 A 
ATOM     72  F   UNL     1      12.687   8.440   7.160  1.00  0.00    -0.206 F 
ATOM     73  C   UNL     1      14.383   6.861   7.515  1.00  0.00     0.040 A 
ATOM     74  C   UNL     1      14.118   5.169   9.206  1.00  0.00     0.040 A 
ATOM     75  F   UNL     1      12.147   5.067  10.473  1.00  0.00    -0.206 F 
ATOM     76  C   UNL     1      14.880   5.752   8.196  1.00  0.00     0.006 A 
ENDBRANCH  55  69
BRANCH  56  77
ATOM     77  C   UNL     1       2.783   9.811  10.549  1.00  0.00     0.057 A 
ATOM     78  C   UNL     1       2.442  11.166  10.622  1.00  0.00     0.134 A 
ATOM     79  C   UNL     1       1.747   8.876  10.654  1.00  0.00     0.134 A 
ATOM     80  F   UNL     1       3.392  12.107  10.513  1.00  0.00    -0.206 F 
ATOM     81  C   UNL     1       1.125  11.578  10.823  1.00  0.00     0.040 A 
ATOM     82  C   UNL     1       0.421   9.274  10.832  1.00  0.00     0.040 A 
ATOM     83  F   UNL     1       2.004   7.564  10.554  1.00  0.00    -0.206 F 
ATOM     84  C   UNL     1       0.109  10.629  10.926  1.00  0.00     0.006 A 
ENDBRANCH  56  77
BRANCH  68  85
ATOM     85  C   UNL     1       8.736  10.159  14.153  1.00  0.00     0.057 A 
ATOM     86  C   UNL     1       8.294   9.575  15.346  1.00  0.00     0.134 A 
ATOM     87  C   UNL     1       9.506  11.325  14.237  1.00  0.00     0.134 A 
ATOM     88  F   UNL     1       7.542   8.464  15.323  1.00  0.00    -0.206 F 
ATOM     89  C   UNL     1       8.578  10.154  16.581  1.00  0.00     0.040 A 
ATOM     90  C   UNL     1       9.823  11.894  15.468  1.00  0.00     0.040 A 
ATOM     91  F   UNL     1       9.966  11.920  13.127  1.00  0.00    -0.206 F 
ATOM     92  C   UNL     1       9.350  11.313  16.643  1.00  0.00     0.006 A 
ENDBRANCH  68  85
ENDBRANCH  42  43
ENDBRANCH  34  37
ENDBRANCH  32  33
ENDBRANCH  31  32
ENDBRANCH   1  31
TORSDOF 14
