REMARK SMILES CC1(C)C[C@@H](Nc2ccc(Cl)c(C(=O)NCCCNC(=O)c3ccc(-c4c5nc(c(-c6c(F)cccc6F)c6ccc([nH]6)c(-c6c(F)cccc6F)c6nc(c(-c7c(F)cccc7F)c7ccc4[nH]7)C=C6)C=C5)cc3)c2)C(C)(C)O1
REMARK SMILES IDX 17 1 16 2 15 3 13 4 14 5 12 7 7 8 8 9 76 10 9 11 10 12 11 13
REMARK SMILES IDX 6 14 5 16 1 17 2 18 3 19 4 20 80 21 77 22 78 23 79 24 18 25
REMARK SMILES IDX 19 26 20 27 21 29 22 30 23 31 75 32 24 33 74 34 25 35 26 36
REMARK SMILES IDX 27 37 68 38 28 39 73 40 67 41 69 42 29 43 72 44 66 45 65 46
REMARK SMILES IDX 30 48 56 49 39 50 55 51 40 52 43 53 54 54 70 55 41 56 42 57
REMARK SMILES IDX 53 59 71 60 44 61 31 62 32 63 37 64 33 65 34 66 36 67 38 68
REMARK SMILES IDX 35 69 57 70 58 71 63 72 59 73 60 74 62 75 64 76 61 77 45 78
REMARK SMILES IDX 46 79 51 80 47 81 48 82 50 83 52 84 49 85
REMARK H PARENT 15 6 6 15 19 28 69 47 43 58
REMARK Flexibility Score: inf
ROOT
ATOM      1  C   UNL     1       2.987   1.754  12.180  1.00  0.00     0.042 C 
ENDROOT
BRANCH   1   2
ATOM      2  C   UNL     1       1.921   1.963  11.122  1.00  0.00     0.118 C 
BRANCH   2   3
ATOM      3  N   UNL     1       2.154   3.076  10.221  1.00  0.00    -0.352 N 
ATOM      4  C   UNL     1       2.033   3.178   8.855  1.00  0.00     0.252 C 
ATOM      5  O   UNL     1       2.220   4.289   8.356  1.00  0.00    -0.269 OA
ATOM      6  H   UNL     1       2.450   3.903  10.665  1.00  0.00     0.163 HD
BRANCH   4   7
ATOM      7  C   UNL     1       1.808   2.017   7.950  1.00  0.00     0.060 A 
ATOM      8  C   UNL     1       2.312   1.093   5.738  1.00  0.00     0.035 A 
ATOM      9  C   UNL     1       1.667  -0.088   6.101  1.00  0.00     0.027 A 
ATOM     10  C   UNL     1       2.457   2.098   6.699  1.00  0.00     0.041 A 
ATOM     11  C   UNL     1       0.979  -0.168   7.306  1.00  0.00     0.023 A 
ATOM     12  C   UNL     1       0.951   0.933   8.168  1.00  0.00     0.053 A 
ATOM     13  Cl  UNL     1      -0.362   0.948   9.297  1.00  0.00    -0.083 Cl
BRANCH   8  14
ATOM     14  N   UNL     1       2.588   1.363   4.398  1.00  0.00    -0.379 N 
ATOM     15  H   UNL     1       3.494   1.585   4.084  1.00  0.00     0.160 HD
BRANCH  14  16
ATOM     16  C   UNL     1       1.437   1.294   3.486  1.00  0.00     0.113 C 
ATOM     17  C   UNL     1       1.080   0.096  -0.004  1.00  0.00     0.042 C 
ATOM     18  C   UNL     1       0.640   0.610   1.363  1.00  0.00     0.065 C 
ATOM     19  C   UNL     1      -0.796   0.152   1.648  1.00  0.00     0.042 C 
ATOM     20  C   UNL     1       1.618   0.199   2.457  1.00  0.00     0.062 C 
ATOM     21  O   UNL     1       0.653   2.050   1.346  1.00  0.00    -0.367 OA
ATOM     22  C   UNL     1       1.168   2.543   2.612  1.00  0.00     0.083 C 
ATOM     23  C   UNL     1       2.401   3.383   2.275  1.00  0.00     0.044 C 
ATOM     24  C   UNL     1       0.093   3.441   3.232  1.00  0.00     0.044 C 
ENDBRANCH  14  16
ENDBRANCH   8  14
ENDBRANCH   4   7
ENDBRANCH   2   3
ENDBRANCH   1   2
BRANCH   1  25
ATOM     25  C   UNL     1       3.115   2.862  13.210  1.00  0.00     0.118 C 
BRANCH  25  26
ATOM     26  N   UNL     1       1.914   3.059  14.015  1.00  0.00    -0.352 N 
ATOM     27  C   UNL     1       1.622   2.740  15.319  1.00  0.00     0.251 C 
ATOM     28  H   UNL     1       1.177   3.502  13.536  1.00  0.00     0.163 HD
ATOM     29  O   UNL     1       0.467   2.882  15.726  1.00  0.00    -0.269 OA
BRANCH  27  30
ATOM     30  C   UNL     1       2.650   2.202  16.238  1.00  0.00     0.039 A 
ATOM     31  C   UNL     1       2.280   1.232  17.177  1.00  0.00     0.014 A 
ATOM     32  C   UNL     1       3.968   2.657  16.209  1.00  0.00     0.014 A 
ATOM     33  C   UNL     1       3.244   0.668  18.016  1.00  0.00     0.010 A 
ATOM     34  C   UNL     1       4.948   2.008  16.953  1.00  0.00     0.010 A 
ATOM     35  C   UNL     1       4.597   1.015  17.877  1.00  0.00    -0.014 A 
BRANCH  35  36
ATOM     36  C   UNL     1       5.654   0.361  18.692  1.00  0.00     0.031 A 
ATOM     37  C   UNL     1       6.536   1.180  19.596  1.00  0.00     0.074 A 
ATOM     38  C   UNL     1       5.871  -0.962  18.559  1.00  0.00     0.049 A 
ATOM     39  N   UNL     1       7.541   0.795  20.343  1.00  0.00    -0.248 NA
ATOM     40  C   UNL     1       6.281   2.628  19.640  1.00  0.00     0.031 C 
ATOM     41  C   UNL     1       5.139  -1.853  17.657  1.00  0.00     0.029 A 
ATOM     42  N   UNL     1       6.778  -1.787  19.175  1.00  0.00    -0.354 N 
ATOM     43  C   UNL     1       8.044   1.952  20.925  1.00  0.00     0.074 A 
ATOM     44  C   UNL     1       7.282   3.058  20.390  1.00  0.00     0.031 C 
ATOM     45  C   UNL     1       5.606  -3.103  17.798  1.00  0.00     0.029 A 
ATOM     46  C   UNL     1       6.696  -3.096  18.768  1.00  0.00     0.049 A 
ATOM     47  H   UNL     1       7.426  -1.470  19.845  1.00  0.00     0.167 HD
ATOM     48  C   UNL     1       9.031   2.081  21.844  1.00  0.00     0.037 A 
ATOM     49  C   UNL     1       7.420  -4.171  19.130  1.00  0.00     0.037 A 
ATOM     50  C   UNL     1       9.774   0.974  22.387  1.00  0.00     0.049 A 
ATOM     51  C   UNL     1       8.498  -4.013  20.165  1.00  0.00     0.074 A 
ATOM     52  C   UNL     1      10.740   0.984  23.377  1.00  0.00     0.029 A 
ATOM     53  N   UNL     1       9.638  -0.345  21.975  1.00  0.00    -0.354 N 
ATOM     54  N   UNL     1       8.899  -2.925  20.779  1.00  0.00    -0.248 NA
ATOM     55  C   UNL     1       9.213  -5.230  20.568  1.00  0.00     0.031 C 
ATOM     56  C   UNL     1      11.230  -0.319  23.523  1.00  0.00     0.029 A 
ATOM     57  C   UNL     1      10.526  -1.152  22.668  1.00  0.00     0.049 A 
ATOM     58  H   UNL     1       9.004  -0.660  21.291  1.00  0.00     0.167 HD
ATOM     59  C   UNL     1       9.902  -3.329  21.652  1.00  0.00     0.074 A 
ATOM     60  C   UNL     1      10.028  -4.765  21.504  1.00  0.00     0.031 C 
ATOM     61  C   UNL     1      10.650  -2.579  22.498  1.00  0.00     0.037 A 
BRANCH  48  62
ATOM     62  C   UNL     1       9.361   3.473  22.310  1.00  0.00     0.057 A 
ATOM     63  C   UNL     1       8.458   4.240  23.061  1.00  0.00     0.134 A 
ATOM     64  C   UNL     1      10.596   4.056  22.002  1.00  0.00     0.134 A 
ATOM     65  F   UNL     1       7.252   3.750  23.383  1.00  0.00    -0.206 F 
ATOM     66  C   UNL     1       8.754   5.549  23.449  1.00  0.00     0.040 A 
ATOM     67  C   UNL     1      10.917   5.351  22.414  1.00  0.00     0.040 A 
ATOM     68  F   UNL     1      11.513   3.379  21.294  1.00  0.00    -0.206 F 
ATOM     69  C   UNL     1       9.989   6.106  23.128  1.00  0.00     0.006 A 
ENDBRANCH  48  62
BRANCH  49  70
ATOM     70  C   UNL     1       7.129  -5.493  18.518  1.00  0.00     0.057 A 
ATOM     71  C   UNL     1       6.533  -6.521  19.258  1.00  0.00     0.134 A 
ATOM     72  C   UNL     1       7.415  -5.750  17.172  1.00  0.00     0.134 A 
ATOM     73  F   UNL     1       6.249  -6.341  20.556  1.00  0.00    -0.206 F 
ATOM     74  C   UNL     1       6.243  -7.761  18.685  1.00  0.00     0.040 A 
ATOM     75  C   UNL     1       7.106  -6.975  16.579  1.00  0.00     0.040 A 
ATOM     76  F   UNL     1       7.975  -4.803  16.406  1.00  0.00    -0.206 F 
ATOM     77  C   UNL     1       6.522  -7.987  17.339  1.00  0.00     0.006 A 
ENDBRANCH  49  70
BRANCH  61  78
ATOM     78  C   UNL     1      11.662  -3.304  23.340  1.00  0.00     0.057 A 
ATOM     79  C   UNL     1      12.817  -3.871  22.786  1.00  0.00     0.134 A 
ATOM     80  C   UNL     1      11.488  -3.417  24.725  1.00  0.00     0.134 A 
ATOM     81  F   UNL     1      13.039  -3.809  21.464  1.00  0.00    -0.206 F 
ATOM     82  C   UNL     1      13.746  -4.552  23.575  1.00  0.00     0.040 A 
ATOM     83  C   UNL     1      12.425  -4.068  25.528  1.00  0.00     0.040 A 
ATOM     84  F   UNL     1      10.409  -2.888  25.323  1.00  0.00    -0.206 F 
ATOM     85  C   UNL     1      13.553  -4.646  24.952  1.00  0.00     0.006 A 
ENDBRANCH  61  78
ENDBRANCH  35  36
ENDBRANCH  27  30
ENDBRANCH  25  26
ENDBRANCH   1  25
TORSDOF 12
