REMARK SMILES O=C(NCCCNC(=O)[C@H](CO)NC(=O)[C@H](CS)NC(=O)c1ccc(F)cc1)c1ccc(-c2c3nc(c(-c4c(F)cccc4F)c4ccc([nH]4)c(-c4c(F)cccc4F)c4nc(c(-c5c(F)cccc5F)c5ccc2[nH]5)C=C4)C=C3)cc1
REMARK SMILES IDX 6 1 5 2 4 3 3 4 1 5 2 6 29 8 30 9 82 10 31 11 81 12 32 13
REMARK SMILES IDX 33 14 34 15 75 16 35 17 80 18 74 19 76 20 36 21 79 22 73 23
REMARK SMILES IDX 72 24 37 26 63 27 46 28 62 29 47 30 50 31 61 32 77 33 48 34
REMARK SMILES IDX 49 35 60 37 78 38 51 39 38 40 39 41 44 42 40 43 41 44 43 45
REMARK SMILES IDX 45 46 42 47 64 48 65 49 70 50 66 51 67 52 69 53 71 54 68 55
REMARK SMILES IDX 52 56 53 57 58 58 54 59 55 60 57 61 59 62 56 63 7 64 8 65
REMARK SMILES IDX 9 67 10 68 13 69 14 70 15 72 16 73 19 74 20 75 21 77 22 78
REMARK SMILES IDX 23 79 28 80 24 81 27 82 25 83 26 84 17 85 18 86 11 88 12 89
REMARK H PARENT 3 7 76 25 50 36 7 66 13 71 19 76 18 87 12 90
REMARK Flexibility Score: inf
ROOT
ATOM      1  C   UNL     1       1.567   9.639   7.393  1.00  0.00     0.117 C 
ENDROOT
BRANCH   1   2
ATOM      2  C   UNL     1       0.504   8.956   8.247  1.00  0.00     0.042 C 
BRANCH   2   3
ATOM      3  C   UNL     1       0.278   9.639   9.589  1.00  0.00     0.118 C 
BRANCH   3   4
ATOM      4  N   UNL     1      -0.416  10.909   9.437  1.00  0.00    -0.352 N 
ATOM      5  O   UNL     1      -2.202  12.280   9.390  1.00  0.00    -0.269 OA
ATOM      6  C   UNL     1      -1.683  11.251   9.830  1.00  0.00     0.251 C 
ATOM      7  H   UNL     1       0.095  11.620   8.988  1.00  0.00     0.163 HD
BRANCH   6   8
ATOM      8  C   UNL     1      -2.427  10.400  10.782  1.00  0.00     0.039 A 
ATOM      9  C   UNL     1      -1.784   9.853  11.896  1.00  0.00     0.014 A 
ATOM     10  C   UNL     1      -3.799  10.203  10.600  1.00  0.00     0.014 A 
ATOM     11  C   UNL     1      -2.485   9.035  12.773  1.00  0.00     0.010 A 
ATOM     12  C   UNL     1      -4.524   9.454  11.531  1.00  0.00     0.010 A 
ATOM     13  C   UNL     1      -3.871   8.869  12.627  1.00  0.00    -0.014 A 
BRANCH  13  14
ATOM     14  C   UNL     1      -4.638   8.223  13.719  1.00  0.00     0.031 A 
ATOM     15  C   UNL     1      -5.367   6.929  13.510  1.00  0.00     0.074 A 
ATOM     16  C   UNL     1      -4.673   8.844  14.915  1.00  0.00     0.049 A 
ATOM     17  N   UNL     1      -6.114   6.268  14.357  1.00  0.00    -0.248 NA
ATOM     18  C   UNL     1      -5.251   6.293  12.188  1.00  0.00     0.031 C 
ATOM     19  C   UNL     1      -4.011  10.117  15.219  1.00  0.00     0.029 A 
ATOM     20  N   UNL     1      -5.281   8.501  16.095  1.00  0.00    -0.354 N 
ATOM     21  C   UNL     1      -6.568   5.149  13.672  1.00  0.00     0.074 A 
ATOM     22  C   UNL     1      -6.026   5.224  12.333  1.00  0.00     0.031 C 
ATOM     23  C   UNL     1      -4.224  10.432  16.503  1.00  0.00     0.029 A 
ATOM     24  C   UNL     1      -5.099   9.428  17.094  1.00  0.00     0.049 A 
ATOM     25  H   UNL     1      -5.798   7.672  16.215  1.00  0.00     0.167 HD
ATOM     26  C   UNL     1      -7.360   4.154  14.134  1.00  0.00     0.037 A 
ATOM     27  C   UNL     1      -5.610   9.489  18.338  1.00  0.00     0.037 A 
ATOM     28  C   UNL     1      -7.871   4.084  15.479  1.00  0.00     0.049 A 
ATOM     29  C   UNL     1      -6.522   8.393  18.800  1.00  0.00     0.074 A 
ATOM     30  C   UNL     1      -8.627   3.078  16.055  1.00  0.00     0.029 A 
ATOM     31  N   UNL     1      -7.691   5.056  16.450  1.00  0.00    -0.354 N 
ATOM     32  N   UNL     1      -6.896   7.313  18.158  1.00  0.00    -0.248 NA
ATOM     33  C   UNL     1      -7.095   8.524  20.146  1.00  0.00     0.031 C 
ATOM     34  C   UNL     1      -8.955   3.468  17.355  1.00  0.00     0.029 A 
ATOM     35  C   UNL     1      -8.358   4.692  17.608  1.00  0.00     0.049 A 
ATOM     36  H   UNL     1      -7.166   5.881  16.335  1.00  0.00     0.167 HD
ATOM     37  C   UNL     1      -7.743   6.634  19.021  1.00  0.00     0.074 A 
ATOM     38  C   UNL     1      -7.808   7.409  20.243  1.00  0.00     0.031 C 
ATOM     39  C   UNL     1      -8.414   5.476  18.814  1.00  0.00     0.037 A 
BRANCH  26  40
ATOM     40  C   UNL     1      -7.743   3.044  13.201  1.00  0.00     0.057 A 
ATOM     41  C   UNL     1      -9.068   2.916  12.760  1.00  0.00     0.134 A 
ATOM     42  C   UNL     1      -6.848   2.020  12.871  1.00  0.00     0.134 A 
ATOM     43  F   UNL     1      -9.976   3.858  13.052  1.00  0.00    -0.206 F 
ATOM     44  C   UNL     1      -9.495   1.792  12.051  1.00  0.00     0.040 A 
ATOM     45  C   UNL     1      -7.260   0.900  12.146  1.00  0.00     0.040 A 
ATOM     46  F   UNL     1      -5.566   2.086  13.260  1.00  0.00    -0.206 F 
ATOM     47  C   UNL     1      -8.591   0.777  11.748  1.00  0.00     0.006 A 
ENDBRANCH  26  40
BRANCH  27  48
ATOM     48  C   UNL     1      -5.299  10.655  19.203  1.00  0.00     0.057 A 
ATOM     49  C   UNL     1      -5.756  11.940  18.882  1.00  0.00     0.134 A 
ATOM     50  C   UNL     1      -4.519  10.519  20.356  1.00  0.00     0.134 A 
ATOM     51  F   UNL     1      -6.502  12.140  17.785  1.00  0.00    -0.206 F 
ATOM     52  C   UNL     1      -5.432  13.050  19.663  1.00  0.00     0.040 A 
ATOM     53  C   UNL     1      -4.213  11.616  21.164  1.00  0.00     0.040 A 
ATOM     54  F   UNL     1      -4.065   9.312  20.726  1.00  0.00    -0.206 F 
ATOM     55  C   UNL     1      -4.663  12.887  20.812  1.00  0.00     0.006 A 
ENDBRANCH  27  48
BRANCH  39  56
ATOM     56  C   UNL     1      -9.283   4.970  19.925  1.00  0.00     0.057 A 
ATOM     57  C   UNL     1      -8.927   3.824  20.647  1.00  0.00     0.134 A 
ATOM     58  C   UNL     1     -10.519   5.561  20.208  1.00  0.00     0.134 A 
ATOM     59  F   UNL     1      -7.759   3.206  20.414  1.00  0.00    -0.206 F 
ATOM     60  C   UNL     1      -9.785   3.267  21.595  1.00  0.00     0.040 A 
ATOM     61  C   UNL     1     -11.375   5.028  21.172  1.00  0.00     0.040 A 
ATOM     62  F   UNL     1     -10.909   6.668  19.559  1.00  0.00    -0.206 F 
ATOM     63  C   UNL     1     -11.014   3.869  21.858  1.00  0.00     0.006 A 
ENDBRANCH  39  56
ENDBRANCH  13  14
ENDBRANCH   6   8
ENDBRANCH   3   4
ENDBRANCH   2   3
ENDBRANCH   1   2
BRANCH   1  64
ATOM     64  N   UNL     1       2.884   9.543   7.994  1.00  0.00    -0.354 N 
ATOM     65  C   UNL     1       3.877   8.638   7.776  1.00  0.00     0.244 C 
ATOM     66  H   UNL     1       3.090  10.236   8.662  1.00  0.00     0.163 HD
ATOM     67  O   UNL     1       4.876   8.705   8.498  1.00  0.00    -0.273 OA
BRANCH  65  68
ATOM     68  C   UNL     1       3.773   7.606   6.632  1.00  0.00     0.197 C 
BRANCH  68  69
ATOM     69  N   UNL     1       5.069   6.915   6.519  1.00  0.00    -0.340 N 
ATOM     70  C   UNL     1       6.014   6.973   5.540  1.00  0.00     0.244 C 
ATOM     71  H   UNL     1       5.286   6.317   7.270  1.00  0.00     0.164 HD
ATOM     72  O   UNL     1       7.035   6.299   5.688  1.00  0.00    -0.273 OA
BRANCH  70  73
ATOM     73  C   UNL     1       5.775   7.838   4.290  1.00  0.00     0.181 C 
BRANCH  73  74
ATOM     74  N   UNL     1       7.072   8.199   3.712  1.00  0.00    -0.339 N 
ATOM     75  C   UNL     1       7.724   9.399   3.664  1.00  0.00     0.251 C 
ATOM     76  H   UNL     1       7.554   7.453   3.287  1.00  0.00     0.164 HD
ATOM     77  O   UNL     1       8.796   9.499   3.070  1.00  0.00    -0.269 OA
BRANCH  75  78
ATOM     78  C   UNL     1       7.122  10.604   4.270  1.00  0.00     0.040 A 
ATOM     79  C   UNL     1       6.715  10.628   5.611  1.00  0.00     0.017 A 
ATOM     80  C   UNL     1       7.012  11.755   3.478  1.00  0.00     0.017 A 
ATOM     81  C   UNL     1       6.131  11.783   6.134  1.00  0.00     0.040 A 
ATOM     82  C   UNL     1       6.442  12.911   4.011  1.00  0.00     0.040 A 
ATOM     83  C   UNL     1       5.995  12.910   5.329  1.00  0.00     0.123 A 
ATOM     84  F   UNL     1       5.433  14.015   5.833  1.00  0.00    -0.207 F 
ENDBRANCH  75  78
ENDBRANCH  73  74
BRANCH  73  85
ATOM     85  C   UNL     1       4.836   7.152   3.287  1.00  0.00     0.101 C 
BRANCH  85  86
ATOM     86  S   UNL     1       5.601   5.853   2.267  1.00  0.00    -0.177 SA
ATOM     87  H   UNL     1       6.574   6.400   1.491  1.00  0.00     0.102 HD
ENDBRANCH  85  86
ENDBRANCH  73  85
ENDBRANCH  70  73
ENDBRANCH  68  69
BRANCH  68  88
ATOM     88  C   UNL     1       2.670   6.558   6.821  1.00  0.00     0.191 C 
BRANCH  88  89
ATOM     89  O   UNL     1       2.542   6.112   8.166  1.00  0.00    -0.394 OA
ATOM     90  H   UNL     1       3.368   5.687   8.445  1.00  0.00     0.210 HD
ENDBRANCH  88  89
ENDBRANCH  68  88
ENDBRANCH  65  68
ENDBRANCH   1  64
TORSDOF 18
