REMARK SMILES O=C(NCCCNC(=O)c1ccc(-c2c3nc(c(-c4c(F)cccc4F)c4ccc([nH]4)c(-c4c(F)cccc4F)c4nc(c(-c5c(F)cccc5F)c5ccc2[nH]5)C=C4)C=C3)cc1)C1=Cc2c(ccc(Cl)c2Sc2ccccc2)O[C@H]1C(F)(F)F
REMARK SMILES IDX 5 1 4 2 3 3 1 4 2 5 64 7 65 8 81 9 66 10 80 11 67 12 72 13
REMARK SMILES IDX 68 14 70 15 69 16 71 17 82 18 83 19 84 20 85 21 73 22 74 23
REMARK SMILES IDX 75 24 79 25 76 26 78 27 77 28 6 29 7 30 8 31 9 33 10 34
REMARK SMILES IDX 11 35 63 36 12 37 62 38 13 39 14 40 15 41 56 42 16 43 61 44
REMARK SMILES IDX 55 45 57 46 17 47 60 48 54 49 53 50 18 52 44 53 27 54 43 55
REMARK SMILES IDX 28 56 31 57 42 58 58 59 29 60 30 61 41 63 59 64 32 65 19 66
REMARK SMILES IDX 20 67 25 68 21 69 22 70 24 71 26 72 23 73 45 74 46 75 51 76
REMARK SMILES IDX 47 77 48 78 50 79 52 80 49 81 33 82 34 83 39 84 35 85 36 86
REMARK SMILES IDX 38 87 40 88 37 89
REMARK H PARENT 3 6 7 32 57 51 31 62
REMARK Flexibility Score: inf
ROOT
ATOM      1  C   UNL     1       4.164  -1.256   2.636  1.00  0.00     0.042 C 
ENDROOT
BRANCH   1   2
ATOM      2  C   UNL     1       3.551  -0.886   1.297  1.00  0.00     0.118 C 
BRANCH   2   3
ATOM      3  N   UNL     1       2.655   0.256   1.383  1.00  0.00    -0.352 N 
ATOM      4  O   UNL     1       1.846   2.316   1.040  1.00  0.00    -0.270 OA
ATOM      5  C   UNL     1       2.653   1.446   0.722  1.00  0.00     0.251 C 
ATOM      6  H   UNL     1       1.923   0.149   2.032  1.00  0.00     0.163 HD
BRANCH   5   7
ATOM      7  C   UNL     1       3.642   1.739  -0.334  1.00  0.00     0.067 C 
ATOM      8  C   UNL     1       3.713   1.012  -1.457  1.00  0.00     0.026 C 
ATOM      9  C   UNL     1       4.784   2.631   0.025  1.00  0.00     0.314 C 
ATOM     10  C   UNL     1       4.939   0.181  -1.481  1.00  0.00     0.033 A 
ATOM     11  O   UNL     1       6.072   1.997  -0.251  1.00  0.00    -0.475 OA
ATOM     12  C   UNL     1       6.058   0.734  -0.804  1.00  0.00     0.129 A 
ATOM     13  C   UNL     1       4.949  -1.159  -1.954  1.00  0.00     0.042 A 
ATOM     14  C   UNL     1       7.191  -0.032  -0.574  1.00  0.00     0.049 A 
ATOM     15  C   UNL     1       6.109  -1.920  -1.659  1.00  0.00     0.055 A 
ATOM     16  C   UNL     1       7.204  -1.363  -0.976  1.00  0.00     0.025 A 
ATOM     17  Cl  UNL     1       6.254  -3.610  -2.038  1.00  0.00    -0.083 Cl
BRANCH   9  18
ATOM     18  C   UNL     1       4.684   3.981  -0.700  1.00  0.00     0.429 C 
ATOM     19  F   UNL     1       4.841   3.849  -2.040  1.00  0.00    -0.167 F 
ATOM     20  F   UNL     1       3.491   4.585  -0.495  1.00  0.00    -0.167 F 
ATOM     21  F   UNL     1       5.639   4.839  -0.269  1.00  0.00    -0.167 F 
ENDBRANCH   9  18
BRANCH  13  22
ATOM     22  S   UNL     1       3.578  -2.011  -2.798  1.00  0.00    -0.088 SA
BRANCH  22  23
ATOM     23  C   UNL     1       2.222  -0.876  -2.949  1.00  0.00     0.012 A 
ATOM     24  C   UNL     1       1.221  -0.840  -1.969  1.00  0.00     0.015 A 
ATOM     25  C   UNL     1       2.176   0.036  -4.010  1.00  0.00     0.015 A 
ATOM     26  C   UNL     1       0.250   0.163  -1.992  1.00  0.00     0.001 A 
ATOM     27  C   UNL     1       1.205   1.041  -4.030  1.00  0.00     0.001 A 
ATOM     28  C   UNL     1       0.256   1.116  -3.011  1.00  0.00     0.000 A 
ENDBRANCH  22  23
ENDBRANCH  13  22
ENDBRANCH   5   7
ENDBRANCH   2   3
ENDBRANCH   1   2
BRANCH   1  29
ATOM     29  C   UNL     1       3.941  -2.715   3.001  1.00  0.00     0.118 C 
BRANCH  29  30
ATOM     30  N   UNL     1       4.653  -3.669   2.156  1.00  0.00    -0.352 N 
ATOM     31  C   UNL     1       5.563  -4.659   2.474  1.00  0.00     0.251 C 
ATOM     32  H   UNL     1       4.450  -3.594   1.196  1.00  0.00     0.163 HD
ATOM     33  O   UNL     1       6.072  -5.320   1.583  1.00  0.00    -0.269 OA
BRANCH  31  34
ATOM     34  C   UNL     1       5.977  -4.887   3.881  1.00  0.00     0.039 A 
ATOM     35  C   UNL     1       7.321  -5.166   4.153  1.00  0.00     0.014 A 
ATOM     36  C   UNL     1       5.069  -4.799   4.933  1.00  0.00     0.014 A 
ATOM     37  C   UNL     1       7.767  -5.227   5.477  1.00  0.00     0.010 A 
ATOM     38  C   UNL     1       5.534  -4.723   6.240  1.00  0.00     0.010 A 
ATOM     39  C   UNL     1       6.889  -4.934   6.532  1.00  0.00    -0.014 A 
BRANCH  39  40
ATOM     40  C   UNL     1       7.345  -4.843   7.946  1.00  0.00     0.031 A 
ATOM     41  C   UNL     1       6.683  -5.688   9.003  1.00  0.00     0.074 A 
ATOM     42  C   UNL     1       8.262  -3.921   8.303  1.00  0.00     0.049 A 
ATOM     43  N   UNL     1       6.791  -5.623  10.306  1.00  0.00    -0.248 NA
ATOM     44  C   UNL     1       5.727  -6.704   8.532  1.00  0.00     0.031 C 
ATOM     45  C   UNL     1       8.933  -2.987   7.395  1.00  0.00     0.029 A 
ATOM     46  N   UNL     1       8.777  -3.604   9.536  1.00  0.00    -0.354 N 
ATOM     47  C   UNL     1       5.879  -6.546  10.805  1.00  0.00     0.074 A 
ATOM     48  C   UNL     1       5.192  -7.120   9.670  1.00  0.00     0.031 C 
ATOM     49  C   UNL     1       9.790  -2.227   8.095  1.00  0.00     0.029 A 
ATOM     50  C   UNL     1       9.699  -2.586   9.506  1.00  0.00     0.049 A 
ATOM     51  H   UNL     1       8.510  -4.064  10.365  1.00  0.00     0.167 HD
ATOM     52  C   UNL     1       5.652  -6.903  12.091  1.00  0.00     0.037 A 
ATOM     53  C   UNL     1      10.388  -2.001  10.503  1.00  0.00     0.037 A 
ATOM     54  C   UNL     1       6.394  -6.393  13.212  1.00  0.00     0.049 A 
ATOM     55  C   UNL     1      10.178  -2.470  11.915  1.00  0.00     0.074 A 
ATOM     56  C   UNL     1       6.309  -6.760  14.543  1.00  0.00     0.029 A 
ATOM     57  N   UNL     1       7.375  -5.417  13.127  1.00  0.00    -0.354 N 
ATOM     58  N   UNL     1       9.350  -3.381  12.367  1.00  0.00    -0.248 NA
ATOM     59  C   UNL     1      10.999  -1.834  12.955  1.00  0.00     0.031 C 
ATOM     60  C   UNL     1       7.225  -5.990  15.268  1.00  0.00     0.029 A 
ATOM     61  C   UNL     1       7.902  -5.167  14.382  1.00  0.00     0.049 A 
ATOM     62  H   UNL     1       7.656  -4.968  12.296  1.00  0.00     0.167 HD
ATOM     63  C   UNL     1       9.566  -3.445  13.736  1.00  0.00     0.074 A 
ATOM     64  C   UNL     1      10.612  -2.490  14.041  1.00  0.00     0.031 C 
ATOM     65  C   UNL     1       8.952  -4.222  14.660  1.00  0.00     0.037 A 
BRANCH  52  66
ATOM     66  C   UNL     1       4.567  -7.908  12.347  1.00  0.00     0.057 A 
ATOM     67  C   UNL     1       4.700  -9.253  11.975  1.00  0.00     0.134 A 
ATOM     68  C   UNL     1       3.378  -7.530  12.984  1.00  0.00     0.134 A 
ATOM     69  F   UNL     1       5.807  -9.678  11.349  1.00  0.00    -0.206 F 
ATOM     70  C   UNL     1       3.676 -10.176  12.194  1.00  0.00     0.040 A 
ATOM     71  C   UNL     1       2.359  -8.450  13.235  1.00  0.00     0.040 A 
ATOM     72  F   UNL     1       3.187  -6.260  13.372  1.00  0.00    -0.206 F 
ATOM     73  C   UNL     1       2.503  -9.777  12.831  1.00  0.00     0.006 A 
ENDBRANCH  52  66
BRANCH  53  74
ATOM     74  C   UNL     1      11.371  -0.931  10.199  1.00  0.00     0.057 A 
ATOM     75  C   UNL     1      12.747  -1.178  10.284  1.00  0.00     0.134 A 
ATOM     76  C   UNL     1      10.968   0.353   9.816  1.00  0.00     0.134 A 
ATOM     77  F   UNL     1      13.193  -2.385  10.663  1.00  0.00    -0.206 F 
ATOM     78  C   UNL     1      13.687  -0.182  10.016  1.00  0.00     0.040 A 
ATOM     79  C   UNL     1      11.898   1.353   9.524  1.00  0.00     0.040 A 
ATOM     80  F   UNL     1       9.665   0.649   9.707  1.00  0.00    -0.206 F 
ATOM     81  C   UNL     1      13.262   1.088   9.629  1.00  0.00     0.006 A 
ENDBRANCH  53  74
BRANCH  65  82
ATOM     82  C   UNL     1       9.419  -4.098  16.078  1.00  0.00     0.057 A 
ATOM     83  C   UNL     1       9.075  -2.998  16.873  1.00  0.00     0.134 A 
ATOM     84  C   UNL     1      10.184  -5.112  16.667  1.00  0.00     0.134 A 
ATOM     85  F   UNL     1       8.355  -1.988  16.361  1.00  0.00    -0.206 F 
ATOM     86  C   UNL     1       9.491  -2.903  18.202  1.00  0.00     0.040 A 
ATOM     87  C   UNL     1      10.587  -5.039  18.000  1.00  0.00     0.040 A 
ATOM     88  F   UNL     1      10.540  -6.195  15.959  1.00  0.00    -0.206 F 
ATOM     89  C   UNL     1      10.243  -3.930  18.770  1.00  0.00     0.006 A 
ENDBRANCH  65  82
ENDBRANCH  39  40
ENDBRANCH  31  34
ENDBRANCH  29  30
ENDBRANCH   1  29
TORSDOF 13
