REMARK SMILES CO[C@@H]1C[C@H](C(=O)NCCCNC(=O)c2ccc(-c3c4nc(c(-c5c(F)cccc5F)c5ccc([nH]5)c(-c5c(F)cccc5F)c5nc(c(-c6c(F)cccc6F)c6ccc3[nH]6)C=C5)C=C4)cc2)N(C(=O)c2ccn(C)c(=O)c2)C1
REMARK SMILES IDX 10 1 9 2 8 3 6 4 7 5 5 7 3 8 4 9 80 10 69 11 2 12 1 13 70 14
REMARK SMILES IDX 71 15 72 16 73 17 79 18 74 19 77 20 75 21 78 22 76 23 11 24
REMARK SMILES IDX 12 25 13 26 14 28 15 29 16 30 68 31 17 32 67 33 18 34 19 35
REMARK SMILES IDX 20 36 61 37 21 38 66 39 60 40 62 41 22 42 65 43 59 44 58 45
REMARK SMILES IDX 23 47 49 48 32 49 48 50 33 51 36 52 47 53 63 54 34 55 35 56
REMARK SMILES IDX 46 58 64 59 37 60 24 61 25 62 30 63 26 64 27 65 29 66 31 67
REMARK SMILES IDX 28 68 50 69 51 70 56 71 52 72 53 73 55 74 57 75 54 76 38 77
REMARK SMILES IDX 39 78 44 79 40 80 41 81 43 82 45 83 42 84
REMARK H PARENT 8 6 12 27 62 46 36 57
REMARK Flexibility Score: inf
ROOT
ATOM      1  C   UNL     1      -1.794   0.835  -1.288  1.00  0.00     0.042 C 
ENDROOT
BRANCH   1   2
ATOM      2  C   UNL     1      -1.532   2.249  -0.766  1.00  0.00     0.117 C 
BRANCH   2   3
ATOM      3  N   UNL     1      -1.134   2.228   0.631  1.00  0.00    -0.354 N 
ATOM      4  C   UNL     1       0.024   2.500   1.279  1.00  0.00     0.242 C 
ATOM      5  O   UNL     1       0.050   2.144   2.468  1.00  0.00    -0.273 OA
ATOM      6  H   UNL     1      -1.862   1.959   1.237  1.00  0.00     0.163 HD
BRANCH   4   7
ATOM      7  C   UNL     1       1.315   3.099   0.666  1.00  0.00     0.177 C 
ATOM      8  C   UNL     1       2.235   1.812  -1.150  1.00  0.00     0.139 C 
ATOM      9  C   UNL     1       2.383   2.056   0.350  1.00  0.00     0.069 C 
ATOM     10  C   UNL     1       1.783   3.179  -1.695  1.00  0.00     0.152 C 
ATOM     11  N   UNL     1       1.278   3.920  -0.541  1.00  0.00    -0.324 N 
BRANCH   8  12
ATOM     12  O   UNL     1       1.262   0.813  -1.449  1.00  0.00    -0.380 OA
ATOM     13  C   UNL     1       1.587  -0.475  -0.932  1.00  0.00     0.195 C 
ENDBRANCH   8  12
BRANCH  11  14
ATOM     14  C   UNL     1       1.170   5.296  -0.610  1.00  0.00     0.254 C 
ATOM     15  O   UNL     1       0.999   5.907  -1.661  1.00  0.00    -0.269 OA
BRANCH  14  16
ATOM     16  C   UNL     1       1.417   6.045   0.655  1.00  0.00     0.046 A 
ATOM     17  C   UNL     1       0.388   6.806   1.316  1.00  0.00     0.032 A 
ATOM     18  C   UNL     1       2.664   5.998   1.149  1.00  0.00     0.085 A 
ATOM     19  C   UNL     1       0.651   7.375   2.500  1.00  0.00     0.089 A 
ATOM     20  C   UNL     1       2.957   6.596   2.474  1.00  0.00     0.251 A 
ATOM     21  N   UNL     1       1.896   7.250   3.096  1.00  0.00    -0.319 N 
ATOM     22  O   UNL     1       4.082   6.459   2.945  1.00  0.00    -0.269 OA
ATOM     23  C   UNL     1       2.106   7.832   4.413  1.00  0.00     0.153 C 
ENDBRANCH  14  16
ENDBRANCH  11  14
ENDBRANCH   4   7
ENDBRANCH   2   3
ENDBRANCH   1   2
BRANCH   1  24
ATOM     24  C   UNL     1      -3.125   0.233  -0.853  1.00  0.00     0.118 C 
BRANCH  24  25
ATOM     25  N   UNL     1      -4.239   0.686  -1.669  1.00  0.00    -0.352 N 
ATOM     26  C   UNL     1      -5.033   0.008  -2.564  1.00  0.00     0.251 C 
ATOM     27  H   UNL     1      -4.463   1.639  -1.564  1.00  0.00     0.163 HD
ATOM     28  O   UNL     1      -5.800   0.646  -3.281  1.00  0.00    -0.269 OA
BRANCH  26  29
ATOM     29  C   UNL     1      -4.976  -1.470  -2.700  1.00  0.00     0.039 A 
ATOM     30  C   UNL     1      -5.129  -2.030  -3.974  1.00  0.00     0.014 A 
ATOM     31  C   UNL     1      -4.842  -2.314  -1.596  1.00  0.00     0.014 A 
ATOM     32  C   UNL     1      -5.092  -3.419  -4.145  1.00  0.00     0.010 A 
ATOM     33  C   UNL     1      -4.717  -3.693  -1.776  1.00  0.00     0.010 A 
ATOM     34  C   UNL     1      -4.853  -4.264  -3.050  1.00  0.00    -0.014 A 
BRANCH  34  35
ATOM     35  C   UNL     1      -4.770  -5.742  -3.212  1.00  0.00     0.031 A 
ATOM     36  C   UNL     1      -5.758  -6.639  -2.512  1.00  0.00     0.074 A 
ATOM     37  C   UNL     1      -3.771  -6.287  -3.935  1.00  0.00     0.049 A 
ATOM     38  N   UNL     1      -5.791  -7.947  -2.450  1.00  0.00    -0.248 NA
ATOM     39  C   UNL     1      -6.833  -5.978  -1.756  1.00  0.00     0.031 C 
ATOM     40  C   UNL     1      -2.722  -5.539  -4.630  1.00  0.00     0.029 A 
ATOM     41  N   UNL     1      -3.468  -7.601  -4.195  1.00  0.00    -0.354 N 
ATOM     42  C   UNL     1      -6.868  -8.261  -1.629  1.00  0.00     0.074 A 
ATOM     43  C   UNL     1      -7.433  -7.008  -1.179  1.00  0.00     0.031 C 
ATOM     44  C   UNL     1      -1.907  -6.403  -5.256  1.00  0.00     0.029 A 
ATOM     45  C   UNL     1      -2.349  -7.765  -4.976  1.00  0.00     0.049 A 
ATOM     46  H   UNL     1      -4.003  -8.354  -3.855  1.00  0.00     0.167 HD
ATOM     47  C   UNL     1      -7.358  -9.480  -1.298  1.00  0.00     0.037 A 
ATOM     48  C   UNL     1      -1.742  -8.886  -5.411  1.00  0.00     0.037 A 
ATOM     49  C   UNL     1      -6.826 -10.727  -1.780  1.00  0.00     0.049 A 
ATOM     50  C   UNL     1      -2.314 -10.227  -5.044  1.00  0.00     0.074 A 
ATOM     51  C   UNL     1      -7.294 -12.010  -1.554  1.00  0.00     0.029 A 
ATOM     52  N   UNL     1      -5.710 -10.847  -2.594  1.00  0.00    -0.354 N 
ATOM     53  N   UNL     1      -3.364 -10.504  -4.310  1.00  0.00    -0.248 NA
ATOM     54  C   UNL     1      -1.619 -11.411  -5.570  1.00  0.00     0.031 C 
ATOM     55  C   UNL     1      -6.441 -12.909  -2.202  1.00  0.00     0.029 A 
ATOM     56  C   UNL     1      -5.465 -12.183  -2.866  1.00  0.00     0.049 A 
ATOM     57  H   UNL     1      -5.171 -10.094  -2.928  1.00  0.00     0.167 HD
ATOM     58  C   UNL     1      -3.472 -11.889  -4.309  1.00  0.00     0.074 A 
ATOM     59  C   UNL     1      -2.387 -12.395  -5.124  1.00  0.00     0.031 C 
ATOM     60  C   UNL     1      -4.388 -12.671  -3.688  1.00  0.00     0.037 A 
BRANCH  47  61
ATOM     61  C   UNL     1      -8.539  -9.523  -0.370  1.00  0.00     0.057 A 
ATOM     62  C   UNL     1      -9.815  -9.115  -0.780  1.00  0.00     0.134 A 
ATOM     63  C   UNL     1      -8.404 -10.007   0.937  1.00  0.00     0.134 A 
ATOM     64  F   UNL     1     -10.010  -8.631  -2.016  1.00  0.00    -0.206 F 
ATOM     65  C   UNL     1     -10.909  -9.158   0.086  1.00  0.00     0.040 A 
ATOM     66  C   UNL     1      -9.496 -10.080   1.804  1.00  0.00     0.040 A 
ATOM     67  F   UNL     1      -7.213 -10.422   1.392  1.00  0.00    -0.206 F 
ATOM     68  C   UNL     1     -10.752  -9.648   1.381  1.00  0.00     0.006 A 
ENDBRANCH  47  61
BRANCH  48  69
ATOM     69  C   UNL     1      -0.534  -8.790  -6.269  1.00  0.00     0.057 A 
ATOM     70  C   UNL     1      -0.588  -9.121  -7.628  1.00  0.00     0.134 A 
ATOM     71  C   UNL     1       0.698  -8.370  -5.755  1.00  0.00     0.134 A 
ATOM     72  F   UNL     1      -1.737  -9.549  -8.172  1.00  0.00    -0.206 F 
ATOM     73  C   UNL     1       0.543  -9.056  -8.442  1.00  0.00     0.040 A 
ATOM     74  C   UNL     1       1.833  -8.277  -6.563  1.00  0.00     0.040 A 
ATOM     75  F   UNL     1       0.814  -8.032  -4.463  1.00  0.00    -0.206 F 
ATOM     76  C   UNL     1       1.758  -8.627  -7.910  1.00  0.00     0.006 A 
ENDBRANCH  48  69
BRANCH  60  77
ATOM     77  C   UNL     1      -4.281 -14.152  -3.895  1.00  0.00     0.057 A 
ATOM     78  C   UNL     1      -3.281 -14.914  -3.278  1.00  0.00     0.134 A 
ATOM     79  C   UNL     1      -5.215 -14.829  -4.690  1.00  0.00     0.134 A 
ATOM     80  F   UNL     1      -2.349 -14.323  -2.515  1.00  0.00    -0.206 F 
ATOM     81  C   UNL     1      -3.203 -16.296  -3.459  1.00  0.00     0.040 A 
ATOM     82  C   UNL     1      -5.161 -16.213  -4.859  1.00  0.00     0.040 A 
ATOM     83  F   UNL     1      -6.201 -14.158  -5.303  1.00  0.00    -0.206 F 
ATOM     84  C   UNL     1      -4.149 -16.950  -4.246  1.00  0.00     0.006 A 
ENDBRANCH  60  77
ENDBRANCH  34  35
ENDBRANCH  26  29
ENDBRANCH  24  25
ENDBRANCH   1  24
TORSDOF 13
