REMARK SMILES O=C(C[C@H]1S/C(=[NH+]\N=C\c2cc(Br)ccc2OCc2ccccc2)NC1=O)NCCCNC(=O)c1ccc(-c2c3nc(c(-c4c(F)cccc4F)c4ccc([nH]4)c(-c4c(F)cccc4F)c4nc(c(-c5c(F)cccc5F)c5ccc2[nH]5)C=C4)C=C3)cc1
REMARK SMILES IDX 1 1 2 2 28 3 3 5 4 6 5 7 26 8 6 9 25 10 27 11 7 12 8 15 9 16
REMARK SMILES IDX 10 17 11 18 16 19 12 20 15 21 13 22 14 23 17 24 18 25 19 26
REMARK SMILES IDX 20 27 24 28 21 29 23 30 22 31 29 32 30 33 31 34 32 35 33 36
REMARK SMILES IDX 34 38 35 39 36 40 88 41 37 42 87 43 38 44 39 45 40 46 81 47
REMARK SMILES IDX 41 48 86 49 80 50 82 51 42 52 85 53 79 54 78 55 43 57 69 58
REMARK SMILES IDX 52 59 68 60 53 61 56 62 67 63 83 64 54 65 55 66 66 68 84 69
REMARK SMILES IDX 57 70 44 71 45 72 50 73 46 74 47 75 49 76 51 77 48 78 70 79
REMARK SMILES IDX 71 80 76 81 72 82 73 83 75 84 77 85 74 86 58 87 59 88 64 89
REMARK SMILES IDX 60 90 61 91 63 92 65 93 62 94
REMARK H PARENT 28 4 25 13 7 14 32 37 82 56 56 67
REMARK Flexibility Score: inf
ROOT
ATOM      1  O   UNL     1       0.705   0.004  -0.049  1.00  0.00    -0.275 OA
ATOM      2  C   UNL     1       1.929   0.039   0.000  1.00  0.00     0.221 C 
ATOM      3  N   UNL     1       2.684  -0.690   0.891  1.00  0.00    -0.356 N 
ATOM      4  H   UNL     1       3.665  -0.658   0.820  1.00  0.00     0.163 HD
ENDROOT
BRANCH   2   5
ATOM      5  C   UNL     1       2.743   0.869  -0.961  1.00  0.00     0.127 C 
BRANCH   5   6
ATOM      6  C   UNL     1       3.650   1.833  -0.202  1.00  0.00     0.183 C 
ATOM      7  S   UNL     1       5.404   1.379  -0.464  1.00  0.00    -0.020 SA
ATOM      8  C   UNL     1       3.522   3.230  -0.767  1.00  0.00     0.322 C 
ATOM      9  C   UNL     1       5.665   2.722  -1.533  1.00  0.00     0.337 C 
ATOM     10  N   UNL     1       4.612   3.570  -1.509  1.00  0.00    -0.202 N 
ATOM     11  O   UNL     1       2.551   3.956  -0.623  1.00  0.00    -0.246 OA
ATOM     12  N   UNL     1       6.667   2.982  -2.296  1.00  0.00    -0.142 N 
ATOM     13  H   UNL     1       4.632   4.413  -2.017  1.00  0.00     0.316 HD
ATOM     14  H   UNL     1       6.698   3.791  -2.857  1.00  0.00     0.343 HD
BRANCH  12  15
ATOM     15  N   UNL     1       7.708   2.053  -2.284  1.00  0.00    -0.093 NA
ATOM     16  C   UNL     1       8.475   2.291  -3.302  1.00  0.00     0.170 C 
BRANCH  16  17
ATOM     17  C   UNL     1       9.695   1.536  -3.596  1.00  0.00     0.040 A 
ATOM     18  C   UNL     1       9.494   0.164  -3.825  1.00  0.00     0.029 A 
ATOM     19  C   UNL     1      10.968   2.103  -3.752  1.00  0.00     0.128 A 
ATOM     20  C   UNL     1      10.565  -0.647  -4.191  1.00  0.00     0.018 A 
ATOM     21  C   UNL     1      12.040   1.245  -4.054  1.00  0.00     0.048 A 
ATOM     22  Br  UNL     1      10.271  -2.467  -4.604  1.00  0.00    -0.051 Br
ATOM     23  C   UNL     1      11.845  -0.117  -4.285  1.00  0.00     0.019 A 
BRANCH  19  24
ATOM     24  O   UNL     1      11.391   3.402  -3.705  1.00  0.00    -0.488 OA
BRANCH  24  25
ATOM     25  C   UNL     1      10.509   4.523  -3.707  1.00  0.00     0.265 C 
BRANCH  25  26
ATOM     26  C   UNL     1       9.673   4.722  -4.959  1.00  0.00    -0.011 A 
ATOM     27  C   UNL     1       8.607   5.636  -4.909  1.00  0.00     0.007 A 
ATOM     28  C   UNL     1       9.830   3.935  -6.110  1.00  0.00     0.007 A 
ATOM     29  C   UNL     1       7.657   5.672  -5.931  1.00  0.00     0.000 A 
ATOM     30  C   UNL     1       8.864   3.954  -7.117  1.00  0.00     0.000 A 
ATOM     31  C   UNL     1       7.769   4.808  -7.018  1.00  0.00     0.000 A 
ENDBRANCH  25  26
ENDBRANCH  24  25
ENDBRANCH  19  24
ENDBRANCH  16  17
ENDBRANCH  12  15
ENDBRANCH   5   6
ENDBRANCH   2   5
BRANCH   3  32
ATOM     32  C   UNL     1       2.084  -1.502   1.931  1.00  0.00     0.117 C 
BRANCH  32  33
ATOM     33  C   UNL     1       2.434  -2.977   1.784  1.00  0.00     0.042 C 
BRANCH  33  34
ATOM     34  C   UNL     1       3.924  -3.287   1.905  1.00  0.00     0.118 C 
BRANCH  34  35
ATOM     35  N   UNL     1       4.475  -2.961   3.214  1.00  0.00    -0.352 N 
ATOM     36  C   UNL     1       5.107  -3.755   4.138  1.00  0.00     0.251 C 
ATOM     37  H   UNL     1       4.377  -2.017   3.478  1.00  0.00     0.163 HD
ATOM     38  O   UNL     1       5.364  -3.303   5.251  1.00  0.00    -0.269 OA
BRANCH  36  39
ATOM     39  C   UNL     1       5.453  -5.159   3.823  1.00  0.00     0.039 A 
ATOM     40  C   UNL     1       5.215  -6.139   4.792  1.00  0.00     0.014 A 
ATOM     41  C   UNL     1       6.016  -5.517   2.595  1.00  0.00     0.014 A 
ATOM     42  C   UNL     1       5.458  -7.483   4.497  1.00  0.00     0.010 A 
ATOM     43  C   UNL     1       6.188  -6.863   2.276  1.00  0.00     0.010 A 
ATOM     44  C   UNL     1       5.897  -7.861   3.218  1.00  0.00    -0.014 A 
BRANCH  44  45
ATOM     45  C   UNL     1       6.006  -9.294   2.836  1.00  0.00     0.031 A 
ATOM     46  C   UNL     1       7.334  -9.890   2.461  1.00  0.00     0.074 A 
ATOM     47  C   UNL     1       4.888 -10.042   2.756  1.00  0.00     0.049 A 
ATOM     48  N   UNL     1       7.604 -11.095   2.025  1.00  0.00    -0.248 NA
ATOM     49  C   UNL     1       8.509  -9.013   2.572  1.00  0.00     0.031 C 
ATOM     50  C   UNL     1       3.533  -9.573   3.055  1.00  0.00     0.029 A 
ATOM     51  N   UNL     1       4.710 -11.352   2.385  1.00  0.00    -0.354 N 
ATOM     52  C   UNL     1       8.975 -11.119   1.802  1.00  0.00     0.074 A 
ATOM     53  C   UNL     1       9.473  -9.794   2.104  1.00  0.00     0.031 C 
ATOM     54  C   UNL     1       2.668 -10.583   2.874  1.00  0.00     0.029 A 
ATOM     55  C   UNL     1       3.396 -11.755   2.400  1.00  0.00     0.049 A 
ATOM     56  H   UNL     1       5.453 -11.947   2.132  1.00  0.00     0.167 HD
ATOM     57  C   UNL     1       9.750 -12.155   1.399  1.00  0.00     0.037 A 
ATOM     58  C   UNL     1       2.835 -12.928   2.052  1.00  0.00     0.037 A 
ATOM     59  C   UNL     1       9.253 -13.476   1.105  1.00  0.00     0.049 A 
ATOM     60  C   UNL     1       3.712 -14.049   1.568  1.00  0.00     0.074 A 
ATOM     61  C   UNL     1       9.968 -14.604   0.744  1.00  0.00     0.029 A 
ATOM     62  N   UNL     1       7.915 -13.842   1.127  1.00  0.00    -0.354 N 
ATOM     63  N   UNL     1       5.016 -14.078   1.428  1.00  0.00    -0.248 NA
ATOM     64  C   UNL     1       3.041 -15.301   1.193  1.00  0.00     0.031 C 
ATOM     65  C   UNL     1       9.060 -15.637   0.489  1.00  0.00     0.029 A 
ATOM     66  C   UNL     1       7.782 -15.170   0.750  1.00  0.00     0.049 A 
ATOM     67  H   UNL     1       7.170 -13.247   1.373  1.00  0.00     0.167 HD
ATOM     68  C   UNL     1       5.321 -15.354   0.973  1.00  0.00     0.074 A 
ATOM     69  C   UNL     1       4.070 -16.076   0.881  1.00  0.00     0.031 C 
ATOM     70  C   UNL     1       6.531 -15.879   0.658  1.00  0.00     0.037 A 
BRANCH  57  71
ATOM     71  C   UNL     1      11.223 -11.903   1.244  1.00  0.00     0.057 A 
ATOM     72  C   UNL     1      12.056 -11.678   2.349  1.00  0.00     0.134 A 
ATOM     73  C   UNL     1      11.824 -11.930  -0.021  1.00  0.00     0.134 A 
ATOM     74  F   UNL     1      11.545 -11.631   3.588  1.00  0.00    -0.206 F 
ATOM     75  C   UNL     1      13.428 -11.463   2.198  1.00  0.00     0.040 A 
ATOM     76  C   UNL     1      13.199 -11.745  -0.181  1.00  0.00     0.040 A 
ATOM     77  F   UNL     1      11.088 -12.149  -1.121  1.00  0.00    -0.206 F 
ATOM     78  C   UNL     1      14.004 -11.504   0.930  1.00  0.00     0.006 A 
ENDBRANCH  57  71
BRANCH  58  79
ATOM     79  C   UNL     1       1.363 -13.107   2.147  1.00  0.00     0.057 A 
ATOM     80  C   UNL     1       0.800 -13.979   3.087  1.00  0.00     0.134 A 
ATOM     81  C   UNL     1       0.486 -12.425   1.295  1.00  0.00     0.134 A 
ATOM     82  F   UNL     1       1.588 -14.677   3.917  1.00  0.00    -0.206 F 
ATOM     83  C   UNL     1      -0.579 -14.181   3.163  1.00  0.00     0.040 A 
ATOM     84  C   UNL     1      -0.897 -12.595   1.379  1.00  0.00     0.040 A 
ATOM     85  F   UNL     1       0.960 -11.570   0.377  1.00  0.00    -0.206 F 
ATOM     86  C   UNL     1      -1.432 -13.483   2.310  1.00  0.00     0.006 A 
ENDBRANCH  58  79
BRANCH  70  87
ATOM     87  C   UNL     1       6.562 -17.312   0.208  1.00  0.00     0.057 A 
ATOM     88  C   UNL     1       6.057 -17.709  -1.037  1.00  0.00     0.134 A 
ATOM     89  C   UNL     1       7.133 -18.303   1.018  1.00  0.00     0.134 A 
ATOM     90  F   UNL     1       5.484 -16.813  -1.855  1.00  0.00    -0.206 F 
ATOM     91  C   UNL     1       6.096 -19.042  -1.450  1.00  0.00     0.040 A 
ATOM     92  C   UNL     1       7.205 -19.634   0.603  1.00  0.00     0.040 A 
ATOM     93  F   UNL     1       7.643 -17.992   2.219  1.00  0.00    -0.206 F 
ATOM     94  C   UNL     1       6.678 -20.008  -0.631  1.00  0.00     0.006 A 
ENDBRANCH  70  87
ENDBRANCH  44  45
ENDBRANCH  36  39
ENDBRANCH  34  35
ENDBRANCH  33  34
ENDBRANCH  32  33
ENDBRANCH   3  32
TORSDOF 16
