REMARK SMILES O=C(C[C@H]([NH2+]Cc1ccccc1C1CC1)c1cccs1)NCCCNC(=O)c1ccc(-c2c3nc(c(-c4c(F)cccc4F)c4ccc([nH]4)c(-c4c(F)cccc4F)c4nc(c(-c5c(F)cccc5F)c5ccc2[nH]5)C=C4)C=C3)cc1
REMARK SMILES IDX 1 1 2 2 21 3 3 5 4 6 16 7 17 8 20 9 18 10 19 11 5 12 6 15
REMARK SMILES IDX 7 16 8 17 12 18 9 19 11 20 10 21 13 22 14 23 15 24 22 25
REMARK SMILES IDX 23 26 24 27 25 28 26 29 27 31 28 32 29 33 81 34 30 35 80 36
REMARK SMILES IDX 31 37 32 38 33 39 74 40 34 41 79 42 73 43 75 44 35 45 78 46
REMARK SMILES IDX 72 47 71 48 36 50 62 51 45 52 61 53 46 54 49 55 60 56 76 57
REMARK SMILES IDX 47 58 48 59 59 61 77 62 50 63 37 64 38 65 43 66 39 67 40 68
REMARK SMILES IDX 42 69 44 70 41 71 63 72 64 73 69 74 65 75 66 76 68 77 70 78
REMARK SMILES IDX 67 79 51 80 52 81 57 82 53 83 54 84 56 85 58 86 55 87
REMARK H PARENT 21 4 5 13 5 14 25 30 75 49 49 60
REMARK Flexibility Score: inf
ROOT
ATOM      1  O   UNL     1       7.331  -0.205  -0.403  1.00  0.00    -0.275 OA
ATOM      2  C   UNL     1       6.123  -0.245  -0.183  1.00  0.00     0.226 C 
ATOM      3  N   UNL     1       5.548  -1.014   0.802  1.00  0.00    -0.356 N 
ATOM      4  H   UNL     1       4.601  -0.861   1.022  1.00  0.00     0.163 HD
ENDROOT
BRANCH   2   5
ATOM      5  C   UNL     1       5.136   0.597  -0.970  1.00  0.00     0.171 C 
BRANCH   5   6
ATOM      6  C   UNL     1       4.087  -0.249  -1.709  1.00  0.00     0.233 C 
BRANCH   6   7
ATOM      7  C   UNL     1       4.746  -1.228  -2.680  1.00  0.00     0.062 A 
ATOM      8  C   UNL     1       5.465  -0.908  -3.824  1.00  0.00     0.021 A 
ATOM      9  S   UNL     1       4.702  -2.933  -2.460  1.00  0.00    -0.143 S 
ATOM     10  C   UNL     1       5.966  -2.054  -4.510  1.00  0.00     0.012 A 
ATOM     11  C   UNL     1       5.610  -3.222  -3.879  1.00  0.00     0.065 A 
ENDBRANCH   6   7
BRANCH   6  12
ATOM     12  N   UNL     1       3.237  -0.863  -0.678  1.00  0.00    -0.335 N 
ATOM     13  H   UNL     1       3.764  -0.878   0.195  1.00  0.00     0.347 HD
ATOM     14  H   UNL     1       2.997  -1.790  -1.030  1.00  0.00     0.347 HD
BRANCH  12  15
ATOM     15  C   UNL     1       1.973  -0.193  -0.427  1.00  0.00     0.298 C 
BRANCH  15  16
ATOM     16  C   UNL     1       1.175  -0.937   0.625  1.00  0.00     0.010 A 
ATOM     17  C   UNL     1       1.244  -0.417   1.943  1.00  0.00     0.010 A 
ATOM     18  C   UNL     1       0.398  -2.094   0.363  1.00  0.00    -0.036 A 
ATOM     19  C   UNL     1       0.553  -1.001   3.001  1.00  0.00     0.001 A 
ATOM     20  C   UNL     1      -0.281  -2.655   1.477  1.00  0.00     0.004 A 
ATOM     21  C   UNL     1      -0.210  -2.129   2.768  1.00  0.00     0.000 A 
BRANCH  18  22
ATOM     22  C   UNL     1       0.174  -2.823  -0.960  1.00  0.00     0.020 C 
ATOM     23  C   UNL     1      -0.573  -2.111  -2.066  1.00  0.00     0.009 C 
ATOM     24  C   UNL     1       0.824  -2.603  -2.294  1.00  0.00     0.009 C 
ENDBRANCH  18  22
ENDBRANCH  15  16
ENDBRANCH  12  15
ENDBRANCH   6  12
ENDBRANCH   5   6
ENDBRANCH   2   5
BRANCH   3  25
ATOM     25  C   UNL     1       6.266  -2.035   1.530  1.00  0.00     0.117 C 
BRANCH  25  26
ATOM     26  C   UNL     1       6.200  -1.826   3.035  1.00  0.00     0.042 C 
BRANCH  26  27
ATOM     27  C   UNL     1       4.795  -1.886   3.624  1.00  0.00     0.118 C 
BRANCH  27  28
ATOM     28  N   UNL     1       4.173  -3.199   3.513  1.00  0.00    -0.352 N 
ATOM     29  C   UNL     1       3.580  -3.976   4.470  1.00  0.00     0.251 C 
ATOM     30  H   UNL     1       4.181  -3.588   2.608  1.00  0.00     0.163 HD
ATOM     31  O   UNL     1       3.225  -5.130   4.186  1.00  0.00    -0.269 OA
BRANCH  29  32
ATOM     32  C   UNL     1       3.378  -3.481   5.849  1.00  0.00     0.039 A 
ATOM     33  C   UNL     1       3.604  -4.356   6.916  1.00  0.00     0.014 A 
ATOM     34  C   UNL     1       2.943  -2.178   6.105  1.00  0.00     0.014 A 
ATOM     35  C   UNL     1       3.454  -3.908   8.231  1.00  0.00     0.010 A 
ATOM     36  C   UNL     1       2.869  -1.708   7.416  1.00  0.00     0.010 A 
ATOM     37  C   UNL     1       3.119  -2.570   8.495  1.00  0.00    -0.014 A 
BRANCH  37  38
ATOM     38  C   UNL     1       3.038  -2.067   9.892  1.00  0.00     0.031 A 
ATOM     39  C   UNL     1       1.734  -1.571  10.456  1.00  0.00     0.074 A 
ATOM     40  C   UNL     1       4.154  -2.020  10.646  1.00  0.00     0.049 A 
ATOM     41  N   UNL     1       1.477  -1.096  11.650  1.00  0.00    -0.248 NA
ATOM     42  C   UNL     1       0.570  -1.588   9.556  1.00  0.00     0.031 C 
ATOM     43  C   UNL     1       5.492  -2.416  10.202  1.00  0.00     0.029 A 
ATOM     44  N   UNL     1       4.341  -1.619  11.945  1.00  0.00    -0.354 N 
ATOM     45  C   UNL     1       0.131  -0.754  11.641  1.00  0.00     0.074 A 
ATOM     46  C   UNL     1      -0.362  -1.019  10.306  1.00  0.00     0.031 C 
ATOM     47  C   UNL     1       6.354  -2.270  11.220  1.00  0.00     0.029 A 
ATOM     48  C   UNL     1       5.640  -1.740  12.377  1.00  0.00     0.049 A 
ATOM     49  H   UNL     1       3.614  -1.278  12.514  1.00  0.00     0.167 HD
ATOM     50  C   UNL     1      -0.633  -0.285  12.657  1.00  0.00     0.037 A 
ATOM     51  C   UNL     1       6.195  -1.458  13.571  1.00  0.00     0.037 A 
ATOM     52  C   UNL     1      -0.148  -0.038  13.991  1.00  0.00     0.049 A 
ATOM     53  C   UNL     1       5.325  -0.939  14.683  1.00  0.00     0.074 A 
ATOM     54  C   UNL     1      -0.857   0.382  15.103  1.00  0.00     0.029 A 
ATOM     55  N   UNL     1       1.172  -0.183  14.392  1.00  0.00    -0.354 N 
ATOM     56  N   UNL     1       4.038  -0.695  14.681  1.00  0.00    -0.248 NA
ATOM     57  C   UNL     1       5.987  -0.669  15.967  1.00  0.00     0.031 C 
ATOM     58  C   UNL     1       0.041   0.536  16.164  1.00  0.00     0.029 A 
ATOM     59  C   UNL     1       1.301   0.161  15.728  1.00  0.00     0.049 A 
ATOM     60  H   UNL     1       1.909  -0.485  13.812  1.00  0.00     0.167 HD
ATOM     61  C   UNL     1       3.729  -0.271  15.968  1.00  0.00     0.074 A 
ATOM     62  C   UNL     1       4.962  -0.309  16.727  1.00  0.00     0.031 C 
ATOM     63  C   UNL     1       2.533   0.116  16.475  1.00  0.00     0.037 A 
BRANCH  50  64
ATOM     64  C   UNL     1      -2.083  -0.015  12.368  1.00  0.00     0.057 A 
ATOM     65  C   UNL     1      -2.994  -1.052  12.126  1.00  0.00     0.134 A 
ATOM     66  C   UNL     1      -2.582   1.294  12.369  1.00  0.00     0.134 A 
ATOM     67  F   UNL     1      -2.581  -2.328  12.100  1.00  0.00    -0.206 F 
ATOM     68  C   UNL     1      -4.342  -0.796  11.869  1.00  0.00     0.040 A 
ATOM     69  C   UNL     1      -3.934   1.560  12.142  1.00  0.00     0.040 A 
ATOM     70  F   UNL     1      -1.768   2.334  12.601  1.00  0.00    -0.206 F 
ATOM     71  C   UNL     1      -4.817   0.514  11.884  1.00  0.00     0.006 A 
ENDBRANCH  50  64
BRANCH  51  72
ATOM     72  C   UNL     1       7.646  -1.688  13.791  1.00  0.00     0.057 A 
ATOM     73  C   UNL     1       8.095  -2.706  14.640  1.00  0.00     0.134 A 
ATOM     74  C   UNL     1       8.615  -0.893  13.169  1.00  0.00     0.134 A 
ATOM     75  F   UNL     1       7.214  -3.490  15.279  1.00  0.00    -0.206 F 
ATOM     76  C   UNL     1       9.454  -2.911  14.883  1.00  0.00     0.040 A 
ATOM     77  C   UNL     1       9.979  -1.103  13.381  1.00  0.00     0.040 A 
ATOM     78  F   UNL     1       8.250   0.094  12.338  1.00  0.00    -0.206 F 
ATOM     79  C   UNL     1      10.401  -2.110  14.247  1.00  0.00     0.006 A 
ENDBRANCH  51  72
BRANCH  63  80
ATOM     80  C   UNL     1       2.494   0.493  17.928  1.00  0.00     0.057 A 
ATOM     81  C   UNL     1       3.085   1.669  18.406  1.00  0.00     0.134 A 
ATOM     82  C   UNL     1       1.839  -0.325  18.858  1.00  0.00     0.134 A 
ATOM     83  F   UNL     1       3.739   2.490  17.570  1.00  0.00    -0.206 F 
ATOM     84  C   UNL     1       3.053   2.003  19.761  1.00  0.00     0.040 A 
ATOM     85  C   UNL     1       1.774   0.013  20.210  1.00  0.00     0.040 A 
ATOM     86  F   UNL     1       1.243  -1.462  18.467  1.00  0.00    -0.206 F 
ATOM     87  C   UNL     1       2.391   1.176  20.667  1.00  0.00     0.006 A 
ENDBRANCH  63  80
ENDBRANCH  37  38
ENDBRANCH  29  32
ENDBRANCH  27  28
ENDBRANCH  26  27
ENDBRANCH  25  26
ENDBRANCH   3  25
TORSDOF 16
