REMARK SMILES CCCCc1ncc(C[N@H+]2C[C@@H]3c4ccccc4OC[C@]3(C(=O)NCCCNC(=O)c3ccc(-c4c5nc(c(-c6c(F)cccc6F)c6ccc([nH]6)c(-c6c(F)cccc6F)c6nc(c(-c7c(F)cccc7F)c7ccc4[nH]7)C=C6)C=C5)cc3)C2)[nH]1
REMARK SMILES IDX 22 1 23 2 24 3 21 5 10 6 11 7 85 8 12 10 13 11 20 12 14 13
REMARK SMILES IDX 18 14 19 15 15 16 17 17 16 18 9 19 8 20 5 21 6 22 86 23 7 24
REMARK SMILES IDX 4 26 3 27 2 28 1 29 25 30 26 31 27 32 28 33 29 34 30 36
REMARK SMILES IDX 31 37 32 38 84 39 33 40 83 41 34 42 35 43 36 44 77 45 37 46
REMARK SMILES IDX 82 47 76 48 78 49 38 50 81 51 75 52 74 53 39 55 65 56 48 57
REMARK SMILES IDX 64 58 49 59 52 60 63 61 79 62 50 63 51 64 62 66 80 67 53 68
REMARK SMILES IDX 40 69 41 70 46 71 42 72 43 73 45 74 47 75 44 76 66 77 67 78
REMARK SMILES IDX 72 79 68 80 69 81 71 82 73 83 70 84 54 85 55 86 60 87 56 88
REMARK SMILES IDX 57 89 59 90 61 91 58 92
REMARK H PARENT 24 4 10 9 86 25 28 35 78 54 52 65
REMARK Flexibility Score: inf
ROOT
ATOM      1  C   UNL     1      -1.843  -5.883   0.565  1.00  0.00     0.236 C 
ATOM      2  O   UNL     1      -0.623  -5.725   0.478  1.00  0.00    -0.274 OA
ATOM      3  N   UNL     1      -2.307  -6.980   1.276  1.00  0.00    -0.355 N 
ATOM      4  H   UNL     1      -1.728  -7.776   1.287  1.00  0.00     0.163 HD
ENDROOT
BRANCH   1   5
ATOM      5  C   UNL     1      -2.927  -4.944  -0.097  1.00  0.00     0.144 C 
ATOM      6  N   UNL     1      -3.950  -3.440   1.468  1.00  0.00    -0.328 N 
ATOM      7  C   UNL     1      -4.109  -2.766   0.195  1.00  0.00     0.272 C 
ATOM      8  C   UNL     1      -2.716  -4.203   1.309  1.00  0.00     0.284 C 
ATOM      9  H   UNL     1      -4.744  -4.048   1.670  1.00  0.00     0.348 HD
ATOM     10  C   UNL     1      -3.069  -3.465  -0.712  1.00  0.00     0.103 C 
ATOM     11  C   UNL     1      -3.454  -3.261  -2.158  1.00  0.00     0.004 A 
ATOM     12  C   UNL     1      -2.357  -5.591  -1.438  1.00  0.00     0.253 C 
ATOM     13  C   UNL     1      -3.662  -1.980  -2.695  1.00  0.00     0.008 A 
ATOM     14  C   UNL     1      -3.519  -4.356  -3.003  1.00  0.00     0.123 A 
ATOM     15  O   UNL     1      -3.329  -5.608  -2.506  1.00  0.00    -0.492 OA
ATOM     16  C   UNL     1      -3.928  -1.815  -4.055  1.00  0.00     0.001 A 
ATOM     17  C   UNL     1      -3.780  -4.204  -4.364  1.00  0.00     0.047 A 
ATOM     18  C   UNL     1      -3.974  -2.928  -4.893  1.00  0.00     0.004 A 
BRANCH   6  19
ATOM     19  C   UNL     1      -4.047  -2.604   2.665  1.00  0.00     0.319 C 
BRANCH  19  20
ATOM     20  C   UNL     1      -2.931  -1.640   2.812  1.00  0.00     0.090 A 
ATOM     21  C   UNL     1      -0.828  -0.975   2.892  1.00  0.00     0.106 A 
ATOM     22  N   UNL     1      -1.518   0.111   2.611  1.00  0.00    -0.241 NA
ATOM     23  N   UNL     1      -1.671  -2.004   3.222  1.00  0.00    -0.341 N 
ATOM     24  C   UNL     1      -2.828  -0.290   2.564  1.00  0.00     0.140 A 
ATOM     25  H   UNL     1      -1.421  -2.845   3.668  1.00  0.00     0.168 HD
BRANCH  21  26
ATOM     26  C   UNL     1       0.644  -1.166   2.772  1.00  0.00     0.075 C 
BRANCH  26  27
ATOM     27  C   UNL     1       1.025  -1.920   1.488  1.00  0.00     0.008 C 
BRANCH  27  28
ATOM     28  C   UNL     1       0.570  -1.269   0.175  1.00  0.00    -0.003 C 
ATOM     29  C   UNL     1       1.113   0.135  -0.029  1.00  0.00     0.004 C 
ENDBRANCH  27  28
ENDBRANCH  26  27
ENDBRANCH  21  26
ENDBRANCH  19  20
ENDBRANCH   6  19
ENDBRANCH   1   5
BRANCH   3  30
ATOM     30  C   UNL     1      -3.568  -7.075   2.010  1.00  0.00     0.117 C 
BRANCH  30  31
ATOM     31  C   UNL     1      -4.343  -8.357   1.792  1.00  0.00     0.042 C 
BRANCH  31  32
ATOM     32  C   UNL     1      -3.510  -9.618   1.925  1.00  0.00     0.118 C 
BRANCH  32  33
ATOM     33  N   UNL     1      -3.012  -9.861   3.277  1.00  0.00    -0.352 N 
ATOM     34  C   UNL     1      -3.490 -10.645   4.303  1.00  0.00     0.251 C 
ATOM     35  H   UNL     1      -2.184  -9.376   3.494  1.00  0.00     0.163 HD
ATOM     36  O   UNL     1      -2.954 -10.587   5.407  1.00  0.00    -0.269 OA
BRANCH  34  37
ATOM     37  C   UNL     1      -4.674 -11.509   4.108  1.00  0.00     0.039 A 
ATOM     38  C   UNL     1      -4.855 -12.218   2.926  1.00  0.00     0.014 A 
ATOM     39  C   UNL     1      -5.638 -11.598   5.118  1.00  0.00     0.014 A 
ATOM     40  C   UNL     1      -6.092 -12.774   2.640  1.00  0.00     0.010 A 
ATOM     41  C   UNL     1      -6.831 -12.290   4.885  1.00  0.00     0.010 A 
ATOM     42  C   UNL     1      -7.101 -12.820   3.614  1.00  0.00    -0.014 A 
BRANCH  42  43
ATOM     43  C   UNL     1      -8.424 -13.404   3.259  1.00  0.00     0.031 A 
ATOM     44  C   UNL     1      -9.680 -12.575   3.334  1.00  0.00     0.074 A 
ATOM     45  C   UNL     1      -8.480 -14.662   2.775  1.00  0.00     0.049 A 
ATOM     46  N   UNL     1     -10.913 -12.914   3.049  1.00  0.00    -0.248 NA
ATOM     47  C   UNL     1      -9.539 -11.185   3.797  1.00  0.00     0.031 C 
ATOM     48  C   UNL     1      -7.333 -15.562   2.628  1.00  0.00     0.029 A 
ATOM     49  N   UNL     1      -9.532 -15.386   2.277  1.00  0.00    -0.354 N 
ATOM     50  C   UNL     1     -11.693 -11.797   3.327  1.00  0.00     0.074 A 
ATOM     51  C   UNL     1     -10.800 -10.776   3.829  1.00  0.00     0.031 C 
ATOM     52  C   UNL     1      -7.726 -16.679   2.000  1.00  0.00     0.029 A 
ATOM     53  C   UNL     1      -9.165 -16.615   1.783  1.00  0.00     0.049 A 
ATOM     54  H   UNL     1     -10.460 -15.058   2.273  1.00  0.00     0.167 HD
ATOM     55  C   UNL     1     -13.029 -11.632   3.168  1.00  0.00     0.037 A 
ATOM     56  C   UNL     1      -9.907 -17.593   1.233  1.00  0.00     0.037 A 
ATOM     57  C   UNL     1     -13.913 -12.638   2.639  1.00  0.00     0.049 A 
ATOM     58  C   UNL     1     -11.390 -17.403   1.119  1.00  0.00     0.074 A 
ATOM     59  C   UNL     1     -15.280 -12.567   2.433  1.00  0.00     0.029 A 
ATOM     60  N   UNL     1     -13.513 -13.900   2.224  1.00  0.00    -0.354 N 
ATOM     61  N   UNL     1     -12.114 -16.349   1.410  1.00  0.00    -0.248 NA
ATOM     62  C   UNL     1     -12.162 -18.548   0.621  1.00  0.00     0.031 C 
ATOM     63  C   UNL     1     -15.713 -13.798   1.927  1.00  0.00     0.029 A 
ATOM     64  C   UNL     1     -14.609 -14.623   1.780  1.00  0.00     0.049 A 
ATOM     65  H   UNL     1     -12.587 -14.233   2.243  1.00  0.00     0.167 HD
ATOM     66  C   UNL     1     -13.425 -16.700   1.123  1.00  0.00     0.074 A 
ATOM     67  C   UNL     1     -13.392 -18.055   0.609  1.00  0.00     0.031 C 
ATOM     68  C   UNL     1     -14.556 -15.971   1.277  1.00  0.00     0.037 A 
BRANCH  55  69
ATOM     69  C   UNL     1     -13.617 -10.318   3.598  1.00  0.00     0.057 A 
ATOM     70  C   UNL     1     -14.419 -10.238   4.744  1.00  0.00     0.134 A 
ATOM     71  C   UNL     1     -13.405  -9.136   2.876  1.00  0.00     0.134 A 
ATOM     72  F   UNL     1     -14.668 -11.332   5.479  1.00  0.00    -0.206 F 
ATOM     73  C   UNL     1     -14.986  -9.031   5.158  1.00  0.00     0.040 A 
ATOM     74  C   UNL     1     -13.946  -7.918   3.293  1.00  0.00     0.040 A 
ATOM     75  F   UNL     1     -12.634  -9.140   1.778  1.00  0.00    -0.206 F 
ATOM     76  C   UNL     1     -14.743  -7.864   4.435  1.00  0.00     0.006 A 
ENDBRANCH  55  69
BRANCH  56  77
ATOM     77  C   UNL     1      -9.263 -18.849   0.774  1.00  0.00     0.057 A 
ATOM     78  C   UNL     1      -8.694 -19.752   1.680  1.00  0.00     0.134 A 
ATOM     79  C   UNL     1      -9.209 -19.178  -0.585  1.00  0.00     0.134 A 
ATOM     80  F   UNL     1      -8.710 -19.492   2.996  1.00  0.00    -0.206 F 
ATOM     81  C   UNL     1      -8.081 -20.929   1.252  1.00  0.00     0.040 A 
ATOM     82  C   UNL     1      -8.624 -20.366  -1.026  1.00  0.00     0.040 A 
ATOM     83  F   UNL     1      -9.755 -18.363  -1.499  1.00  0.00    -0.206 F 
ATOM     84  C   UNL     1      -8.051 -21.242  -0.105  1.00  0.00     0.006 A 
ENDBRANCH  56  77
BRANCH  68  85
ATOM     85  C   UNL     1     -15.839 -16.625   0.862  1.00  0.00     0.057 A 
ATOM     86  C   UNL     1     -16.495 -16.229  -0.310  1.00  0.00     0.134 A 
ATOM     87  C   UNL     1     -16.423 -17.647   1.620  1.00  0.00     0.134 A 
ATOM     88  F   UNL     1     -15.989 -15.253  -1.078  1.00  0.00    -0.206 F 
ATOM     89  C   UNL     1     -17.687 -16.831  -0.716  1.00  0.00     0.040 A 
ATOM     90  C   UNL     1     -17.601 -18.274   1.212  1.00  0.00     0.040 A 
ATOM     91  F   UNL     1     -15.832 -18.084   2.743  1.00  0.00    -0.206 F 
ATOM     92  C   UNL     1     -18.238 -17.863   0.042  1.00  0.00     0.006 A 
ENDBRANCH  68  85
ENDBRANCH  42  43
ENDBRANCH  34  37
ENDBRANCH  32  33
ENDBRANCH  31  32
ENDBRANCH  30  31
ENDBRANCH   3  30
TORSDOF 15
