REMARK SMILES COc1cc([C@@H]2CC(=O)Nc3c(C(=O)NCCCNC(=O)c4ccc(-c5c6nc(c(-c7c(F)cccc7F)c7ccc([nH]7)c(-c7c(F)cccc7F)c7nc(c(-c8c(F)cccc8F)c8ccc5[nH]8)C=C7)C=C6)cc4)cn(-c4ccccc4)c32)ccc1O
REMARK SMILES IDX 17 1 16 2 15 3 13 4 14 5 12 7 6 8 7 9 84 10 8 11 11 12 77 13
REMARK SMILES IDX 9 14 10 15 76 16 5 18 3 19 4 20 87 21 86 22 85 23 2 24 1 25
REMARK SMILES IDX 88 26 78 28 79 29 83 30 80 31 82 32 81 33 18 34 19 35 20 36
REMARK SMILES IDX 21 38 22 39 23 40 75 41 24 42 74 43 25 44 26 45 27 46 68 47
REMARK SMILES IDX 28 48 73 49 67 50 69 51 29 52 72 53 66 54 65 55 30 57 56 58
REMARK SMILES IDX 39 59 55 60 40 61 43 62 54 63 70 64 41 65 42 66 53 68 71 69
REMARK SMILES IDX 44 70 31 71 32 72 37 73 33 74 34 75 36 76 38 77 35 78 57 79
REMARK SMILES IDX 58 80 63 81 59 82 60 83 62 84 64 85 61 86 45 87 46 88 51 89
REMARK SMILES IDX 47 90 48 91 50 92 52 93 49 94
REMARK H PARENT 15 6 10 17 88 27 19 37 69 56 43 67
REMARK Flexibility Score: inf
ROOT
ATOM      1  C   UNL     1       0.883 -11.367   0.151  1.00  0.00     0.042 C 
ENDROOT
BRANCH   1   2
ATOM      2  C   UNL     1       1.188 -11.388  -1.355  1.00  0.00     0.118 C 
BRANCH   2   3
ATOM      3  N   UNL     1       0.042 -11.042  -2.158  1.00  0.00    -0.352 N 
ATOM      4  C   UNL     1      -0.493  -9.844  -2.541  1.00  0.00     0.254 C 
ATOM      5  O   UNL     1      -1.417  -9.934  -3.357  1.00  0.00    -0.269 OA
ATOM      6  H   UNL     1      -0.453 -11.823  -2.498  1.00  0.00     0.163 HD
BRANCH   4   7
ATOM      7  C   UNL     1      -0.086  -8.527  -2.022  1.00  0.00     0.081 A 
ATOM      8  C   UNL     1       0.817  -5.830   0.367  1.00  0.00     0.078 C 
ATOM      9  C   UNL     1       1.424  -6.712   1.474  1.00  0.00     0.115 C 
ATOM     10  C   UNL     1       0.496  -6.648  -0.853  1.00  0.00     0.055 A 
ATOM     11  C   UNL     1       2.176  -7.919   0.966  1.00  0.00     0.225 C 
ATOM     12  C   UNL     1       0.769  -7.992  -1.002  1.00  0.00     0.076 A 
ATOM     13  N   UNL     1      -0.262  -6.263  -1.929  1.00  0.00    -0.317 N 
ATOM     14  O   UNL     1       3.090  -8.441   1.605  1.00  0.00    -0.275 OA
ATOM     15  N   UNL     1       1.712  -8.528  -0.167  1.00  0.00    -0.324 N 
ATOM     16  C   UNL     1      -0.721  -7.397  -2.543  1.00  0.00     0.107 A 
ATOM     17  H   UNL     1       2.082  -9.411  -0.397  1.00  0.00     0.170 HD
BRANCH   8  18
ATOM     18  C   UNL     1       1.619  -4.556   0.182  1.00  0.00    -0.034 A 
ATOM     19  C   UNL     1       1.686  -2.121   0.412  1.00  0.00     0.160 A 
ATOM     20  C   UNL     1       0.978  -3.321   0.427  1.00  0.00     0.054 A 
ATOM     21  C   UNL     1       3.058  -2.155   0.171  1.00  0.00     0.157 A 
ATOM     22  C   UNL     1       3.702  -3.353  -0.130  1.00  0.00     0.050 A 
ATOM     23  C   UNL     1       2.988  -4.555  -0.120  1.00  0.00     0.008 A 
BRANCH  19  24
ATOM     24  O   UNL     1       1.023  -1.000   0.833  1.00  0.00    -0.493 OA
ATOM     25  C   UNL     1       0.990   0.069  -0.111  1.00  0.00     0.278 C 
ENDBRANCH  19  24
BRANCH  21  26
ATOM     26  O   UNL     1       3.838  -1.043   0.319  1.00  0.00    -0.504 OA
ATOM     27  H   UNL     1       3.444  -0.218   0.522  1.00  0.00     0.293 HD
ENDBRANCH  21  26
ENDBRANCH   8  18
BRANCH  13  28
ATOM     28  C   UNL     1      -0.544  -4.955  -2.348  1.00  0.00     0.045 A 
ATOM     29  C   UNL     1       0.515  -4.125  -2.729  1.00  0.00     0.026 A 
ATOM     30  C   UNL     1      -1.861  -4.500  -2.355  1.00  0.00     0.026 A 
ATOM     31  C   UNL     1       0.261  -2.794  -3.042  1.00  0.00     0.002 A 
ATOM     32  C   UNL     1      -2.104  -3.161  -2.655  1.00  0.00     0.002 A 
ATOM     33  C   UNL     1      -1.045  -2.308  -2.983  1.00  0.00     0.000 A 
ENDBRANCH  13  28
ENDBRANCH   4   7
ENDBRANCH   2   3
ENDBRANCH   1   2
BRANCH   1  34
ATOM     34  C   UNL     1       0.666 -12.758   0.703  1.00  0.00     0.118 C 
BRANCH  34  35
ATOM     35  N   UNL     1       1.924 -13.534   0.750  1.00  0.00    -0.352 N 
ATOM     36  C   UNL     1       2.131 -14.884   1.024  1.00  0.00     0.251 C 
ATOM     37  H   UNL     1       2.740 -13.017   0.559  1.00  0.00     0.163 HD
ATOM     38  O   UNL     1       3.223 -15.312   1.342  1.00  0.00    -0.269 OA
BRANCH  36  39
ATOM     39  C   UNL     1       0.985 -15.795   0.883  1.00  0.00     0.039 A 
ATOM     40  C   UNL     1       0.688 -16.876   1.721  1.00  0.00     0.014 A 
ATOM     41  C   UNL     1       0.106 -15.447  -0.105  1.00  0.00     0.014 A 
ATOM     42  C   UNL     1      -0.533 -17.531   1.521  1.00  0.00     0.010 A 
ATOM     43  C   UNL     1      -1.172 -15.640   0.265  1.00  0.00     0.010 A 
ATOM     44  C   UNL     1      -1.463 -16.896   0.707  1.00  0.00    -0.014 A 
BRANCH  44  45
ATOM     45  C   UNL     1      -2.773 -17.360   0.308  1.00  0.00     0.031 A 
ATOM     46  C   UNL     1      -3.717 -17.570   1.418  1.00  0.00     0.074 A 
ATOM     47  C   UNL     1      -3.180 -17.285  -0.983  1.00  0.00     0.049 A 
ATOM     48  N   UNL     1      -4.114 -18.696   1.902  1.00  0.00    -0.248 NA
ATOM     49  C   UNL     1      -4.138 -16.395   2.195  1.00  0.00     0.031 C 
ATOM     50  C   UNL     1      -2.496 -16.739  -2.169  1.00  0.00     0.029 A 
ATOM     51  N   UNL     1      -4.395 -17.625  -1.484  1.00  0.00    -0.354 N 
ATOM     52  C   UNL     1      -5.017 -18.370   2.905  1.00  0.00     0.074 A 
ATOM     53  C   UNL     1      -4.817 -16.972   3.188  1.00  0.00     0.031 C 
ATOM     54  C   UNL     1      -3.380 -16.581  -3.180  1.00  0.00     0.029 A 
ATOM     55  C   UNL     1      -4.638 -17.172  -2.777  1.00  0.00     0.049 A 
ATOM     56  H   UNL     1      -5.053 -18.150  -0.974  1.00  0.00     0.167 HD
ATOM     57  C   UNL     1      -6.034 -19.212   3.236  1.00  0.00     0.037 A 
ATOM     58  C   UNL     1      -5.834 -17.244  -3.410  1.00  0.00     0.037 A 
ATOM     59  C   UNL     1      -5.849 -20.515   2.642  1.00  0.00     0.049 A 
ATOM     60  C   UNL     1      -6.612 -18.314  -2.716  1.00  0.00     0.074 A 
ATOM     61  C   UNL     1      -4.848 -21.468   2.706  1.00  0.00     0.029 A 
ATOM     62  N   UNL     1      -6.553 -20.802   1.493  1.00  0.00    -0.354 N 
ATOM     63  N   UNL     1      -6.247 -19.573  -2.710  1.00  0.00    -0.248 NA
ATOM     64  C   UNL     1      -7.454 -17.908  -1.597  1.00  0.00     0.031 C 
ATOM     65  C   UNL     1      -4.683 -21.912   1.359  1.00  0.00     0.029 A 
ATOM     66  C   UNL     1      -5.645 -21.273   0.574  1.00  0.00     0.049 A 
ATOM     67  H   UNL     1      -7.522 -20.691   1.357  1.00  0.00     0.167 HD
ATOM     68  C   UNL     1      -6.467 -20.012  -1.409  1.00  0.00     0.074 A 
ATOM     69  C   UNL     1      -7.258 -18.950  -0.782  1.00  0.00     0.031 C 
ATOM     70  C   UNL     1      -5.740 -21.030  -0.851  1.00  0.00     0.037 A 
BRANCH  57  71
ATOM     71  C   UNL     1      -7.358 -18.765   3.788  1.00  0.00     0.057 A 
ATOM     72  C   UNL     1      -8.228 -19.721   4.337  1.00  0.00     0.134 A 
ATOM     73  C   UNL     1      -7.923 -17.492   3.567  1.00  0.00     0.134 A 
ATOM     74  F   UNL     1      -7.808 -20.973   4.578  1.00  0.00    -0.206 F 
ATOM     75  C   UNL     1      -9.577 -19.448   4.587  1.00  0.00     0.040 A 
ATOM     76  C   UNL     1      -9.253 -17.193   3.865  1.00  0.00     0.040 A 
ATOM     77  F   UNL     1      -7.254 -16.505   2.959  1.00  0.00    -0.206 F 
ATOM     78  C   UNL     1     -10.095 -18.181   4.347  1.00  0.00     0.006 A 
ENDBRANCH  57  71
BRANCH  58  79
ATOM     79  C   UNL     1      -6.433 -16.177  -4.248  1.00  0.00     0.057 A 
ATOM     80  C   UNL     1      -7.520 -16.424  -5.094  1.00  0.00     0.134 A 
ATOM     81  C   UNL     1      -6.096 -14.820  -4.063  1.00  0.00     0.134 A 
ATOM     82  F   UNL     1      -7.951 -17.678  -5.296  1.00  0.00    -0.206 F 
ATOM     83  C   UNL     1      -8.229 -15.386  -5.720  1.00  0.00     0.040 A 
ATOM     84  C   UNL     1      -6.789 -13.777  -4.685  1.00  0.00     0.040 A 
ATOM     85  F   UNL     1      -5.131 -14.455  -3.207  1.00  0.00    -0.206 F 
ATOM     86  C   UNL     1      -7.867 -14.057  -5.511  1.00  0.00     0.006 A 
ENDBRANCH  58  79
BRANCH  70  87
ATOM     87  C   UNL     1      -4.772 -21.793  -1.725  1.00  0.00     0.057 A 
ATOM     88  C   UNL     1      -3.635 -21.221  -2.321  1.00  0.00     0.134 A 
ATOM     89  C   UNL     1      -4.872 -23.185  -1.802  1.00  0.00     0.134 A 
ATOM     90  F   UNL     1      -3.385 -19.915  -2.215  1.00  0.00    -0.206 F 
ATOM     91  C   UNL     1      -2.669 -21.984  -2.986  1.00  0.00     0.040 A 
ATOM     92  C   UNL     1      -3.900 -23.966  -2.439  1.00  0.00     0.040 A 
ATOM     93  F   UNL     1      -5.891 -23.821  -1.203  1.00  0.00    -0.206 F 
ATOM     94  C   UNL     1      -2.797 -23.366  -3.040  1.00  0.00     0.006 A 
ENDBRANCH  70  87
ENDBRANCH  44  45
ENDBRANCH  36  39
ENDBRANCH  34  35
ENDBRANCH   1  34
TORSDOF 14
