REMARK SMILES O=C(NCCCNC(=O)c1ccc(-c2c3nc(c(-c4c(F)cccc4F)c4ccc([nH]4)c(-c4c(F)cccc4F)c4nc(c(-c5c(F)cccc5F)c5ccc2[nH]5)C=C4)C=C3)cc1)C1=Cc2c(Cl)cc(Cl)cc2O[C@@H]1C(F)(F)F
REMARK SMILES IDX 5 1 4 2 3 3 1 4 2 5 64 7 65 8 75 9 66 10 74 11 67 12 73 13
REMARK SMILES IDX 68 14 69 15 72 16 70 17 71 18 76 19 77 20 78 21 79 22 6 23
REMARK SMILES IDX 7 24 8 25 9 27 10 28 11 29 63 30 12 31 62 32 13 33 14 34
REMARK SMILES IDX 15 35 56 36 16 37 61 38 55 39 57 40 17 41 60 42 54 43 53 44
REMARK SMILES IDX 18 46 44 47 27 48 43 49 28 50 31 51 42 52 58 53 29 54 30 55
REMARK SMILES IDX 41 57 59 58 32 59 19 60 20 61 25 62 21 63 22 64 24 65 26 66
REMARK SMILES IDX 23 67 45 68 46 69 51 70 47 71 48 72 50 73 52 74 49 75 33 76
REMARK SMILES IDX 34 77 39 78 35 79 36 80 38 81 40 82 37 83
REMARK H PARENT 3 6 7 26 57 45 31 56
REMARK Flexibility Score: inf
ROOT
ATOM      1  C   UNL     1       4.022   2.409  -1.349  1.00  0.00     0.042 C 
ENDROOT
BRANCH   1   2
ATOM      2  C   UNL     1       3.253   1.600  -0.310  1.00  0.00     0.118 C 
BRANCH   2   3
ATOM      3  N   UNL     1       2.256   0.702  -0.899  1.00  0.00    -0.352 N 
ATOM      4  O   UNL     1       1.114  -1.242  -1.173  1.00  0.00    -0.270 OA
ATOM      5  C   UNL     1       2.117  -0.661  -0.784  1.00  0.00     0.251 C 
ATOM      6  H   UNL     1       1.581   1.143  -1.465  1.00  0.00     0.163 HD
BRANCH   5   7
ATOM      7  C   UNL     1       3.219  -1.385  -0.126  1.00  0.00     0.067 C 
ATOM      8  C   UNL     1       4.376  -1.419  -0.798  1.00  0.00     0.027 C 
ATOM      9  C   UNL     1       3.105  -1.623   1.344  1.00  0.00     0.314 C 
ATOM     10  C   UNL     1       5.558  -1.077   0.011  1.00  0.00     0.036 A 
ATOM     11  O   UNL     1       4.216  -1.055   2.079  1.00  0.00    -0.475 OA
ATOM     12  C   UNL     1       6.742  -0.642  -0.613  1.00  0.00     0.053 A 
ATOM     13  C   UNL     1       5.368  -0.784   1.379  1.00  0.00     0.130 A 
ATOM     14  Cl  UNL     1       7.075  -0.946  -2.285  1.00  0.00    -0.083 Cl
ATOM     15  C   UNL     1       7.643   0.172   0.075  1.00  0.00     0.042 A 
ATOM     16  C   UNL     1       6.287   0.006   2.070  1.00  0.00     0.067 A 
ATOM     17  C   UNL     1       7.394   0.516   1.400  1.00  0.00     0.046 A 
ATOM     18  Cl  UNL     1       8.415   1.653   2.188  1.00  0.00    -0.084 Cl
BRANCH   9  19
ATOM     19  C   UNL     1       2.948  -3.117   1.666  1.00  0.00     0.429 C 
ATOM     20  F   UNL     1       2.687  -3.303   2.983  1.00  0.00    -0.167 F 
ATOM     21  F   UNL     1       1.926  -3.679   0.981  1.00  0.00    -0.167 F 
ATOM     22  F   UNL     1       4.067  -3.822   1.375  1.00  0.00    -0.167 F 
ENDBRANCH   9  19
ENDBRANCH   5   7
ENDBRANCH   2   3
ENDBRANCH   1   2
BRANCH   1  23
ATOM     23  C   UNL     1       3.833   3.910  -1.163  1.00  0.00     0.118 C 
BRANCH  23  24
ATOM     24  N   UNL     1       4.500   4.445   0.021  1.00  0.00    -0.352 N 
ATOM     25  C   UNL     1       5.441   5.452   0.142  1.00  0.00     0.251 C 
ATOM     26  H   UNL     1       4.239   4.021   0.870  1.00  0.00     0.163 HD
ATOM     27  O   UNL     1       5.945   5.695   1.222  1.00  0.00    -0.269 OA
BRANCH  25  28
ATOM     28  C   UNL     1       5.864   6.206  -1.062  1.00  0.00     0.039 A 
ATOM     29  C   UNL     1       7.225   6.440  -1.282  1.00  0.00     0.014 A 
ATOM     30  C   UNL     1       4.923   6.635  -1.994  1.00  0.00     0.014 A 
ATOM     31  C   UNL     1       7.646   6.991  -2.497  1.00  0.00     0.010 A 
ATOM     32  C   UNL     1       5.348   7.066  -3.243  1.00  0.00     0.010 A 
ATOM     33  C   UNL     1       6.714   7.244  -3.515  1.00  0.00    -0.014 A 
BRANCH  33  34
ATOM     34  C   UNL     1       7.105   7.698  -4.877  1.00  0.00     0.031 A 
ATOM     35  C   UNL     1       6.494   8.957  -5.434  1.00  0.00     0.074 A 
ATOM     36  C   UNL     1       7.878   6.922  -5.662  1.00  0.00     0.049 A 
ATOM     37  N   UNL     1       6.463   9.391  -6.667  1.00  0.00    -0.248 NA
ATOM     38  C   UNL     1       5.764   9.807  -4.478  1.00  0.00     0.031 C 
ATOM     39  C   UNL     1       8.499   5.656  -5.267  1.00  0.00     0.029 A 
ATOM     40  N   UNL     1       8.251   7.074  -6.975  1.00  0.00    -0.354 N 
ATOM     41  C   UNL     1       5.662  10.526  -6.643  1.00  0.00     0.074 A 
ATOM     42  C   UNL     1       5.190  10.686  -5.285  1.00  0.00     0.031 C 
ATOM     43  C   UNL     1       9.189   5.159  -6.306  1.00  0.00     0.029 A 
ATOM     44  C   UNL     1       9.016   6.039  -7.456  1.00  0.00     0.049 A 
ATOM     45  H   UNL     1       7.993   7.852  -7.521  1.00  0.00     0.167 HD
ATOM     46  C   UNL     1       5.364  11.373  -7.657  1.00  0.00     0.037 A 
ATOM     47  C   UNL     1       9.505   5.814  -8.691  1.00  0.00     0.037 A 
ATOM     48  C   UNL     1       5.901  11.255  -8.985  1.00  0.00     0.049 A 
ATOM     49  C   UNL     1       9.202   6.794  -9.790  1.00  0.00     0.074 A 
ATOM     50  C   UNL     1       5.733  12.106 -10.062  1.00  0.00     0.029 A 
ATOM     51  N   UNL     1       6.731  10.228  -9.409  1.00  0.00    -0.354 N 
ATOM     52  N   UNL     1       8.471   7.882  -9.748  1.00  0.00    -0.248 NA
ATOM     53  C   UNL     1       9.787   6.515 -11.110  1.00  0.00     0.031 C 
ATOM     54  C   UNL     1       6.444  11.582 -11.146  1.00  0.00     0.029 A 
ATOM     55  C   UNL     1       7.082  10.423 -10.733  1.00  0.00     0.049 A 
ATOM     56  H   UNL     1       7.027   9.473  -8.850  1.00  0.00     0.167 HD
ATOM     57  C   UNL     1       8.534   8.432 -11.021  1.00  0.00     0.074 A 
ATOM     58  C   UNL     1       9.378   7.562 -11.813  1.00  0.00     0.031 C 
ATOM     59  C   UNL     1       7.945   9.557 -11.493  1.00  0.00     0.037 A 
BRANCH  46  60
ATOM     60  C   UNL     1       4.427  12.507  -7.358  1.00  0.00     0.057 A 
ATOM     61  C   UNL     1       4.799  13.578  -6.536  1.00  0.00     0.134 A 
ATOM     62  C   UNL     1       3.140  12.534  -7.911  1.00  0.00     0.134 A 
ATOM     63  F   UNL     1       6.013  13.606  -5.964  1.00  0.00    -0.206 F 
ATOM     64  C   UNL     1       3.915  14.618  -6.245  1.00  0.00     0.040 A 
ATOM     65  C   UNL     1       2.257  13.584  -7.651  1.00  0.00     0.040 A 
ATOM     66  F   UNL     1       2.720  11.543  -8.712  1.00  0.00    -0.206 F 
ATOM     67  C   UNL     1       2.640  14.625  -6.808  1.00  0.00     0.006 A 
ENDBRANCH  46  60
BRANCH  47  68
ATOM     68  C   UNL     1      10.352   4.622  -8.953  1.00  0.00     0.057 A 
ATOM     69  C   UNL     1      11.727   4.759  -9.177  1.00  0.00     0.134 A 
ATOM     70  C   UNL     1       9.817   3.330  -8.991  1.00  0.00     0.134 A 
ATOM     71  F   UNL     1      12.293   5.975  -9.171  1.00  0.00    -0.206 F 
ATOM     72  C   UNL     1      12.538   3.655  -9.446  1.00  0.00     0.040 A 
ATOM     73  C   UNL     1      10.621   2.214  -9.237  1.00  0.00     0.040 A 
ATOM     74  F   UNL     1       8.508   3.131  -8.777  1.00  0.00    -0.206 F 
ATOM     75  C   UNL     1      11.985   2.377  -9.472  1.00  0.00     0.006 A 
ENDBRANCH  47  68
BRANCH  59  76
ATOM     76  C   UNL     1       8.232   9.943 -12.912  1.00  0.00     0.057 A 
ATOM     77  C   UNL     1       7.633   9.282 -13.991  1.00  0.00     0.134 A 
ATOM     78  C   UNL     1       9.063  11.034 -13.196  1.00  0.00     0.134 A 
ATOM     79  F   UNL     1       6.837   8.223 -13.783  1.00  0.00    -0.206 F 
ATOM     80  C   UNL     1       7.860   9.689 -15.307  1.00  0.00     0.040 A 
ATOM     81  C   UNL     1       9.280  11.462 -14.505  1.00  0.00     0.040 A 
ATOM     82  F   UNL     1       9.659  11.712 -12.204  1.00  0.00    -0.206 F 
ATOM     83  C   UNL     1       8.678  10.787 -15.566  1.00  0.00     0.006 A 
ENDBRANCH  59  76
ENDBRANCH  33  34
ENDBRANCH  25  28
ENDBRANCH  23  24
ENDBRANCH   1  23
TORSDOF 11
