REMARK SMILES O=C(Cc1ccccc1Nc1c(F)cccc1C(F)(F)F)NCCCNC(=O)c1ccc(-c2c3nc(c(-c4c(F)cccc4F)c4ccc([nH]4)c(-c4c(F)cccc4F)c4nc(c(-c5c(F)cccc5F)c5ccc2[nH]5)C=C4)C=C3)cc1
REMARK SMILES IDX 23 1 22 2 1 3 2 4 3 6 4 7 5 8 9 9 6 10 8 11 7 12 10 13 11 15
REMARK SMILES IDX 12 16 17 17 13 18 14 19 16 20 15 21 18 22 19 23 20 24 21 25
REMARK SMILES IDX 24 26 25 27 26 28 27 29 28 31 29 32 30 33 82 34 31 35 81 36
REMARK SMILES IDX 32 37 33 38 34 39 75 40 35 41 80 42 74 43 76 44 36 45 79 46
REMARK SMILES IDX 73 47 72 48 37 50 63 51 46 52 62 53 47 54 50 55 61 56 77 57
REMARK SMILES IDX 48 58 49 59 60 61 78 62 51 63 38 64 39 65 44 66 40 67 41 68
REMARK SMILES IDX 43 69 45 70 42 71 64 72 65 73 70 74 66 75 67 76 69 77 71 78
REMARK SMILES IDX 68 79 52 80 53 81 58 82 54 83 55 84 57 85 59 86 56 87
REMARK H PARENT 22 5 10 14 26 30 76 49 50 60
REMARK Flexibility Score: inf
ROOT
ATOM      1  C   UNL     1       2.216   0.176   2.354  1.00  0.00     0.117 C 
ENDROOT
BRANCH   1   2
ATOM      2  N   UNL     1       2.922   0.077   1.093  1.00  0.00    -0.356 N 
ATOM      3  O   UNL     1       1.068  -0.315  -0.204  1.00  0.00    -0.275 OA
ATOM      4  C   UNL     1       2.275  -0.109  -0.110  1.00  0.00     0.224 C 
ATOM      5  H   UNL     1       3.905   0.144   1.095  1.00  0.00     0.163 HD
BRANCH   4   6
ATOM      6  C   UNL     1       3.168  -0.027  -1.339  1.00  0.00     0.137 C 
BRANCH   6   7
ATOM      7  C   UNL     1       4.040   1.213  -1.349  1.00  0.00    -0.015 A 
ATOM      8  C   UNL     1       5.438   1.042  -1.307  1.00  0.00     0.006 A 
ATOM      9  C   UNL     1       3.490   2.516  -1.367  1.00  0.00     0.042 A 
ATOM     10  C   UNL     1       6.289   2.143  -1.258  1.00  0.00     0.000 A 
ATOM     11  C   UNL     1       4.372   3.605  -1.302  1.00  0.00     0.026 A 
ATOM     12  C   UNL     1       5.755   3.424  -1.245  1.00  0.00     0.002 A 
BRANCH   9  13
ATOM     13  N   UNL     1       2.099   2.709  -1.506  1.00  0.00    -0.352 N 
ATOM     14  H   UNL     1       1.555   1.904  -1.345  1.00  0.00     0.167 HD
BRANCH  13  15
ATOM     15  C   UNL     1       1.357   3.863  -1.838  1.00  0.00     0.087 A 
ATOM     16  C   UNL     1       0.330   4.246  -0.950  1.00  0.00     0.147 A 
ATOM     17  C   UNL     1       1.613   4.685  -2.949  1.00  0.00     0.082 A 
ATOM     18  F   UNL     1       0.057   3.466   0.109  1.00  0.00    -0.205 F 
ATOM     19  C   UNL     1      -0.404   5.415  -1.114  1.00  0.00     0.041 A 
ATOM     20  C   UNL     1       0.876   5.886  -3.094  1.00  0.00     0.015 A 
ATOM     21  C   UNL     1      -0.120   6.249  -2.186  1.00  0.00     0.004 A 
BRANCH  17  22
ATOM     22  C   UNL     1       2.605   4.344  -4.036  1.00  0.00     0.418 C 
ATOM     23  F   UNL     1       2.185   4.788  -5.262  1.00  0.00    -0.166 F 
ATOM     24  F   UNL     1       3.814   4.944  -3.848  1.00  0.00    -0.166 F 
ATOM     25  F   UNL     1       2.847   3.019  -4.217  1.00  0.00    -0.166 F 
ENDBRANCH  17  22
ENDBRANCH  13  15
ENDBRANCH   9  13
ENDBRANCH   6   7
ENDBRANCH   4   6
ENDBRANCH   1   2
BRANCH   1  26
ATOM     26  C   UNL     1       2.479  -1.010   3.273  1.00  0.00     0.042 C 
BRANCH  26  27
ATOM     27  C   UNL     1       3.942  -1.221   3.653  1.00  0.00     0.118 C 
BRANCH  27  28
ATOM     28  N   UNL     1       4.523  -0.105   4.386  1.00  0.00    -0.352 N 
ATOM     29  C   UNL     1       5.292  -0.090   5.522  1.00  0.00     0.251 C 
ATOM     30  H   UNL     1       4.332   0.783   4.005  1.00  0.00     0.163 HD
ATOM     31  O   UNL     1       5.594   0.993   6.026  1.00  0.00    -0.269 OA
BRANCH  29  32
ATOM     32  C   UNL     1       5.739  -1.343   6.174  1.00  0.00     0.039 A 
ATOM     33  C   UNL     1       5.727  -1.401   7.572  1.00  0.00     0.014 A 
ATOM     34  C   UNL     1       6.197  -2.442   5.442  1.00  0.00     0.014 A 
ATOM     35  C   UNL     1       6.107  -2.574   8.228  1.00  0.00     0.010 A 
ATOM     36  C   UNL     1       6.513  -3.635   6.095  1.00  0.00     0.010 A 
ATOM     37  C   UNL     1       6.468  -3.716   7.494  1.00  0.00    -0.014 A 
BRANCH  37  38
ATOM     38  C   UNL     1       6.765  -4.997   8.187  1.00  0.00     0.031 A 
ATOM     39  C   UNL     1       8.141  -5.602   8.142  1.00  0.00     0.074 A 
ATOM     40  C   UNL     1       5.773  -5.644   8.829  1.00  0.00     0.049 A 
ATOM     41  N   UNL     1       8.574  -6.710   8.690  1.00  0.00    -0.248 NA
ATOM     42  C   UNL     1       9.158  -4.882   7.361  1.00  0.00     0.031 C 
ATOM     43  C   UNL     1       4.379  -5.200   8.898  1.00  0.00     0.029 A 
ATOM     44  N   UNL     1       5.783  -6.814   9.547  1.00  0.00    -0.354 N 
ATOM     45  C   UNL     1       9.906  -6.825   8.314  1.00  0.00     0.074 A 
ATOM     46  C   UNL     1      10.198  -5.699   7.452  1.00  0.00     0.031 C 
ATOM     47  C   UNL     1       3.677  -6.068   9.643  1.00  0.00     0.029 A 
ATOM     48  C   UNL     1       4.562  -7.142  10.083  1.00  0.00     0.049 A 
ATOM     49  H   UNL     1       6.590  -7.365   9.667  1.00  0.00     0.167 HD
ATOM     50  C   UNL     1      10.810  -7.769   8.671  1.00  0.00     0.037 A 
ATOM     51  C   UNL     1       4.195  -8.186  10.849  1.00  0.00     0.037 A 
ATOM     52  C   UNL     1      10.530  -8.879   9.546  1.00  0.00     0.049 A 
ATOM     53  C   UNL     1       5.223  -9.203  11.255  1.00  0.00     0.074 A 
ATOM     54  C   UNL     1      11.398  -9.854  10.008  1.00  0.00     0.029 A 
ATOM     55  N   UNL     1       9.287  -9.161  10.092  1.00  0.00    -0.354 N 
ATOM     56  N   UNL     1       6.497  -9.258  10.950  1.00  0.00    -0.248 NA
ATOM     57  C   UNL     1       4.765 -10.296  12.125  1.00  0.00     0.031 C 
ATOM     58  C   UNL     1      10.672 -10.745  10.808  1.00  0.00     0.029 A 
ATOM     59  C   UNL     1       9.362 -10.301  10.876  1.00  0.00     0.049 A 
ATOM     60  H   UNL     1       8.472  -8.629   9.944  1.00  0.00     0.167 HD
ATOM     61  C   UNL     1       6.997 -10.373  11.609  1.00  0.00     0.074 A 
ATOM     62  C   UNL     1       5.893 -10.955  12.344  1.00  0.00     0.031 C 
ATOM     63  C   UNL     1       8.258 -10.870  11.605  1.00  0.00     0.037 A 
BRANCH  50  64
ATOM     64  C   UNL     1      12.200  -7.638   8.117  1.00  0.00     0.057 A 
ATOM     65  C   UNL     1      13.076  -6.638   8.559  1.00  0.00     0.134 A 
ATOM     66  C   UNL     1      12.680  -8.542   7.162  1.00  0.00     0.134 A 
ATOM     67  F   UNL     1      12.675  -5.734   9.465  1.00  0.00    -0.206 F 
ATOM     68  C   UNL     1      14.373  -6.527   8.053  1.00  0.00     0.040 A 
ATOM     69  C   UNL     1      13.983  -8.456   6.666  1.00  0.00     0.040 A 
ATOM     70  F   UNL     1      11.896  -9.527   6.701  1.00  0.00    -0.206 F 
ATOM     71  C   UNL     1      14.831  -7.443   7.108  1.00  0.00     0.006 A 
ENDBRANCH  50  64
BRANCH  51  72
ATOM     72  C   UNL     1       2.793  -8.301  11.321  1.00  0.00     0.057 A 
ATOM     73  C   UNL     1       2.465  -8.073  12.663  1.00  0.00     0.134 A 
ATOM     74  C   UNL     1       1.753  -8.643  10.450  1.00  0.00     0.134 A 
ATOM     75  F   UNL     1       3.423  -7.760  13.548  1.00  0.00    -0.206 F 
ATOM     76  C   UNL     1       1.155  -8.199  13.126  1.00  0.00     0.040 A 
ATOM     77  C   UNL     1       0.435  -8.751  10.895  1.00  0.00     0.040 A 
ATOM     78  F   UNL     1       2.004  -8.866   9.152  1.00  0.00    -0.206 F 
ATOM     79  C   UNL     1       0.135  -8.535  12.239  1.00  0.00     0.006 A 
ENDBRANCH  51  72
BRANCH  63  80
ATOM     80  C   UNL     1       8.512 -12.086  12.446  1.00  0.00     0.057 A 
ATOM     81  C   UNL     1       8.031 -13.350  12.085  1.00  0.00     0.134 A 
ATOM     82  C   UNL     1       9.255 -11.990  13.630  1.00  0.00     0.134 A 
ATOM     83  F   UNL     1       7.301 -13.506  10.970  1.00  0.00    -0.206 F 
ATOM     84  C   UNL     1       8.252 -14.471  12.886  1.00  0.00     0.040 A 
ATOM     85  C   UNL     1       9.504 -13.108  14.427  1.00  0.00     0.040 A 
ATOM     86  F   UNL     1       9.751 -10.809  14.030  1.00  0.00    -0.206 F 
ATOM     87  C   UNL     1       8.995 -14.352  14.060  1.00  0.00     0.006 A 
ENDBRANCH  63  80
ENDBRANCH  37  38
ENDBRANCH  29  32
ENDBRANCH  27  28
ENDBRANCH  26  27
ENDBRANCH   1  26
TORSDOF 14
