REMARK SMILES C=CC[N@@H+](CC(=O)NCCCNC(=O)c1ccc(-c2c3nc(c(-c4c(F)cccc4F)c4ccc([nH]4)c(-c4c(F)cccc4F)c4nc(c(-c5c(F)cccc5F)c5ccc2[nH]5)C=C4)C=C3)cc1)C[C@H]1C[N@@H+](C(C)C)CCO1
REMARK SMILES IDX 9 1 8 2 6 3 7 4 5 6 4 7 3 9 2 10 1 11 69 12 70 13 71 14
REMARK SMILES IDX 78 15 72 16 77 17 76 18 73 20 74 21 75 22 10 23 11 24 12 25
REMARK SMILES IDX 13 26 14 28 15 29 16 30 68 31 17 32 67 33 18 34 19 35 20 36
REMARK SMILES IDX 61 37 21 38 66 39 60 40 62 41 22 42 65 43 59 44 58 45 23 47
REMARK SMILES IDX 49 48 32 49 48 50 33 51 36 52 47 53 63 54 34 55 35 56 46 58
REMARK SMILES IDX 64 59 37 60 24 61 25 62 30 63 26 64 27 65 29 66 31 67 28 68
REMARK SMILES IDX 50 69 51 70 56 71 52 72 53 73 55 74 57 75 54 76 38 77 39 78
REMARK SMILES IDX 44 79 40 80 41 81 43 82 45 83 42 84
REMARK H PARENT 8 5 4 8 72 19 12 27 62 46 36 57
REMARK Flexibility Score: inf
ROOT
ATOM      1  C   UNL     1      -5.463   1.238   2.651  1.00  0.00     0.118 C 
ENDROOT
BRANCH   1   2
ATOM      2  N   UNL     1      -4.069   1.334   3.050  1.00  0.00    -0.351 N 
ATOM      3  C   UNL     1      -2.929   1.610   2.356  1.00  0.00     0.275 C 
ATOM      4  O   UNL     1      -1.923   1.849   3.033  1.00  0.00    -0.269 OA
ATOM      5  H   UNL     1      -3.919   1.166   4.008  1.00  0.00     0.163 HD
BRANCH   3   6
ATOM      6  C   UNL     1      -2.853   1.630   0.831  1.00  0.00     0.363 C 
BRANCH   6   7
ATOM      7  N   UNL     1      -2.815   0.313   0.157  1.00  0.00    -0.322 N 
ATOM      8  H   UNL     1      -2.408   0.446  -0.768  1.00  0.00     0.348 HD
BRANCH   7   9
ATOM      9  C   UNL     1      -4.136  -0.164  -0.190  1.00  0.00     0.290 C 
BRANCH   9  10
ATOM     10  C   UNL     1      -4.256  -1.234  -1.228  1.00  0.00     0.025 C 
ATOM     11  C   UNL     1      -5.293  -2.087  -1.248  1.00  0.00     0.010 C 
ENDBRANCH   9  10
ENDBRANCH   7   9
BRANCH   7  12
ATOM     12  C   UNL     1      -1.771  -0.625   0.613  1.00  0.00     0.301 C 
BRANCH  12  13
ATOM     13  C   UNL     1      -1.826  -1.358   1.987  1.00  0.00     0.228 C 
ATOM     14  C   UNL     1      -2.906  -2.443   2.185  1.00  0.00     0.300 C 
ATOM     15  O   UNL     1      -0.516  -1.827   2.386  1.00  0.00    -0.361 OA
ATOM     16  N   UNL     1      -2.582  -3.828   1.829  1.00  0.00    -0.329 N 
ATOM     17  C   UNL     1      -0.181  -3.121   1.885  1.00  0.00     0.222 C 
ATOM     18  C   UNL     1      -1.230  -4.174   2.264  1.00  0.00     0.291 C 
ATOM     19  H   UNL     1      -3.196  -4.430   2.378  1.00  0.00     0.348 HD
BRANCH  16  20
ATOM     20  C   UNL     1      -3.025  -4.289   0.512  1.00  0.00     0.177 C 
ATOM     21  C   UNL     1      -2.027  -4.227  -0.647  1.00  0.00     0.075 C 
ATOM     22  C   UNL     1      -3.542  -5.726   0.649  1.00  0.00     0.075 C 
ENDBRANCH  16  20
ENDBRANCH  12  13
ENDBRANCH   7  12
ENDBRANCH   6   7
ENDBRANCH   3   6
ENDBRANCH   1   2
BRANCH   1  23
ATOM     23  C   UNL     1      -6.097  -0.136   2.907  1.00  0.00     0.042 C 
BRANCH  23  24
ATOM     24  C   UNL     1      -5.985  -0.672   4.332  1.00  0.00     0.118 C 
BRANCH  24  25
ATOM     25  N   UNL     1      -7.173  -0.379   5.109  1.00  0.00    -0.352 N 
ATOM     26  C   UNL     1      -8.167  -1.213   5.551  1.00  0.00     0.251 C 
ATOM     27  H   UNL     1      -7.284   0.567   5.358  1.00  0.00     0.163 HD
ATOM     28  O   UNL     1      -9.219  -0.708   5.958  1.00  0.00    -0.269 OA
BRANCH  26  29
ATOM     29  C   UNL     1      -8.028  -2.692   5.566  1.00  0.00     0.039 A 
ATOM     30  C   UNL     1      -9.173  -3.466   5.333  1.00  0.00     0.014 A 
ATOM     31  C   UNL     1      -6.838  -3.332   5.929  1.00  0.00     0.014 A 
ATOM     32  C   UNL     1      -9.128  -4.859   5.458  1.00  0.00     0.010 A 
ATOM     33  C   UNL     1      -6.779  -4.730   5.998  1.00  0.00     0.010 A 
ATOM     34  C   UNL     1      -7.930  -5.507   5.793  1.00  0.00    -0.014 A 
BRANCH  34  35
ATOM     35  C   UNL     1      -7.892  -6.981   5.997  1.00  0.00     0.031 A 
ATOM     36  C   UNL     1      -7.665  -7.552   7.374  1.00  0.00     0.074 A 
ATOM     37  C   UNL     1      -8.045  -7.817   4.952  1.00  0.00     0.049 A 
ATOM     38  N   UNL     1      -7.571  -8.805   7.747  1.00  0.00    -0.248 NA
ATOM     39  C   UNL     1      -7.510  -6.587   8.473  1.00  0.00     0.031 C 
ATOM     40  C   UNL     1      -8.247  -7.407   3.563  1.00  0.00     0.029 A 
ATOM     41  N   UNL     1      -8.048  -9.190   4.899  1.00  0.00    -0.354 N 
ATOM     42  C   UNL     1      -7.325  -8.777   9.114  1.00  0.00     0.074 A 
ATOM     43  C   UNL     1      -7.253  -7.384   9.501  1.00  0.00     0.031 C 
ATOM     44  C   UNL     1      -8.368  -8.503   2.796  1.00  0.00     0.029 A 
ATOM     45  C   UNL     1      -8.226  -9.692   3.634  1.00  0.00     0.049 A 
ATOM     46  H   UNL     1      -7.934  -9.760   5.694  1.00  0.00     0.167 HD
ATOM     47  C   UNL     1      -7.189  -9.814   9.976  1.00  0.00     0.037 A 
ATOM     48  C   UNL     1      -8.265 -10.965   3.194  1.00  0.00     0.037 A 
ATOM     49  C   UNL     1      -7.298 -11.202   9.611  1.00  0.00     0.049 A 
ATOM     50  C   UNL     1      -8.119 -12.099   4.170  1.00  0.00     0.074 A 
ATOM     51  C   UNL     1      -7.239 -12.316  10.431  1.00  0.00     0.029 A 
ATOM     52  N   UNL     1      -7.490 -11.666   8.320  1.00  0.00    -0.354 N 
ATOM     53  N   UNL     1      -7.941 -12.054   5.468  1.00  0.00    -0.248 NA
ATOM     54  C   UNL     1      -8.184 -13.461   3.620  1.00  0.00     0.031 C 
ATOM     55  C   UNL     1      -7.364 -13.457   9.630  1.00  0.00     0.029 A 
ATOM     56  C   UNL     1      -7.535 -13.050   8.318  1.00  0.00     0.049 A 
ATOM     57  H   UNL     1      -7.582 -11.096   7.522  1.00  0.00     0.167 HD
ATOM     58  C   UNL     1      -7.895 -13.377   5.891  1.00  0.00     0.074 A 
ATOM     59  C   UNL     1      -8.075 -14.201   4.714  1.00  0.00     0.031 C 
ATOM     60  C   UNL     1      -7.720 -13.862   7.143  1.00  0.00     0.037 A 
BRANCH  47  61
ATOM     61  C   UNL     1      -6.907  -9.486  11.412  1.00  0.00     0.057 A 
ATOM     62  C   UNL     1      -7.899  -8.977  12.260  1.00  0.00     0.134 A 
ATOM     63  C   UNL     1      -5.642  -9.725  11.964  1.00  0.00     0.134 A 
ATOM     64  F   UNL     1      -9.128  -8.718  11.789  1.00  0.00    -0.206 F 
ATOM     65  C   UNL     1      -7.636  -8.697  13.602  1.00  0.00     0.040 A 
ATOM     66  C   UNL     1      -5.374  -9.469  13.309  1.00  0.00     0.040 A 
ATOM     67  F   UNL     1      -4.651 -10.219  11.207  1.00  0.00    -0.206 F 
ATOM     68  C   UNL     1      -6.372  -8.949  14.132  1.00  0.00     0.006 A 
ENDBRANCH  47  61
BRANCH  48  69
ATOM     69  C   UNL     1      -8.469 -11.240   1.751  1.00  0.00     0.057 A 
ATOM     70  C   UNL     1      -9.686 -11.745   1.279  1.00  0.00     0.134 A 
ATOM     71  C   UNL     1      -7.454 -11.014   0.815  1.00  0.00     0.134 A 
ATOM     72  F   UNL     1     -10.687 -12.003   2.133  1.00  0.00    -0.206 F 
ATOM     73  C   UNL     1      -9.882 -12.028  -0.073  1.00  0.00     0.040 A 
ATOM     74  C   UNL     1      -7.644 -11.273  -0.543  1.00  0.00     0.040 A 
ATOM     75  F   UNL     1      -6.267 -10.529   1.208  1.00  0.00    -0.206 F 
ATOM     76  C   UNL     1      -8.860 -11.787  -0.989  1.00  0.00     0.006 A 
ENDBRANCH  48  69
BRANCH  60  77
ATOM     77  C   UNL     1      -7.739 -15.351   7.312  1.00  0.00     0.057 A 
ATOM     78  C   UNL     1      -6.654 -16.149   6.930  1.00  0.00     0.134 A 
ATOM     79  C   UNL     1      -8.839 -15.989   7.898  1.00  0.00     0.134 A 
ATOM     80  F   UNL     1      -5.576 -15.598   6.352  1.00  0.00    -0.206 F 
ATOM     81  C   UNL     1      -6.669 -17.533   7.110  1.00  0.00     0.040 A 
ATOM     82  C   UNL     1      -8.858 -17.370   8.100  1.00  0.00     0.040 A 
ATOM     83  F   UNL     1      -9.908 -15.280   8.291  1.00  0.00    -0.206 F 
ATOM     84  C   UNL     1      -7.772 -18.146   7.702  1.00  0.00     0.006 A 
ENDBRANCH  60  77
ENDBRANCH  34  35
ENDBRANCH  26  29
ENDBRANCH  24  25
ENDBRANCH  23  24
ENDBRANCH   1  23
TORSDOF 16
