REMARK SMILES Cc1sc(NC(=O)c2ccc(Br)nc2)c(C(=O)NCCCNC(=O)c2ccc(-c3c4nc(c(-c5c(F)cccc5F)c5ccc([nH]5)c(-c5c(F)cccc5F)c5nc(c(-c6c(F)cccc6F)c6ccc3[nH]6)C=C5)C=C4)cc2)c1C
REMARK SMILES IDX 20 1 19 2 18 3 16 4 17 5 15 7 1 8 2 9 3 10 79 11 4 12 80 13
REMARK SMILES IDX 5 14 6 15 7 17 8 18 9 19 14 20 10 21 13 22 11 23 12 24 21 25
REMARK SMILES IDX 22 26 23 27 24 29 25 30 26 31 78 32 27 33 77 34 28 35 29 36
REMARK SMILES IDX 30 37 71 38 31 39 76 40 70 41 72 42 32 43 75 44 69 45 68 46
REMARK SMILES IDX 33 48 59 49 42 50 58 51 43 52 46 53 57 54 73 55 44 56 45 57
REMARK SMILES IDX 56 59 74 60 47 61 34 62 35 63 40 64 36 65 37 66 39 67 41 68
REMARK SMILES IDX 38 69 60 70 61 71 66 72 62 73 63 74 65 75 67 76 64 77 48 78
REMARK SMILES IDX 49 79 54 80 50 81 51 82 53 83 55 84 52 85
REMARK H PARENT 18 6 5 16 22 28 72 47 46 58
REMARK Flexibility Score: inf
ROOT
ATOM      1  C   UNL     1       2.285  -4.389   2.512  1.00  0.00     0.042 C 
ENDROOT
BRANCH   1   2
ATOM      2  C   UNL     1       1.615  -3.390   1.583  1.00  0.00     0.118 C 
BRANCH   2   3
ATOM      3  N   UNL     1       0.177  -3.562   1.475  1.00  0.00    -0.352 N 
ATOM      4  C   UNL     1      -0.754  -2.742   0.881  1.00  0.00     0.254 C 
ATOM      5  O   UNL     1      -1.943  -3.001   1.060  1.00  0.00    -0.269 OA
ATOM      6  H   UNL     1      -0.182  -4.382   1.885  1.00  0.00     0.163 HD
BRANCH   4   7
ATOM      7  C   UNL     1      -0.321  -1.561   0.131  1.00  0.00     0.077 A 
ATOM      8  C   UNL     1      -0.487   2.211  -0.336  1.00  0.00     0.057 C 
ATOM      9  C   UNL     1      -0.236   0.739  -0.338  1.00  0.00     0.007 A 
ATOM     10  S   UNL     1       1.169   0.129  -1.092  1.00  0.00    -0.122 S 
ATOM     11  C   UNL     1      -1.020  -0.281   0.180  1.00  0.00    -0.022 A 
ATOM     12  C   UNL     1       0.695  -1.479  -0.804  1.00  0.00     0.109 A 
ATOM     13  C   UNL     1      -2.389  -0.102   0.763  1.00  0.00     0.046 C 
BRANCH  12  14
ATOM     14  N   UNL     1       1.451  -2.369  -1.535  1.00  0.00    -0.313 N 
ATOM     15  C   UNL     1       1.189  -3.689  -1.826  1.00  0.00     0.257 C 
ATOM     16  H   UNL     1       2.293  -2.012  -1.899  1.00  0.00     0.171 HD
ATOM     17  O   UNL     1       2.112  -4.436  -2.145  1.00  0.00    -0.269 OA
BRANCH  15  18
ATOM     18  C   UNL     1      -0.179  -4.237  -1.782  1.00  0.00     0.058 A 
ATOM     19  C   UNL     1      -1.294  -3.531  -2.233  1.00  0.00     0.018 A 
ATOM     20  C   UNL     1      -0.374  -5.508  -1.258  1.00  0.00     0.126 A 
ATOM     21  C   UNL     1      -2.563  -4.074  -2.035  1.00  0.00     0.037 A 
ATOM     22  N   UNL     1      -1.595  -6.058  -1.052  1.00  0.00    -0.249 NA
ATOM     23  C   UNL     1      -2.664  -5.317  -1.422  1.00  0.00     0.106 A 
ATOM     24  Br  UNL     1      -4.387  -6.023  -1.065  1.00  0.00    -0.029 Br
ENDBRANCH  15  18
ENDBRANCH  12  14
ENDBRANCH   4   7
ENDBRANCH   2   3
ENDBRANCH   1   2
BRANCH   1  25
ATOM     25  C   UNL     1       2.098  -5.857   2.145  1.00  0.00     0.118 C 
BRANCH  25  26
ATOM     26  N   UNL     1       2.660  -6.277   0.869  1.00  0.00    -0.352 N 
ATOM     27  C   UNL     1       3.260  -7.477   0.539  1.00  0.00     0.251 C 
ATOM     28  H   UNL     1       2.606  -5.615   0.142  1.00  0.00     0.163 HD
ATOM     29  O   UNL     1       3.612  -7.697  -0.616  1.00  0.00    -0.269 OA
BRANCH  27  30
ATOM     30  C   UNL     1       3.582  -8.464   1.597  1.00  0.00     0.039 A 
ATOM     31  C   UNL     1       4.884  -8.973   1.639  1.00  0.00     0.014 A 
ATOM     32  C   UNL     1       2.671  -8.801   2.597  1.00  0.00     0.014 A 
ATOM     33  C   UNL     1       5.311  -9.691   2.756  1.00  0.00     0.010 A 
ATOM     34  C   UNL     1       3.126  -9.426   3.756  1.00  0.00     0.010 A 
ATOM     35  C   UNL     1       4.460  -9.847   3.863  1.00  0.00    -0.014 A 
BRANCH  35  36
ATOM     36  C   UNL     1       4.978 -10.376   5.153  1.00  0.00     0.031 A 
ATOM     37  C   UNL     1       4.394 -11.615   5.770  1.00  0.00     0.074 A 
ATOM     38  C   UNL     1       5.929  -9.684   5.814  1.00  0.00     0.049 A 
ATOM     39  N   UNL     1       4.695 -12.190   6.908  1.00  0.00    -0.248 NA
ATOM     40  C   UNL     1       3.305 -12.274   5.034  1.00  0.00     0.031 C 
ATOM     41  C   UNL     1       6.519  -8.416   5.376  1.00  0.00     0.029 A 
ATOM     42  N   UNL     1       6.570  -9.950   7.000  1.00  0.00    -0.354 N 
ATOM     43  C   UNL     1       3.818 -13.259   7.034  1.00  0.00     0.074 A 
ATOM     44  C   UNL     1       2.940 -13.222   5.884  1.00  0.00     0.031 C 
ATOM     45  C   UNL     1       7.464  -8.040   6.253  1.00  0.00     0.029 A 
ATOM     46  C   UNL     1       7.528  -9.021   7.330  1.00  0.00     0.049 A 
ATOM     47  H   UNL     1       6.362 -10.732   7.561  1.00  0.00     0.167 HD
ATOM     48  C   UNL     1       3.765 -14.204   8.003  1.00  0.00     0.037 A 
ATOM     49  C   UNL     1       8.374  -8.972   8.375  1.00  0.00     0.037 A 
ATOM     50  C   UNL     1       4.665 -14.270   9.124  1.00  0.00     0.049 A 
ATOM     51  C   UNL     1       8.344 -10.070   9.399  1.00  0.00     0.074 A 
ATOM     52  C   UNL     1       4.734 -15.228  10.122  1.00  0.00     0.029 A 
ATOM     53  N   UNL     1       5.661 -13.344   9.390  1.00  0.00    -0.354 N 
ATOM     54  N   UNL     1       7.558 -11.116   9.464  1.00  0.00    -0.248 NA
ATOM     55  C   UNL     1       9.327  -9.985  10.489  1.00  0.00     0.031 C 
ATOM     56  C   UNL     1       5.760 -14.869  11.003  1.00  0.00     0.029 A 
ATOM     57  C   UNL     1       6.349 -13.705  10.537  1.00  0.00     0.049 A 
ATOM     58  H   UNL     1       5.852 -12.547   8.845  1.00  0.00     0.167 HD
ATOM     59  C   UNL     1       7.965 -11.827  10.584  1.00  0.00     0.074 A 
ATOM     60  C   UNL     1       9.078 -11.101  11.160  1.00  0.00     0.031 C 
ATOM     61  C   UNL     1       7.460 -12.977  11.092  1.00  0.00     0.037 A 
BRANCH  48  62
ATOM     62  C   UNL     1       2.702 -15.254   7.875  1.00  0.00     0.057 A 
ATOM     63  C   UNL     1       2.772 -16.254   6.896  1.00  0.00     0.134 A 
ATOM     64  C   UNL     1       1.604 -15.275   8.744  1.00  0.00     0.134 A 
ATOM     65  F   UNL     1       3.791 -16.281   6.024  1.00  0.00    -0.206 F 
ATOM     66  C   UNL     1       1.771 -17.218   6.763  1.00  0.00     0.040 A 
ATOM     67  C   UNL     1       0.609 -16.249   8.637  1.00  0.00     0.040 A 
ATOM     68  F   UNL     1       1.479 -14.350   9.707  1.00  0.00    -0.206 F 
ATOM     69  C   UNL     1       0.688 -17.219   7.639  1.00  0.00     0.006 A 
ENDBRANCH  48  62
BRANCH  49  70
ATOM     70  C   UNL     1       9.365  -7.872   8.479  1.00  0.00     0.057 A 
ATOM     71  C   UNL     1      10.723  -8.107   8.231  1.00  0.00     0.134 A 
ATOM     72  C   UNL     1       8.988  -6.573   8.836  1.00  0.00     0.134 A 
ATOM     73  F   UNL     1      11.145  -9.336   7.902  1.00  0.00    -0.206 F 
ATOM     74  C   UNL     1      11.674  -7.093   8.354  1.00  0.00     0.040 A 
ATOM     75  C   UNL     1       9.926  -5.545   8.943  1.00  0.00     0.040 A 
ATOM     76  F   UNL     1       7.701  -6.284   9.078  1.00  0.00    -0.206 F 
ATOM     77  C   UNL     1      11.275  -5.806   8.708  1.00  0.00     0.006 A 
ENDBRANCH  49  70
BRANCH  61  78
ATOM     78  C   UNL     1       8.129 -13.532  12.313  1.00  0.00     0.057 A 
ATOM     79  C   UNL     1       7.957 -12.952  13.575  1.00  0.00     0.134 A 
ATOM     80  C   UNL     1       8.941 -14.670  12.225  1.00  0.00     0.134 A 
ATOM     81  F   UNL     1       7.203 -11.852  13.721  1.00  0.00    -0.206 F 
ATOM     82  C   UNL     1       8.588 -13.472  14.707  1.00  0.00     0.040 A 
ATOM     83  C   UNL     1       9.560 -15.210  13.352  1.00  0.00     0.040 A 
ATOM     84  F   UNL     1       9.142 -15.274  11.044  1.00  0.00    -0.206 F 
ATOM     85  C   UNL     1       9.389 -14.607  14.597  1.00  0.00     0.006 A 
ENDBRANCH  61  78
ENDBRANCH  35  36
ENDBRANCH  27  30
ENDBRANCH  25  26
ENDBRANCH   1  25
TORSDOF 12
