REMARK SMILES CCn1ncc(CNc2ccccc2C(=O)NCCCNC(=O)c2ccc(-c3c4nc(c(-c5c(F)cccc5F)c5ccc([nH]5)c(-c5c(F)cccc5F)c5nc(c(-c6c(F)cccc6F)c6ccc3[nH]6)C=C5)C=C4)cc2)c1C
REMARK SMILES IDX 18 1 17 2 15 3 16 4 14 6 9 7 10 8 11 9 13 10 12 11 8 12 7 14
REMARK SMILES IDX 6 15 3 16 4 17 78 18 5 19 79 20 2 21 1 22 19 23 20 24 21 25
REMARK SMILES IDX 22 26 23 28 24 29 25 30 77 31 26 32 76 33 27 34 28 35 29 36
REMARK SMILES IDX 70 37 30 38 75 39 69 40 71 41 31 42 74 43 68 44 67 45 32 47
REMARK SMILES IDX 58 48 41 49 57 50 42 51 45 52 56 53 72 54 43 55 44 56 55 58
REMARK SMILES IDX 73 59 46 60 33 61 34 62 39 63 35 64 36 65 38 66 40 67 37 68
REMARK SMILES IDX 59 69 60 70 65 71 61 72 62 73 64 74 66 75 63 76 47 77 48 78
REMARK SMILES IDX 53 79 49 80 50 81 52 82 54 83 51 84
REMARK H PARENT 17 5 8 13 21 27 71 46 45 57
REMARK Flexibility Score: inf
ROOT
ATOM      1  C   UNL     1       3.548   4.985  -4.926  1.00  0.00     0.118 C 
ENDROOT
BRANCH   1   2
ATOM      2  N   UNL     1       3.453   4.439  -6.242  1.00  0.00    -0.352 N 
ATOM      3  C   UNL     1       3.224   3.084  -6.467  1.00  0.00     0.253 C 
ATOM      4  O   UNL     1       2.541   2.787  -7.451  1.00  0.00    -0.269 OA
ATOM      5  H   UNL     1       3.554   5.041  -7.015  1.00  0.00     0.163 HD
BRANCH   3   6
ATOM      6  C   UNL     1       3.933   1.983  -5.705  1.00  0.00     0.062 A 
ATOM      7  C   UNL     1       4.197   1.826  -4.320  1.00  0.00     0.047 A 
ATOM      8  C   UNL     1       5.117   0.805  -3.955  1.00  0.00     0.026 A 
ATOM      9  C   UNL     1       5.686  -0.081  -4.868  1.00  0.00     0.002 A 
ATOM     10  C   UNL     1       4.488   1.036  -6.611  1.00  0.00     0.016 A 
ATOM     11  C   UNL     1       5.343   0.013  -6.201  1.00  0.00     0.001 A 
BRANCH   7  12
ATOM     12  N   UNL     1       3.642   2.466  -3.221  1.00  0.00    -0.380 N 
ATOM     13  H   UNL     1       4.233   2.540  -2.437  1.00  0.00     0.160 HD
BRANCH  12  14
ATOM     14  C   UNL     1       2.318   3.046  -3.054  1.00  0.00     0.152 C 
BRANCH  14  15
ATOM     15  C   UNL     1       1.635   2.717  -1.780  1.00  0.00     0.012 A 
ATOM     16  N   UNL     1       0.793   1.683  -0.039  1.00  0.00    -0.270 N 
ATOM     17  N   UNL     1       0.563   2.998   0.193  1.00  0.00    -0.181 NA
ATOM     18  C   UNL     1       1.447   1.464  -1.227  1.00  0.00     0.040 A 
ATOM     19  C   UNL     1       1.064   3.621  -0.867  1.00  0.00     0.141 A 
ATOM     20  C   UNL     1       1.901   0.184  -1.827  1.00  0.00     0.067 C 
BRANCH  16  21
ATOM     21  C   UNL     1       0.303   0.795   0.995  1.00  0.00     0.141 C 
ATOM     22  C   UNL     1       0.642  -0.677   0.915  1.00  0.00     0.029 C 
ENDBRANCH  16  21
ENDBRANCH  14  15
ENDBRANCH  12  14
ENDBRANCH   7  12
ENDBRANCH   3   6
ENDBRANCH   1   2
BRANCH   1  23
ATOM     23  C   UNL     1       4.269   6.269  -4.582  1.00  0.00     0.042 C 
BRANCH  23  24
ATOM     24  C   UNL     1       3.311   7.398  -4.242  1.00  0.00     0.118 C 
BRANCH  24  25
ATOM     25  N   UNL     1       2.396   7.169  -3.106  1.00  0.00    -0.352 N 
ATOM     26  C   UNL     1       1.333   7.990  -2.701  1.00  0.00     0.251 C 
ATOM     27  H   UNL     1       2.549   6.353  -2.577  1.00  0.00     0.163 HD
ATOM     28  O   UNL     1       0.785   7.876  -1.642  1.00  0.00    -0.269 OA
BRANCH  26  29
ATOM     29  C   UNL     1       0.914   9.017  -3.683  1.00  0.00     0.039 A 
ATOM     30  C   UNL     1       1.162  10.371  -3.449  1.00  0.00     0.014 A 
ATOM     31  C   UNL     1       0.665   8.528  -4.953  1.00  0.00     0.014 A 
ATOM     32  C   UNL     1       1.353  11.207  -4.549  1.00  0.00     0.010 A 
ATOM     33  C   UNL     1       1.085   9.302  -6.006  1.00  0.00     0.010 A 
ATOM     34  C   UNL     1       1.409  10.648  -5.837  1.00  0.00    -0.014 A 
BRANCH  34  35
ATOM     35  C   UNL     1       1.933  11.408  -6.978  1.00  0.00     0.031 A 
ATOM     36  C   UNL     1       3.072  12.343  -6.700  1.00  0.00     0.074 A 
ATOM     37  C   UNL     1       1.571  11.192  -8.263  1.00  0.00     0.049 A 
ATOM     38  N   UNL     1       3.030  13.635  -6.690  1.00  0.00    -0.248 NA
ATOM     39  C   UNL     1       4.378  11.797  -6.300  1.00  0.00     0.031 C 
ATOM     40  C   UNL     1       0.704  10.157  -8.842  1.00  0.00     0.029 A 
ATOM     41  N   UNL     1       2.000  11.856  -9.370  1.00  0.00    -0.354 N 
ATOM     42  C   UNL     1       4.333  14.079  -6.467  1.00  0.00     0.074 A 
ATOM     43  C   UNL     1       5.088  12.911  -6.090  1.00  0.00     0.031 C 
ATOM     44  C   UNL     1       0.880  10.102 -10.178  1.00  0.00     0.029 A 
ATOM     45  C   UNL     1       1.684  11.239 -10.571  1.00  0.00     0.049 A 
ATOM     46  H   UNL     1       2.493  12.707  -9.323  1.00  0.00     0.167 HD
ATOM     47  C   UNL     1       4.720  15.345  -6.804  1.00  0.00     0.037 A 
ATOM     48  C   UNL     1       2.029  11.643 -11.815  1.00  0.00     0.037 A 
ATOM     49  C   UNL     1       3.576  16.188  -7.057  1.00  0.00     0.049 A 
ATOM     50  C   UNL     1       2.328  13.094 -11.729  1.00  0.00     0.074 A 
ATOM     51  C   UNL     1       2.467  16.560  -6.320  1.00  0.00     0.029 A 
ATOM     52  N   UNL     1       3.251  16.465  -8.364  1.00  0.00    -0.354 N 
ATOM     53  N   UNL     1       1.423  14.002 -11.480  1.00  0.00    -0.248 NA
ATOM     54  C   UNL     1       3.699  13.481 -11.437  1.00  0.00     0.031 C 
ATOM     55  C   UNL     1       1.384  16.498  -7.247  1.00  0.00     0.029 A 
ATOM     56  C   UNL     1       1.915  16.183  -8.498  1.00  0.00     0.049 A 
ATOM     57  H   UNL     1       3.856  16.800  -9.065  1.00  0.00     0.167 HD
ATOM     58  C   UNL     1       2.041  14.887 -10.609  1.00  0.00     0.074 A 
ATOM     59  C   UNL     1       3.466  14.562 -10.687  1.00  0.00     0.031 C 
ATOM     60  C   UNL     1       1.331  15.607  -9.689  1.00  0.00     0.037 A 
BRANCH  47  61
ATOM     61  C   UNL     1       6.108  15.751  -7.242  1.00  0.00     0.057 A 
ATOM     62  C   UNL     1       6.406  17.117  -7.423  1.00  0.00     0.134 A 
ATOM     63  C   UNL     1       7.058  14.860  -7.775  1.00  0.00     0.134 A 
ATOM     64  F   UNL     1       5.577  18.070  -6.968  1.00  0.00    -0.206 F 
ATOM     65  C   UNL     1       7.518  17.556  -8.152  1.00  0.00     0.040 A 
ATOM     66  C   UNL     1       8.199  15.289  -8.462  1.00  0.00     0.040 A 
ATOM     67  F   UNL     1       6.886  13.533  -7.751  1.00  0.00    -0.206 F 
ATOM     68  C   UNL     1       8.415  16.640  -8.683  1.00  0.00     0.006 A 
ENDBRANCH  47  61
BRANCH  48  69
ATOM     69  C   UNL     1       2.368  10.796 -12.977  1.00  0.00     0.057 A 
ATOM     70  C   UNL     1       2.444  11.332 -14.268  1.00  0.00     0.134 A 
ATOM     71  C   UNL     1       2.883   9.495 -12.816  1.00  0.00     0.134 A 
ATOM     72  F   UNL     1       2.010  12.577 -14.513  1.00  0.00    -0.206 F 
ATOM     73  C   UNL     1       3.026  10.630 -15.331  1.00  0.00     0.040 A 
ATOM     74  C   UNL     1       3.459   8.781 -13.871  1.00  0.00     0.040 A 
ATOM     75  F   UNL     1       2.923   8.906 -11.612  1.00  0.00    -0.206 F 
ATOM     76  C   UNL     1       3.548   9.355 -15.131  1.00  0.00     0.006 A 
ENDBRANCH  48  69
BRANCH  60  77
ATOM     77  C   UNL     1      -0.174  15.595  -9.759  1.00  0.00     0.057 A 
ATOM     78  C   UNL     1      -0.961  14.441  -9.620  1.00  0.00     0.134 A 
ATOM     79  C   UNL     1      -0.856  16.817  -9.781  1.00  0.00     0.134 A 
ATOM     80  F   UNL     1      -0.406  13.232  -9.486  1.00  0.00    -0.206 F 
ATOM     81  C   UNL     1      -2.357  14.499  -9.545  1.00  0.00     0.040 A 
ATOM     82  C   UNL     1      -2.248  16.892  -9.674  1.00  0.00     0.040 A 
ATOM     83  F   UNL     1      -0.173  17.971  -9.853  1.00  0.00    -0.206 F 
ATOM     84  C   UNL     1      -3.005  15.729  -9.564  1.00  0.00     0.006 A 
ENDBRANCH  60  77
ENDBRANCH  34  35
ENDBRANCH  26  29
ENDBRANCH  24  25
ENDBRANCH  23  24
ENDBRANCH   1  23
TORSDOF 14
