REMARK SMILES CN(C(=O)C[C@@H]1SC(=O)N(c2ccccc2)C1=O)c1ccccc1C(=O)NCCCNC(=O)c1ccc(-c2c3nc(c(-c4c(F)cccc4F)c4ccc([nH]4)c(-c4c(F)cccc4F)c4nc(c(-c5c(F)cccc5F)c5ccc2[nH]5)C=C4)C=C3)cc1
REMARK SMILES IDX 25 1 26 2 27 3 24 5 19 6 20 7 21 8 23 9 22 10 2 11 1 12 3 13
REMARK SMILES IDX 4 14 5 15 6 16 7 17 17 18 8 19 10 20 18 21 9 22 11 23 12 24
REMARK SMILES IDX 16 25 13 26 15 27 14 28 28 29 29 30 30 31 31 32 32 33 33 35
REMARK SMILES IDX 34 36 35 37 87 38 36 39 86 40 37 41 38 42 39 43 80 44 40 45
REMARK SMILES IDX 85 46 79 47 81 48 41 49 84 50 78 51 77 52 42 54 68 55 51 56
REMARK SMILES IDX 67 57 52 58 55 59 66 60 82 61 53 62 54 63 65 65 83 66 56 67
REMARK SMILES IDX 43 68 44 69 49 70 45 71 46 72 48 73 50 74 47 75 69 76 70 77
REMARK SMILES IDX 75 78 71 79 72 80 74 81 76 82 73 83 57 84 58 85 63 86 59 87
REMARK SMILES IDX 60 88 62 89 64 90 61 91
REMARK H PARENT 27 4 31 34 81 53 55 64
REMARK Flexibility Score: inf
ROOT
ATOM      1  C   UNL     1       3.250   1.145   1.236  1.00  0.00     0.253 C 
ATOM      2  O   UNL     1       4.322   1.758   1.270  1.00  0.00    -0.269 OA
ATOM      3  N   UNL     1       3.248   0.018   0.458  1.00  0.00    -0.352 N 
ATOM      4  H   UNL     1       4.089  -0.115  -0.035  1.00  0.00     0.163 HD
ENDROOT
BRANCH   1   5
ATOM      5  C   UNL     1       2.139   1.625   2.114  1.00  0.00     0.063 A 
ATOM      6  C   UNL     1       0.756   1.687   1.849  1.00  0.00     0.056 A 
ATOM      7  C   UNL     1      -0.104   2.296   2.794  1.00  0.00     0.027 A 
ATOM      8  C   UNL     1       0.385   2.859   3.971  1.00  0.00     0.002 A 
ATOM      9  C   UNL     1       2.601   2.182   3.331  1.00  0.00     0.016 A 
ATOM     10  C   UNL     1       1.741   2.799   4.242  1.00  0.00     0.001 A 
BRANCH   6  11
ATOM     11  N   UNL     1       0.162   1.375   0.586  1.00  0.00    -0.315 N 
ATOM     12  C   UNL     1      -0.924   0.392   0.622  1.00  0.00     0.153 C 
BRANCH  11  13
ATOM     13  C   UNL     1       0.196   2.398  -0.365  1.00  0.00     0.228 C 
ATOM     14  O   UNL     1       0.631   3.516  -0.097  1.00  0.00    -0.274 OA
BRANCH  13  15
ATOM     15  C   UNL     1      -0.378   2.110  -1.741  1.00  0.00     0.125 C 
BRANCH  15  16
ATOM     16  C   UNL     1       0.206   2.959  -2.886  1.00  0.00     0.156 C 
ATOM     17  S   UNL     1       0.881   1.875  -4.175  1.00  0.00    -0.050 SA
ATOM     18  C   UNL     1       1.398   3.852  -2.581  1.00  0.00     0.248 C 
ATOM     19  C   UNL     1       2.532   2.095  -3.583  1.00  0.00     0.293 C 
ATOM     20  N   UNL     1       2.591   3.153  -2.711  1.00  0.00    -0.240 N 
ATOM     21  O   UNL     1       1.260   5.055  -2.371  1.00  0.00    -0.273 OA
ATOM     22  O   UNL     1       3.397   1.320  -3.932  1.00  0.00    -0.261 OA
BRANCH  20  23
ATOM     23  C   UNL     1       3.801   3.588  -2.071  1.00  0.00     0.053 A 
ATOM     24  C   UNL     1       3.753   4.442  -0.956  1.00  0.00     0.027 A 
ATOM     25  C   UNL     1       5.071   3.154  -2.489  1.00  0.00     0.027 A 
ATOM     26  C   UNL     1       4.916   4.852  -0.296  1.00  0.00     0.002 A 
ATOM     27  C   UNL     1       6.237   3.569  -1.834  1.00  0.00     0.002 A 
ATOM     28  C   UNL     1       6.159   4.419  -0.738  1.00  0.00     0.000 A 
ENDBRANCH  20  23
ENDBRANCH  15  16
ENDBRANCH  13  15
ENDBRANCH  11  13
ENDBRANCH   6  11
ENDBRANCH   1   5
BRANCH   3  29
ATOM     29  C   UNL     1       2.271  -1.020   0.208  1.00  0.00     0.118 C 
BRANCH  29  30
ATOM     30  C   UNL     1       1.705  -0.888  -1.207  1.00  0.00     0.042 C 
BRANCH  30  31
ATOM     31  C   UNL     1       2.501  -1.620  -2.292  1.00  0.00     0.118 C 
BRANCH  31  32
ATOM     32  N   UNL     1       1.720  -2.708  -2.867  1.00  0.00    -0.352 N 
ATOM     33  C   UNL     1       1.004  -2.823  -4.035  1.00  0.00     0.251 C 
ATOM     34  H   UNL     1       1.700  -3.519  -2.309  1.00  0.00     0.163 HD
ATOM     35  O   UNL     1       0.203  -3.755  -4.118  1.00  0.00    -0.269 OA
BRANCH  33  36
ATOM     36  C   UNL     1       1.137  -1.892  -5.190  1.00  0.00     0.039 A 
ATOM     37  C   UNL     1       0.024  -1.718  -6.029  1.00  0.00     0.014 A 
ATOM     38  C   UNL     1       2.337  -1.280  -5.549  1.00  0.00     0.014 A 
ATOM     39  C   UNL     1       0.102  -0.918  -7.180  1.00  0.00     0.010 A 
ATOM     40  C   UNL     1       2.395  -0.420  -6.658  1.00  0.00     0.010 A 
ATOM     41  C   UNL     1       1.284  -0.236  -7.498  1.00  0.00    -0.014 A 
BRANCH  41  42
ATOM     42  C   UNL     1       1.398   0.625  -8.716  1.00  0.00     0.031 A 
ATOM     43  C   UNL     1       2.407   0.291  -9.789  1.00  0.00     0.074 A 
ATOM     44  C   UNL     1       0.639   1.731  -8.863  1.00  0.00     0.049 A 
ATOM     45  N   UNL     1       2.752   0.978 -10.851  1.00  0.00    -0.248 NA
ATOM     46  C   UNL     1       3.136  -0.978  -9.637  1.00  0.00     0.031 C 
ATOM     47  C   UNL     1      -0.383   2.193  -7.925  1.00  0.00     0.029 A 
ATOM     48  N   UNL     1       0.622   2.679  -9.861  1.00  0.00    -0.354 N 
ATOM     49  C   UNL     1       3.758   0.244 -11.469  1.00  0.00     0.074 A 
ATOM     50  C   UNL     1       3.990  -0.925 -10.649  1.00  0.00     0.031 C 
ATOM     51  C   UNL     1      -0.933   3.326  -8.392  1.00  0.00     0.029 A 
ATOM     52  C   UNL     1      -0.277   3.696  -9.644  1.00  0.00     0.049 A 
ATOM     53  H   UNL     1       1.200   2.633 -10.656  1.00  0.00     0.167 HD
ATOM     54  C   UNL     1       4.419   0.504 -12.623  1.00  0.00     0.037 A 
ATOM     55  C   UNL     1      -0.538   4.810 -10.358  1.00  0.00     0.037 A 
ATOM     56  C   UNL     1       4.169   1.634 -13.478  1.00  0.00     0.049 A 
ATOM     57  C   UNL     1       0.223   5.088 -11.626  1.00  0.00     0.074 A 
ATOM     58  C   UNL     1       4.766   1.948 -14.688  1.00  0.00     0.029 A 
ATOM     59  N   UNL     1       3.241   2.629 -13.221  1.00  0.00    -0.354 N 
ATOM     60  N   UNL     1       1.154   4.372 -12.205  1.00  0.00    -0.248 NA
ATOM     61  C   UNL     1      -0.103   6.334 -12.339  1.00  0.00     0.031 C 
ATOM     62  C   UNL     1       4.218   3.148 -15.151  1.00  0.00     0.029 A 
ATOM     63  C   UNL     1       3.255   3.562 -14.246  1.00  0.00     0.049 A 
ATOM     64  H   UNL     1       2.658   2.668 -12.429  1.00  0.00     0.167 HD
ATOM     65  C   UNL     1       1.497   5.059 -13.363  1.00  0.00     0.074 A 
ATOM     66  C   UNL     1       0.676   6.249 -13.408  1.00  0.00     0.031 C 
ATOM     67  C   UNL     1       2.413   4.728 -14.304  1.00  0.00     0.037 A 
BRANCH  54  68
ATOM     68  C   UNL     1       5.488  -0.464 -13.039  1.00  0.00     0.057 A 
ATOM     69  C   UNL     1       5.177  -1.733 -13.544  1.00  0.00     0.134 A 
ATOM     70  C   UNL     1       6.840  -0.105 -12.976  1.00  0.00     0.134 A 
ATOM     71  F   UNL     1       3.901  -2.139 -13.622  1.00  0.00    -0.206 F 
ATOM     72  C   UNL     1       6.175  -2.621 -13.947  1.00  0.00     0.040 A 
ATOM     73  C   UNL     1       7.846  -0.976 -13.399  1.00  0.00     0.040 A 
ATOM     74  F   UNL     1       7.205   1.100 -12.514  1.00  0.00    -0.206 F 
ATOM     75  C   UNL     1       7.514  -2.240 -13.881  1.00  0.00     0.006 A 
ENDBRANCH  54  68
BRANCH  55  76
ATOM     76  C   UNL     1      -1.583   5.760  -9.899  1.00  0.00     0.057 A 
ATOM     77  C   UNL     1      -2.795   5.885 -10.589  1.00  0.00     0.134 A 
ATOM     78  C   UNL     1      -1.386   6.585  -8.786  1.00  0.00     0.134 A 
ATOM     79  F   UNL     1      -3.030   5.140 -11.679  1.00  0.00    -0.206 F 
ATOM     80  C   UNL     1      -3.766   6.809 -10.200  1.00  0.00     0.040 A 
ATOM     81  C   UNL     1      -2.358   7.497  -8.371  1.00  0.00     0.040 A 
ATOM     82  F   UNL     1      -0.247   6.511  -8.082  1.00  0.00    -0.206 F 
ATOM     83  C   UNL     1      -3.550   7.616  -9.085  1.00  0.00     0.006 A 
ENDBRANCH  55  76
BRANCH  67  84
ATOM     84  C   UNL     1       2.544   5.625 -15.498  1.00  0.00     0.057 A 
ATOM     85  C   UNL     1       3.203   6.858 -15.428  1.00  0.00     0.134 A 
ATOM     86  C   UNL     1       2.061   5.217 -16.748  1.00  0.00     0.134 A 
ATOM     87  F   UNL     1       3.678   7.310 -14.258  1.00  0.00    -0.206 F 
ATOM     88  C   UNL     1       3.370   7.659 -16.560  1.00  0.00     0.040 A 
ATOM     89  C   UNL     1       2.239   6.000 -17.890  1.00  0.00     0.040 A 
ATOM     90  F   UNL     1       1.425   4.043 -16.883  1.00  0.00    -0.206 F 
ATOM     91  C   UNL     1       2.894   7.226 -17.797  1.00  0.00     0.006 A 
ENDBRANCH  67  84
ENDBRANCH  41  42
ENDBRANCH  33  36
ENDBRANCH  31  32
ENDBRANCH  30  31
ENDBRANCH  29  30
ENDBRANCH   3  29
TORSDOF 15
