REMARK SMILES CN1C(=O)/C(=C\c2ccc(OCC(=O)NCCCNC(=O)c3ccc(-c4c5nc(c(-c6c(F)cccc6F)c6ccc([nH]6)c(-c6c(F)cccc6F)c6nc(c(-c7c(F)cccc7F)c7ccc4[nH]7)C=C6)C=C5)cc3)cc2)C(O)=NC1=S
REMARK SMILES IDX 16 1 15 2 13 3 14 4 12 6 11 7 10 8 7 9 8 10 77 11 9 12 76 13
REMARK SMILES IDX 6 14 1 15 2 16 3 17 81 18 4 19 5 20 80 21 82 22 78 23 79 24
REMARK SMILES IDX 17 26 18 27 19 28 20 29 21 31 22 32 23 33 75 34 24 35 74 36
REMARK SMILES IDX 25 37 26 38 27 39 68 40 28 41 73 42 67 43 69 44 29 45 72 46
REMARK SMILES IDX 66 47 65 48 30 50 56 51 39 52 55 53 40 54 43 55 54 56 70 57
REMARK SMILES IDX 41 58 42 59 53 61 71 62 44 63 31 64 32 65 37 66 33 67 34 68
REMARK SMILES IDX 36 69 38 70 35 71 57 72 58 73 63 74 59 75 60 76 62 77 64 78
REMARK SMILES IDX 61 79 45 80 46 81 51 82 47 83 48 84 50 85 52 86 49 87
REMARK H PARENT 15 5 79 25 19 30 69 49 43 60
REMARK Flexibility Score: inf
ROOT
ATOM      1  C   UNL     1       0.107  -6.923  -2.838  1.00  0.00     0.117 C 
ENDROOT
BRANCH   1   2
ATOM      2  N   UNL     1      -0.858  -6.289  -1.960  1.00  0.00    -0.353 N 
ATOM      3  C   UNL     1      -2.092  -5.794  -2.269  1.00  0.00     0.257 C 
ATOM      4  O   UNL     1      -2.786  -5.328  -1.362  1.00  0.00    -0.271 OA
ATOM      5  H   UNL     1      -0.587  -6.205  -1.017  1.00  0.00     0.163 HD
BRANCH   3   6
ATOM      6  C   UNL     1      -2.607  -5.869  -3.713  1.00  0.00     0.329 C 
BRANCH   6   7
ATOM      7  O   UNL     1      -1.831  -5.206  -4.700  1.00  0.00    -0.484 OA
BRANCH   7   8
ATOM      8  C   UNL     1      -1.727  -3.845  -4.613  1.00  0.00     0.120 A 
ATOM      9  C   UNL     1      -1.199  -1.092  -4.511  1.00  0.00    -0.024 A 
ATOM     10  C   UNL     1      -0.470  -1.912  -5.375  1.00  0.00     0.012 A 
ATOM     11  C   UNL     1      -2.227  -1.643  -3.742  1.00  0.00     0.012 A 
ATOM     12  C   UNL     1      -0.739  -3.282  -5.426  1.00  0.00     0.047 A 
ATOM     13  C   UNL     1      -2.492  -3.015  -3.796  1.00  0.00     0.047 A 
BRANCH   9  14
ATOM     14  C   UNL     1      -0.873   0.332  -4.385  1.00  0.00     0.027 C 
ATOM     15  C   UNL     1       1.105   0.033   0.044  1.00  0.00     0.156 C 
ATOM     16  N   UNL     1       0.745   0.826  -1.132  1.00  0.00    -0.286 N 
ATOM     17  C   UNL     1       0.452   0.089  -2.279  1.00  0.00     0.265 C 
ATOM     18  C   UNL     1       0.797   2.229  -1.103  1.00  0.00     0.205 C 
ATOM     19  O   UNL     1       0.691  -1.111  -2.384  1.00  0.00    -0.268 OA
ATOM     20  C   UNL     1      -0.139   0.882  -3.395  1.00  0.00     0.103 C 
ATOM     21  N   UNL     1       0.489   2.932  -2.238  1.00  0.00    -0.184 NA
ATOM     22  S   UNL     1       1.262   3.112   0.270  1.00  0.00    -0.038 S 
ATOM     23  C   UNL     1       0.063   2.327  -3.283  1.00  0.00     0.226 C 
BRANCH  23  24
ATOM     24  O   UNL     1      -0.185   3.088  -4.362  1.00  0.00    -0.493 OA
ATOM     25  H   UNL     1      -0.498   2.693  -5.152  1.00  0.00     0.295 HD
ENDBRANCH  23  24
ENDBRANCH   9  14
ENDBRANCH   7   8
ENDBRANCH   6   7
ENDBRANCH   3   6
ENDBRANCH   1   2
BRANCH   1  26
ATOM     26  C   UNL     1       1.306  -6.031  -3.149  1.00  0.00     0.042 C 
BRANCH  26  27
ATOM     27  C   UNL     1       2.131  -5.605  -1.935  1.00  0.00     0.118 C 
BRANCH  27  28
ATOM     28  N   UNL     1       2.698  -6.730  -1.204  1.00  0.00    -0.352 N 
ATOM     29  C   UNL     1       3.986  -7.000  -0.826  1.00  0.00     0.251 C 
ATOM     30  H   UNL     1       2.043  -7.414  -0.936  1.00  0.00     0.163 HD
ATOM     31  O   UNL     1       4.239  -8.101  -0.325  1.00  0.00    -0.269 OA
BRANCH  29  32
ATOM     32  C   UNL     1       5.084  -6.025  -1.013  1.00  0.00     0.039 A 
ATOM     33  C   UNL     1       6.351  -6.511  -1.358  1.00  0.00     0.014 A 
ATOM     34  C   UNL     1       4.911  -4.656  -0.790  1.00  0.00     0.014 A 
ATOM     35  C   UNL     1       7.423  -5.630  -1.526  1.00  0.00     0.010 A 
ATOM     36  C   UNL     1       5.965  -3.769  -1.022  1.00  0.00     0.010 A 
ATOM     37  C   UNL     1       7.233  -4.247  -1.383  1.00  0.00    -0.014 A 
BRANCH  37  38
ATOM     38  C   UNL     1       8.355  -3.296  -1.597  1.00  0.00     0.031 A 
ATOM     39  C   UNL     1       8.890  -2.477  -0.455  1.00  0.00     0.074 A 
ATOM     40  C   UNL     1       8.862  -3.130  -2.833  1.00  0.00     0.049 A 
ATOM     41  N   UNL     1       9.834  -1.568  -0.459  1.00  0.00    -0.248 NA
ATOM     42  C   UNL     1       8.266  -2.687   0.861  1.00  0.00     0.031 C 
ATOM     43  C   UNL     1       8.400  -3.823  -4.037  1.00  0.00     0.029 A 
ATOM     44  N   UNL     1       9.873  -2.317  -3.284  1.00  0.00    -0.354 N 
ATOM     45  C   UNL     1       9.899  -1.083   0.841  1.00  0.00     0.074 A 
ATOM     46  C   UNL     1       8.874  -1.770   1.599  1.00  0.00     0.031 C 
ATOM     47  C   UNL     1       9.137  -3.419  -5.085  1.00  0.00     0.029 A 
ATOM     48  C   UNL     1      10.103  -2.422  -4.633  1.00  0.00     0.049 A 
ATOM     49  H   UNL     1      10.384  -1.717  -2.695  1.00  0.00     0.167 HD
ATOM     50  C   UNL     1      10.747  -0.164   1.363  1.00  0.00     0.037 A 
ATOM     51  C   UNL     1      10.992  -1.787  -5.420  1.00  0.00     0.037 A 
ATOM     52  C   UNL     1      11.792   0.492   0.622  1.00  0.00     0.049 A 
ATOM     53  C   UNL     1      11.947  -0.799  -4.812  1.00  0.00     0.074 A 
ATOM     54  C   UNL     1      12.748   1.381   1.082  1.00  0.00     0.029 A 
ATOM     55  N   UNL     1      12.017   0.331  -0.736  1.00  0.00    -0.354 N 
ATOM     56  N   UNL     1      12.044  -0.405  -3.566  1.00  0.00    -0.248 NA
ATOM     57  C   UNL     1      12.922  -0.176  -5.718  1.00  0.00     0.031 C 
ATOM     58  C   UNL     1      13.533   1.782  -0.005  1.00  0.00     0.029 A 
ATOM     59  C   UNL     1      13.088   1.115  -1.135  1.00  0.00     0.049 A 
ATOM     60  H   UNL     1      11.494  -0.255  -1.330  1.00  0.00     0.167 HD
ATOM     61  C   UNL     1      13.104   0.492  -3.533  1.00  0.00     0.074 A 
ATOM     62  C   UNL     1      13.625   0.575  -4.882  1.00  0.00     0.031 C 
ATOM     63  C   UNL     1      13.599   1.185  -2.479  1.00  0.00     0.037 A 
BRANCH  50  64
ATOM     64  C   UNL     1      10.578   0.183   2.813  1.00  0.00     0.057 A 
ATOM     65  C   UNL     1      10.935  -0.708   3.833  1.00  0.00     0.134 A 
ATOM     66  C   UNL     1      10.077   1.434   3.194  1.00  0.00     0.134 A 
ATOM     67  F   UNL     1      11.411  -1.927   3.534  1.00  0.00    -0.206 F 
ATOM     68  C   UNL     1      10.773  -0.379   5.179  1.00  0.00     0.040 A 
ATOM     69  C   UNL     1       9.933   1.784   4.537  1.00  0.00     0.040 A 
ATOM     70  F   UNL     1       9.723   2.338   2.267  1.00  0.00    -0.206 F 
ATOM     71  C   UNL     1      10.275   0.873   5.535  1.00  0.00     0.006 A 
ENDBRANCH  50  64
BRANCH  51  72
ATOM     72  C   UNL     1      11.043  -2.094  -6.870  1.00  0.00     0.057 A 
ATOM     73  C   UNL     1      12.093  -2.845  -7.410  1.00  0.00     0.134 A 
ATOM     74  C   UNL     1      10.045  -1.652  -7.746  1.00  0.00     0.134 A 
ATOM     75  F   UNL     1      13.086  -3.280  -6.621  1.00  0.00    -0.206 F 
ATOM     76  C   UNL     1      12.157  -3.135  -8.773  1.00  0.00     0.040 A 
ATOM     77  C   UNL     1      10.086  -1.951  -9.108  1.00  0.00     0.040 A 
ATOM     78  F   UNL     1       9.010  -0.934  -7.287  1.00  0.00    -0.206 F 
ATOM     79  C   UNL     1      11.148  -2.691  -9.626  1.00  0.00     0.006 A 
ENDBRANCH  51  72
BRANCH  63  80
ATOM     80  C   UNL     1      14.781   2.070  -2.737  1.00  0.00     0.057 A 
ATOM     81  C   UNL     1      14.656   3.289  -3.416  1.00  0.00     0.134 A 
ATOM     82  C   UNL     1      16.054   1.714  -2.275  1.00  0.00     0.134 A 
ATOM     83  F   UNL     1      13.466   3.680  -3.896  1.00  0.00    -0.206 F 
ATOM     84  C   UNL     1      15.759   4.112  -3.644  1.00  0.00     0.040 A 
ATOM     85  C   UNL     1      17.161   2.539  -2.478  1.00  0.00     0.040 A 
ATOM     86  F   UNL     1      16.241   0.562  -1.613  1.00  0.00    -0.206 F 
ATOM     87  C   UNL     1      17.016   3.740  -3.168  1.00  0.00     0.006 A 
ENDBRANCH  63  80
ENDBRANCH  37  38
ENDBRANCH  29  32
ENDBRANCH  27  28
ENDBRANCH  26  27
ENDBRANCH   1  26
TORSDOF 14
