REMARK SMILES CO[C@@]1(C(=O)NCCCNC(=O)c2ccc(-c3c4nc(c(-c5c(F)cccc5F)c5ccc([nH]5)c(-c5c(F)cccc5F)c5nc(c(-c6c(F)cccc6F)c6ccc3[nH]6)C=C5)C=C4)cc2)CC(c2ccccc2)=CC=C1C
REMARK SMILES IDX 8 1 7 2 6 3 4 4 5 5 3 7 67 8 77 9 68 10 76 11 78 12 75 13
REMARK SMILES IDX 2 14 1 15 69 16 70 17 74 18 71 19 73 20 72 21 9 22 10 23
REMARK SMILES IDX 11 24 12 26 13 27 14 28 66 29 15 30 65 31 16 32 17 33 18 34
REMARK SMILES IDX 59 35 19 36 64 37 58 38 60 39 20 40 63 41 57 42 56 43 21 45
REMARK SMILES IDX 47 46 30 47 46 48 31 49 34 50 45 51 61 52 32 53 33 54 44 56
REMARK SMILES IDX 62 57 35 58 22 59 23 60 28 61 24 62 25 63 27 64 29 65 26 66
REMARK SMILES IDX 48 67 49 68 54 69 50 70 51 71 53 72 55 73 52 74 36 75 37 76
REMARK SMILES IDX 42 77 38 78 39 79 41 80 43 81 40 82
REMARK H PARENT 6 6 10 25 60 44 34 55
REMARK Flexibility Score: inf
ROOT
ATOM      1  C   UNL     1      -1.452  -0.829  -4.069  1.00  0.00     0.042 C 
ENDROOT
BRANCH   1   2
ATOM      2  C   UNL     1      -1.546  -0.107  -2.725  1.00  0.00     0.117 C 
BRANCH   2   3
ATOM      3  N   UNL     1      -0.457  -0.504  -1.860  1.00  0.00    -0.353 N 
ATOM      4  C   UNL     1       0.805  -0.041  -1.674  1.00  0.00     0.256 C 
ATOM      5  O   UNL     1       1.505  -0.811  -0.993  1.00  0.00    -0.271 OA
ATOM      6  H   UNL     1      -0.678  -1.272  -1.285  1.00  0.00     0.163 HD
BRANCH   4   7
ATOM      7  C   UNL     1       1.399   1.362  -2.145  1.00  0.00     0.171 C 
ATOM      8  C   UNL     1       1.685   2.090  -0.771  1.00  0.00     0.086 C 
ATOM      9  C   UNL     1       0.565   2.231  -3.093  1.00  0.00    -0.032 C 
ATOM     10  C   UNL     1       1.315   3.551  -0.664  1.00  0.00    -0.037 C 
ATOM     11  C   UNL     1       0.135   3.467  -2.777  1.00  0.00     0.003 C 
ATOM     12  C   UNL     1       0.420   1.804  -4.532  1.00  0.00     0.043 C 
ATOM     13  C   UNL     1       0.540   4.148  -1.580  1.00  0.00     0.004 C 
BRANCH   7  14
ATOM     14  O   UNL     1       2.586   1.128  -2.940  1.00  0.00    -0.364 OA
ATOM     15  C   UNL     1       3.784   0.725  -2.304  1.00  0.00     0.197 C 
ENDBRANCH   7  14
BRANCH  10  16
ATOM     16  C   UNL     1       1.877   4.332   0.454  1.00  0.00    -0.022 A 
ATOM     17  C   UNL     1       1.049   5.042   1.333  1.00  0.00     0.008 A 
ATOM     18  C   UNL     1       3.266   4.395   0.637  1.00  0.00     0.008 A 
ATOM     19  C   UNL     1       1.600   5.795   2.374  1.00  0.00     0.001 A 
ATOM     20  C   UNL     1       3.816   5.145   1.678  1.00  0.00     0.001 A 
ATOM     21  C   UNL     1       2.982   5.845   2.546  1.00  0.00     0.000 A 
ENDBRANCH  10  16
ENDBRANCH   4   7
ENDBRANCH   2   3
ENDBRANCH   1   2
BRANCH   1  22
ATOM     22  C   UNL     1      -2.018  -2.243  -4.043  1.00  0.00     0.118 C 
BRANCH  22  23
ATOM     23  N   UNL     1      -3.473  -2.240  -4.021  1.00  0.00    -0.352 N 
ATOM     24  C   UNL     1      -4.362  -2.849  -4.867  1.00  0.00     0.251 C 
ATOM     25  H   UNL     1      -3.879  -1.722  -3.288  1.00  0.00     0.163 HD
ATOM     26  O   UNL     1      -5.553  -2.541  -4.811  1.00  0.00    -0.269 OA
BRANCH  24  27
ATOM     27  C   UNL     1      -3.914  -3.863  -5.847  1.00  0.00     0.039 A 
ATOM     28  C   UNL     1      -4.521  -3.891  -7.107  1.00  0.00     0.014 A 
ATOM     29  C   UNL     1      -2.954  -4.825  -5.518  1.00  0.00     0.014 A 
ATOM     30  C   UNL     1      -4.148  -4.859  -8.042  1.00  0.00     0.010 A 
ATOM     31  C   UNL     1      -2.533  -5.748  -6.474  1.00  0.00     0.010 A 
ATOM     32  C   UNL     1      -3.140  -5.787  -7.738  1.00  0.00    -0.014 A 
BRANCH  32  33
ATOM     33  C   UNL     1      -2.742  -6.835  -8.711  1.00  0.00     0.031 A 
ATOM     34  C   UNL     1      -3.009  -8.283  -8.402  1.00  0.00     0.074 A 
ATOM     35  C   UNL     1      -2.107  -6.489  -9.846  1.00  0.00     0.049 A 
ATOM     36  N   UNL     1      -2.677  -9.350  -9.084  1.00  0.00    -0.248 NA
ATOM     37  C   UNL     1      -3.723  -8.572  -7.148  1.00  0.00     0.031 C 
ATOM     38  C   UNL     1      -1.761  -5.123 -10.242  1.00  0.00     0.029 A 
ATOM     39  N   UNL     1      -1.630  -7.263 -10.874  1.00  0.00    -0.354 N 
ATOM     40  C   UNL     1      -3.124 -10.432  -8.335  1.00  0.00     0.074 A 
ATOM     41  C   UNL     1      -3.709  -9.896  -7.125  1.00  0.00     0.031 C 
ATOM     42  C   UNL     1      -1.147  -5.153 -11.436  1.00  0.00     0.029 A 
ATOM     43  C   UNL     1      -1.027  -6.540 -11.874  1.00  0.00     0.049 A 
ATOM     44  H   UNL     1      -1.713  -8.244 -10.893  1.00  0.00     0.167 HD
ATOM     45  C   UNL     1      -3.074 -11.751  -8.638  1.00  0.00     0.037 A 
ATOM     46  C   UNL     1      -0.441  -6.953 -13.014  1.00  0.00     0.037 A 
ATOM     47  C   UNL     1      -2.522 -12.279  -9.857  1.00  0.00     0.049 A 
ATOM     48  C   UNL     1      -0.407  -8.422 -13.331  1.00  0.00     0.074 A 
ATOM     49  C   UNL     1      -2.456 -13.596 -10.277  1.00  0.00     0.029 A 
ATOM     50  N   UNL     1      -1.949 -11.510 -10.859  1.00  0.00    -0.354 N 
ATOM     51  N   UNL     1      -0.872  -9.430 -12.633  1.00  0.00    -0.248 NA
ATOM     52  C   UNL     1       0.225  -8.811 -14.600  1.00  0.00     0.031 C 
ATOM     53  C   UNL     1      -1.820 -13.627 -11.522  1.00  0.00     0.029 A 
ATOM     54  C   UNL     1      -1.523 -12.325 -11.893  1.00  0.00     0.049 A 
ATOM     55  H   UNL     1      -1.858 -10.530 -10.837  1.00  0.00     0.167 HD
ATOM     56  C   UNL     1      -0.618 -10.566 -13.389  1.00  0.00     0.074 A 
ATOM     57  C   UNL     1       0.032 -10.123 -14.605  1.00  0.00     0.031 C 
ATOM     58  C   UNL     1      -0.897 -11.861 -13.104  1.00  0.00     0.037 A 
BRANCH  45  59
ATOM     59  C   UNL     1      -3.643 -12.713  -7.638  1.00  0.00     0.057 A 
ATOM     60  C   UNL     1      -5.024 -12.822  -7.427  1.00  0.00     0.134 A 
ATOM     61  C   UNL     1      -2.808 -13.562  -6.902  1.00  0.00     0.134 A 
ATOM     62  F   UNL     1      -5.878 -12.028  -8.090  1.00  0.00    -0.206 F 
ATOM     63  C   UNL     1      -5.553 -13.726  -6.503  1.00  0.00     0.040 A 
ATOM     64  C   UNL     1      -3.326 -14.488  -5.994  1.00  0.00     0.040 A 
ATOM     65  F   UNL     1      -1.477 -13.513  -7.059  1.00  0.00    -0.206 F 
ATOM     66  C   UNL     1      -4.702 -14.567  -5.788  1.00  0.00     0.006 A 
ENDBRANCH  45  59
BRANCH  46  67
ATOM     67  C   UNL     1       0.137  -5.963 -13.957  1.00  0.00     0.057 A 
ATOM     68  C   UNL     1      -0.469  -5.708 -15.192  1.00  0.00     0.134 A 
ATOM     69  C   UNL     1       1.312  -5.264 -13.657  1.00  0.00     0.134 A 
ATOM     70  F   UNL     1      -1.587  -6.360 -15.543  1.00  0.00    -0.206 F 
ATOM     71  C   UNL     1       0.084  -4.810 -16.107  1.00  0.00     0.040 A 
ATOM     72  C   UNL     1       1.864  -4.346 -14.552  1.00  0.00     0.040 A 
ATOM     73  F   UNL     1       1.937  -5.459 -12.487  1.00  0.00    -0.206 F 
ATOM     74  C   UNL     1       1.253  -4.124 -15.785  1.00  0.00     0.006 A 
ENDBRANCH  46  67
BRANCH  58  75
ATOM     75  C   UNL     1      -0.543 -12.881 -14.143  1.00  0.00     0.057 A 
ATOM     76  C   UNL     1       0.781 -13.271 -14.375  1.00  0.00     0.134 A 
ATOM     77  C   UNL     1      -1.546 -13.504 -14.896  1.00  0.00     0.134 A 
ATOM     78  F   UNL     1       1.787 -12.701 -13.695  1.00  0.00    -0.206 F 
ATOM     79  C   UNL     1       1.097 -14.232 -15.336  1.00  0.00     0.040 A 
ATOM     80  C   UNL     1      -1.244 -14.483 -15.843  1.00  0.00     0.040 A 
ATOM     81  F   UNL     1      -2.836 -13.179 -14.716  1.00  0.00    -0.206 F 
ATOM     82  C   UNL     1       0.082 -14.845 -16.069  1.00  0.00     0.006 A 
ENDBRANCH  58  75
ENDBRANCH  32  33
ENDBRANCH  24  27
ENDBRANCH  22  23
ENDBRANCH   1  22
TORSDOF 12
