REMARK SMILES CCCC(O)(CCC)[C@@]1(C)CC[C@@H](C(=O)NCCCNC(=O)c2ccc(-c3c4nc(c(-c5c(F)cccc5F)c5ccc([nH]5)c(-c5c(F)cccc5F)c5nc(c(-c6c(F)cccc6F)c6ccc3[nH]6)C=C5)C=C4)cc2)C(C)(C)O1
REMARK SMILES IDX 17 1 16 2 14 3 15 4 13 6 9 7 10 8 11 9 80 10 12 11 77 12
REMARK SMILES IDX 78 13 79 14 4 15 3 16 2 17 1 18 5 19 6 21 7 22 8 23 18 24
REMARK SMILES IDX 19 25 20 26 21 27 22 29 23 30 24 31 76 32 25 33 75 34 26 35
REMARK SMILES IDX 27 36 28 37 69 38 29 39 74 40 68 41 70 42 30 43 73 44 67 45
REMARK SMILES IDX 66 46 31 48 57 49 40 50 56 51 41 52 44 53 55 54 71 55 42 56
REMARK SMILES IDX 43 57 54 59 72 60 45 61 32 62 33 63 38 64 34 65 35 66 37 67
REMARK SMILES IDX 39 68 36 69 58 70 59 71 64 72 60 73 61 74 63 75 65 76 62 77
REMARK SMILES IDX 46 78 47 79 52 80 48 81 49 82 51 83 53 84 50 85
REMARK H PARENT 16 5 5 20 20 28 70 47 44 58
REMARK Flexibility Score: inf
ROOT
ATOM      1  C   UNL     1      -2.811   2.983   4.094  1.00  0.00     0.117 C 
ENDROOT
BRANCH   1   2
ATOM      2  N   UNL     1      -2.618   4.372   3.697  1.00  0.00    -0.356 N 
ATOM      3  C   UNL     1      -1.740   5.000   2.872  1.00  0.00     0.226 C 
ATOM      4  O   UNL     1      -1.882   6.226   2.773  1.00  0.00    -0.275 OA
ATOM      5  H   UNL     1      -3.262   4.987   4.117  1.00  0.00     0.163 HD
BRANCH   3   6
ATOM      6  C   UNL     1      -0.597   4.314   2.115  1.00  0.00     0.110 C 
ATOM      7  C   UNL     1       1.289   2.044   1.616  1.00  0.00     0.095 C 
ATOM      8  C   UNL     1       2.544   1.836   0.732  1.00  0.00     0.045 C 
ATOM      9  C   UNL     1       0.150   2.418   0.637  1.00  0.00     0.039 C 
ATOM     10  O   UNL     1       1.648   3.202   2.388  1.00  0.00    -0.366 OA
ATOM     11  C   UNL     1      -1.034   3.143   1.250  1.00  0.00     0.019 C 
ATOM     12  C   UNL     1       0.693   4.115   2.948  1.00  0.00     0.075 C 
ATOM     13  C   UNL     1       0.464   3.755   4.411  1.00  0.00     0.043 C 
ATOM     14  C   UNL     1       1.467   5.458   2.982  1.00  0.00     0.043 C 
BRANCH   7  15
ATOM     15  C   UNL     1       1.027   0.740   2.514  1.00  0.00     0.093 C 
BRANCH  15  16
ATOM     16  C   UNL     1       1.247  -0.643   1.797  1.00  0.00     0.038 C 
BRANCH  16  17
ATOM     17  C   UNL     1       0.270  -1.136   0.715  1.00  0.00    -0.000 C 
ATOM     18  C   UNL     1       0.779  -1.006  -0.712  1.00  0.00     0.004 C 
ENDBRANCH  16  17
ENDBRANCH  15  16
BRANCH  15  19
ATOM     19  O   UNL     1      -0.337   0.753   2.993  1.00  0.00    -0.387 OA
ATOM     20  H   UNL     1      -0.497  -0.035   3.535  1.00  0.00     0.211 HD
ENDBRANCH  15  19
BRANCH  15  21
ATOM     21  C   UNL     1       1.837   0.681   3.859  1.00  0.00     0.038 C 
BRANCH  21  22
ATOM     22  C   UNL     1       3.365   0.624   3.862  1.00  0.00    -0.000 C 
ATOM     23  C   UNL     1       4.035   1.979   4.045  1.00  0.00     0.004 C 
ENDBRANCH  21  22
ENDBRANCH  15  21
ENDBRANCH   7  15
ENDBRANCH   3   6
ENDBRANCH   1   2
BRANCH   1  24
ATOM     24  C   UNL     1      -2.611   2.734   5.585  1.00  0.00     0.042 C 
BRANCH  24  25
ATOM     25  C   UNL     1      -3.623   3.425   6.478  1.00  0.00     0.118 C 
BRANCH  25  26
ATOM     26  N   UNL     1      -4.859   2.670   6.592  1.00  0.00    -0.352 N 
ATOM     27  C   UNL     1      -5.317   1.876   7.614  1.00  0.00     0.251 C 
ATOM     28  H   UNL     1      -5.461   2.737   5.816  1.00  0.00     0.163 HD
ATOM     29  O   UNL     1      -6.283   1.138   7.415  1.00  0.00    -0.269 OA
BRANCH  27  30
ATOM     30  C   UNL     1      -4.666   1.879   8.947  1.00  0.00     0.039 A 
ATOM     31  C   UNL     1      -4.572   0.676   9.656  1.00  0.00     0.014 A 
ATOM     32  C   UNL     1      -4.207   3.060   9.536  1.00  0.00     0.014 A 
ATOM     33  C   UNL     1      -3.985   0.654  10.925  1.00  0.00     0.010 A 
ATOM     34  C   UNL     1      -3.534   3.022  10.755  1.00  0.00     0.010 A 
ATOM     35  C   UNL     1      -3.441   1.824  11.477  1.00  0.00    -0.014 A 
BRANCH  35  36
ATOM     36  C   UNL     1      -2.834   1.836  12.834  1.00  0.00     0.031 A 
ATOM     37  C   UNL     1      -3.454   2.671  13.924  1.00  0.00     0.074 A 
ATOM     38  C   UNL     1      -1.703   1.147  13.078  1.00  0.00     0.049 A 
ATOM     39  N   UNL     1      -3.032   2.888  15.145  1.00  0.00    -0.248 NA
ATOM     40  C   UNL     1      -4.698   3.382  13.587  1.00  0.00     0.031 C 
ATOM     41  C   UNL     1      -0.978   0.332  12.102  1.00  0.00     0.029 A 
ATOM     42  N   UNL     1      -0.961   1.029  14.227  1.00  0.00    -0.354 N 
ATOM     43  C   UNL     1      -3.939   3.780  15.705  1.00  0.00     0.074 A 
ATOM     44  C   UNL     1      -4.905   4.102  14.678  1.00  0.00     0.031 C 
ATOM     45  C   UNL     1       0.089  -0.223  12.701  1.00  0.00     0.029 A 
ATOM     46  C   UNL     1       0.142   0.223  14.090  1.00  0.00     0.049 A 
ATOM     47  H   UNL     1      -1.197   1.481  15.069  1.00  0.00     0.167 HD
ATOM     48  C   UNL     1      -3.981   4.268  16.967  1.00  0.00     0.037 A 
ATOM     49  C   UNL     1       1.089  -0.118  14.984  1.00  0.00     0.037 A 
ATOM     50  C   UNL     1      -3.051   3.911  18.005  1.00  0.00     0.049 A 
ATOM     51  C   UNL     1       1.010   0.418  16.386  1.00  0.00     0.074 A 
ATOM     52  C   UNL     1      -3.047   4.303  19.332  1.00  0.00     0.029 A 
ATOM     53  N   UNL     1      -1.965   3.069  17.831  1.00  0.00    -0.354 N 
ATOM     54  N   UNL     1       0.119   1.223  16.913  1.00  0.00    -0.248 NA
ATOM     55  C   UNL     1       2.065  -0.005  17.317  1.00  0.00     0.031 C 
ATOM     56  C   UNL     1      -1.941   3.716  19.957  1.00  0.00     0.029 A 
ATOM     57  C   UNL     1      -1.277   2.934  19.025  1.00  0.00     0.049 A 
ATOM     58  H   UNL     1      -1.719   2.631  16.985  1.00  0.00     0.167 HD
ATOM     59  C   UNL     1       0.491   1.383  18.242  1.00  0.00     0.074 A 
ATOM     60  C   UNL     1       1.682   0.583  18.443  1.00  0.00     0.031 C 
ATOM     61  C   UNL     1      -0.100   2.125  19.208  1.00  0.00     0.037 A 
BRANCH  48  62
ATOM     62  C   UNL     1      -5.081   5.235  17.294  1.00  0.00     0.057 A 
ATOM     63  C   UNL     1      -6.415   4.822  17.411  1.00  0.00     0.134 A 
ATOM     64  C   UNL     1      -4.803   6.590  17.511  1.00  0.00     0.134 A 
ATOM     65  F   UNL     1      -6.750   3.540  17.201  1.00  0.00    -0.206 F 
ATOM     66  C   UNL     1      -7.437   5.727  17.702  1.00  0.00     0.040 A 
ATOM     67  C   UNL     1      -5.813   7.500  17.828  1.00  0.00     0.040 A 
ATOM     68  F   UNL     1      -3.546   7.051  17.419  1.00  0.00    -0.206 F 
ATOM     69  C   UNL     1      -7.135   7.071  17.917  1.00  0.00     0.006 A 
ENDBRANCH  48  62
BRANCH  49  70
ATOM     70  C   UNL     1       2.179  -1.045  14.591  1.00  0.00     0.057 A 
ATOM     71  C   UNL     1       2.203  -2.363  15.063  1.00  0.00     0.134 A 
ATOM     72  C   UNL     1       3.216  -0.642  13.743  1.00  0.00     0.134 A 
ATOM     73  F   UNL     1       1.246  -2.799  15.894  1.00  0.00    -0.206 F 
ATOM     74  C   UNL     1       3.228  -3.244  14.716  1.00  0.00     0.040 A 
ATOM     75  C   UNL     1       4.237  -1.519  13.371  1.00  0.00     0.040 A 
ATOM     76  F   UNL     1       3.245   0.607  13.255  1.00  0.00    -0.206 F 
ATOM     77  C   UNL     1       4.247  -2.823  13.863  1.00  0.00     0.006 A 
ENDBRANCH  49  70
BRANCH  61  78
ATOM     78  C   UNL     1       0.512   2.081  20.576  1.00  0.00     0.057 A 
ATOM     79  C   UNL     1       1.698   2.762  20.874  1.00  0.00     0.134 A 
ATOM     80  C   UNL     1      -0.116   1.382  21.614  1.00  0.00     0.134 A 
ATOM     81  F   UNL     1       2.352   3.438  19.918  1.00  0.00    -0.206 F 
ATOM     82  C   UNL     1       2.250   2.734  22.155  1.00  0.00     0.040 A 
ATOM     83  C   UNL     1       0.415   1.364  22.904  1.00  0.00     0.040 A 
ATOM     84  F   UNL     1      -1.259   0.716  21.394  1.00  0.00    -0.206 F 
ATOM     85  C   UNL     1       1.604   2.038  23.176  1.00  0.00     0.006 A 
ENDBRANCH  61  78
ENDBRANCH  35  36
ENDBRANCH  27  30
ENDBRANCH  25  26
ENDBRANCH  24  25
ENDBRANCH   1  24
TORSDOF 16
