REMARK SMILES O=C(NCCCNC(=O)c1ccccc1/N=C/c1coc2ccccc2c1=O)c1ccc(-c2c3nc(c(-c4c(F)cccc4F)c4ccc([nH]4)c(-c4c(F)cccc4F)c4nc(c(-c5c(F)cccc5F)c5ccc2[nH]5)C=C4)C=C3)cc1
REMARK SMILES IDX 5 1 4 2 3 3 1 4 2 5 29 7 30 8 82 9 31 10 81 11 32 12 33 13
REMARK SMILES IDX 34 14 75 15 35 16 80 17 74 18 76 19 36 20 79 21 73 22 72 23
REMARK SMILES IDX 37 25 63 26 46 27 62 28 47 29 50 30 61 31 77 32 48 33 49 34
REMARK SMILES IDX 60 36 78 37 51 38 38 39 39 40 44 41 40 42 41 43 43 44 45 45
REMARK SMILES IDX 42 46 64 47 65 48 70 49 66 50 67 51 69 52 71 53 68 54 52 55
REMARK SMILES IDX 53 56 58 57 54 58 55 59 57 60 59 61 56 62 6 63 7 64 8 65
REMARK SMILES IDX 9 67 10 68 11 69 15 70 12 71 14 72 13 73 16 74 17 75 18 76
REMARK SMILES IDX 19 77 27 78 20 79 26 80 28 81 21 82 25 83 22 84 24 85 23 86
REMARK H PARENT 3 6 76 24 50 35 7 66
REMARK Flexibility Score: inf
ROOT
ATOM      1  C   UNL     1       5.991  -2.428  -0.497  1.00  0.00     0.042 C 
ENDROOT
BRANCH   1   2
ATOM      2  C   UNL     1       5.246  -1.098  -0.521  1.00  0.00     0.118 C 
BRANCH   2   3
ATOM      3  N   UNL     1       3.794  -1.165  -0.501  1.00  0.00    -0.352 N 
ATOM      4  O   UNL     1       1.681  -0.423  -0.136  1.00  0.00    -0.269 OA
ATOM      5  C   UNL     1       2.889  -0.261   0.018  1.00  0.00     0.251 C 
ATOM      6  H   UNL     1       3.401  -1.968  -0.914  1.00  0.00     0.163 HD
BRANCH   5   7
ATOM      7  C   UNL     1       3.352   0.865   0.869  1.00  0.00     0.039 A 
ATOM      8  C   UNL     1       4.452   1.655   0.536  1.00  0.00     0.014 A 
ATOM      9  C   UNL     1       2.692   1.077   2.087  1.00  0.00     0.014 A 
ATOM     10  C   UNL     1       5.016   2.490   1.500  1.00  0.00     0.010 A 
ATOM     11  C   UNL     1       3.213   1.973   3.025  1.00  0.00     0.010 A 
ATOM     12  C   UNL     1       4.428   2.622   2.770  1.00  0.00    -0.014 A 
BRANCH  12  13
ATOM     13  C   UNL     1       5.157   3.362   3.833  1.00  0.00     0.031 A 
ATOM     14  C   UNL     1       5.738   2.626   5.014  1.00  0.00     0.074 A 
ATOM     15  C   UNL     1       5.392   4.680   3.692  1.00  0.00     0.049 A 
ATOM     16  N   UNL     1       6.499   3.083   5.979  1.00  0.00    -0.248 NA
ATOM     17  C   UNL     1       5.420   1.194   5.137  1.00  0.00     0.031 C 
ATOM     18  C   UNL     1       4.883   5.517   2.605  1.00  0.00     0.029 A 
ATOM     19  N   UNL     1       6.169   5.531   4.437  1.00  0.00    -0.354 N 
ATOM     20  C   UNL     1       6.704   2.015   6.843  1.00  0.00     0.074 A 
ATOM     21  C   UNL     1       5.999   0.880   6.287  1.00  0.00     0.031 C 
ATOM     22  C   UNL     1       5.435   6.737   2.701  1.00  0.00     0.029 A 
ATOM     23  C   UNL     1       6.316   6.770   3.866  1.00  0.00     0.049 A 
ATOM     24  H   UNL     1       6.580   5.277   5.295  1.00  0.00     0.167 HD
ATOM     25  C   UNL     1       7.413   1.978   7.995  1.00  0.00     0.037 A 
ATOM     26  C   UNL     1       7.103   7.803   4.216  1.00  0.00     0.037 A 
ATOM     27  C   UNL     1       8.176   3.075   8.525  1.00  0.00     0.049 A 
ATOM     28  C   UNL     1       7.983   7.700   5.424  1.00  0.00     0.074 A 
ATOM     29  C   UNL     1       8.924   3.128   9.689  1.00  0.00     0.029 A 
ATOM     30  N   UNL     1       8.311   4.305   7.905  1.00  0.00    -0.354 N 
ATOM     31  N   UNL     1       8.141   6.692   6.245  1.00  0.00    -0.248 NA
ATOM     32  C   UNL     1       8.791   8.883   5.757  1.00  0.00     0.031 C 
ATOM     33  C   UNL     1       9.519   4.393   9.770  1.00  0.00     0.029 A 
ATOM     34  C   UNL     1       9.143   5.120   8.652  1.00  0.00     0.049 A 
ATOM     35  H   UNL     1       7.879   4.562   7.058  1.00  0.00     0.167 HD
ATOM     36  C   UNL     1       9.055   7.120   7.197  1.00  0.00     0.074 A 
ATOM     37  C   UNL     1       9.438   8.470   6.839  1.00  0.00     0.031 C 
ATOM     38  C   UNL     1       9.520   6.456   8.281  1.00  0.00     0.037 A 
BRANCH  25  39
ATOM     39  C   UNL     1       7.383   0.701   8.774  1.00  0.00     0.057 A 
ATOM     40  C   UNL     1       8.236  -0.366   8.472  1.00  0.00     0.134 A 
ATOM     41  C   UNL     1       6.508   0.552   9.857  1.00  0.00     0.134 A 
ATOM     42  F   UNL     1       9.083  -0.285   7.435  1.00  0.00    -0.206 F 
ATOM     43  C   UNL     1       8.214  -1.545   9.218  1.00  0.00     0.040 A 
ATOM     44  C   UNL     1       6.484  -0.618  10.616  1.00  0.00     0.040 A 
ATOM     45  F   UNL     1       5.666   1.541  10.192  1.00  0.00    -0.206 F 
ATOM     46  C   UNL     1       7.339  -1.671  10.297  1.00  0.00     0.006 A 
ENDBRANCH  25  39
BRANCH  26  47
ATOM     47  C   UNL     1       7.144   9.006   3.357  1.00  0.00     0.057 A 
ATOM     48  C   UNL     1       8.172   9.177   2.424  1.00  0.00     0.134 A 
ATOM     49  C   UNL     1       6.154   9.990   3.428  1.00  0.00     0.134 A 
ATOM     50  F   UNL     1       9.152   8.267   2.325  1.00  0.00    -0.206 F 
ATOM     51  C   UNL     1       8.216  10.291   1.587  1.00  0.00     0.040 A 
ATOM     52  C   UNL     1       6.180  11.105   2.590  1.00  0.00     0.040 A 
ATOM     53  F   UNL     1       5.146   9.874   4.304  1.00  0.00    -0.206 F 
ATOM     54  C   UNL     1       7.214  11.257   1.666  1.00  0.00     0.006 A 
ENDBRANCH  26  47
BRANCH  38  55
ATOM     55  C   UNL     1      10.483   7.185   9.161  1.00  0.00     0.057 A 
ATOM     56  C   UNL     1      10.030   8.058  10.156  1.00  0.00     0.134 A 
ATOM     57  C   UNL     1      11.863   6.995   9.034  1.00  0.00     0.134 A 
ATOM     58  F   UNL     1       8.717   8.284  10.316  1.00  0.00    -0.206 F 
ATOM     59  C   UNL     1      10.921   8.726  10.995  1.00  0.00     0.040 A 
ATOM     60  C   UNL     1      12.764   7.653   9.871  1.00  0.00     0.040 A 
ATOM     61  F   UNL     1      12.353   6.172   8.095  1.00  0.00    -0.206 F 
ATOM     62  C   UNL     1      12.293   8.522  10.855  1.00  0.00     0.006 A 
ENDBRANCH  38  55
ENDBRANCH  12  13
ENDBRANCH   5   7
ENDBRANCH   2   3
ENDBRANCH   1   2
BRANCH   1  63
ATOM     63  C   UNL     1       5.696  -3.405  -1.625  1.00  0.00     0.118 C 
BRANCH  63  64
ATOM     64  N   UNL     1       5.823  -2.855  -2.961  1.00  0.00    -0.352 N 
ATOM     65  C   UNL     1       6.099  -3.527  -4.125  1.00  0.00     0.253 C 
ATOM     66  H   UNL     1       5.696  -1.882  -3.042  1.00  0.00     0.163 HD
ATOM     67  O   UNL     1       6.096  -2.926  -5.198  1.00  0.00    -0.269 OA
BRANCH  65  68
ATOM     68  C   UNL     1       6.450  -4.960  -4.116  1.00  0.00     0.065 A 
ATOM     69  C   UNL     1       7.730  -5.295  -4.589  1.00  0.00     0.016 A 
ATOM     70  C   UNL     1       5.573  -5.966  -3.692  1.00  0.00     0.076 A 
ATOM     71  C   UNL     1       8.157  -6.624  -4.593  1.00  0.00     0.001 A 
ATOM     72  C   UNL     1       6.024  -7.295  -3.703  1.00  0.00     0.029 A 
ATOM     73  C   UNL     1       7.304  -7.627  -4.146  1.00  0.00     0.002 A 
BRANCH  70  74
ATOM     74  N   UNL     1       4.331  -5.774  -3.091  1.00  0.00    -0.255 NA
ATOM     75  C   UNL     1       3.344  -5.173  -3.671  1.00  0.00     0.127 C 
BRANCH  75  76
ATOM     76  C   UNL     1       2.078  -5.168  -2.908  1.00  0.00     0.076 A 
ATOM     77  C   UNL     1       1.269  -6.181  -3.261  1.00  0.00     0.209 A 
ATOM     78  C   UNL     1       2.117  -4.854  -1.459  1.00  0.00     0.201 A 
ATOM     79  O   UNL     1       0.569  -6.959  -2.349  1.00  0.00    -0.463 OA
ATOM     80  C   UNL     1       1.967  -6.044  -0.609  1.00  0.00     0.065 A 
ATOM     81  O   UNL     1       2.388  -3.744  -1.024  1.00  0.00    -0.288 OA
ATOM     82  C   UNL     1       1.210  -7.094  -1.132  1.00  0.00     0.137 A 
ATOM     83  C   UNL     1       2.698  -6.191   0.568  1.00  0.00     0.016 A 
ATOM     84  C   UNL     1       1.174  -8.317  -0.474  1.00  0.00     0.048 A 
ATOM     85  C   UNL     1       2.691  -7.430   1.209  1.00  0.00     0.001 A 
ATOM     86  C   UNL     1       1.934  -8.488   0.689  1.00  0.00     0.004 A 
ENDBRANCH  75  76
ENDBRANCH  70  74
ENDBRANCH  65  68
ENDBRANCH  63  64
ENDBRANCH   1  63
TORSDOF 12
