REMARK SMILES Cc1ccn2c([C@H]3C[C@@H]3C(=O)NCCCNC(=O)c3ccc(-c4c5nc(c(-c6c(F)cccc6F)c6ccc([nH]6)c(-c6c(F)cccc6F)c6nc(c(-c7c(F)cccc7F)c7ccc4[nH]7)C=C6)C=C5)cc3)nnc2c1
REMARK SMILES IDX 14 1 13 2 12 3 10 4 11 5 9 7 7 8 8 9 6 10 1 11 2 12 3 13
REMARK SMILES IDX 76 14 4 15 75 16 5 17 74 18 73 19 15 20 16 21 17 22 18 24
REMARK SMILES IDX 19 25 20 26 72 27 21 28 71 29 22 30 23 31 24 32 65 33 25 34
REMARK SMILES IDX 70 35 64 36 66 37 26 38 69 39 63 40 62 41 27 43 53 44 36 45
REMARK SMILES IDX 52 46 37 47 40 48 51 49 67 50 38 51 39 52 50 54 68 55 41 56
REMARK SMILES IDX 28 57 29 58 34 59 30 60 31 61 33 62 35 63 32 64 54 65 55 66
REMARK SMILES IDX 60 67 56 68 57 69 59 70 61 71 58 72 42 73 43 74 48 75 44 76
REMARK SMILES IDX 45 77 47 78 49 79 46 80
REMARK H PARENT 12 6 16 23 66 42 40 53
REMARK Flexibility Score: inf
ROOT
ATOM      1  C   UNL     1       3.902  -9.636  -0.419  1.00  0.00     0.042 C 
ENDROOT
BRANCH   1   2
ATOM      2  C   UNL     1       3.087  -8.400  -0.042  1.00  0.00     0.117 C 
BRANCH   2   3
ATOM      3  N   UNL     1       2.602  -7.645  -1.180  1.00  0.00    -0.356 N 
ATOM      4  C   UNL     1       1.360  -7.152  -1.465  1.00  0.00     0.223 C 
ATOM      5  O   UNL     1       1.216  -6.460  -2.473  1.00  0.00    -0.275 OA
ATOM      6  H   UNL     1       3.284  -7.454  -1.864  1.00  0.00     0.163 HD
BRANCH   4   7
ATOM      7  C   UNL     1       0.183  -7.448  -0.620  1.00  0.00     0.090 C 
ATOM      8  C   UNL     1      -0.422  -6.276   0.132  1.00  0.00     0.071 C 
ATOM      9  C   UNL     1       0.132  -7.443   0.887  1.00  0.00     0.026 C 
BRANCH   8  10
ATOM     10  C   UNL     1      -1.915  -6.032   0.162  1.00  0.00     0.141 A 
ATOM     11  C   UNL     1      -5.204  -2.683   3.182  1.00  0.00     0.044 C 
ATOM     12  C   UNL     1      -4.312  -3.594   2.392  1.00  0.00    -0.046 A 
ATOM     13  C   UNL     1      -2.931  -3.739   2.855  1.00  0.00     0.022 A 
ATOM     14  C   UNL     1      -4.752  -4.274   1.307  1.00  0.00     0.053 A 
ATOM     15  C   UNL     1      -2.080  -4.501   2.150  1.00  0.00     0.095 A 
ATOM     16  C   UNL     1      -3.865  -5.138   0.604  1.00  0.00     0.161 A 
ATOM     17  N   UNL     1      -2.548  -5.168   1.022  1.00  0.00    -0.286 N 
ATOM     18  N   UNL     1      -4.029  -6.000  -0.378  1.00  0.00    -0.130 NA
ATOM     19  N   UNL     1      -2.806  -6.604  -0.620  1.00  0.00    -0.134 NA
ENDBRANCH   8  10
ENDBRANCH   4   7
ENDBRANCH   2   3
ENDBRANCH   1   2
BRANCH   1  20
ATOM     20  C   UNL     1       5.132  -9.388  -1.291  1.00  0.00     0.118 C 
BRANCH  20  21
ATOM     21  N   UNL     1       6.081  -8.431  -0.759  1.00  0.00    -0.352 N 
ATOM     22  C   UNL     1       7.235  -8.518  -0.031  1.00  0.00     0.251 C 
ATOM     23  H   UNL     1       5.839  -7.501  -0.973  1.00  0.00     0.163 HD
ATOM     24  O   UNL     1       7.939  -7.504  -0.024  1.00  0.00    -0.269 OA
BRANCH  22  25
ATOM     25  C   UNL     1       7.651  -9.672   0.812  1.00  0.00     0.039 A 
ATOM     26  C   UNL     1       6.982 -10.889   0.925  1.00  0.00     0.014 A 
ATOM     27  C   UNL     1       8.777  -9.449   1.634  1.00  0.00     0.014 A 
ATOM     28  C   UNL     1       7.355 -11.800   1.914  1.00  0.00     0.010 A 
ATOM     29  C   UNL     1       9.160 -10.359   2.614  1.00  0.00     0.010 A 
ATOM     30  C   UNL     1       8.413 -11.514   2.791  1.00  0.00    -0.014 A 
BRANCH  30  31
ATOM     31  C   UNL     1       8.810 -12.536   3.762  1.00  0.00     0.031 A 
ATOM     32  C   UNL     1       9.238 -13.803   3.112  1.00  0.00     0.074 A 
ATOM     33  C   UNL     1       8.877 -12.361   5.102  1.00  0.00     0.049 A 
ATOM     34  N   UNL     1       8.606 -14.929   3.111  1.00  0.00    -0.248 NA
ATOM     35  C   UNL     1      10.405 -13.778   2.217  1.00  0.00     0.031 C 
ATOM     36  C   UNL     1       8.750 -11.104   5.845  1.00  0.00     0.029 A 
ATOM     37  N   UNL     1       9.139 -13.271   6.096  1.00  0.00    -0.354 N 
ATOM     38  C   UNL     1       9.413 -15.822   2.408  1.00  0.00     0.074 A 
ATOM     39  C   UNL     1      10.402 -15.024   1.736  1.00  0.00     0.031 C 
ATOM     40  C   UNL     1       9.141 -11.290   7.128  1.00  0.00     0.029 A 
ATOM     41  C   UNL     1       9.399 -12.704   7.345  1.00  0.00     0.049 A 
ATOM     42  H   UNL     1       9.142 -14.243   5.941  1.00  0.00     0.167 HD
ATOM     43  C   UNL     1       9.355 -17.154   2.685  1.00  0.00     0.037 A 
ATOM     44  C   UNL     1       9.791 -13.343   8.478  1.00  0.00     0.037 A 
ATOM     45  C   UNL     1       8.166 -17.453   3.444  1.00  0.00     0.049 A 
ATOM     46  C   UNL     1       9.414 -14.765   8.349  1.00  0.00     0.074 A 
ATOM     47  C   UNL     1       6.819 -17.605   3.203  1.00  0.00     0.029 A 
ATOM     48  N   UNL     1       8.322 -17.251   4.788  1.00  0.00    -0.354 N 
ATOM     49  N   UNL     1       8.182 -15.182   8.385  1.00  0.00    -0.248 NA
ATOM     50  C   UNL     1      10.388 -15.725   7.844  1.00  0.00     0.031 C 
ATOM     51  C   UNL     1       6.161 -17.328   4.440  1.00  0.00     0.029 A 
ATOM     52  C   UNL     1       7.122 -17.063   5.411  1.00  0.00     0.049 A 
ATOM     53  H   UNL     1       9.192 -17.243   5.249  1.00  0.00     0.167 HD
ATOM     54  C   UNL     1       8.163 -16.241   7.503  1.00  0.00     0.074 A 
ATOM     55  C   UNL     1       9.555 -16.647   7.355  1.00  0.00     0.031 C 
ATOM     56  C   UNL     1       7.069 -16.464   6.722  1.00  0.00     0.037 A 
BRANCH  43  57
ATOM     57  C   UNL     1      10.567 -18.069   2.791  1.00  0.00     0.057 A 
ATOM     58  C   UNL     1      11.902 -17.628   2.888  1.00  0.00     0.134 A 
ATOM     59  C   UNL     1      10.362 -19.413   3.170  1.00  0.00     0.134 A 
ATOM     60  F   UNL     1      12.274 -16.379   2.597  1.00  0.00    -0.206 F 
ATOM     61  C   UNL     1      12.932 -18.430   3.392  1.00  0.00     0.040 A 
ATOM     62  C   UNL     1      11.379 -20.210   3.712  1.00  0.00     0.040 A 
ATOM     63  F   UNL     1       9.142 -19.969   3.110  1.00  0.00    -0.206 F 
ATOM     64  C   UNL     1      12.667 -19.712   3.842  1.00  0.00     0.006 A 
ENDBRANCH  43  57
BRANCH  44  65
ATOM     65  C   UNL     1      10.598 -12.884   9.633  1.00  0.00     0.057 A 
ATOM     66  C   UNL     1      11.675 -12.004   9.443  1.00  0.00     0.134 A 
ATOM     67  C   UNL     1      10.542 -13.527  10.881  1.00  0.00     0.134 A 
ATOM     68  F   UNL     1      11.855 -11.389   8.265  1.00  0.00    -0.206 F 
ATOM     69  C   UNL     1      12.659 -11.804  10.419  1.00  0.00     0.040 A 
ATOM     70  C   UNL     1      11.520 -13.335  11.868  1.00  0.00     0.040 A 
ATOM     71  F   UNL     1       9.571 -14.413  11.150  1.00  0.00    -0.206 F 
ATOM     72  C   UNL     1      12.593 -12.483  11.631  1.00  0.00     0.006 A 
ENDBRANCH  44  65
BRANCH  56  73
ATOM     73  C   UNL     1       5.768 -15.909   7.205  1.00  0.00     0.057 A 
ATOM     74  C   UNL     1       4.759 -16.812   7.552  1.00  0.00     0.134 A 
ATOM     75  C   UNL     1       5.468 -14.543   7.299  1.00  0.00     0.134 A 
ATOM     76  F   UNL     1       4.970 -18.134   7.447  1.00  0.00    -0.206 F 
ATOM     77  C   UNL     1       3.506 -16.384   7.987  1.00  0.00     0.040 A 
ATOM     78  C   UNL     1       4.227 -14.100   7.767  1.00  0.00     0.040 A 
ATOM     79  F   UNL     1       6.349 -13.609   6.917  1.00  0.00    -0.206 F 
ATOM     80  C   UNL     1       3.242 -15.023   8.110  1.00  0.00     0.006 A 
ENDBRANCH  56  73
ENDBRANCH  30  31
ENDBRANCH  22  25
ENDBRANCH  20  21
ENDBRANCH   1  20
TORSDOF 11
