REMARK SMILES COc1ccccc1C(=O)N/C(=C/c1ccc2c(c1)OCO2)C(=O)Nc1ccc(C(=O)NCCCNC(=O)c2ccc(-c3c4nc(c(-c5c(F)cccc5F)c5ccc([nH]5)c(-c5c(F)cccc5F)c5nc(c(-c6c(F)cccc6F)c6ccc3[nH]6)C=C5)C=C4)cc2)cc1
REMARK SMILES IDX 30 1 31 2 32 3 29 5 26 6 27 7 94 8 28 9 93 10 25 11 23 12
REMARK SMILES IDX 24 13 12 15 13 16 11 17 9 18 10 19 8 21 3 22 4 23 5 24 7 25
REMARK SMILES IDX 6 26 2 27 1 28 14 29 15 30 19 31 16 32 18 33 17 34 20 35
REMARK SMILES IDX 22 36 21 37 33 38 34 39 35 40 36 41 37 42 38 44 39 45 40 46
REMARK SMILES IDX 92 47 41 48 91 49 42 50 43 51 44 52 85 53 45 54 90 55 84 56
REMARK SMILES IDX 86 57 46 58 89 59 83 60 82 61 47 63 73 64 56 65 72 66 57 67
REMARK SMILES IDX 60 68 71 69 87 70 58 71 59 72 70 74 88 75 61 76 48 77 49 78
REMARK SMILES IDX 54 79 50 80 51 81 53 82 55 83 52 84 74 85 75 86 80 87 76 88
REMARK SMILES IDX 77 89 79 90 81 91 78 92 62 93 63 94 68 95 64 96 65 97 67 98
REMARK SMILES IDX 69 99 66 100
REMARK H PARENT 32 4 25 14 11 20 36 43 86 62 60 73
REMARK Flexibility Score: inf
ROOT
ATOM      1  C   UNL     1      -2.704  -3.934  -3.275  1.00  0.00     0.251 C 
ATOM      2  O   UNL     1      -3.425  -3.933  -4.266  1.00  0.00    -0.269 OA
ATOM      3  N   UNL     1      -1.965  -5.039  -2.956  1.00  0.00    -0.352 N 
ATOM      4  H   UNL     1      -2.114  -5.821  -3.536  1.00  0.00     0.163 HD
ENDROOT
BRANCH   1   5
ATOM      5  C   UNL     1      -2.572  -2.711  -2.486  1.00  0.00     0.039 A 
ATOM      6  C   UNL     1      -1.951   0.373  -0.496  1.00  0.00     0.041 A 
ATOM      7  C   UNL     1      -1.804   0.460  -2.258  1.00  0.00     0.027 A 
ATOM      8  C   UNL     1      -2.468  -1.143   0.230  1.00  0.00     0.027 A 
ATOM      9  C   UNL     1      -2.079  -1.216  -3.356  1.00  0.00     0.016 A 
ATOM     10  C   UNL     1      -2.772  -2.623  -0.729  1.00  0.00     0.016 A 
BRANCH   6  11
ATOM     11  N   UNL     1      -0.980   1.163   0.146  1.00  0.00    -0.321 N 
ATOM     12  C   UNL     1       0.130   1.641  -0.543  1.00  0.00     0.272 C 
ATOM     13  O   UNL     1       0.337   2.852  -0.639  1.00  0.00    -0.267 OA
ATOM     14  H   UNL     1      -1.087   1.380   1.101  1.00  0.00     0.170 HD
BRANCH  12  15
ATOM     15  C   UNL     1       1.226   0.650  -1.002  1.00  0.00     0.108 C 
ATOM     16  C   UNL     1       1.162  -0.216  -2.055  1.00  0.00     0.040 C 
BRANCH  15  17
ATOM     17  N   UNL     1       2.434   0.653  -0.310  1.00  0.00    -0.317 N 
ATOM     18  C   UNL     1       2.933   1.294   0.802  1.00  0.00     0.259 C 
ATOM     19  O   UNL     1       4.088   1.024   1.145  1.00  0.00    -0.269 OA
ATOM     20  H   UNL     1       3.095   0.047  -0.717  1.00  0.00     0.170 HD
BRANCH  18  21
ATOM     21  C   UNL     1       2.216   2.307   1.595  1.00  0.00     0.082 A 
ATOM     22  C   UNL     1       1.061   2.098   2.359  1.00  0.00     0.131 A 
ATOM     23  C   UNL     1       0.439   3.208   2.956  1.00  0.00     0.047 A 
ATOM     24  C   UNL     1       1.010   4.479   2.896  1.00  0.00     0.004 A 
ATOM     25  C   UNL     1       2.819   3.581   1.591  1.00  0.00     0.018 A 
ATOM     26  C   UNL     1       2.223   4.660   2.242  1.00  0.00     0.001 A 
BRANCH  22  27
ATOM     27  O   UNL     1       0.376   0.935   2.581  1.00  0.00    -0.496 OA
ATOM     28  C   UNL     1       1.113  -0.278   2.604  1.00  0.00     0.278 C 
ENDBRANCH  22  27
ENDBRANCH  18  21
ENDBRANCH  15  17
BRANCH  16  29
ATOM     29  C   UNL     1      -0.062  -0.577  -2.804  1.00  0.00    -0.019 A 
ATOM     30  C   UNL     1      -1.266  -1.254  -1.656  1.00  0.00     0.012 A 
ATOM     31  C   UNL     1      -0.657   0.393  -4.167  1.00  0.00     0.058 A 
ATOM     32  C   UNL     1      -3.213  -0.753  -1.893  1.00  0.00     0.051 A 
ATOM     33  C   UNL     1      -2.379   0.768  -4.370  1.00  0.00     0.166 A 
ATOM     34  C   UNL     1      -3.631   0.252  -3.307  1.00  0.00     0.165 A 
ATOM     35  O   UNL     1      -2.885   1.851  -5.046  1.00  0.00    -0.454 OA
ATOM     36  O   UNL     1      -4.704   1.063  -3.481  1.00  0.00    -0.454 OA
ATOM     37  C   UNL     1      -4.097   2.143  -4.265  1.00  0.00     0.468 C 
ENDBRANCH  16  29
ENDBRANCH  12  15
ENDBRANCH   6  11
ENDBRANCH   1   5
BRANCH   3  38
ATOM     38  C   UNL     1      -0.996  -5.236  -1.895  1.00  0.00     0.118 C 
BRANCH  38  39
ATOM     39  C   UNL     1      -1.581  -6.056  -0.753  1.00  0.00     0.042 C 
BRANCH  39  40
ATOM     40  C   UNL     1      -2.034  -7.447  -1.174  1.00  0.00     0.118 C 
BRANCH  40  41
ATOM     41  N   UNL     1      -0.918  -8.309  -1.522  1.00  0.00    -0.352 N 
ATOM     42  C   UNL     1      -0.556  -9.518  -0.981  1.00  0.00     0.251 C 
ATOM     43  H   UNL     1      -0.340  -7.981  -2.248  1.00  0.00     0.163 HD
ATOM     44  O   UNL     1       0.536 -10.005  -1.252  1.00  0.00    -0.269 OA
BRANCH  42  45
ATOM     45  C   UNL     1      -1.478 -10.227  -0.067  1.00  0.00     0.039 A 
ATOM     46  C   UNL     1      -0.951 -10.870   1.056  1.00  0.00     0.014 A 
ATOM     47  C   UNL     1      -2.848 -10.293  -0.335  1.00  0.00     0.014 A 
ATOM     48  C   UNL     1      -1.803 -11.557   1.923  1.00  0.00     0.010 A 
ATOM     49  C   UNL     1      -3.706 -10.901   0.575  1.00  0.00     0.010 A 
ATOM     50  C   UNL     1      -3.188 -11.569   1.694  1.00  0.00    -0.014 A 
BRANCH  50  51
ATOM     51  C   UNL     1      -4.105 -12.341   2.569  1.00  0.00     0.031 A 
ATOM     52  C   UNL     1      -4.868 -13.507   1.995  1.00  0.00     0.074 A 
ATOM     53  C   UNL     1      -4.287 -11.971   3.851  1.00  0.00     0.049 A 
ATOM     54  N   UNL     1      -5.764 -14.272   2.566  1.00  0.00    -0.248 NA
ATOM     55  C   UNL     1      -4.617 -13.836   0.581  1.00  0.00     0.031 C 
ATOM     56  C   UNL     1      -3.645 -10.828   4.504  1.00  0.00     0.029 A 
ATOM     57  N   UNL     1      -5.073 -12.517   4.834  1.00  0.00    -0.354 N 
ATOM     58  C   UNL     1      -6.202 -15.143   1.576  1.00  0.00     0.074 A 
ATOM     59  C   UNL     1      -5.513 -14.786   0.357  1.00  0.00     0.031 C 
ATOM     60  C   UNL     1      -4.047 -10.772   5.785  1.00  0.00     0.029 A 
ATOM     61  C   UNL     1      -4.992 -11.856   6.035  1.00  0.00     0.049 A 
ATOM     62  H   UNL     1      -5.642 -13.307   4.691  1.00  0.00     0.167 HD
ATOM     63  C   UNL     1      -7.081 -16.167   1.679  1.00  0.00     0.037 A 
ATOM     64  C   UNL     1      -5.611 -12.102   7.205  1.00  0.00     0.037 A 
ATOM     65  C   UNL     1      -7.714 -16.560   2.909  1.00  0.00     0.049 A 
ATOM     66  C   UNL     1      -6.540 -13.282   7.305  1.00  0.00     0.074 A 
ATOM     67  C   UNL     1      -8.560 -17.631   3.139  1.00  0.00     0.029 A 
ATOM     68  N   UNL     1      -7.557 -15.902   4.119  1.00  0.00    -0.354 N 
ATOM     69  N   UNL     1      -6.887 -14.142   6.378  1.00  0.00    -0.248 NA
ATOM     70  C   UNL     1      -7.149 -13.537   8.617  1.00  0.00     0.031 C 
ATOM     71  C   UNL     1      -8.938 -17.604   4.485  1.00  0.00     0.029 A 
ATOM     72  C   UNL     1      -8.295 -16.541   5.099  1.00  0.00     0.049 A 
ATOM     73  H   UNL     1      -7.004 -15.101   4.259  1.00  0.00     0.167 HD
ATOM     74  C   UNL     1      -7.721 -15.060   7.004  1.00  0.00     0.074 A 
ATOM     75  C   UNL     1      -7.819 -14.658   8.391  1.00  0.00     0.031 C 
ATOM     76  C   UNL     1      -8.350 -16.140   6.480  1.00  0.00     0.037 A 
BRANCH  63  77
ATOM     77  C   UNL     1      -7.398 -16.947   0.437  1.00  0.00     0.057 A 
ATOM     78  C   UNL     1      -6.471 -17.822  -0.143  1.00  0.00     0.134 A 
ATOM     79  C   UNL     1      -8.664 -16.861  -0.155  1.00  0.00     0.134 A 
ATOM     80  F   UNL     1      -5.235 -17.939   0.366  1.00  0.00    -0.206 F 
ATOM     81  C   UNL     1      -6.786 -18.571  -1.278  1.00  0.00     0.040 A 
ATOM     82  C   UNL     1      -9.000 -17.625  -1.274  1.00  0.00     0.040 A 
ATOM     83  F   UNL     1      -9.600 -16.046   0.353  1.00  0.00    -0.206 F 
ATOM     84  C   UNL     1      -8.057 -18.481  -1.841  1.00  0.00     0.006 A 
ENDBRANCH  63  77
BRANCH  64  85
ATOM     85  C   UNL     1      -5.354 -11.244   8.390  1.00  0.00     0.057 A 
ATOM     86  C   UNL     1      -4.652 -11.735   9.498  1.00  0.00     0.134 A 
ATOM     87  C   UNL     1      -5.832  -9.931   8.461  1.00  0.00     0.134 A 
ATOM     88  F   UNL     1      -4.184 -12.992   9.497  1.00  0.00    -0.206 F 
ATOM     89  C   UNL     1      -4.466 -10.965  10.647  1.00  0.00     0.040 A 
ATOM     90  C   UNL     1      -5.630  -9.140   9.593  1.00  0.00     0.040 A 
ATOM     91  F   UNL     1      -6.502  -9.397   7.429  1.00  0.00    -0.206 F 
ATOM     92  C   UNL     1      -4.955  -9.661  10.695  1.00  0.00     0.006 A 
ENDBRANCH  64  85
BRANCH  76  93
ATOM     93  C   UNL     1      -9.143 -16.994   7.422  1.00  0.00     0.057 A 
ATOM     94  C   UNL     1     -10.373 -16.576   7.945  1.00  0.00     0.134 A 
ATOM     95  C   UNL     1      -8.683 -18.268   7.780  1.00  0.00     0.134 A 
ATOM     96  F   UNL     1     -10.861 -15.362   7.649  1.00  0.00    -0.206 F 
ATOM     97  C   UNL     1     -11.105 -17.386   8.814  1.00  0.00     0.040 A 
ATOM     98  C   UNL     1      -9.419 -19.096   8.626  1.00  0.00     0.040 A 
ATOM     99  F   UNL     1      -7.518 -18.730   7.303  1.00  0.00    -0.206 F 
ATOM    100  C   UNL     1     -10.631 -18.652   9.152  1.00  0.00     0.006 A 
ENDBRANCH  76  93
ENDBRANCH  50  51
ENDBRANCH  42  45
ENDBRANCH  40  41
ENDBRANCH  39  40
ENDBRANCH  38  39
ENDBRANCH   3  38
TORSDOF 16
