REMARK SMILES O=C(NCCCNC(=O)[C@H](c1ccc(Cl)cc1)[NH+]1CCCCC1)c1ccc(-c2c3nc(c(-c4c(F)cccc4F)c4ccc([nH]4)c(-c4c(F)cccc4F)c4nc(c(-c5c(F)cccc5F)c5ccc2[nH]5)C=C4)C=C3)cc1
REMARK SMILES IDX 4 1 3 2 1 3 2 4 24 6 25 7 77 8 26 9 76 10 27 11 28 12 29 13
REMARK SMILES IDX 70 14 30 15 75 16 69 17 71 18 31 19 74 20 68 21 67 22 32 24
REMARK SMILES IDX 58 25 41 26 57 27 42 28 45 29 56 30 72 31 43 32 44 33 55 35
REMARK SMILES IDX 73 36 46 37 33 38 34 39 39 40 35 41 36 42 38 43 40 44 37 45
REMARK SMILES IDX 59 46 60 47 65 48 61 49 62 50 64 51 66 52 63 53 47 54 48 55
REMARK SMILES IDX 53 56 49 57 50 58 52 59 54 60 51 61 5 62 6 63 7 64 8 65 9 67
REMARK SMILES IDX 10 68 18 69 19 70 23 71 20 73 22 74 21 75 11 76 12 77 17 78
REMARK SMILES IDX 13 79 16 80 14 81 15 82
REMARK H PARENT 3 5 71 23 45 34 7 66 18 72
REMARK Flexibility Score: inf
ROOT
ATOM      1  C   UNL     1       5.176   3.518  -2.058  1.00  0.00     0.118 C 
ENDROOT
BRANCH   1   2
ATOM      2  N   UNL     1       4.847   2.166  -2.479  1.00  0.00    -0.352 N 
ATOM      3  O   UNL     1       3.558   0.504  -3.272  1.00  0.00    -0.269 OA
ATOM      4  C   UNL     1       3.811   1.706  -3.257  1.00  0.00     0.251 C 
ATOM      5  H   UNL     1       5.463   1.470  -2.155  1.00  0.00     0.163 HD
BRANCH   4   6
ATOM      6  C   UNL     1       2.996   2.638  -4.073  1.00  0.00     0.039 A 
ATOM      7  C   UNL     1       3.577   3.749  -4.683  1.00  0.00     0.014 A 
ATOM      8  C   UNL     1       1.647   2.353  -4.310  1.00  0.00     0.014 A 
ATOM      9  C   UNL     1       2.799   4.652  -5.390  1.00  0.00     0.010 A 
ATOM     10  C   UNL     1       0.894   3.180  -5.152  1.00  0.00     0.010 A 
ATOM     11  C   UNL     1       1.470   4.334  -5.702  1.00  0.00    -0.014 A 
BRANCH  11  12
ATOM     12  C   UNL     1       0.795   5.119  -6.764  1.00  0.00     0.031 A 
ATOM     13  C   UNL     1      -0.457   5.896  -6.497  1.00  0.00     0.074 A 
ATOM     14  C   UNL     1       1.352   5.108  -7.994  1.00  0.00     0.049 A 
ATOM     15  N   UNL     1      -1.177   6.596  -7.336  1.00  0.00    -0.248 NA
ATOM     16  C   UNL     1      -0.979   5.885  -5.122  1.00  0.00     0.031 C 
ATOM     17  C   UNL     1       2.563   4.363  -8.364  1.00  0.00     0.029 A 
ATOM     18  N   UNL     1       0.995   5.742  -9.155  1.00  0.00    -0.354 N 
ATOM     19  C   UNL     1      -2.249   7.085  -6.603  1.00  0.00     0.074 A 
ATOM     20  C   UNL     1      -2.091   6.599  -5.249  1.00  0.00     0.031 C 
ATOM     21  C   UNL     1       2.870   4.617  -9.641  1.00  0.00     0.029 A 
ATOM     22  C   UNL     1       1.831   5.460 -10.210  1.00  0.00     0.049 A 
ATOM     23  H   UNL     1       0.216   6.340  -9.227  1.00  0.00     0.167 HD
ATOM     24  C   UNL     1      -3.268   7.864  -7.035  1.00  0.00     0.037 A 
ATOM     25  C   UNL     1       1.746   5.797 -11.509  1.00  0.00     0.037 A 
ATOM     26  C   UNL     1      -3.393   8.356  -8.384  1.00  0.00     0.049 A 
ATOM     27  C   UNL     1       0.583   6.630 -11.954  1.00  0.00     0.074 A 
ATOM     28  C   UNL     1      -4.349   9.213  -8.901  1.00  0.00     0.029 A 
ATOM     29  N   UNL     1      -2.546   8.024  -9.431  1.00  0.00    -0.354 N 
ATOM     30  N   UNL     1      -0.389   7.136 -11.236  1.00  0.00    -0.248 NA
ATOM     31  C   UNL     1       0.492   6.925 -13.389  1.00  0.00     0.031 C 
ATOM     32  C   UNL     1      -4.118   9.350 -10.273  1.00  0.00     0.029 A 
ATOM     33  C   UNL     1      -2.986   8.622 -10.601  1.00  0.00     0.049 A 
ATOM     34  H   UNL     1      -1.750   7.449  -9.354  1.00  0.00     0.167 HD
ATOM     35  C   UNL     1      -1.205   7.813 -12.129  1.00  0.00     0.074 A 
ATOM     36  C   UNL     1      -0.594   7.682 -13.436  1.00  0.00     0.031 C 
ATOM     37  C   UNL     1      -2.364   8.472 -11.891  1.00  0.00     0.037 A 
BRANCH  24  38
ATOM     38  C   UNL     1      -4.352   8.224  -6.062  1.00  0.00     0.057 A 
ATOM     39  C   UNL     1      -4.161   9.171  -5.049  1.00  0.00     0.134 A 
ATOM     40  C   UNL     1      -5.639   7.687  -6.210  1.00  0.00     0.134 A 
ATOM     41  F   UNL     1      -2.952   9.717  -4.849  1.00  0.00    -0.206 F 
ATOM     42  C   UNL     1      -5.209   9.571  -4.217  1.00  0.00     0.040 A 
ATOM     43  C   UNL     1      -6.699   8.094  -5.399  1.00  0.00     0.040 A 
ATOM     44  F   UNL     1      -5.892   6.779  -7.165  1.00  0.00    -0.206 F 
ATOM     45  C   UNL     1      -6.486   9.040  -4.399  1.00  0.00     0.006 A 
ENDBRANCH  24  38
BRANCH  25  46
ATOM     46  C   UNL     1       2.747   5.289 -12.481  1.00  0.00     0.057 A 
ATOM     47  C   UNL     1       3.615   6.154 -13.154  1.00  0.00     0.134 A 
ATOM     48  C   UNL     1       2.849   3.921 -12.771  1.00  0.00     0.134 A 
ATOM     49  F   UNL     1       3.558   7.476 -12.931  1.00  0.00    -0.206 F 
ATOM     50  C   UNL     1       4.529   5.683 -14.098  1.00  0.00     0.040 A 
ATOM     51  C   UNL     1       3.781   3.432 -13.686  1.00  0.00     0.040 A 
ATOM     52  F   UNL     1       2.053   3.035 -12.152  1.00  0.00    -0.206 F 
ATOM     53  C   UNL     1       4.617   4.317 -14.362  1.00  0.00     0.006 A 
ENDBRANCH  25  46
BRANCH  37  54
ATOM     54  C   UNL     1      -3.034   9.104 -13.073  1.00  0.00     0.057 A 
ATOM     55  C   UNL     1      -3.682   8.333 -14.047  1.00  0.00     0.134 A 
ATOM     56  C   UNL     1      -3.055  10.496 -13.225  1.00  0.00     0.134 A 
ATOM     57  F   UNL     1      -3.678   6.994 -13.967  1.00  0.00    -0.206 F 
ATOM     58  C   UNL     1      -4.311   8.925 -15.142  1.00  0.00     0.040 A 
ATOM     59  C   UNL     1      -3.707  11.100 -14.300  1.00  0.00     0.040 A 
ATOM     60  F   UNL     1      -2.457  11.289 -12.324  1.00  0.00    -0.206 F 
ATOM     61  C   UNL     1      -4.332  10.313 -15.265  1.00  0.00     0.006 A 
ENDBRANCH  37  54
ENDBRANCH  11  12
ENDBRANCH   4   6
ENDBRANCH   1   2
BRANCH   1  62
ATOM     62  C   UNL     1       4.607   3.832  -0.693  1.00  0.00     0.042 C 
BRANCH  62  63
ATOM     63  C   UNL     1       5.459   3.282   0.445  1.00  0.00     0.118 C 
BRANCH  63  64
ATOM     64  N   UNL     1       6.558   4.164   0.776  1.00  0.00    -0.351 N 
ATOM     65  C   UNL     1       6.831   4.933   1.865  1.00  0.00     0.283 C 
ATOM     66  H   UNL     1       7.245   4.218   0.073  1.00  0.00     0.163 HD
ATOM     67  O   UNL     1       7.893   5.572   1.787  1.00  0.00    -0.268 OA
BRANCH  65  68
ATOM     68  C   UNL     1       5.934   5.087   3.135  1.00  0.00     0.305 C 
BRANCH  68  69
ATOM     69  N   UNL     1       4.769   6.037   3.010  1.00  0.00    -0.321 N 
ATOM     70  C   UNL     1       5.263   7.367   2.575  1.00  0.00     0.263 C 
ATOM     71  C   UNL     1       3.669   5.577   2.173  1.00  0.00     0.263 C 
ATOM     72  H   UNL     1       4.353   6.096   3.940  1.00  0.00     0.349 HD
ATOM     73  C   UNL     1       4.157   8.409   2.394  1.00  0.00     0.062 C 
ATOM     74  C   UNL     1       2.547   6.591   1.942  1.00  0.00     0.062 C 
ATOM     75  C   UNL     1       3.102   7.907   1.423  1.00  0.00     0.012 C 
ENDBRANCH  68  69
BRANCH  68  76
ATOM     76  C   UNL     1       5.799   3.818   3.991  1.00  0.00     0.019 A 
ATOM     77  C   UNL     1       4.831   2.820   3.817  1.00  0.00     0.012 A 
ATOM     78  C   UNL     1       6.766   3.595   4.998  1.00  0.00     0.012 A 
ATOM     79  C   UNL     1       4.863   1.628   4.554  1.00  0.00     0.021 A 
ATOM     80  C   UNL     1       6.780   2.424   5.764  1.00  0.00     0.021 A 
ATOM     81  C   UNL     1       5.838   1.434   5.523  1.00  0.00     0.041 A 
ATOM     82  Cl  UNL     1       5.877  -0.033   6.419  1.00  0.00    -0.084 Cl
ENDBRANCH  68  76
ENDBRANCH  65  68
ENDBRANCH  63  64
ENDBRANCH  62  63
ENDBRANCH   1  62
TORSDOF 12
