REMARK SMILES CCc1cc(OC(F)(F)F)cc2c1O[C@@H](C(F)(F)F)C(C(=O)NCCCNC(=O)c1ccc(-c3c4nc(c(-c5c(F)cccc5F)c5ccc([nH]5)c(-c5c(F)cccc5F)c5nc(c(-c6c(F)cccc6F)c6ccc3[nH]6)C=C5)C=C4)cc1)=C2
REMARK SMILES IDX 25 1 24 2 23 3 21 4 22 5 20 7 3 8 4 9 13 10 5 11 12 12 14 13
REMARK SMILES IDX 11 14 84 15 15 16 2 17 1 18 6 19 7 20 8 21 9 22 10 23 16 24
REMARK SMILES IDX 17 25 18 26 19 27 26 28 27 29 28 30 29 32 30 33 31 34 83 35
REMARK SMILES IDX 32 36 82 37 33 38 34 39 35 40 76 41 36 42 81 43 75 44 77 45
REMARK SMILES IDX 37 46 80 47 74 48 73 49 38 51 64 52 47 53 63 54 48 55 51 56
REMARK SMILES IDX 62 57 78 58 49 59 50 60 61 62 79 63 52 64 39 65 40 66 45 67
REMARK SMILES IDX 41 68 42 69 44 70 46 71 43 72 65 73 66 74 71 75 67 76 68 77
REMARK SMILES IDX 70 78 72 79 69 80 53 81 54 82 59 83 55 84 56 85 58 86 60 87
REMARK SMILES IDX 57 88
REMARK H PARENT 23 6 27 31 77 50 51 61
REMARK Flexibility Score: inf
ROOT
ATOM      1  C   UNL     1      -0.505   8.984   1.500  1.00  0.00     0.042 C 
ENDROOT
BRANCH   1   2
ATOM      2  C   UNL     1      -1.121   8.028   2.526  1.00  0.00     0.118 C 
BRANCH   2   3
ATOM      3  N   UNL     1      -2.338   7.434   1.993  1.00  0.00    -0.352 N 
ATOM      4  C   UNL     1      -2.589   6.288   1.307  1.00  0.00     0.251 C 
ATOM      5  O   UNL     1      -3.713   6.142   0.835  1.00  0.00    -0.270 OA
ATOM      6  H   UNL     1      -3.144   7.972   2.164  1.00  0.00     0.163 HD
BRANCH   4   7
ATOM      7  C   UNL     1      -1.597   5.190   1.171  1.00  0.00     0.067 C 
ATOM      8  C   UNL     1       1.052   1.917   1.175  1.00  0.00    -0.002 A 
ATOM      9  C   UNL     1       2.438   2.173   1.127  1.00  0.00     0.054 A 
ATOM     10  C   UNL     1       0.156   2.997   1.136  1.00  0.00     0.131 A 
ATOM     11  C   UNL     1       2.924   3.474   1.013  1.00  0.00     0.130 A 
ATOM     12  C   UNL     1       0.638   4.298   1.013  1.00  0.00     0.021 A 
ATOM     13  O   UNL     1      -1.172   2.728   1.293  1.00  0.00    -0.475 OA
ATOM     14  C   UNL     1       2.016   4.531   0.949  1.00  0.00     0.058 A 
ATOM     15  C   UNL     1      -0.283   5.420   1.045  1.00  0.00     0.025 C 
ATOM     16  C   UNL     1      -2.148   3.775   1.019  1.00  0.00     0.314 C 
BRANCH   8  17
ATOM     17  C   UNL     1       0.573   0.484   1.266  1.00  0.00     0.036 C 
ATOM     18  C   UNL     1       0.925  -0.312   0.015  1.00  0.00     0.009 C 
ENDBRANCH   8  17
BRANCH  11  19
ATOM     19  O   UNL     1       4.233   3.856   0.969  1.00  0.00    -0.406 OA
BRANCH  19  20
ATOM     20  C   UNL     1       5.219   2.838   0.935  1.00  0.00     0.573 C 
ATOM     21  F   UNL     1       5.191   2.096   2.062  1.00  0.00    -0.132 F 
ATOM     22  F   UNL     1       5.054   2.038  -0.139  1.00  0.00    -0.132 F 
ATOM     23  F   UNL     1       6.435   3.420   0.845  1.00  0.00    -0.132 F 
ENDBRANCH  19  20
ENDBRANCH  11  19
BRANCH  16  24
ATOM     24  C   UNL     1      -3.421   3.426   1.826  1.00  0.00     0.429 C 
ATOM     25  F   UNL     1      -4.559   3.821   1.213  1.00  0.00    -0.167 F 
ATOM     26  F   UNL     1      -3.543   2.079   1.976  1.00  0.00    -0.167 F 
ATOM     27  F   UNL     1      -3.403   3.955   3.071  1.00  0.00    -0.167 F 
ENDBRANCH  16  24
ENDBRANCH   4   7
ENDBRANCH   2   3
ENDBRANCH   1   2
BRANCH   1  28
ATOM     28  C   UNL     1      -1.266  10.302   1.390  1.00  0.00     0.118 C 
BRANCH  28  29
ATOM     29  N   UNL     1      -1.093  11.125   2.580  1.00  0.00    -0.352 N 
ATOM     30  C   UNL     1      -0.562  12.386   2.700  1.00  0.00     0.251 C 
ATOM     31  H   UNL     1      -1.401  10.717   3.421  1.00  0.00     0.163 HD
ATOM     32  O   UNL     1      -0.268  12.827   3.804  1.00  0.00    -0.269 OA
BRANCH  30  33
ATOM     33  C   UNL     1      -0.338  13.203   1.490  1.00  0.00     0.039 A 
ATOM     34  C   UNL     1       0.860  13.910   1.355  1.00  0.00     0.014 A 
ATOM     35  C   UNL     1      -1.317  13.276   0.497  1.00  0.00     0.014 A 
ATOM     36  C   UNL     1       1.105  14.636   0.188  1.00  0.00     0.010 A 
ATOM     37  C   UNL     1      -1.041  13.936  -0.694  1.00  0.00     0.010 A 
ATOM     38  C   UNL     1       0.172  14.621  -0.862  1.00  0.00    -0.014 A 
BRANCH  38  39
ATOM     39  C   UNL     1       0.430  15.307  -2.152  1.00  0.00     0.031 A 
ATOM     40  C   UNL     1      -0.472  16.424  -2.596  1.00  0.00     0.074 A 
ATOM     41  C   UNL     1       1.405  14.856  -2.965  1.00  0.00     0.049 A 
ATOM     42  N   UNL     1      -0.522  17.039  -3.749  1.00  0.00    -0.248 NA
ATOM     43  C   UNL     1      -1.473  16.887  -1.622  1.00  0.00     0.031 C 
ATOM     44  C   UNL     1       2.326  13.761  -2.657  1.00  0.00     0.029 A 
ATOM     45  N   UNL     1       1.765  15.247  -4.230  1.00  0.00    -0.354 N 
ATOM     46  C   UNL     1      -1.570  17.945  -3.647  1.00  0.00     0.074 A 
ATOM     47  C   UNL     1      -2.161  17.764  -2.339  1.00  0.00     0.031 C 
ATOM     48  C   UNL     1       3.152  13.575  -3.699  1.00  0.00     0.029 A 
ATOM     49  C   UNL     1       2.785  14.499  -4.767  1.00  0.00     0.049 A 
ATOM     50  H   UNL     1       1.334  15.992  -4.707  1.00  0.00     0.167 HD
ATOM     51  C   UNL     1      -1.989  18.858  -4.555  1.00  0.00     0.037 A 
ATOM     52  C   UNL     1       3.344  14.539  -5.991  1.00  0.00     0.037 A 
ATOM     53  C   UNL     1      -1.385  19.042  -5.848  1.00  0.00     0.049 A 
ATOM     54  C   UNL     1       2.838  15.537  -6.996  1.00  0.00     0.074 A 
ATOM     55  C   UNL     1      -1.703  19.970  -6.824  1.00  0.00     0.029 A 
ATOM     56  N   UNL     1      -0.340  18.277  -6.348  1.00  0.00    -0.354 N 
ATOM     57  N   UNL     1       1.881  16.424  -6.870  1.00  0.00    -0.248 NA
ATOM     58  C   UNL     1       3.489  15.542  -8.314  1.00  0.00     0.031 C 
ATOM     59  C   UNL     1      -0.887  19.733  -7.934  1.00  0.00     0.029 A 
ATOM     60  C   UNL     1      -0.018  18.698  -7.627  1.00  0.00     0.049 A 
ATOM     61  H   UNL     1       0.105  17.544  -5.864  1.00  0.00     0.167 HD
ATOM     62  C   UNL     1       1.842  17.117  -8.073  1.00  0.00     0.074 A 
ATOM     63  C   UNL     1       2.874  16.550  -8.915  1.00  0.00     0.031 C 
ATOM     64  C   UNL     1       1.027  18.135  -8.444  1.00  0.00     0.037 A 
BRANCH  51  65
ATOM     65  C   UNL     1      -3.159  19.722  -4.182  1.00  0.00     0.057 A 
ATOM     66  C   UNL     1      -3.070  20.700  -3.182  1.00  0.00     0.134 A 
ATOM     67  C   UNL     1      -4.383  19.597  -4.852  1.00  0.00     0.134 A 
ATOM     68  F   UNL     1      -1.931  20.865  -2.493  1.00  0.00    -0.206 F 
ATOM     69  C   UNL     1      -4.163  21.499  -2.840  1.00  0.00     0.040 A 
ATOM     70  C   UNL     1      -5.473  20.412  -4.541  1.00  0.00     0.040 A 
ATOM     71  F   UNL     1      -4.538  18.687  -5.826  1.00  0.00    -0.206 F 
ATOM     72  C   UNL     1      -5.367  21.360  -3.526  1.00  0.00     0.006 A 
ENDBRANCH  51  65
BRANCH  52  73
ATOM     73  C   UNL     1       4.454  13.612  -6.335  1.00  0.00     0.057 A 
ATOM     74  C   UNL     1       5.754  14.090  -6.538  1.00  0.00     0.134 A 
ATOM     75  C   UNL     1       4.245  12.235  -6.477  1.00  0.00     0.134 A 
ATOM     76  F   UNL     1       6.014  15.401  -6.433  1.00  0.00    -0.206 F 
ATOM     77  C   UNL     1       6.800  13.237  -6.893  1.00  0.00     0.040 A 
ATOM     78  C   UNL     1       5.288  11.366  -6.804  1.00  0.00     0.040 A 
ATOM     79  F   UNL     1       3.025  11.710  -6.285  1.00  0.00    -0.206 F 
ATOM     80  C   UNL     1       6.569  11.869  -7.022  1.00  0.00     0.006 A 
ENDBRANCH  52  73
BRANCH  64  81
ATOM     81  C   UNL     1       1.252  18.745  -9.798  1.00  0.00     0.057 A 
ATOM     82  C   UNL     1       0.908  18.080 -10.981  1.00  0.00     0.134 A 
ATOM     83  C   UNL     1       1.762  20.045  -9.910  1.00  0.00     0.134 A 
ATOM     84  F   UNL     1       0.426  16.829 -10.943  1.00  0.00    -0.206 F 
ATOM     85  C   UNL     1       1.077  18.682 -12.229  1.00  0.00     0.040 A 
ATOM     86  C   UNL     1       1.909  20.668 -11.150  1.00  0.00     0.040 A 
ATOM     87  F   UNL     1       2.104  20.740  -8.815  1.00  0.00    -0.206 F 
ATOM     88  C   UNL     1       1.569  19.984 -12.315  1.00  0.00     0.006 A 
ENDBRANCH  64  81
ENDBRANCH  38  39
ENDBRANCH  30  33
ENDBRANCH  28  29
ENDBRANCH   1  28
TORSDOF 14
