REMARK SMILES C[C@H]1OCC[C@H]1C(=O)N1CCCC[C@@H]1CC(=O)NCCCNC(=O)c1ccc(-c2c3nc(c(-c4c(F)cccc4F)c4ccc([nH]4)c(-c4c(F)cccc4F)c4nc(c(-c5c(F)cccc5F)c5ccc2[nH]5)C=C4)C=C3)cc1
REMARK SMILES IDX 19 1 18 2 16 3 17 4 15 6 14 7 9 8 10 9 11 10 13 11 12 12
REMARK SMILES IDX 7 13 8 14 6 15 1 16 2 17 3 18 4 19 5 20 20 21 21 22 22 23
REMARK SMILES IDX 23 24 24 26 25 27 26 28 78 29 27 30 77 31 28 32 29 33 30 34
REMARK SMILES IDX 71 35 31 36 76 37 70 38 72 39 32 40 75 41 69 42 68 43 33 45
REMARK SMILES IDX 59 46 42 47 58 48 43 49 46 50 57 51 73 52 44 53 45 54 56 56
REMARK SMILES IDX 74 57 47 58 34 59 35 60 40 61 36 62 37 63 39 64 41 65 38 66
REMARK SMILES IDX 60 67 61 68 66 69 62 70 63 71 65 72 67 73 64 74 48 75 49 76
REMARK SMILES IDX 54 77 50 78 51 79 53 80 55 81 52 82
REMARK H PARENT 18 5 22 25 72 44 46 55
REMARK Flexibility Score: inf
ROOT
ATOM      1  C   UNL     1       4.691   0.825  -3.230  1.00  0.00     0.117 C 
ENDROOT
BRANCH   1   2
ATOM      2  N   UNL     1       3.929   1.928  -2.661  1.00  0.00    -0.356 N 
ATOM      3  C   UNL     1       2.640   1.985  -2.230  1.00  0.00     0.222 C 
ATOM      4  O   UNL     1       2.127   3.092  -2.064  1.00  0.00    -0.275 OA
ATOM      5  H   UNL     1       4.430   2.772  -2.574  1.00  0.00     0.163 HD
BRANCH   3   6
ATOM      6  C   UNL     1       1.889   0.718  -1.918  1.00  0.00     0.125 C 
BRANCH   6   7
ATOM      7  C   UNL     1       0.775   0.371  -2.915  1.00  0.00     0.094 C 
ATOM      8  N   UNL     1      -0.110  -0.725  -2.449  1.00  0.00    -0.339 N 
ATOM      9  C   UNL     1      -1.060  -1.242  -3.432  1.00  0.00     0.120 C 
ATOM     10  C   UNL     1      -0.361  -1.670  -4.718  1.00  0.00     0.022 C 
ATOM     11  C   UNL     1       1.380   0.068  -4.293  1.00  0.00     0.026 C 
ATOM     12  C   UNL     1       0.393  -0.490  -5.308  1.00  0.00     0.004 C 
BRANCH   8  13
ATOM     13  C   UNL     1       0.313  -1.624  -1.483  1.00  0.00     0.228 C 
ATOM     14  O   UNL     1       1.208  -2.436  -1.714  1.00  0.00    -0.274 OA
BRANCH  13  15
ATOM     15  C   UNL     1      -0.391  -1.560  -0.118  1.00  0.00     0.109 C 
ATOM     16  C   UNL     1       1.899  -0.955   1.052  1.00  0.00     0.039 C 
ATOM     17  C   UNL     1       0.381  -0.839   0.989  1.00  0.00     0.127 C 
ATOM     18  O   UNL     1      -0.015   0.546   0.931  1.00  0.00    -0.378 OA
ATOM     19  C   UNL     1      -1.253   0.637   0.215  1.00  0.00     0.161 C 
ATOM     20  C   UNL     1      -1.697  -0.781  -0.085  1.00  0.00     0.044 C 
ENDBRANCH  13  15
ENDBRANCH   8  13
ENDBRANCH   6   7
ENDBRANCH   3   6
ENDBRANCH   1   2
BRANCH   1  21
ATOM     21  C   UNL     1       4.756   0.930  -4.752  1.00  0.00     0.042 C 
BRANCH  21  22
ATOM     22  C   UNL     1       5.438   2.201  -5.240  1.00  0.00     0.118 C 
BRANCH  22  23
ATOM     23  N   UNL     1       6.865   2.009  -5.411  1.00  0.00    -0.352 N 
ATOM     24  C   UNL     1       7.587   1.945  -6.580  1.00  0.00     0.251 C 
ATOM     25  H   UNL     1       7.386   1.912  -4.581  1.00  0.00     0.163 HD
ATOM     26  O   UNL     1       8.736   1.518  -6.571  1.00  0.00    -0.269 OA
BRANCH  24  27
ATOM     27  C   UNL     1       6.965   2.374  -7.854  1.00  0.00     0.039 A 
ATOM     28  C   UNL     1       7.147   1.589  -8.995  1.00  0.00     0.014 A 
ATOM     29  C   UNL     1       6.217   3.553  -7.927  1.00  0.00     0.014 A 
ATOM     30  C   UNL     1       6.537   1.961 -10.196  1.00  0.00     0.010 A 
ATOM     31  C   UNL     1       5.540   3.875  -9.100  1.00  0.00     0.010 A 
ATOM     32  C   UNL     1       5.705   3.091 -10.252  1.00  0.00    -0.014 A 
BRANCH  32  33
ATOM     33  C   UNL     1       5.021   3.490 -11.509  1.00  0.00     0.031 A 
ATOM     34  C   UNL     1       5.345   4.811 -12.154  1.00  0.00     0.074 A 
ATOM     35  C   UNL     1       4.068   2.698 -12.038  1.00  0.00     0.049 A 
ATOM     36  N   UNL     1       4.799   5.379 -13.199  1.00  0.00    -0.248 NA
ATOM     37  C   UNL     1       6.404   5.614 -11.521  1.00  0.00     0.031 C 
ATOM     38  C   UNL     1       3.633   1.413 -11.489  1.00  0.00     0.029 A 
ATOM     39  N   UNL     1       3.285   2.865 -13.153  1.00  0.00    -0.354 N 
ATOM     40  C   UNL     1       5.433   6.608 -13.336  1.00  0.00     0.074 A 
ATOM     41  C   UNL     1       6.365   6.728 -12.237  1.00  0.00     0.031 C 
ATOM     42  C   UNL     1       2.679   0.897 -12.280  1.00  0.00     0.029 A 
ATOM     43  C   UNL     1       2.404   1.832 -13.368  1.00  0.00     0.049 A 
ATOM     44  H   UNL     1       3.348   3.650 -13.743  1.00  0.00     0.167 HD
ATOM     45  C   UNL     1       5.272   7.542 -14.303  1.00  0.00     0.037 A 
ATOM     46  C   UNL     1       1.474   1.662 -14.326  1.00  0.00     0.037 A 
ATOM     47  C   UNL     1       4.368   7.406 -15.415  1.00  0.00     0.049 A 
ATOM     48  C   UNL     1       1.304   2.720 -15.382  1.00  0.00     0.074 A 
ATOM     49  C   UNL     1       4.181   8.265 -16.483  1.00  0.00     0.029 A 
ATOM     50  N   UNL     1       3.500   6.341 -15.600  1.00  0.00    -0.354 N 
ATOM     51  N   UNL     1       1.955   3.848 -15.534  1.00  0.00    -0.248 NA
ATOM     52  C   UNL     1       0.270   2.482 -16.399  1.00  0.00     0.031 C 
ATOM     53  C   UNL     1       3.168   7.741 -17.292  1.00  0.00     0.029 A 
ATOM     54  C   UNL     1       2.757   6.533 -16.752  1.00  0.00     0.049 A 
ATOM     55  H   UNL     1       3.424   5.563 -15.001  1.00  0.00     0.167 HD
ATOM     56  C   UNL     1       1.428   4.441 -16.674  1.00  0.00     0.074 A 
ATOM     57  C   UNL     1       0.413   3.542 -17.183  1.00  0.00     0.031 C 
ATOM     58  C   UNL     1       1.754   5.625 -17.247  1.00  0.00     0.037 A 
BRANCH  45  59
ATOM     59  C   UNL     1       6.098   8.791 -14.204  1.00  0.00     0.057 A 
ATOM     60  C   UNL     1       7.481   8.781 -14.426  1.00  0.00     0.134 A 
ATOM     61  C   UNL     1       5.499  10.024 -13.915  1.00  0.00     0.134 A 
ATOM     62  F   UNL     1       8.119   7.631 -14.695  1.00  0.00    -0.206 F 
ATOM     63  C   UNL     1       8.244   9.947 -14.336  1.00  0.00     0.040 A 
ATOM     64  C   UNL     1       6.247  11.201 -13.850  1.00  0.00     0.040 A 
ATOM     65  F   UNL     1       4.178  10.107 -13.699  1.00  0.00    -0.206 F 
ATOM     66  C   UNL     1       7.625  11.163 -14.054  1.00  0.00     0.006 A 
ENDBRANCH  45  59
BRANCH  46  67
ATOM     67  C   UNL     1       0.640   0.434 -14.344  1.00  0.00     0.057 A 
ATOM     68  C   UNL     1       0.808  -0.537 -15.338  1.00  0.00     0.134 A 
ATOM     69  C   UNL     1      -0.346   0.203 -13.378  1.00  0.00     0.134 A 
ATOM     70  F   UNL     1       1.723  -0.363 -16.303  1.00  0.00    -0.206 F 
ATOM     71  C   UNL     1       0.016  -1.685 -15.380  1.00  0.00     0.040 A 
ATOM     72  C   UNL     1      -1.130  -0.952 -13.394  1.00  0.00     0.040 A 
ATOM     73  F   UNL     1      -0.553   1.093 -12.395  1.00  0.00    -0.206 F 
ATOM     74  C   UNL     1      -0.954  -1.897 -14.402  1.00  0.00     0.006 A 
ENDBRANCH  46  67
BRANCH  58  75
ATOM     75  C   UNL     1       1.027   6.006 -18.502  1.00  0.00     0.057 A 
ATOM     76  C   UNL     1      -0.306   6.434 -18.479  1.00  0.00     0.134 A 
ATOM     77  C   UNL     1       1.684   5.994 -19.738  1.00  0.00     0.134 A 
ATOM     78  F   UNL     1      -0.994   6.455 -17.328  1.00  0.00    -0.206 F 
ATOM     79  C   UNL     1      -0.965   6.824 -19.646  1.00  0.00     0.040 A 
ATOM     80  C   UNL     1       1.044   6.405 -20.908  1.00  0.00     0.040 A 
ATOM     81  F   UNL     1       2.964   5.602 -19.826  1.00  0.00    -0.206 F 
ATOM     82  C   UNL     1      -0.287   6.818 -20.864  1.00  0.00     0.006 A 
ENDBRANCH  58  75
ENDBRANCH  32  33
ENDBRANCH  24  27
ENDBRANCH  22  23
ENDBRANCH  21  22
ENDBRANCH   1  21
TORSDOF 13
