REMARK SMILES C[C@@H](Oc1cncc(C(=O)NCCCNC(=O)c2ccc(-c3c4nc(c(-c5c(F)cccc5F)c5ccc([nH]5)c(-c5c(F)cccc5F)c5nc(c(-c6c(F)cccc6F)c6ccc3[nH]6)C=C5)C=C4)cc2)n1)C(F)(F)F
REMARK SMILES IDX 12 1 11 2 9 3 10 4 8 6 4 7 5 8 72 9 6 10 7 11 3 12 2 13 1 14
REMARK SMILES IDX 73 15 74 16 75 17 76 18 13 19 14 20 15 21 16 22 17 24 18 25
REMARK SMILES IDX 19 26 71 27 20 28 70 29 21 30 22 31 23 32 64 33 24 34 69 35
REMARK SMILES IDX 63 36 65 37 25 38 68 39 62 40 61 41 26 43 52 44 35 45 51 46
REMARK SMILES IDX 36 47 39 48 50 49 66 50 37 51 38 52 49 54 67 55 40 56 27 57
REMARK SMILES IDX 28 58 33 59 29 60 30 61 32 62 34 63 31 64 53 65 54 66 59 67
REMARK SMILES IDX 55 68 56 69 58 70 60 71 57 72 41 73 42 74 47 75 43 76 44 77
REMARK SMILES IDX 46 78 48 79 45 80
REMARK H PARENT 11 5 15 23 65 42 39 53
REMARK Flexibility Score: inf
ROOT
ATOM      1  C   UNL     1       2.295   0.541   6.322  1.00  0.00     0.118 C 
ENDROOT
BRANCH   1   2
ATOM      2  N   UNL     1       3.742   0.529   6.202  1.00  0.00    -0.351 N 
ATOM      3  C   UNL     1       4.571   0.512   5.107  1.00  0.00     0.271 C 
ATOM      4  O   UNL     1       5.784   0.455   5.323  1.00  0.00    -0.267 OA
ATOM      5  H   UNL     1       4.217   0.534   7.064  1.00  0.00     0.163 HD
BRANCH   3   6
ATOM      6  C   UNL     1       4.090   0.611   3.698  1.00  0.00     0.150 A 
ATOM      7  C   UNL     1       2.445   0.747   2.114  1.00  0.00     0.233 A 
ATOM      8  C   UNL     1       3.390   1.103   1.159  1.00  0.00     0.179 A 
ATOM      9  N   UNL     1       2.768   0.489   3.400  1.00  0.00    -0.205 NA
ATOM     10  N   UNL     1       4.713   1.155   1.428  1.00  0.00    -0.257 NA
ATOM     11  C   UNL     1       5.039   0.912   2.723  1.00  0.00     0.145 A 
BRANCH   7  12
ATOM     12  O   UNL     1       1.109   0.846   1.830  1.00  0.00    -0.464 OA
BRANCH  12  13
ATOM     13  C   UNL     1       0.579  -0.346   1.215  1.00  0.00     0.277 C 
ATOM     14  C   UNL     1       0.705  -0.228  -0.306  1.00  0.00     0.063 C 
BRANCH  13  15
ATOM     15  C   UNL     1      -0.900  -0.484   1.592  1.00  0.00     0.425 C 
ATOM     16  F   UNL     1      -1.452  -1.564   0.987  1.00  0.00    -0.167 F 
ATOM     17  F   UNL     1      -1.062  -0.649   2.923  1.00  0.00    -0.167 F 
ATOM     18  F   UNL     1      -1.618   0.598   1.215  1.00  0.00    -0.167 F 
ENDBRANCH  13  15
ENDBRANCH  12  13
ENDBRANCH   7  12
ENDBRANCH   3   6
ENDBRANCH   1   2
BRANCH   1  19
ATOM     19  C   UNL     1       1.765  -0.833   6.721  1.00  0.00     0.042 C 
BRANCH  19  20
ATOM     20  C   UNL     1       2.178  -1.263   8.130  1.00  0.00     0.118 C 
BRANCH  20  21
ATOM     21  N   UNL     1       1.619  -0.400   9.164  1.00  0.00    -0.352 N 
ATOM     22  C   UNL     1       0.821  -0.699  10.236  1.00  0.00     0.251 C 
ATOM     23  H   UNL     1       1.853   0.552   9.077  1.00  0.00     0.163 HD
ATOM     24  O   UNL     1       0.300   0.215  10.875  1.00  0.00    -0.269 OA
BRANCH  22  25
ATOM     25  C   UNL     1       0.572  -2.100  10.635  1.00  0.00     0.039 A 
ATOM     26  C   UNL     1      -0.711  -2.455  11.067  1.00  0.00     0.014 A 
ATOM     27  C   UNL     1       1.599  -3.048  10.650  1.00  0.00     0.014 A 
ATOM     28  C   UNL     1      -0.972  -3.766  11.471  1.00  0.00     0.010 A 
ATOM     29  C   UNL     1       1.321  -4.371  10.987  1.00  0.00     0.010 A 
ATOM     30  C   UNL     1       0.037  -4.741  11.414  1.00  0.00    -0.014 A 
BRANCH  30  31
ATOM     31  C   UNL     1      -0.232  -6.144  11.818  1.00  0.00     0.031 A 
ATOM     32  C   UNL     1       0.459  -6.732  13.018  1.00  0.00     0.074 A 
ATOM     33  C   UNL     1      -1.061  -6.904  11.078  1.00  0.00     0.049 A 
ATOM     34  N   UNL     1       0.393  -7.949  13.497  1.00  0.00    -0.248 NA
ATOM     35  C   UNL     1       1.365  -5.843  13.762  1.00  0.00     0.031 C 
ATOM     36  C   UNL     1      -1.756  -6.467   9.866  1.00  0.00     0.029 A 
ATOM     37  N   UNL     1      -1.453  -8.210  11.234  1.00  0.00    -0.354 N 
ATOM     38  C   UNL     1       1.260  -7.975  14.583  1.00  0.00     0.074 A 
ATOM     39  C   UNL     1       1.876  -6.669  14.663  1.00  0.00     0.031 C 
ATOM     40  C   UNL     1      -2.507  -7.478   9.402  1.00  0.00     0.029 A 
ATOM     41  C   UNL     1      -2.324  -8.642  10.264  1.00  0.00     0.049 A 
ATOM     42  H   UNL     1      -1.141  -8.782  11.971  1.00  0.00     0.167 HD
ATOM     43  C   UNL     1       1.504  -8.988  15.449  1.00  0.00     0.037 A 
ATOM     44  C   UNL     1      -2.908  -9.842  10.089  1.00  0.00     0.037 A 
ATOM     45  C   UNL     1       0.867 -10.278  15.388  1.00  0.00     0.049 A 
ATOM     46  C   UNL     1      -2.637 -10.943  11.075  1.00  0.00     0.074 A 
ATOM     47  C   UNL     1       1.004 -11.351  16.251  1.00  0.00     0.029 A 
ATOM     48  N   UNL     1      -0.032 -10.667  14.407  1.00  0.00    -0.354 N 
ATOM     49  N   UNL     1      -1.861 -10.935  12.131  1.00  0.00    -0.248 NA
ATOM     50  C   UNL     1      -3.333 -12.218  10.849  1.00  0.00     0.031 C 
ATOM     51  C   UNL     1       0.213 -12.401  15.774  1.00  0.00     0.029 A 
ATOM     52  C   UNL     1      -0.449 -11.968  14.636  1.00  0.00     0.049 A 
ATOM     53  H   UNL     1      -0.331 -10.102  13.658  1.00  0.00     0.167 HD
ATOM     54  C   UNL     1      -1.996 -12.190  12.711  1.00  0.00     0.074 A 
ATOM     55  C   UNL     1      -2.939 -12.928  11.897  1.00  0.00     0.031 C 
ATOM     56  C   UNL     1      -1.393 -12.686  13.819  1.00  0.00     0.037 A 
BRANCH  43  57
ATOM     57  C   UNL     1       2.501  -8.735  16.542  1.00  0.00     0.057 A 
ATOM     58  C   UNL     1       2.221  -7.875  17.612  1.00  0.00     0.134 A 
ATOM     59  C   UNL     1       3.747  -9.374  16.537  1.00  0.00     0.134 A 
ATOM     60  F   UNL     1       1.050  -7.221  17.670  1.00  0.00    -0.206 F 
ATOM     61  C   UNL     1       3.154  -7.638  18.623  1.00  0.00     0.040 A 
ATOM     62  C   UNL     1       4.678  -9.166  17.556  1.00  0.00     0.040 A 
ATOM     63  F   UNL     1       4.078 -10.215  15.546  1.00  0.00    -0.206 F 
ATOM     64  C   UNL     1       4.385  -8.289  18.599  1.00  0.00     0.006 A 
ENDBRANCH  43  57
BRANCH  44  65
ATOM     65  C   UNL     1      -3.837 -10.055   8.952  1.00  0.00     0.057 A 
ATOM     66  C   UNL     1      -5.215 -10.184   9.163  1.00  0.00     0.134 A 
ATOM     67  C   UNL     1      -3.374 -10.140   7.634  1.00  0.00     0.134 A 
ATOM     68  F   UNL     1      -5.715 -10.129  10.406  1.00  0.00    -0.206 F 
ATOM     69  C   UNL     1      -6.098 -10.409   8.106  1.00  0.00     0.040 A 
ATOM     70  C   UNL     1      -4.248 -10.342   6.565  1.00  0.00     0.040 A 
ATOM     71  F   UNL     1      -2.066 -10.017   7.366  1.00  0.00    -0.206 F 
ATOM     72  C   UNL     1      -5.615 -10.485   6.801  1.00  0.00     0.006 A 
ENDBRANCH  44  65
BRANCH  56  73
ATOM     73  C   UNL     1      -1.764 -14.080  14.231  1.00  0.00     0.057 A 
ATOM     74  C   UNL     1      -1.325 -15.203  13.519  1.00  0.00     0.134 A 
ATOM     75  C   UNL     1      -2.554 -14.300  15.367  1.00  0.00     0.134 A 
ATOM     76  F   UNL     1      -0.578 -15.059  12.414  1.00  0.00    -0.206 F 
ATOM     77  C   UNL     1      -1.680 -16.496  13.907  1.00  0.00     0.040 A 
ATOM     78  C   UNL     1      -2.894 -15.589  15.779  1.00  0.00     0.040 A 
ATOM     79  F   UNL     1      -3.000 -13.267  16.097  1.00  0.00    -0.206 F 
ATOM     80  C   UNL     1      -2.463 -16.691  15.044  1.00  0.00     0.006 A 
ENDBRANCH  56  73
ENDBRANCH  30  31
ENDBRANCH  22  25
ENDBRANCH  20  21
ENDBRANCH  19  20
ENDBRANCH   1  19
TORSDOF 13
