REMARK SMILES O=C(NCCCNC(=O)[C@@H]1CCCC[C@H]1C(=O)Nc1ncccn1)c1ccc(-c2c3nc(c(-c4c(F)cccc4F)c4ccc([nH]4)c(-c4c(F)cccc4F)c4nc(c(-c5c(F)cccc5F)c5ccc2[nH]5)C=C4)C=C3)cc1
REMARK SMILES IDX 5 1 4 2 3 3 1 4 2 5 25 7 26 8 78 9 27 10 77 11 28 12 29 13
REMARK SMILES IDX 30 14 71 15 31 16 76 17 70 18 72 19 32 20 75 21 69 22 68 23
REMARK SMILES IDX 33 25 59 26 42 27 58 28 43 29 46 30 57 31 73 32 44 33 45 34
REMARK SMILES IDX 56 36 74 37 47 38 34 39 35 40 40 41 36 42 37 43 39 44 41 45
REMARK SMILES IDX 38 46 60 47 61 48 66 49 62 50 63 51 65 52 67 53 64 54 48 55
REMARK SMILES IDX 49 56 54 57 50 58 51 59 53 60 55 61 52 62 6 63 7 64 8 65
REMARK SMILES IDX 9 67 10 68 11 69 15 70 12 71 14 72 13 73 16 74 17 75 18 76
REMARK SMILES IDX 19 78 20 79 24 80 21 81 23 82 22 83
REMARK H PARENT 3 6 72 24 46 35 7 66 18 77
REMARK Flexibility Score: inf
ROOT
ATOM      1  C   UNL     1       4.415  -2.414   0.414  1.00  0.00     0.042 C 
ENDROOT
BRANCH   1   2
ATOM      2  C   UNL     1       4.272  -1.382  -0.692  1.00  0.00     0.118 C 
BRANCH   2   3
ATOM      3  N   UNL     1       2.884  -0.954  -0.844  1.00  0.00    -0.352 N 
ATOM      4  O   UNL     1       1.031   0.224  -0.355  1.00  0.00    -0.269 OA
ATOM      5  C   UNL     1       2.263   0.190  -0.420  1.00  0.00     0.251 C 
ATOM      6  H   UNL     1       2.305  -1.587  -1.327  1.00  0.00     0.163 HD
BRANCH   5   7
ATOM      7  C   UNL     1       3.046   1.390  -0.064  1.00  0.00     0.039 A 
ATOM      8  C   UNL     1       4.199   1.719  -0.779  1.00  0.00     0.014 A 
ATOM      9  C   UNL     1       2.579   2.249   0.937  1.00  0.00     0.014 A 
ATOM     10  C   UNL     1       4.956   2.820  -0.409  1.00  0.00     0.010 A 
ATOM     11  C   UNL     1       3.281   3.421   1.232  1.00  0.00     0.010 A 
ATOM     12  C   UNL     1       4.483   3.707   0.568  1.00  0.00    -0.014 A 
BRANCH  12  13
ATOM     13  C   UNL     1       5.217   4.975   0.790  1.00  0.00     0.031 A 
ATOM     14  C   UNL     1       5.867   5.278   2.106  1.00  0.00     0.074 A 
ATOM     15  C   UNL     1       5.316   5.839  -0.239  1.00  0.00     0.049 A 
ATOM     16  N   UNL     1       6.568   6.327   2.454  1.00  0.00    -0.248 NA
ATOM     17  C   UNL     1       5.702   4.282   3.176  1.00  0.00     0.031 C 
ATOM     18  C   UNL     1       4.710   5.646  -1.560  1.00  0.00     0.029 A 
ATOM     19  N   UNL     1       5.978   7.033  -0.352  1.00  0.00    -0.354 N 
ATOM     20  C   UNL     1       6.910   6.130   3.784  1.00  0.00     0.074 A 
ATOM     21  C   UNL     1       6.318   4.873   4.191  1.00  0.00     0.031 C 
ATOM     22  C   UNL     1       5.080   6.649  -2.367  1.00  0.00     0.029 A 
ATOM     23  C   UNL     1       5.884   7.593  -1.602  1.00  0.00     0.049 A 
ATOM     24  H   UNL     1       6.473   7.449   0.391  1.00  0.00     0.167 HD
ATOM     25  C   UNL     1       7.655   6.928   4.588  1.00  0.00     0.037 A 
ATOM     26  C   UNL     1       6.377   8.749  -2.079  1.00  0.00     0.037 A 
ATOM     27  C   UNL     1       8.244   8.173   4.165  1.00  0.00     0.049 A 
ATOM     28  C   UNL     1       7.173   9.625  -1.160  1.00  0.00     0.074 A 
ATOM     29  C   UNL     1       9.041   9.042   4.889  1.00  0.00     0.029 A 
ATOM     30  N   UNL     1       8.091   8.732   2.902  1.00  0.00    -0.354 N 
ATOM     31  N   UNL     1       7.513   9.414   0.088  1.00  0.00    -0.248 NA
ATOM     32  C   UNL     1       7.646  10.900  -1.710  1.00  0.00     0.031 C 
ATOM     33  C   UNL     1       9.331  10.148   4.081  1.00  0.00     0.029 A 
ATOM     34  C   UNL     1       8.757   9.945   2.836  1.00  0.00     0.049 A 
ATOM     35  H   UNL     1       7.584   8.325   2.163  1.00  0.00     0.167 HD
ATOM     36  C   UNL     1       8.251  10.524   0.472  1.00  0.00     0.074 A 
ATOM     37  C   UNL     1       8.326  11.394  -0.685  1.00  0.00     0.031 C 
ATOM     38  C   UNL     1       8.814  10.799   1.675  1.00  0.00     0.037 A 
BRANCH  25  39
ATOM     39  C   UNL     1       7.845   6.489   6.012  1.00  0.00     0.057 A 
ATOM     40  C   UNL     1       8.644   5.389   6.353  1.00  0.00     0.134 A 
ATOM     41  C   UNL     1       7.231   7.188   7.060  1.00  0.00     0.134 A 
ATOM     42  F   UNL     1       9.251   4.668   5.398  1.00  0.00    -0.206 F 
ATOM     43  C   UNL     1       8.800   4.983   7.680  1.00  0.00     0.040 A 
ATOM     44  C   UNL     1       7.401   6.807   8.392  1.00  0.00     0.040 A 
ATOM     45  F   UNL     1       6.458   8.254   6.807  1.00  0.00    -0.206 F 
ATOM     46  C   UNL     1       8.182   5.696   8.704  1.00  0.00     0.006 A 
ENDBRANCH  25  39
BRANCH  26  47
ATOM     47  C   UNL     1       6.121   9.132  -3.490  1.00  0.00     0.057 A 
ATOM     48  C   UNL     1       7.152   9.140  -4.435  1.00  0.00     0.134 A 
ATOM     49  C   UNL     1       4.834   9.461  -3.934  1.00  0.00     0.134 A 
ATOM     50  F   UNL     1       8.408   8.847  -4.067  1.00  0.00    -0.206 F 
ATOM     51  C   UNL     1       6.915   9.467  -5.771  1.00  0.00     0.040 A 
ATOM     52  C   UNL     1       4.577   9.763  -5.272  1.00  0.00     0.040 A 
ATOM     53  F   UNL     1       3.801   9.461  -3.079  1.00  0.00    -0.206 F 
ATOM     54  C   UNL     1       5.622   9.771  -6.194  1.00  0.00     0.006 A 
ENDBRANCH  26  47
BRANCH  38  55
ATOM     55  C   UNL     1       9.579  12.084   1.783  1.00  0.00     0.057 A 
ATOM     56  C   UNL     1       8.933  13.326   1.819  1.00  0.00     0.134 A 
ATOM     57  C   UNL     1      10.976  12.075   1.873  1.00  0.00     0.134 A 
ATOM     58  F   UNL     1       7.597  13.402   1.720  1.00  0.00    -0.206 F 
ATOM     59  C   UNL     1       9.653  14.518   1.917  1.00  0.00     0.040 A 
ATOM     60  C   UNL     1      11.705  13.258   1.998  1.00  0.00     0.040 A 
ATOM     61  F   UNL     1      11.653  10.918   1.850  1.00  0.00    -0.206 F 
ATOM     62  C   UNL     1      11.043  14.484   2.013  1.00  0.00     0.006 A 
ENDBRANCH  38  55
ENDBRANCH  12  13
ENDBRANCH   5   7
ENDBRANCH   2   3
ENDBRANCH   1   2
BRANCH   1  63
ATOM     63  C   UNL     1       3.760  -3.745   0.070  1.00  0.00     0.117 C 
BRANCH  63  64
ATOM     64  N   UNL     1       4.602  -4.544  -0.793  1.00  0.00    -0.356 N 
ATOM     65  C   UNL     1       5.500  -5.528  -0.619  1.00  0.00     0.223 C 
ATOM     66  H   UNL     1       4.488  -4.309  -1.743  1.00  0.00     0.163 HD
ATOM     67  O   UNL     1       6.008  -5.916  -1.685  1.00  0.00    -0.275 OA
BRANCH  65  68
ATOM     68  C   UNL     1       5.982  -6.169   0.703  1.00  0.00     0.091 C 
ATOM     69  C   UNL     1       5.979  -7.695   0.398  1.00  0.00     0.014 C 
ATOM     70  C   UNL     1       5.311  -5.853   2.056  1.00  0.00     0.091 C 
ATOM     71  C   UNL     1       6.233  -8.613   1.582  1.00  0.00     0.001 C 
ATOM     72  C   UNL     1       5.426  -6.911   3.177  1.00  0.00     0.014 C 
ATOM     73  C   UNL     1       5.243  -8.331   2.691  1.00  0.00     0.001 C 
BRANCH  70  74
ATOM     74  C   UNL     1       5.682  -4.517   2.717  1.00  0.00     0.230 C 
ATOM     75  O   UNL     1       4.778  -3.699   2.943  1.00  0.00    -0.274 OA
ATOM     76  N   UNL     1       6.888  -4.205   3.242  1.00  0.00    -0.294 N 
ATOM     77  H   UNL     1       6.923  -3.308   3.648  1.00  0.00     0.173 HD
BRANCH  76  78
ATOM     78  C   UNL     1       8.079  -4.896   3.321  1.00  0.00     0.229 A 
ATOM     79  N   UNL     1       8.860  -4.536   4.348  1.00  0.00    -0.221 NA
ATOM     80  N   UNL     1       8.372  -5.880   2.472  1.00  0.00    -0.221 NA
ATOM     81  C   UNL     1       9.959  -5.285   4.559  1.00  0.00     0.117 A 
ATOM     82  C   UNL     1       9.517  -6.554   2.676  1.00  0.00     0.117 A 
ATOM     83  C   UNL     1      10.344  -6.318   3.742  1.00  0.00     0.040 A 
ENDBRANCH  76  78
ENDBRANCH  70  74
ENDBRANCH  65  68
ENDBRANCH  63  64
ENDBRANCH   1  63
TORSDOF 12
