REMARK SMILES CN1C(=O)/C(=C\c2ccc(-c3ccccc3C(=O)NCCCNC(=O)c3ccc(-c4c5nc(c(-c6c(F)cccc6F)c6ccc([nH]6)c(-c6c(F)cccc6F)c6nc(c(-c7c(F)cccc7F)c7ccc4[nH]7)C=C6)C=C5)cc3)o2)C(=O)[NH+]=C1S
REMARK SMILES IDX 20 1 19 2 17 3 18 4 16 6 11 7 12 8 13 9 15 10 14 11 10 12
REMARK SMILES IDX 7 13 8 14 80 15 9 16 6 17 1 18 2 19 3 20 84 21 4 22 5 23
REMARK SMILES IDX 83 24 81 25 82 27 85 28 21 30 22 31 23 32 24 33 25 35 26 36
REMARK SMILES IDX 27 37 79 38 28 39 78 40 29 41 30 42 31 43 72 44 32 45 77 46
REMARK SMILES IDX 71 47 73 48 33 49 76 50 70 51 69 52 34 54 60 55 43 56 59 57
REMARK SMILES IDX 44 58 47 59 58 60 74 61 45 62 46 63 57 65 75 66 48 67 35 68
REMARK SMILES IDX 36 69 41 70 37 71 38 72 40 73 42 74 39 75 61 76 62 77 67 78
REMARK SMILES IDX 63 79 64 80 66 81 68 82 65 83 49 84 50 85 55 86 51 87 52 88
REMARK SMILES IDX 54 89 56 90 53 91
REMARK H PARENT 19 5 83 26 85 29 23 34 73 53 47 64
REMARK Flexibility Score: inf
ROOT
ATOM      1  C   UNL     1      -2.519  -4.152  -4.963  1.00  0.00     0.118 C 
ENDROOT
BRANCH   1   2
ATOM      2  N   UNL     1      -2.869  -5.538  -5.020  1.00  0.00    -0.352 N 
ATOM      3  C   UNL     1      -2.041  -6.623  -4.817  1.00  0.00     0.252 C 
ATOM      4  O   UNL     1      -2.607  -7.718  -4.727  1.00  0.00    -0.269 OA
ATOM      5  H   UNL     1      -3.809  -5.741  -5.228  1.00  0.00     0.163 HD
BRANCH   3   6
ATOM      6  C   UNL     1      -0.526  -6.598  -4.803  1.00  0.00     0.050 A 
ATOM      7  C   UNL     1       0.379  -5.639  -4.287  1.00  0.00     0.030 A 
ATOM      8  C   UNL     1       1.771  -5.857  -4.425  1.00  0.00     0.013 A 
ATOM      9  C   UNL     1       2.281  -7.013  -5.010  1.00  0.00     0.001 A 
ATOM     10  C   UNL     1       0.029  -7.766  -5.386  1.00  0.00     0.014 A 
ATOM     11  C   UNL     1       1.407  -7.976  -5.482  1.00  0.00     0.001 A 
BRANCH   7  12
ATOM     12  C   UNL     1       0.034  -4.421  -3.573  1.00  0.00     0.135 A 
ATOM     13  C   UNL     1      -0.155  -2.199  -3.503  1.00  0.00     0.128 A 
ATOM     14  C   UNL     1      -0.726  -2.726  -2.346  1.00  0.00     0.051 A 
ATOM     15  O   UNL     1       0.327  -3.258  -4.236  1.00  0.00    -0.457 OA
ATOM     16  C   UNL     1      -0.560  -4.133  -2.369  1.00  0.00     0.051 A 
BRANCH  13  17
ATOM     17  C   UNL     1      -0.103  -0.844  -3.942  1.00  0.00     0.071 C 
ATOM     18  C   UNL     1       1.159   0.552   0.427  1.00  0.00     0.301 C 
ATOM     19  N   UNL     1       0.881   0.917  -0.955  1.00  0.00    -0.189 N 
ATOM     20  C   UNL     1       1.007  -0.101  -1.867  1.00  0.00     0.349 C 
ATOM     21  C   UNL     1       0.713   2.193  -1.424  1.00  0.00     0.318 C 
ATOM     22  O   UNL     1       1.664  -1.114  -1.642  1.00  0.00    -0.240 OA
ATOM     23  C   UNL     1       0.351   0.153  -3.160  1.00  0.00     0.157 C 
ATOM     24  N   UNL     1       0.411   2.513  -2.630  1.00  0.00    -0.200 N 
ATOM     25  C   UNL     1       0.127   1.558  -3.573  1.00  0.00     0.347 C 
ATOM     26  H   UNL     1       0.382   3.463  -2.884  1.00  0.00     0.316 HD
ATOM     27  O   UNL     1      -0.321   1.838  -4.672  1.00  0.00    -0.241 OA
BRANCH  21  28
ATOM     28  S   UNL     1       0.986   3.517  -0.316  1.00  0.00    -0.055 SA
ATOM     29  H   UNL     1       1.294   3.022   0.913  1.00  0.00     0.116 HD
ENDBRANCH  21  28
ENDBRANCH  13  17
ENDBRANCH   7  12
ENDBRANCH   3   6
ENDBRANCH   1   2
BRANCH   1  30
ATOM     30  C   UNL     1      -3.303  -3.150  -5.771  1.00  0.00     0.042 C 
BRANCH  30  31
ATOM     31  C   UNL     1      -4.581  -2.631  -5.133  1.00  0.00     0.118 C 
BRANCH  31  32
ATOM     32  N   UNL     1      -4.429  -2.041  -3.799  1.00  0.00    -0.352 N 
ATOM     33  C   UNL     1      -4.498  -0.753  -3.312  1.00  0.00     0.251 C 
ATOM     34  H   UNL     1      -4.238  -2.709  -3.101  1.00  0.00     0.163 HD
ATOM     35  O   UNL     1      -4.223  -0.555  -2.129  1.00  0.00    -0.269 OA
BRANCH  33  36
ATOM     36  C   UNL     1      -4.829   0.403  -4.181  1.00  0.00     0.039 A 
ATOM     37  C   UNL     1      -4.287   1.661  -3.893  1.00  0.00     0.014 A 
ATOM     38  C   UNL     1      -5.652   0.269  -5.292  1.00  0.00     0.014 A 
ATOM     39  C   UNL     1      -4.466   2.724  -4.786  1.00  0.00     0.010 A 
ATOM     40  C   UNL     1      -5.679   1.260  -6.261  1.00  0.00     0.010 A 
ATOM     41  C   UNL     1      -5.099   2.511  -6.019  1.00  0.00    -0.014 A 
BRANCH  41  42
ATOM     42  C   UNL     1      -5.202   3.563  -7.066  1.00  0.00     0.031 A 
ATOM     43  C   UNL     1      -6.552   3.925  -7.638  1.00  0.00     0.074 A 
ATOM     44  C   UNL     1      -4.084   4.116  -7.579  1.00  0.00     0.049 A 
ATOM     45  N   UNL     1      -6.845   4.691  -8.660  1.00  0.00    -0.248 NA
ATOM     46  C   UNL     1      -7.731   3.303  -7.010  1.00  0.00     0.031 C 
ATOM     47  C   UNL     1      -2.712   3.812  -7.162  1.00  0.00     0.029 A 
ATOM     48  N   UNL     1      -3.924   5.046  -8.577  1.00  0.00    -0.354 N 
ATOM     49  C   UNL     1      -8.224   4.611  -8.809  1.00  0.00     0.074 A 
ATOM     50  C   UNL     1      -8.704   3.663  -7.831  1.00  0.00     0.031 C 
ATOM     51  C   UNL     1      -1.857   4.568  -7.869  1.00  0.00     0.029 A 
ATOM     52  C   UNL     1      -2.611   5.370  -8.825  1.00  0.00     0.049 A 
ATOM     53  H   UNL     1      -4.679   5.444  -9.068  1.00  0.00     0.167 HD
ATOM     54  C   UNL     1      -9.029   5.295  -9.657  1.00  0.00     0.037 A 
ATOM     55  C   UNL     1      -2.076   6.213  -9.729  1.00  0.00     0.037 A 
ATOM     56  C   UNL     1      -8.555   6.276 -10.595  1.00  0.00     0.049 A 
ATOM     57  C   UNL     1      -2.991   6.965 -10.657  1.00  0.00     0.074 A 
ATOM     58  C   UNL     1      -9.290   7.072 -11.456  1.00  0.00     0.029 A 
ATOM     59  N   UNL     1      -7.221   6.602 -10.785  1.00  0.00    -0.354 N 
ATOM     60  N   UNL     1      -4.299   6.925 -10.743  1.00  0.00    -0.248 NA
ATOM     61  C   UNL     1      -2.355   7.885 -11.610  1.00  0.00     0.031 C 
ATOM     62  C   UNL     1      -8.396   7.848 -12.199  1.00  0.00     0.029 A 
ATOM     63  C   UNL     1      -7.110   7.577 -11.761  1.00  0.00     0.049 A 
ATOM     64  H   UNL     1      -6.465   6.199 -10.299  1.00  0.00     0.167 HD
ATOM     65  C   UNL     1      -4.644   7.841 -11.729  1.00  0.00     0.074 A 
ATOM     66  C   UNL     1      -3.408   8.429 -12.203  1.00  0.00     0.031 C 
ATOM     67  C   UNL     1      -5.872   8.167 -12.201  1.00  0.00     0.037 A 
BRANCH  54  68
ATOM     68  C   UNL     1     -10.506   5.022  -9.589  1.00  0.00     0.057 A 
ATOM     69  C   UNL     1     -11.276   5.393  -8.477  1.00  0.00     0.134 A 
ATOM     70  C   UNL     1     -11.173   4.413 -10.659  1.00  0.00     0.134 A 
ATOM     71  F   UNL     1     -10.699   5.968  -7.411  1.00  0.00    -0.206 F 
ATOM     72  C   UNL     1     -12.648   5.141  -8.420  1.00  0.00     0.040 A 
ATOM     73  C   UNL     1     -12.551   4.186 -10.627  1.00  0.00     0.040 A 
ATOM     74  F   UNL     1     -10.501   4.037 -11.758  1.00  0.00    -0.206 F 
ATOM     75  C   UNL     1     -13.290   4.543  -9.501  1.00  0.00     0.006 A 
ENDBRANCH  54  68
BRANCH  55  76
ATOM     76  C   UNL     1      -0.605   6.417  -9.788  1.00  0.00     0.057 A 
ATOM     77  C   UNL     1      -0.033   7.643  -9.424  1.00  0.00     0.134 A 
ATOM     78  C   UNL     1       0.263   5.412 -10.231  1.00  0.00     0.134 A 
ATOM     79  F   UNL     1      -0.812   8.654  -9.009  1.00  0.00    -0.206 F 
ATOM     80  C   UNL     1       1.340   7.873  -9.527  1.00  0.00     0.040 A 
ATOM     81  C   UNL     1       1.641   5.617 -10.310  1.00  0.00     0.040 A 
ATOM     82  F   UNL     1      -0.217   4.212 -10.589  1.00  0.00    -0.206 F 
ATOM     83  C   UNL     1       2.182   6.855  -9.969  1.00  0.00     0.006 A 
ENDBRANCH  55  76
BRANCH  67  84
ATOM     84  C   UNL     1      -5.946   9.247 -13.240  1.00  0.00     0.057 A 
ATOM     85  C   UNL     1      -5.505   9.047 -14.554  1.00  0.00     0.134 A 
ATOM     86  C   UNL     1      -6.509  10.491 -12.927  1.00  0.00     0.134 A 
ATOM     87  F   UNL     1      -4.946   7.883 -14.915  1.00  0.00    -0.206 F 
ATOM     88  C   UNL     1      -5.598  10.057 -15.513  1.00  0.00     0.040 A 
ATOM     89  C   UNL     1      -6.636  11.496 -13.886  1.00  0.00     0.040 A 
ATOM     90  F   UNL     1      -6.962  10.743 -11.690  1.00  0.00    -0.206 F 
ATOM     91  C   UNL     1      -6.173  11.283 -15.182  1.00  0.00     0.006 A 
ENDBRANCH  67  84
ENDBRANCH  41  42
ENDBRANCH  33  36
ENDBRANCH  31  32
ENDBRANCH  30  31
ENDBRANCH   1  30
TORSDOF 13
