REMARK SMILES CCCC1(CCC)SC[C@@H]2C(=O)N(Cc3ccc(C(=O)NCCCNC(=O)c4ccc(-c5c6nc(c(-c7c(F)cccc7F)c7ccc([nH]7)c(-c7c(F)cccc7F)c7nc(c(-c8c(F)cccc8F)c8ccc5[nH]8)C=C7)C=C6)cc4)cc3)CC(=O)N21
REMARK SMILES IDX 22 1 21 2 19 3 20 4 18 6 15 7 16 8 83 9 17 10 82 11 14 12
REMARK SMILES IDX 13 13 4 14 8 15 87 16 9 17 10 18 85 19 11 20 84 21 86 22
REMARK SMILES IDX 12 23 3 24 2 25 1 26 5 27 6 28 7 29 23 30 24 31 25 32 26 33
REMARK SMILES IDX 27 35 28 36 29 37 81 38 30 39 80 40 31 41 32 42 33 43 74 44
REMARK SMILES IDX 34 45 79 46 73 47 75 48 35 49 78 50 72 51 71 52 36 54 62 55
REMARK SMILES IDX 45 56 61 57 46 58 49 59 60 60 76 61 47 62 48 63 59 65 77 66
REMARK SMILES IDX 50 67 37 68 38 69 43 70 39 71 40 72 42 73 44 74 41 75 63 76
REMARK SMILES IDX 64 77 69 78 65 79 66 80 68 81 70 82 67 83 51 84 52 85 57 86
REMARK SMILES IDX 53 87 54 88 56 89 58 90 55 91
REMARK H PARENT 21 5 25 34 75 53 49 64
REMARK Flexibility Score: inf
ROOT
ATOM      1  C   UNL     1       1.684   9.126  -6.480  1.00  0.00     0.118 C 
ENDROOT
BRANCH   1   2
ATOM      2  N   UNL     1       2.588   8.686  -7.532  1.00  0.00    -0.352 N 
ATOM      3  C   UNL     1       3.523   7.679  -7.539  1.00  0.00     0.251 C 
ATOM      4  O   UNL     1       4.067   7.374  -8.597  1.00  0.00    -0.269 OA
ATOM      5  H   UNL     1       2.518   9.191  -8.374  1.00  0.00     0.163 HD
BRANCH   3   6
ATOM      6  C   UNL     1       3.853   6.926  -6.306  1.00  0.00     0.039 A 
ATOM      7  C   UNL     1       4.428   5.419  -4.003  1.00  0.00    -0.029 A 
ATOM      8  C   UNL     1       4.266   4.783  -5.240  1.00  0.00     0.006 A 
ATOM      9  C   UNL     1       4.348   6.817  -3.946  1.00  0.00     0.006 A 
ATOM     10  C   UNL     1       3.986   5.534  -6.387  1.00  0.00     0.014 A 
ATOM     11  C   UNL     1       4.083   7.566  -5.090  1.00  0.00     0.014 A 
BRANCH   7  12
ATOM     12  C   UNL     1       4.706   4.641  -2.740  1.00  0.00     0.155 C 
BRANCH  12  13
ATOM     13  N   UNL     1       3.512   4.190  -2.035  1.00  0.00    -0.327 N 
ATOM     14  C   UNL     1       0.462   2.557   0.591  1.00  0.00     0.090 C 
ATOM     15  S   UNL     1      -0.070   4.230   1.425  1.00  0.00    -0.131 SA
ATOM     16  N   UNL     1       1.396   3.046  -0.459  1.00  0.00    -0.314 N 
ATOM     17  C   UNL     1       0.782   5.270   0.232  1.00  0.00     0.107 C 
ATOM     18  C   UNL     1       1.930   4.383  -0.193  1.00  0.00     0.186 C 
ATOM     19  C   UNL     1       2.111   2.210  -1.306  1.00  0.00     0.244 C 
ATOM     20  C   UNL     1       2.771   5.078  -1.268  1.00  0.00     0.247 C 
ATOM     21  C   UNL     1       2.914   2.920  -2.407  1.00  0.00     0.220 C 
ATOM     22  O   UNL     1       1.978   1.000  -1.344  1.00  0.00    -0.273 OA
ATOM     23  O   UNL     1       2.986   6.287  -1.230  1.00  0.00    -0.272 OA
BRANCH  14  24
ATOM     24  C   UNL     1       1.196   1.833   1.764  1.00  0.00     0.040 C 
BRANCH  24  25
ATOM     25  C   UNL     1       1.064   0.328   2.000  1.00  0.00    -0.000 C 
ATOM     26  C   UNL     1       1.916  -0.563   1.116  1.00  0.00     0.004 C 
ENDBRANCH  24  25
ENDBRANCH  14  24
BRANCH  14  27
ATOM     27  C   UNL     1      -0.933   2.049   0.120  1.00  0.00     0.040 C 
BRANCH  27  28
ATOM     28  C   UNL     1      -1.110   0.919  -0.903  1.00  0.00    -0.000 C 
ATOM     29  C   UNL     1      -1.555  -0.412  -0.318  1.00  0.00     0.004 C 
ENDBRANCH  27  28
ENDBRANCH  14  27
ENDBRANCH  12  13
ENDBRANCH   7  12
ENDBRANCH   3   6
ENDBRANCH   1   2
BRANCH   1  30
ATOM     30  C   UNL     1       2.095  10.476  -5.894  1.00  0.00     0.042 C 
BRANCH  30  31
ATOM     31  C   UNL     1       1.889  11.652  -6.842  1.00  0.00     0.118 C 
BRANCH  31  32
ATOM     32  N   UNL     1       0.485  11.994  -7.004  1.00  0.00    -0.352 N 
ATOM     33  C   UNL     1      -0.155  13.195  -6.823  1.00  0.00     0.251 C 
ATOM     34  H   UNL     1      -0.095  11.251  -7.287  1.00  0.00     0.163 HD
ATOM     35  O   UNL     1      -1.383  13.232  -6.836  1.00  0.00    -0.269 OA
BRANCH  33  36
ATOM     36  C   UNL     1       0.611  14.443  -6.596  1.00  0.00     0.039 A 
ATOM     37  C   UNL     1       0.128  15.363  -5.659  1.00  0.00     0.014 A 
ATOM     38  C   UNL     1       1.762  14.742  -7.331  1.00  0.00     0.014 A 
ATOM     39  C   UNL     1       0.821  16.554  -5.426  1.00  0.00     0.010 A 
ATOM     40  C   UNL     1       2.486  15.901  -7.055  1.00  0.00     0.010 A 
ATOM     41  C   UNL     1       2.019  16.823  -6.105  1.00  0.00    -0.014 A 
BRANCH  41  42
ATOM     42  C   UNL     1       2.784  18.071  -5.853  1.00  0.00     0.031 A 
ATOM     43  C   UNL     1       2.923  19.103  -6.939  1.00  0.00     0.074 A 
ATOM     44  C   UNL     1       3.398  18.254  -4.668  1.00  0.00     0.049 A 
ATOM     45  N   UNL     1       3.623  20.210  -6.944  1.00  0.00    -0.248 NA
ATOM     46  C   UNL     1       2.197  18.846  -8.193  1.00  0.00     0.031 C 
ATOM     47  C   UNL     1       3.368  17.315  -3.545  1.00  0.00     0.029 A 
ATOM     48  N   UNL     1       4.180  19.288  -4.217  1.00  0.00    -0.354 N 
ATOM     49  C   UNL     1       3.436  20.770  -8.201  1.00  0.00     0.074 A 
ATOM     50  C   UNL     1       2.590  19.863  -8.947  1.00  0.00     0.031 C 
ATOM     51  C   UNL     1       4.088  17.822  -2.531  1.00  0.00     0.029 A 
ATOM     52  C   UNL     1       4.657  19.102  -2.942  1.00  0.00     0.049 A 
ATOM     53  H   UNL     1       4.380  20.087  -4.756  1.00  0.00     0.167 HD
ATOM     54  C   UNL     1       3.909  21.943  -8.685  1.00  0.00     0.037 A 
ATOM     55  C   UNL     1       5.469  19.872  -2.194  1.00  0.00     0.037 A 
ATOM     56  C   UNL     1       4.725  22.862  -7.935  1.00  0.00     0.049 A 
ATOM     57  C   UNL     1       5.976  21.172  -2.753  1.00  0.00     0.074 A 
ATOM     58  C   UNL     1       5.220  24.094  -8.327  1.00  0.00     0.029 A 
ATOM     59  N   UNL     1       5.159  22.651  -6.636  1.00  0.00    -0.354 N 
ATOM     60  N   UNL     1       5.756  21.707  -3.929  1.00  0.00    -0.248 NA
ATOM     61  C   UNL     1       6.839  21.978  -1.878  1.00  0.00     0.031 C 
ATOM     62  C   UNL     1       5.975  24.617  -7.272  1.00  0.00     0.029 A 
ATOM     63  C   UNL     1       5.921  23.727  -6.213  1.00  0.00     0.049 A 
ATOM     64  H   UNL     1       4.955  21.854  -6.094  1.00  0.00     0.167 HD
ATOM     65  C   UNL     1       6.429  22.921  -3.925  1.00  0.00     0.074 A 
ATOM     66  C   UNL     1       7.055  23.051  -2.626  1.00  0.00     0.031 C 
ATOM     67  C   UNL     1       6.522  23.846  -4.911  1.00  0.00     0.037 A 
BRANCH  54  68
ATOM     68  C   UNL     1       3.545  22.309 -10.093  1.00  0.00     0.057 A 
ATOM     69  C   UNL     1       2.252  22.728 -10.432  1.00  0.00     0.134 A 
ATOM     70  C   UNL     1       4.507  22.288 -11.111  1.00  0.00     0.134 A 
ATOM     71  F   UNL     1       1.283  22.758  -9.505  1.00  0.00    -0.206 F 
ATOM     72  C   UNL     1       1.923  23.096 -11.738  1.00  0.00     0.040 A 
ATOM     73  C   UNL     1       4.195  22.675 -12.416  1.00  0.00     0.040 A 
ATOM     74  F   UNL     1       5.765  21.902 -10.852  1.00  0.00    -0.206 F 
ATOM     75  C   UNL     1       2.899  23.077 -12.732  1.00  0.00     0.006 A 
ENDBRANCH  54  68
BRANCH  55  76
ATOM     76  C   UNL     1       5.846  19.445  -0.824  1.00  0.00     0.057 A 
ATOM     77  C   UNL     1       5.343  20.107   0.302  1.00  0.00     0.134 A 
ATOM     78  C   UNL     1       6.733  18.384  -0.607  1.00  0.00     0.134 A 
ATOM     79  F   UNL     1       4.505  21.144   0.156  1.00  0.00    -0.206 F 
ATOM     80  C   UNL     1       5.724  19.744   1.595  1.00  0.00     0.040 A 
ATOM     81  C   UNL     1       7.105  17.996   0.681  1.00  0.00     0.040 A 
ATOM     82  F   UNL     1       7.246  17.706  -1.644  1.00  0.00    -0.206 F 
ATOM     83  C   UNL     1       6.606  18.683   1.786  1.00  0.00     0.006 A 
ENDBRANCH  55  76
BRANCH  67  84
ATOM     84  C   UNL     1       7.293  25.095  -4.607  1.00  0.00     0.057 A 
ATOM     85  C   UNL     1       8.692  25.102  -4.554  1.00  0.00     0.134 A 
ATOM     86  C   UNL     1       6.628  26.310  -4.403  1.00  0.00     0.134 A 
ATOM     87  F   UNL     1       9.385  23.967  -4.728  1.00  0.00    -0.206 F 
ATOM     88  C   UNL     1       9.403  26.274  -4.288  1.00  0.00     0.040 A 
ATOM     89  C   UNL     1       7.329  27.491  -4.158  1.00  0.00     0.040 A 
ATOM     90  F   UNL     1       5.288  26.370  -4.448  1.00  0.00    -0.206 F 
ATOM     91  C   UNL     1       8.721  27.474  -4.095  1.00  0.00     0.006 A 
ENDBRANCH  67  84
ENDBRANCH  41  42
ENDBRANCH  33  36
ENDBRANCH  31  32
ENDBRANCH  30  31
ENDBRANCH   1  30
TORSDOF 16
