REMARK SMILES CN(C)c1nccnc1N1CCC(Oc2ccc3ccccc3c2)(C(=O)NCCCNC(=O)c2ccc(-c3c4nc(c(-c5c(F)cccc5F)c5ccc([nH]5)c(-c5c(F)cccc5F)c5nc(c(-c6c(F)cccc6F)c6ccc3[nH]6)C=C5)C=C4)cc2)CC1
REMARK SMILES IDX 29 1 28 2 27 3 25 4 26 5 13 7 10 8 11 9 89 10 12 11 88 12
REMARK SMILES IDX 9 13 4 14 5 15 6 16 8 17 7 18 2 19 1 20 3 21 14 22 15 23
REMARK SMILES IDX 16 24 24 25 17 26 23 27 18 28 22 29 19 30 21 31 20 32 30 33
REMARK SMILES IDX 31 34 32 35 33 37 34 38 35 39 87 40 36 41 86 42 37 43 38 44
REMARK SMILES IDX 39 45 80 46 40 47 85 48 79 49 81 50 41 51 84 52 78 53 77 54
REMARK SMILES IDX 42 56 68 57 51 58 67 59 52 60 55 61 66 62 82 63 53 64 54 65
REMARK SMILES IDX 65 67 83 68 56 69 43 70 44 71 49 72 45 73 46 74 48 75 50 76
REMARK SMILES IDX 47 77 69 78 70 79 75 80 71 81 72 82 74 83 76 84 73 85 57 86
REMARK SMILES IDX 58 87 63 88 59 89 60 90 62 91 64 92 61 93
REMARK H PARENT 27 6 31 36 81 55 55 66
REMARK Flexibility Score: inf
ROOT
ATOM      1  C   UNL     1      -5.791   4.844  -3.739  1.00  0.00     0.042 C 
ENDROOT
BRANCH   1   2
ATOM      2  C   UNL     1      -6.331   4.238  -2.450  1.00  0.00     0.118 C 
BRANCH   2   3
ATOM      3  N   UNL     1      -5.814   2.900  -2.234  1.00  0.00    -0.353 N 
ATOM      4  C   UNL     1      -4.962   2.418  -1.283  1.00  0.00     0.264 C 
ATOM      5  O   UNL     1      -4.774   1.197  -1.313  1.00  0.00    -0.270 OA
ATOM      6  H   UNL     1      -6.129   2.228  -2.880  1.00  0.00     0.163 HD
BRANCH   4   7
ATOM      7  C   UNL     1      -4.269   3.352  -0.247  1.00  0.00     0.190 C 
ATOM      8  N   UNL     1      -1.494   2.828  -0.706  1.00  0.00    -0.353 N 
ATOM      9  C   UNL     1      -2.196   3.656  -1.657  1.00  0.00     0.123 C 
ATOM     10  C   UNL     1      -2.222   1.841   0.081  1.00  0.00     0.123 C 
ATOM     11  C   UNL     1      -3.337   4.358  -0.949  1.00  0.00     0.080 C 
ATOM     12  C   UNL     1      -3.449   2.483   0.736  1.00  0.00     0.080 C 
BRANCH   8  13
ATOM     13  C   UNL     1      -0.202   3.157  -0.331  1.00  0.00     0.171 A 
ATOM     14  C   UNL     1       0.818   2.158  -0.189  1.00  0.00     0.171 A 
ATOM     15  N   UNL     1       2.041   2.482   0.308  1.00  0.00    -0.234 NA
ATOM     16  C   UNL     1       2.242   3.782   0.612  1.00  0.00     0.134 A 
ATOM     17  N   UNL     1       0.044   4.464  -0.050  1.00  0.00    -0.234 NA
ATOM     18  C   UNL     1       1.272   4.748   0.432  1.00  0.00     0.134 A 
BRANCH  14  19
ATOM     19  N   UNL     1       0.605   0.830  -0.598  1.00  0.00    -0.360 N 
ATOM     20  C   UNL     1       1.419  -0.175   0.055  1.00  0.00     0.145 C 
ATOM     21  C   UNL     1       0.311   0.657  -2.014  1.00  0.00     0.145 C 
ENDBRANCH  14  19
ENDBRANCH   8  13
BRANCH   7  22
ATOM     22  O   UNL     1      -5.418   3.965   0.405  1.00  0.00    -0.477 OA
BRANCH  22  23
ATOM     23  C   UNL     1      -5.165   4.793   1.458  1.00  0.00     0.121 A 
ATOM     24  C   UNL     1      -4.674   6.080   1.272  1.00  0.00     0.047 A 
ATOM     25  C   UNL     1      -5.503   4.348   2.733  1.00  0.00     0.055 A 
ATOM     26  C   UNL     1      -4.369   6.873   2.376  1.00  0.00     0.012 A 
ATOM     27  C   UNL     1      -5.237   5.149   3.854  1.00  0.00    -0.015 A 
ATOM     28  C   UNL     1      -4.629   6.413   3.673  1.00  0.00    -0.018 A 
ATOM     29  C   UNL     1      -5.553   4.720   5.152  1.00  0.00     0.009 A 
ATOM     30  C   UNL     1      -4.307   7.191   4.794  1.00  0.00     0.009 A 
ATOM     31  C   UNL     1      -5.244   5.514   6.257  1.00  0.00     0.001 A 
ATOM     32  C   UNL     1      -4.611   6.741   6.079  1.00  0.00     0.001 A 
ENDBRANCH  22  23
ENDBRANCH   7  22
ENDBRANCH   4   7
ENDBRANCH   2   3
ENDBRANCH   1   2
BRANCH   1  33
ATOM     33  C   UNL     1      -6.252   4.118  -4.995  1.00  0.00     0.118 C 
BRANCH  33  34
ATOM     34  N   UNL     1      -7.688   4.236  -5.211  1.00  0.00    -0.352 N 
ATOM     35  C   UNL     1      -8.376   4.851  -6.225  1.00  0.00     0.251 C 
ATOM     36  H   UNL     1      -8.249   3.808  -4.525  1.00  0.00     0.163 HD
ATOM     37  O   UNL     1      -9.589   5.024  -6.126  1.00  0.00    -0.269 OA
BRANCH  35  38
ATOM     38  C   UNL     1      -7.662   5.327  -7.428  1.00  0.00     0.039 A 
ATOM     39  C   UNL     1      -7.976   6.584  -7.951  1.00  0.00     0.014 A 
ATOM     40  C   UNL     1      -6.692   4.534  -8.046  1.00  0.00     0.014 A 
ATOM     41  C   UNL     1      -7.266   7.075  -9.049  1.00  0.00     0.010 A 
ATOM     42  C   UNL     1      -5.930   5.057  -9.085  1.00  0.00     0.010 A 
ATOM     43  C   UNL     1      -6.210   6.333  -9.600  1.00  0.00    -0.014 A 
BRANCH  43  44
ATOM     44  C   UNL     1      -5.379   6.865 -10.711  1.00  0.00     0.031 A 
ATOM     45  C   UNL     1      -5.343   6.146 -12.033  1.00  0.00     0.074 A 
ATOM     46  C   UNL     1      -4.589   7.938 -10.502  1.00  0.00     0.049 A 
ATOM     47  N   UNL     1      -4.588   6.375 -13.077  1.00  0.00    -0.248 NA
ATOM     48  C   UNL     1      -6.256   5.002 -12.192  1.00  0.00     0.031 C 
ATOM     49  C   UNL     1      -4.501   8.696  -9.252  1.00  0.00     0.029 A 
ATOM     50  N   UNL     1      -3.690   8.562 -11.330  1.00  0.00    -0.354 N 
ATOM     51  C   UNL     1      -4.912   5.389 -14.001  1.00  0.00     0.074 A 
ATOM     52  C   UNL     1      -5.906   4.539 -13.384  1.00  0.00     0.031 C 
ATOM     53  C   UNL     1      -3.603   9.684  -9.398  1.00  0.00     0.029 A 
ATOM     54  C   UNL     1      -3.018   9.602 -10.732  1.00  0.00     0.049 A 
ATOM     55  H   UNL     1      -3.540   8.291 -12.265  1.00  0.00     0.167 HD
ATOM     56  C   UNL     1      -4.434   5.219 -15.255  1.00  0.00     0.037 A 
ATOM     57  C   UNL     1      -2.024  10.385 -11.196  1.00  0.00     0.037 A 
ATOM     58  C   UNL     1      -3.478   6.093 -15.881  1.00  0.00     0.049 A 
ATOM     59  C   UNL     1      -1.513  10.169 -12.596  1.00  0.00     0.074 A 
ATOM     60  C   UNL     1      -3.001   6.055 -17.180  1.00  0.00     0.029 A 
ATOM     61  N   UNL     1      -2.850   7.158 -15.254  1.00  0.00    -0.354 N 
ATOM     62  N   UNL     1      -1.893   9.286 -13.488  1.00  0.00    -0.248 NA
ATOM     63  C   UNL     1      -0.438  11.059 -13.056  1.00  0.00     0.031 C 
ATOM     64  C   UNL     1      -2.041   7.059 -17.322  1.00  0.00     0.029 A 
ATOM     65  C   UNL     1      -1.965   7.762 -16.131  1.00  0.00     0.049 A 
ATOM     66  H   UNL     1      -3.009   7.442 -14.325  1.00  0.00     0.167 HD
ATOM     67  C   UNL     1      -1.132   9.540 -14.623  1.00  0.00     0.074 A 
ATOM     68  C   UNL     1      -0.278  10.666 -14.311  1.00  0.00     0.031 C 
ATOM     69  C   UNL     1      -1.139   8.899 -15.816  1.00  0.00     0.037 A 
BRANCH  56  70
ATOM     70  C   UNL     1      -4.927   4.045 -16.048  1.00  0.00     0.057 A 
ATOM     71  C   UNL     1      -6.226   3.993 -16.568  1.00  0.00     0.134 A 
ATOM     72  C   UNL     1      -4.059   2.993 -16.370  1.00  0.00     0.134 A 
ATOM     73  F   UNL     1      -7.109   4.964 -16.290  1.00  0.00    -0.206 F 
ATOM     74  C   UNL     1      -6.648   2.933 -17.373  1.00  0.00     0.040 A 
ATOM     75  C   UNL     1      -4.461   1.941 -17.195  1.00  0.00     0.040 A 
ATOM     76  F   UNL     1      -2.799   2.984 -15.910  1.00  0.00    -0.206 F 
ATOM     77  C   UNL     1      -5.760   1.909 -17.698  1.00  0.00     0.006 A 
ENDBRANCH  56  70
BRANCH  57  78
ATOM     78  C   UNL     1      -1.427  11.439 -10.335  1.00  0.00     0.057 A 
ATOM     79  C   UNL     1      -1.570  12.797 -10.645  1.00  0.00     0.134 A 
ATOM     80  C   UNL     1      -0.655  11.115  -9.213  1.00  0.00     0.134 A 
ATOM     81  F   UNL     1      -2.282  13.173 -11.718  1.00  0.00    -0.206 F 
ATOM     82  C   UNL     1      -0.936  13.791  -9.896  1.00  0.00     0.040 A 
ATOM     83  C   UNL     1      -0.042  12.099  -8.436  1.00  0.00     0.040 A 
ATOM     84  F   UNL     1      -0.485   9.834  -8.853  1.00  0.00    -0.206 F 
ATOM     85  C   UNL     1      -0.170  13.442  -8.787  1.00  0.00     0.006 A 
ENDBRANCH  57  78
BRANCH  69  86
ATOM     86  C   UNL     1      -0.241   9.427 -16.895  1.00  0.00     0.057 A 
ATOM     87  C   UNL     1       1.150   9.271 -16.847  1.00  0.00     0.134 A 
ATOM     88  C   UNL     1      -0.784  10.050 -18.027  1.00  0.00     0.134 A 
ATOM     89  F   UNL     1       1.734   8.695 -15.786  1.00  0.00    -0.206 F 
ATOM     90  C   UNL     1       1.970   9.733 -17.878  1.00  0.00     0.040 A 
ATOM     91  C   UNL     1       0.023  10.488 -19.077  1.00  0.00     0.040 A 
ATOM     92  F   UNL     1      -2.110  10.221 -18.140  1.00  0.00    -0.206 F 
ATOM     93  C   UNL     1       1.405  10.335 -19.001  1.00  0.00     0.006 A 
ENDBRANCH  69  86
ENDBRANCH  43  44
ENDBRANCH  35  38
ENDBRANCH  33  34
ENDBRANCH   1  33
TORSDOF 14
