REMARK SMILES O=C(NCCCNC(=O)[C@H]1CC2(CCN(C(=O)c3cccc(O)c3)CC2)CN1C(=O)C1CC1)c1ccc(-c2c3nc(c(-c4c(F)cccc4F)c4ccc([nH]4)c(-c4c(F)cccc4F)c4nc(c(-c5c(F)cccc5F)c5ccc2[nH]5)C=C4)C=C3)cc1
REMARK SMILES IDX 5 1 4 2 3 3 1 4 2 5 34 7 35 8 87 9 36 10 86 11 37 12 38 13
REMARK SMILES IDX 39 14 80 15 40 16 85 17 79 18 81 19 41 20 84 21 78 22 77 23
REMARK SMILES IDX 42 25 68 26 51 27 67 28 52 29 55 30 66 31 82 32 53 33 54 34
REMARK SMILES IDX 65 36 83 37 56 38 43 39 44 40 49 41 45 42 46 43 48 44 50 45
REMARK SMILES IDX 47 46 69 47 70 48 75 49 71 50 72 51 74 52 76 53 73 54 57 55
REMARK SMILES IDX 58 56 63 57 59 58 60 59 62 60 64 61 61 62 6 63 7 64 8 65
REMARK SMILES IDX 9 67 10 68 11 69 28 70 12 71 27 72 13 73 26 74 14 75 25 76
REMARK SMILES IDX 15 77 16 78 17 79 29 80 30 81 31 82 32 83 33 84 18 85 19 86
REMARK SMILES IDX 24 87 20 88 22 89 21 90 23 91
REMARK H PARENT 3 6 81 24 55 35 7 66 23 92
REMARK Flexibility Score: inf
ROOT
ATOM      1  C   UNL     1       7.115   6.108  -2.564  1.00  0.00     0.042 C 
ENDROOT
BRANCH   1   2
ATOM      2  C   UNL     1       6.416   5.662  -3.840  1.00  0.00     0.118 C 
BRANCH   2   3
ATOM      3  N   UNL     1       6.140   6.779  -4.727  1.00  0.00    -0.352 N 
ATOM      4  O   UNL     1       6.327   7.965  -6.636  1.00  0.00    -0.269 OA
ATOM      5  C   UNL     1       6.434   6.890  -6.065  1.00  0.00     0.251 C 
ATOM      6  H   UNL     1       5.685   7.551  -4.320  1.00  0.00     0.163 HD
BRANCH   5   7
ATOM      7  C   UNL     1       6.893   5.693  -6.802  1.00  0.00     0.039 A 
ATOM      8  C   UNL     1       6.233   4.471  -6.643  1.00  0.00     0.014 A 
ATOM      9  C   UNL     1       7.978   5.804  -7.675  1.00  0.00     0.014 A 
ATOM     10  C   UNL     1       6.715   3.338  -7.285  1.00  0.00     0.010 A 
ATOM     11  C   UNL     1       8.410   4.681  -8.384  1.00  0.00     0.010 A 
ATOM     12  C   UNL     1       7.781   3.441  -8.193  1.00  0.00    -0.014 A 
BRANCH  12  13
ATOM     13  C   UNL     1       8.124   2.269  -9.034  1.00  0.00     0.031 A 
ATOM     14  C   UNL     1       9.449   1.577  -8.918  1.00  0.00     0.074 A 
ATOM     15  C   UNL     1       7.200   1.841  -9.918  1.00  0.00     0.049 A 
ATOM     16  N   UNL     1       9.899   0.552  -9.595  1.00  0.00    -0.248 NA
ATOM     17  C   UNL     1      10.396   2.102  -7.922  1.00  0.00     0.031 C 
ATOM     18  C   UNL     1       5.886   2.459 -10.128  1.00  0.00     0.029 A 
ATOM     19  N   UNL     1       7.214   0.791 -10.797  1.00  0.00    -0.354 N 
ATOM     20  C   UNL     1      11.184   0.318  -9.124  1.00  0.00     0.074 A 
ATOM     21  C   UNL     1      11.450   1.319  -8.112  1.00  0.00     0.031 C 
ATOM     22  C   UNL     1       5.210   1.757 -11.047  1.00  0.00     0.029 A 
ATOM     23  C   UNL     1       6.063   0.685 -11.540  1.00  0.00     0.049 A 
ATOM     24  H   UNL     1       7.974   0.172 -10.888  1.00  0.00     0.167 HD
ATOM     25  C   UNL     1      12.053  -0.648  -9.505  1.00  0.00     0.037 A 
ATOM     26  C   UNL     1       5.740  -0.162 -12.533  1.00  0.00     0.037 A 
ATOM     27  C   UNL     1      11.766  -1.648 -10.503  1.00  0.00     0.049 A 
ATOM     28  C   UNL     1       6.738  -1.203 -12.946  1.00  0.00     0.074 A 
ATOM     29  C   UNL     1      12.561  -2.704 -10.916  1.00  0.00     0.029 A 
ATOM     30  N   UNL     1      10.599  -1.712 -11.249  1.00  0.00    -0.354 N 
ATOM     31  N   UNL     1       7.927  -1.446 -12.452  1.00  0.00    -0.248 NA
ATOM     32  C   UNL     1       6.353  -2.082 -14.057  1.00  0.00     0.031 C 
ATOM     33  C   UNL     1      11.897  -3.374 -11.948  1.00  0.00     0.029 A 
ATOM     34  C   UNL     1      10.667  -2.768 -12.143  1.00  0.00     0.049 A 
ATOM     35  H   UNL     1       9.835  -1.097 -11.157  1.00  0.00     0.167 HD
ATOM     36  C   UNL     1       8.429  -2.513 -13.183  1.00  0.00     0.074 A 
ATOM     37  C   UNL     1       7.402  -2.888 -14.134  1.00  0.00     0.031 C 
ATOM     38  C   UNL     1       9.635  -3.122 -13.083  1.00  0.00     0.037 A 
BRANCH  25  39
ATOM     39  C   UNL     1      13.408  -0.675  -8.861  1.00  0.00     0.057 A 
ATOM     40  C   UNL     1      13.595  -1.120  -7.547  1.00  0.00     0.134 A 
ATOM     41  C   UNL     1      14.552  -0.341  -9.599  1.00  0.00     0.134 A 
ATOM     42  F   UNL     1      12.541  -1.448  -6.784  1.00  0.00    -0.206 F 
ATOM     43  C   UNL     1      14.870  -1.227  -6.987  1.00  0.00     0.040 A 
ATOM     44  C   UNL     1      15.833  -0.464  -9.058  1.00  0.00     0.040 A 
ATOM     45  F   UNL     1      14.444   0.086 -10.866  1.00  0.00    -0.206 F 
ATOM     46  C   UNL     1      15.995  -0.909  -7.747  1.00  0.00     0.006 A 
ENDBRANCH  25  39
BRANCH  26  47
ATOM     47  C   UNL     1       4.432  -0.038 -13.224  1.00  0.00     0.057 A 
ATOM     48  C   UNL     1       3.453  -1.031 -13.113  1.00  0.00     0.134 A 
ATOM     49  C   UNL     1       4.135   1.074 -14.023  1.00  0.00     0.134 A 
ATOM     50  F   UNL     1       3.684  -2.127 -12.374  1.00  0.00    -0.206 F 
ATOM     51  C   UNL     1       2.237  -0.937 -13.792  1.00  0.00     0.040 A 
ATOM     52  C   UNL     1       2.912   1.196 -14.682  1.00  0.00     0.040 A 
ATOM     53  F   UNL     1       5.027   2.066 -14.162  1.00  0.00    -0.206 F 
ATOM     54  C   UNL     1       1.963   0.182 -14.575  1.00  0.00     0.006 A 
ENDBRANCH  26  47
BRANCH  38  55
ATOM     55  C   UNL     1       9.892  -4.267 -14.017  1.00  0.00     0.057 A 
ATOM     56  C   UNL     1      10.115  -4.064 -15.385  1.00  0.00     0.134 A 
ATOM     57  C   UNL     1       9.932  -5.583 -13.540  1.00  0.00     0.134 A 
ATOM     58  F   UNL     1      10.071  -2.828 -15.905  1.00  0.00    -0.206 F 
ATOM     59  C   UNL     1      10.345  -5.134 -16.251  1.00  0.00     0.040 A 
ATOM     60  C   UNL     1      10.189  -6.658 -14.391  1.00  0.00     0.040 A 
ATOM     61  F   UNL     1       9.732  -5.843 -12.239  1.00  0.00    -0.206 F 
ATOM     62  C   UNL     1      10.388  -6.435 -15.753  1.00  0.00     0.006 A 
ENDBRANCH  38  55
ENDBRANCH  12  13
ENDBRANCH   5   7
ENDBRANCH   2   3
ENDBRANCH   1   2
BRANCH   1  63
ATOM     63  C   UNL     1       6.173   6.805  -1.587  1.00  0.00     0.117 C 
BRANCH  63  64
ATOM     64  N   UNL     1       5.223   5.857  -1.045  1.00  0.00    -0.354 N 
ATOM     65  C   UNL     1       5.127   5.319   0.198  1.00  0.00     0.242 C 
ATOM     66  H   UNL     1       4.536   5.553  -1.681  1.00  0.00     0.163 HD
ATOM     67  O   UNL     1       4.359   4.358   0.322  1.00  0.00    -0.273 OA
BRANCH  65  68
ATOM     68  C   UNL     1       6.023   5.747   1.373  1.00  0.00     0.175 C 
ATOM     69  C   UNL     1       7.441   5.190   1.094  1.00  0.00     0.044 C 
ATOM     70  N   UNL     1       6.258   7.141   1.742  1.00  0.00    -0.330 N 
ATOM     71  C   UNL     1       8.464   6.175   1.704  1.00  0.00    -0.006 C 
ATOM     72  C   UNL     1       7.582   7.247   2.349  1.00  0.00     0.127 C 
ATOM     73  C   UNL     1       9.395   6.869   0.673  1.00  0.00     0.030 C 
ATOM     74  C   UNL     1       9.353   5.439   2.728  1.00  0.00     0.030 C 
ATOM     75  C   UNL     1      10.432   5.941   0.048  1.00  0.00     0.120 C 
ATOM     76  C   UNL     1      10.334   4.485   2.039  1.00  0.00     0.120 C 
ATOM     77  N   UNL     1      11.162   5.201   1.074  1.00  0.00    -0.339 N 
ATOM     78  C   UNL     1      12.530   4.931   1.054  1.00  0.00     0.253 C 
ATOM     79  O   UNL     1      13.050   4.044   1.728  1.00  0.00    -0.269 OA
BRANCH  70  80
ATOM     80  C   UNL     1       5.379   8.172   2.082  1.00  0.00     0.226 C 
ATOM     81  O   UNL     1       5.838   9.237   2.501  1.00  0.00    -0.275 OA
BRANCH  80  82
ATOM     82  C   UNL     1       3.891   8.126   2.017  1.00  0.00     0.079 C 
ATOM     83  C   UNL     1       3.079   7.726   0.819  1.00  0.00     0.014 C 
ATOM     84  C   UNL     1       3.004   6.922   2.091  1.00  0.00     0.014 C 
ENDBRANCH  80  82
ENDBRANCH  70  80
BRANCH  78  85
ATOM     85  C   UNL     1      13.431   5.753   0.217  1.00  0.00     0.043 A 
ATOM     86  C   UNL     1      13.489   7.143   0.381  1.00  0.00     0.014 A 
ATOM     87  C   UNL     1      14.321   5.108  -0.647  1.00  0.00     0.060 A 
ATOM     88  C   UNL     1      14.415   7.889  -0.352  1.00  0.00     0.005 A 
ATOM     89  C   UNL     1      15.240   5.863  -1.366  1.00  0.00     0.116 A 
ATOM     90  C   UNL     1      15.292   7.249  -1.230  1.00  0.00     0.046 A 
BRANCH  89  91
ATOM     91  O   UNL     1      16.096   5.200  -2.196  1.00  0.00    -0.508 OA
ATOM     92  H   UNL     1      16.728   5.678  -2.695  1.00  0.00     0.293 HD
ENDBRANCH  89  91
ENDBRANCH  78  85
ENDBRANCH  65  68
ENDBRANCH  63  64
ENDBRANCH   1  63
TORSDOF 14
