REMARK SMILES CC(C)=CC(=O)N1[C@H](C(=O)NCCCNC(=O)c2ccc(-c3c4nc(c(-c5c(F)cccc5F)c5ccc([nH]5)c(-c5c(F)cccc5F)c5nc(c(-c6c(F)cccc6F)c6ccc3[nH]6)C=C5)C=C4)cc2)COC12CCCCC2
REMARK SMILES IDX 13 1 12 2 11 3 9 4 10 5 8 7 7 8 74 9 72 10 73 11 75 12 79 13
REMARK SMILES IDX 76 14 78 15 77 16 5 17 6 18 4 19 1 20 2 21 3 22 14 23 15 24
REMARK SMILES IDX 16 25 17 27 18 28 19 29 71 30 20 31 70 32 21 33 22 34 23 35
REMARK SMILES IDX 64 36 24 37 69 38 63 39 65 40 25 41 68 42 62 43 61 44 26 46
REMARK SMILES IDX 52 47 35 48 51 49 36 50 39 51 50 52 66 53 37 54 38 55 49 57
REMARK SMILES IDX 67 58 40 59 27 60 28 61 33 62 29 63 30 64 32 65 34 66 31 67
REMARK SMILES IDX 53 68 54 69 59 70 55 71 56 72 58 73 60 74 57 75 41 76 42 77
REMARK SMILES IDX 47 78 43 79 44 80 46 81 48 82 45 83
REMARK H PARENT 11 6 15 26 65 45 39 56
REMARK Flexibility Score: inf
ROOT
ATOM      1  C   UNL     1       0.609   4.677   5.027  1.00  0.00     0.042 C 
ENDROOT
BRANCH   1   2
ATOM      2  C   UNL     1       0.637   4.540   3.506  1.00  0.00     0.117 C 
BRANCH   2   3
ATOM      3  N   UNL     1       1.980   4.689   2.970  1.00  0.00    -0.354 N 
ATOM      4  C   UNL     1       2.791   3.771   2.360  1.00  0.00     0.245 C 
ATOM      5  O   UNL     1       3.852   4.174   1.875  1.00  0.00    -0.273 OA
ATOM      6  H   UNL     1       2.366   5.590   3.058  1.00  0.00     0.163 HD
BRANCH   4   7
ATOM      7  C   UNL     1       2.374   2.291   2.297  1.00  0.00     0.203 C 
ATOM      8  N   UNL     1       2.282   1.737   0.956  1.00  0.00    -0.296 N 
ATOM      9  C   UNL     1       3.027   0.480   0.867  1.00  0.00     0.144 C 
ATOM     10  C   UNL     1       3.473   1.468   2.934  1.00  0.00     0.198 C 
ATOM     11  O   UNL     1       3.486   0.229   2.222  1.00  0.00    -0.353 OA
ATOM     12  C   UNL     1       2.195  -0.764   0.507  1.00  0.00     0.059 C 
ATOM     13  C   UNL     1       4.266   0.595  -0.040  1.00  0.00     0.059 C 
ATOM     14  C   UNL     1       3.028  -2.047   0.497  1.00  0.00     0.005 C 
ATOM     15  C   UNL     1       5.082  -0.703  -0.077  1.00  0.00     0.005 C 
ATOM     16  C   UNL     1       4.223  -1.910  -0.441  1.00  0.00     0.000 C 
BRANCH   8  17
ATOM     17  C   UNL     1       1.433   2.355   0.074  1.00  0.00     0.249 C 
ATOM     18  O   UNL     1       0.863   3.417   0.326  1.00  0.00    -0.270 OA
BRANCH  17  19
ATOM     19  C   UNL     1       1.111   1.702  -1.208  1.00  0.00     0.070 C 
ATOM     20  C   UNL     1      -0.928   0.650  -0.158  1.00  0.00     0.039 C 
ATOM     21  C   UNL     1      -0.028   0.988  -1.320  1.00  0.00    -0.071 C 
ATOM     22  C   UNL     1      -0.494   0.458  -2.646  1.00  0.00     0.039 C 
ENDBRANCH  17  19
ENDBRANCH   8  17
ENDBRANCH   4   7
ENDBRANCH   2   3
ENDBRANCH   1   2
BRANCH   1  23
ATOM     23  C   UNL     1       0.997   6.062   5.545  1.00  0.00     0.118 C 
BRANCH  23  24
ATOM     24  N   UNL     1       0.060   7.103   5.153  1.00  0.00    -0.352 N 
ATOM     25  C   UNL     1      -0.528   8.103   5.886  1.00  0.00     0.251 C 
ATOM     26  H   UNL     1      -0.194   7.088   4.202  1.00  0.00     0.163 HD
ATOM     27  O   UNL     1      -1.394   8.797   5.357  1.00  0.00    -0.269 OA
BRANCH  25  28
ATOM     28  C   UNL     1      -0.167   8.351   7.303  1.00  0.00     0.039 A 
ATOM     29  C   UNL     1      -1.182   8.745   8.182  1.00  0.00     0.014 A 
ATOM     30  C   UNL     1       1.147   8.263   7.769  1.00  0.00     0.014 A 
ATOM     31  C   UNL     1      -0.891   9.000   9.525  1.00  0.00     0.010 A 
ATOM     32  C   UNL     1       1.426   8.446   9.127  1.00  0.00     0.010 A 
ATOM     33  C   UNL     1       0.411   8.825  10.019  1.00  0.00    -0.014 A 
BRANCH  33  34
ATOM     34  C   UNL     1       0.711   9.035  11.461  1.00  0.00     0.031 A 
ATOM     35  C   UNL     1       1.634  10.138  11.904  1.00  0.00     0.074 A 
ATOM     36  C   UNL     1       0.170   8.210  12.379  1.00  0.00     0.049 A 
ATOM     37  N   UNL     1       2.004  10.470  13.116  1.00  0.00    -0.248 NA
ATOM     38  C   UNL     1       2.238  10.964  10.847  1.00  0.00     0.031 C 
ATOM     39  C   UNL     1      -0.702   7.072  12.083  1.00  0.00     0.029 A 
ATOM     40  N   UNL     1       0.272   8.202  13.748  1.00  0.00    -0.354 N 
ATOM     41  C   UNL     1       2.887  11.532  12.967  1.00  0.00     0.074 A 
ATOM     42  C   UNL     1       3.040  11.755  11.546  1.00  0.00     0.031 C 
ATOM     43  C   UNL     1      -1.080   6.496  13.236  1.00  0.00     0.029 A 
ATOM     44  C   UNL     1      -0.454   7.203  14.349  1.00  0.00     0.049 A 
ATOM     45  H   UNL     1       0.815   8.851  14.252  1.00  0.00     0.167 HD
ATOM     46  C   UNL     1       3.498  12.271  13.925  1.00  0.00     0.037 A 
ATOM     47  C   UNL     1      -0.605   6.891  15.651  1.00  0.00     0.037 A 
ATOM     48  C   UNL     1       3.333  12.064  15.341  1.00  0.00     0.049 A 
ATOM     49  C   UNL     1       0.078   7.730  16.695  1.00  0.00     0.074 A 
ATOM     50  C   UNL     1       3.871  12.793  16.389  1.00  0.00     0.029 A 
ATOM     51  N   UNL     1       2.575  11.051  15.909  1.00  0.00    -0.354 N 
ATOM     52  N   UNL     1       0.854   8.775  16.540  1.00  0.00    -0.248 NA
ATOM     53  C   UNL     1      -0.149   7.354  18.098  1.00  0.00     0.031 C 
ATOM     54  C   UNL     1       3.472  12.197  17.590  1.00  0.00     0.029 A 
ATOM     55  C   UNL     1       2.644  11.127  17.292  1.00  0.00     0.049 A 
ATOM     56  H   UNL     1       2.063  10.378  15.405  1.00  0.00     0.167 HD
ATOM     57  C   UNL     1       1.179   9.201  17.821  1.00  0.00     0.074 A 
ATOM     58  C   UNL     1       0.507   8.308  18.742  1.00  0.00     0.031 C 
ATOM     59  C   UNL     1       1.962  10.240  18.200  1.00  0.00     0.037 A 
BRANCH  46  60
ATOM     60  C   UNL     1       4.401  13.383  13.472  1.00  0.00     0.057 A 
ATOM     61  C   UNL     1       3.898  14.544  12.869  1.00  0.00     0.134 A 
ATOM     62  C   UNL     1       5.785  13.309  13.672  1.00  0.00     0.134 A 
ATOM     63  F   UNL     1       2.583  14.675  12.639  1.00  0.00    -0.206 F 
ATOM     64  C   UNL     1       4.741  15.578  12.457  1.00  0.00     0.040 A 
ATOM     65  C   UNL     1       6.635  14.349  13.290  1.00  0.00     0.040 A 
ATOM     66  F   UNL     1       6.334  12.230  14.251  1.00  0.00    -0.206 F 
ATOM     67  C   UNL     1       6.114  15.484  12.674  1.00  0.00     0.006 A 
ENDBRANCH  46  60
BRANCH  47  68
ATOM     68  C   UNL     1      -1.470   5.751  16.045  1.00  0.00     0.057 A 
ATOM     69  C   UNL     1      -2.696   5.964  16.688  1.00  0.00     0.134 A 
ATOM     70  C   UNL     1      -1.093   4.426  15.798  1.00  0.00     0.134 A 
ATOM     71  F   UNL     1      -3.103   7.211  16.969  1.00  0.00    -0.206 F 
ATOM     72  C   UNL     1      -3.505   4.901  17.090  1.00  0.00     0.040 A 
ATOM     73  C   UNL     1      -1.905   3.354  16.171  1.00  0.00     0.040 A 
ATOM     74  F   UNL     1       0.065   4.156  15.178  1.00  0.00    -0.206 F 
ATOM     75  C   UNL     1      -3.112   3.590  16.827  1.00  0.00     0.006 A 
ENDBRANCH  47  68
BRANCH  59  76
ATOM     76  C   UNL     1       2.095  10.499  19.673  1.00  0.00     0.057 A 
ATOM     77  C   UNL     1       2.827   9.651  20.514  1.00  0.00     0.134 A 
ATOM     78  C   UNL     1       1.500  11.627  20.252  1.00  0.00     0.134 A 
ATOM     79  F   UNL     1       3.412   8.547  20.026  1.00  0.00    -0.206 F 
ATOM     80  C   UNL     1       2.937   9.901  21.884  1.00  0.00     0.040 A 
ATOM     81  C   UNL     1       1.626  11.902  21.614  1.00  0.00     0.040 A 
ATOM     82  F   UNL     1       0.792  12.485  19.502  1.00  0.00    -0.206 F 
ATOM     83  C   UNL     1       2.339  11.032  22.436  1.00  0.00     0.006 A 
ENDBRANCH  59  76
ENDBRANCH  33  34
ENDBRANCH  25  28
ENDBRANCH  23  24
ENDBRANCH   1  23
TORSDOF 12
