REMARK SMILES CCc1ccc(C(=O)N2CC[C@H](C(=O)NCCCNC(=O)c3ccc(-c4c5nc(c(-c6c(F)cccc6F)c6ccc([nH]6)c(-c6c(F)cccc6F)c6nc(c(-c7c(F)cccc7F)c7ccc4[nH]7)C=C6)C=C5)cc3)[C@@H]2C)s1
REMARK SMILES IDX 16 1 15 2 13 3 14 4 12 6 9 7 10 8 76 9 11 10 77 11 7 12 8 13
REMARK SMILES IDX 6 14 3 15 4 16 78 17 5 18 2 19 1 20 17 21 18 22 19 23 20 24
REMARK SMILES IDX 21 26 22 27 23 28 75 29 24 30 74 31 25 32 26 33 27 34 68 35
REMARK SMILES IDX 28 36 73 37 67 38 69 39 29 40 72 41 66 42 65 43 30 45 56 46
REMARK SMILES IDX 39 47 55 48 40 49 43 50 54 51 70 52 41 53 42 54 53 56 71 57
REMARK SMILES IDX 44 58 31 59 32 60 37 61 33 62 34 63 36 64 38 65 35 66 57 67
REMARK SMILES IDX 58 68 63 69 59 70 60 71 62 72 64 73 61 74 45 75 46 76 51 77
REMARK SMILES IDX 47 78 48 79 50 80 52 81 49 82
REMARK H PARENT 15 5 19 25 69 44 43 55
REMARK Flexibility Score: inf
ROOT
ATOM      1  C   UNL     1       3.539   9.730  -3.854  1.00  0.00     0.117 C 
ENDROOT
BRANCH   1   2
ATOM      2  N   UNL     1       3.886   9.098  -5.115  1.00  0.00    -0.356 N 
ATOM      3  C   UNL     1       3.259   8.119  -5.824  1.00  0.00     0.225 C 
ATOM      4  O   UNL     1       3.740   7.799  -6.911  1.00  0.00    -0.275 OA
ATOM      5  H   UNL     1       4.716   9.434  -5.526  1.00  0.00     0.163 HD
BRANCH   3   6
ATOM      6  C   UNL     1       2.025   7.439  -5.258  1.00  0.00     0.102 C 
ATOM      7  N   UNL     1       1.510   5.119  -5.087  1.00  0.00    -0.334 N 
ATOM      8  C   UNL     1       1.269   5.486  -6.466  1.00  0.00     0.121 C 
ATOM      9  C   UNL     1       2.306   6.161  -4.427  1.00  0.00     0.094 C 
ATOM     10  C   UNL     1       1.075   6.985  -6.384  1.00  0.00     0.037 C 
ATOM     11  C   UNL     1       3.772   5.725  -4.354  1.00  0.00     0.032 C 
BRANCH   7  12
ATOM     12  C   UNL     1       1.135   3.861  -4.627  1.00  0.00     0.264 C 
ATOM     13  O   UNL     1       0.815   2.990  -5.440  1.00  0.00    -0.268 OA
BRANCH  12  14
ATOM     14  C   UNL     1       1.064   3.633  -3.189  1.00  0.00     0.092 A 
ATOM     15  C   UNL     1       0.961   2.481  -0.984  1.00  0.00     0.005 A 
ATOM     16  C   UNL     1       0.577   3.807  -0.911  1.00  0.00     0.016 A 
ATOM     17  S   UNL     1       1.435   2.074  -2.578  1.00  0.00    -0.135 S 
ATOM     18  C   UNL     1       0.611   4.459  -2.178  1.00  0.00     0.026 A 
BRANCH  15  19
ATOM     19  C   UNL     1       0.935   1.493   0.155  1.00  0.00     0.043 C 
ATOM     20  C   UNL     1       1.441   0.091  -0.143  1.00  0.00     0.010 C 
ENDBRANCH  15  19
ENDBRANCH  12  14
ENDBRANCH   7  12
ENDBRANCH   3   6
ENDBRANCH   1   2
BRANCH   1  21
ATOM     21  C   UNL     1       4.574   9.485  -2.759  1.00  0.00     0.042 C 
BRANCH  21  22
ATOM     22  C   UNL     1       6.003   9.908  -3.101  1.00  0.00     0.118 C 
BRANCH  22  23
ATOM     23  N   UNL     1       6.127  11.326  -3.388  1.00  0.00    -0.352 N 
ATOM     24  C   UNL     1       7.133  12.204  -3.071  1.00  0.00     0.251 C 
ATOM     25  H   UNL     1       5.373  11.718  -3.886  1.00  0.00     0.163 HD
ATOM     26  O   UNL     1       6.984  13.398  -3.321  1.00  0.00    -0.269 OA
BRANCH  24  27
ATOM     27  C   UNL     1       8.378  11.749  -2.410  1.00  0.00     0.039 A 
ATOM     28  C   UNL     1       8.906  12.545  -1.387  1.00  0.00     0.014 A 
ATOM     29  C   UNL     1       9.066  10.603  -2.824  1.00  0.00     0.014 A 
ATOM     30  C   UNL     1      10.092  12.175  -0.750  1.00  0.00     0.010 A 
ATOM     31  C   UNL     1      10.237  10.217  -2.167  1.00  0.00     0.010 A 
ATOM     32  C   UNL     1      10.759  11.001  -1.127  1.00  0.00    -0.014 A 
BRANCH  32  33
ATOM     33  C   UNL     1      12.007  10.595  -0.438  1.00  0.00     0.031 A 
ATOM     34  C   UNL     1      13.340  10.779  -1.102  1.00  0.00     0.074 A 
ATOM     35  C   UNL     1      11.938  10.041   0.786  1.00  0.00     0.049 A 
ATOM     36  N   UNL     1      14.531  10.473  -0.654  1.00  0.00    -0.248 NA
ATOM     37  C   UNL     1      13.333  11.371  -2.448  1.00  0.00     0.031 C 
ATOM     38  C   UNL     1      10.704   9.783   1.531  1.00  0.00     0.029 A 
ATOM     39  N   UNL     1      12.932   9.598   1.619  1.00  0.00    -0.354 N 
ATOM     40  C   UNL     1      15.414  10.810  -1.671  1.00  0.00     0.074 A 
ATOM     41  C   UNL     1      14.622  11.343  -2.760  1.00  0.00     0.031 C 
ATOM     42  C   UNL     1      11.018   9.243   2.720  1.00  0.00     0.029 A 
ATOM     43  C   UNL     1      12.469   9.110   2.815  1.00  0.00     0.049 A 
ATOM     44  H   UNL     1      13.887   9.627   1.382  1.00  0.00     0.167 HD
ATOM     45  C   UNL     1      16.762  10.688  -1.695  1.00  0.00     0.037 A 
ATOM     46  C   UNL     1      13.140   8.620   3.873  1.00  0.00     0.037 A 
ATOM     47  C   UNL     1      17.565  10.201  -0.606  1.00  0.00     0.049 A 
ATOM     48  C   UNL     1      14.637   8.554   3.846  1.00  0.00     0.074 A 
ATOM     49  C   UNL     1      18.943  10.089  -0.530  1.00  0.00     0.029 A 
ATOM     50  N   UNL     1      17.059   9.752   0.602  1.00  0.00    -0.354 N 
ATOM     51  N   UNL     1      15.459   8.903   2.888  1.00  0.00    -0.248 NA
ATOM     52  C   UNL     1      15.299   8.029   5.049  1.00  0.00     0.031 C 
ATOM     53  C   UNL     1      19.271   9.568   0.728  1.00  0.00     0.029 A 
ATOM     54  C   UNL     1      18.097   9.362   1.432  1.00  0.00     0.049 A 
ATOM     55  H   UNL     1      16.104   9.715   0.837  1.00  0.00     0.167 HD
ATOM     56  C   UNL     1      16.734   8.654   3.375  1.00  0.00     0.074 A 
ATOM     57  C   UNL     1      16.579   8.123   4.714  1.00  0.00     0.031 C 
ATOM     58  C   UNL     1      17.926   8.849   2.764  1.00  0.00     0.037 A 
BRANCH  45  59
ATOM     59  C   UNL     1      17.455  11.091  -2.957  1.00  0.00     0.057 A 
ATOM     60  C   UNL     1      17.794  12.424  -3.210  1.00  0.00     0.134 A 
ATOM     61  C   UNL     1      17.802  10.133  -3.916  1.00  0.00     0.134 A 
ATOM     62  F   UNL     1      17.473  13.385  -2.331  1.00  0.00    -0.206 F 
ATOM     63  C   UNL     1      18.450  12.794  -4.384  1.00  0.00     0.040 A 
ATOM     64  C   UNL     1      18.465  10.489  -5.091  1.00  0.00     0.040 A 
ATOM     65  F   UNL     1      17.497   8.840  -3.728  1.00  0.00    -0.206 F 
ATOM     66  C   UNL     1      18.790  11.824  -5.327  1.00  0.00     0.006 A 
ENDBRANCH  45  59
BRANCH  46  67
ATOM     67  C   UNL     1      12.393   8.183   5.071  1.00  0.00     0.057 A 
ATOM     68  C   UNL     1      12.229   9.041   6.163  1.00  0.00     0.134 A 
ATOM     69  C   UNL     1      11.825   6.908   5.148  1.00  0.00     0.134 A 
ATOM     70  F   UNL     1      12.767  10.269   6.143  1.00  0.00    -0.206 F 
ATOM     71  C   UNL     1      11.524   8.643   7.299  1.00  0.00     0.040 A 
ATOM     72  C   UNL     1      11.113   6.500   6.276  1.00  0.00     0.040 A 
ATOM     73  F   UNL     1      11.955   6.047   4.129  1.00  0.00    -0.206 F 
ATOM     74  C   UNL     1      10.962   7.369   7.356  1.00  0.00     0.006 A 
ENDBRANCH  46  67
BRANCH  58  75
ATOM     75  C   UNL     1      19.151   8.505   3.548  1.00  0.00     0.057 A 
ATOM     76  C   UNL     1      19.657   7.201   3.569  1.00  0.00     0.134 A 
ATOM     77  C   UNL     1      19.840   9.487   4.268  1.00  0.00     0.134 A 
ATOM     78  F   UNL     1      19.030   6.217   2.907  1.00  0.00    -0.206 F 
ATOM     79  C   UNL     1      20.809   6.883   4.289  1.00  0.00     0.040 A 
ATOM     80  C   UNL     1      20.995   9.182   4.987  1.00  0.00     0.040 A 
ATOM     81  F   UNL     1      19.396  10.753   4.288  1.00  0.00    -0.206 F 
ATOM     82  C   UNL     1      21.483   7.876   4.999  1.00  0.00     0.006 A 
ENDBRANCH  58  75
ENDBRANCH  32  33
ENDBRANCH  24  27
ENDBRANCH  22  23
ENDBRANCH  21  22
ENDBRANCH   1  21
TORSDOF 13
