REMARK SMILES C[C@@H]1SC[C@H](C(=O)NCCCNC(=O)c2ccc(-c3c4nc(c(-c5c(F)cccc5F)c5ccc([nH]5)c(-c5c(F)cccc5F)c5nc(c(-c6c(F)cccc6F)c6ccc3[nH]6)C=C5)C=C4)cc2)N1C(=O)N(C)[C@@H](C)Cc1cccs1
REMARK SMILES IDX 6 1 7 2 8 3 5 5 1 6 2 7 3 8 69 9 4 10 70 11 71 12 72 13
REMARK SMILES IDX 73 14 74 15 75 16 76 17 77 18 78 19 81 20 79 21 80 22 9 23
REMARK SMILES IDX 10 24 11 25 12 26 13 27 14 29 15 30 16 31 68 32 17 33 67 34
REMARK SMILES IDX 18 35 19 36 20 37 61 38 21 39 66 40 60 41 62 42 22 43 65 44
REMARK SMILES IDX 59 45 58 46 23 48 49 49 32 50 48 51 33 52 36 53 47 54 63 55
REMARK SMILES IDX 34 56 35 57 46 59 64 60 37 61 24 62 25 63 30 64 26 65 27 66
REMARK SMILES IDX 29 67 31 68 28 69 50 70 51 71 56 72 52 73 53 74 55 75 57 76
REMARK SMILES IDX 54 77 38 78 39 79 44 80 40 81 41 82 43 83 45 84 42 85
REMARK H PARENT 8 4 12 28 62 47 36 58
REMARK Flexibility Score: inf
ROOT
ATOM      1  C   UNL     1       0.273  -4.722  -0.298  1.00  0.00     0.243 C 
ATOM      2  O   UNL     1       0.225  -5.787  -0.927  1.00  0.00    -0.273 OA
ATOM      3  N   UNL     1       0.015  -4.798   1.035  1.00  0.00    -0.354 N 
ATOM      4  H   UNL     1      -0.029  -5.713   1.396  1.00  0.00     0.163 HD
ENDROOT
BRANCH   1   5
ATOM      5  C   UNL     1       0.379  -3.379  -1.052  1.00  0.00     0.187 C 
ATOM      6  C   UNL     1      -0.008   0.016   0.184  1.00  0.00     0.043 C 
ATOM      7  C   UNL     1       0.498  -0.932  -0.906  1.00  0.00     0.142 C 
ATOM      8  S   UNL     1      -0.923  -1.321  -1.991  1.00  0.00    -0.135 SA
ATOM      9  N   UNL     1       1.059  -2.206  -0.438  1.00  0.00    -0.300 N 
ATOM     10  C   UNL     1      -1.058  -3.002  -1.390  1.00  0.00     0.107 C 
BRANCH   9  11
ATOM     11  C   UNL     1       2.300  -2.483   0.107  1.00  0.00     0.321 C 
ATOM     12  O   UNL     1       2.668  -3.663   0.145  1.00  0.00    -0.248 OA
BRANCH  11  13
ATOM     13  N   UNL     1       3.103  -1.530   0.696  1.00  0.00    -0.325 N 
ATOM     14  C   UNL     1       3.014  -0.086   0.586  1.00  0.00     0.149 C 
BRANCH  13  15
ATOM     15  C   UNL     1       4.268  -2.002   1.504  1.00  0.00     0.088 C 
ATOM     16  C   UNL     1       3.835  -2.811   2.737  1.00  0.00     0.031 C 
BRANCH  15  17
ATOM     17  C   UNL     1       5.359  -2.750   0.693  1.00  0.00     0.071 C 
BRANCH  17  18
ATOM     18  C   UNL     1       5.748  -2.034  -0.575  1.00  0.00     0.007 A 
ATOM     19  C   UNL     1       6.168  -0.728  -0.743  1.00  0.00     0.015 A 
ATOM     20  S   UNL     1       5.687  -2.865  -2.074  1.00  0.00    -0.149 S 
ATOM     21  C   UNL     1       6.354  -0.389  -2.114  1.00  0.00     0.012 A 
ATOM     22  C   UNL     1       6.139  -1.466  -2.943  1.00  0.00     0.065 A 
ENDBRANCH  17  18
ENDBRANCH  15  17
ENDBRANCH  13  15
ENDBRANCH  11  13
ENDBRANCH   9  11
ENDBRANCH   1   5
BRANCH   3  23
ATOM     23  C   UNL     1      -0.206  -3.752   2.008  1.00  0.00     0.117 C 
BRANCH  23  24
ATOM     24  C   UNL     1      -1.552  -3.920   2.697  1.00  0.00     0.042 C 
BRANCH  24  25
ATOM     25  C   UNL     1      -1.676  -5.207   3.501  1.00  0.00     0.118 C 
BRANCH  25  26
ATOM     26  N   UNL     1      -0.754  -5.254   4.627  1.00  0.00    -0.352 N 
ATOM     27  C   UNL     1      -1.016  -5.317   5.972  1.00  0.00     0.251 C 
ATOM     28  H   UNL     1       0.201  -5.237   4.387  1.00  0.00     0.163 HD
ATOM     29  O   UNL     1      -0.108  -5.140   6.784  1.00  0.00    -0.269 OA
BRANCH  27  30
ATOM     30  C   UNL     1      -2.390  -5.574   6.450  1.00  0.00     0.039 A 
ATOM     31  C   UNL     1      -2.880  -4.839   7.532  1.00  0.00     0.014 A 
ATOM     32  C   UNL     1      -3.193  -6.539   5.837  1.00  0.00     0.014 A 
ATOM     33  C   UNL     1      -4.197  -5.025   7.955  1.00  0.00     0.010 A 
ATOM     34  C   UNL     1      -4.531  -6.657   6.197  1.00  0.00     0.010 A 
ATOM     35  C   UNL     1      -5.046  -5.907   7.265  1.00  0.00    -0.014 A 
BRANCH  35  36
ATOM     36  C   UNL     1      -6.470  -6.068   7.651  1.00  0.00     0.031 A 
ATOM     37  C   UNL     1      -6.977  -7.401   8.129  1.00  0.00     0.074 A 
ATOM     38  C   UNL     1      -7.321  -5.034   7.508  1.00  0.00     0.049 A 
ATOM     39  N   UNL     1      -8.195  -7.757   8.451  1.00  0.00    -0.248 NA
ATOM     40  C   UNL     1      -5.988  -8.487   8.232  1.00  0.00     0.031 C 
ATOM     41  C   UNL     1      -6.963  -3.704   7.012  1.00  0.00     0.029 A 
ATOM     42  N   UNL     1      -8.666  -4.941   7.763  1.00  0.00    -0.354 N 
ATOM     43  C   UNL     1      -8.120  -9.105   8.777  1.00  0.00     0.074 A 
ATOM     44  C   UNL     1      -6.752  -9.519   8.556  1.00  0.00     0.031 C 
ATOM     45  C   UNL     1      -8.053  -2.920   7.030  1.00  0.00     0.029 A 
ATOM     46  C   UNL     1      -9.193  -3.701   7.496  1.00  0.00     0.049 A 
ATOM     47  H   UNL     1      -9.203  -5.693   8.103  1.00  0.00     0.167 HD
ATOM     48  C   UNL     1      -9.097  -9.920   9.243  1.00  0.00     0.037 A 
ATOM     49  C   UNL     1     -10.455  -3.247   7.611  1.00  0.00     0.037 A 
ATOM     50  C   UNL     1     -10.452  -9.500   9.481  1.00  0.00     0.049 A 
ATOM     51  C   UNL     1     -11.527  -4.177   8.109  1.00  0.00     0.074 A 
ATOM     52  C   UNL     1     -11.502 -10.231  10.009  1.00  0.00     0.029 A 
ATOM     53  N   UNL     1     -10.947  -8.235   9.200  1.00  0.00    -0.354 N 
ATOM     54  N   UNL     1     -11.428  -5.429   8.484  1.00  0.00    -0.248 NA
ATOM     55  C   UNL     1     -12.887  -3.628   8.203  1.00  0.00     0.031 C 
ATOM     56  C   UNL     1     -12.644  -9.423  10.000  1.00  0.00     0.029 A 
ATOM     57  C   UNL     1     -12.294  -8.172   9.518  1.00  0.00     0.049 A 
ATOM     58  H   UNL     1     -10.419  -7.491   8.830  1.00  0.00     0.167 HD
ATOM     59  C   UNL     1     -12.701  -5.808   8.889  1.00  0.00     0.074 A 
ATOM     60  C   UNL     1     -13.553  -4.648   8.725  1.00  0.00     0.031 C 
ATOM     61  C   UNL     1     -13.127  -7.007   9.357  1.00  0.00     0.037 A 
BRANCH  48  62
ATOM     62  C   UNL     1      -8.728 -11.350   9.521  1.00  0.00     0.057 A 
ATOM     63  C   UNL     1      -7.870 -11.703  10.572  1.00  0.00     0.134 A 
ATOM     64  C   UNL     1      -9.247 -12.388   8.738  1.00  0.00     0.134 A 
ATOM     65  F   UNL     1      -7.328 -10.758  11.354  1.00  0.00    -0.206 F 
ATOM     66  C   UNL     1      -7.515 -13.032  10.811  1.00  0.00     0.040 A 
ATOM     67  C   UNL     1      -8.924 -13.723   8.987  1.00  0.00     0.040 A 
ATOM     68  F   UNL     1     -10.080 -12.124   7.720  1.00  0.00    -0.206 F 
ATOM     69  C   UNL     1      -8.047 -14.047  10.020  1.00  0.00     0.006 A 
ENDBRANCH  48  62
BRANCH  49  70
ATOM     70  C   UNL     1     -10.773  -1.835   7.280  1.00  0.00     0.057 A 
ATOM     71  C   UNL     1     -11.124  -0.923   8.284  1.00  0.00     0.134 A 
ATOM     72  C   UNL     1     -10.743  -1.363   5.963  1.00  0.00     0.134 A 
ATOM     73  F   UNL     1     -11.187  -1.320   9.563  1.00  0.00    -0.206 F 
ATOM     74  C   UNL     1     -11.454   0.400   7.988  1.00  0.00     0.040 A 
ATOM     75  C   UNL     1     -11.045  -0.035   5.655  1.00  0.00     0.040 A 
ATOM     76  F   UNL     1     -10.406  -2.183   4.957  1.00  0.00    -0.206 F 
ATOM     77  C   UNL     1     -11.410   0.849   6.670  1.00  0.00     0.006 A 
ENDBRANCH  49  70
BRANCH  61  78
ATOM     78  C   UNL     1     -14.568  -7.113   9.764  1.00  0.00     0.057 A 
ATOM     79  C   UNL     1     -15.606  -7.123   8.825  1.00  0.00     0.134 A 
ATOM     80  C   UNL     1     -14.916  -7.242  11.115  1.00  0.00     0.134 A 
ATOM     81  F   UNL     1     -15.341  -6.989   7.516  1.00  0.00    -0.206 F 
ATOM     82  C   UNL     1     -16.942  -7.233   9.216  1.00  0.00     0.040 A 
ATOM     83  C   UNL     1     -16.245  -7.381  11.516  1.00  0.00     0.040 A 
ATOM     84  F   UNL     1     -13.970  -7.247  12.066  1.00  0.00    -0.206 F 
ATOM     85  C   UNL     1     -17.263  -7.370  10.565  1.00  0.00     0.006 A 
ENDBRANCH  61  78
ENDBRANCH  35  36
ENDBRANCH  27  30
ENDBRANCH  25  26
ENDBRANCH  24  25
ENDBRANCH  23  24
ENDBRANCH   3  23
TORSDOF 15
