REMARK SMILES CS(=O)(=O)c1ccc(/C=C(/C(=O)NCCCNC(=O)c2ccc(-c3c4nc(c(-c5c(F)cccc5F)c5ccc([nH]5)c(-c5c(F)cccc5F)c5nc(c(-c6c(F)cccc6F)c6ccc3[nH]6)C=C5)C=C4)cc2)c2ccccc2)cc1
REMARK SMILES IDX 15 1 14 2 13 3 11 4 12 5 10 7 9 8 8 9 5 10 6 11 81 12 7 13
REMARK SMILES IDX 80 14 2 15 1 16 3 17 4 18 74 19 75 20 79 21 76 22 78 23
REMARK SMILES IDX 77 24 16 25 17 26 18 27 19 29 20 30 21 31 73 32 22 33 72 34
REMARK SMILES IDX 23 35 24 36 25 37 66 38 26 39 71 40 65 41 67 42 27 43 70 44
REMARK SMILES IDX 64 45 63 46 28 48 54 49 37 50 53 51 38 52 41 53 52 54 68 55
REMARK SMILES IDX 39 56 40 57 51 59 69 60 42 61 29 62 30 63 35 64 31 65 32 66
REMARK SMILES IDX 34 67 36 68 33 69 55 70 56 71 61 72 57 73 58 74 60 75 62 76
REMARK SMILES IDX 59 77 43 78 44 79 49 80 45 81 46 82 48 83 50 84 47 85
REMARK H PARENT 13 6 17 28 67 47 41 58
REMARK Flexibility Score: inf
ROOT
ATOM      1  C   UNL     1       0.956   9.994  -1.014  1.00  0.00     0.042 C 
ENDROOT
BRANCH   1   2
ATOM      2  C   UNL     1       2.333   9.397  -1.318  1.00  0.00     0.118 C 
BRANCH   2   3
ATOM      3  N   UNL     1       3.173   9.411  -0.134  1.00  0.00    -0.352 N 
ATOM      4  C   UNL     1       3.558   8.470   0.767  1.00  0.00     0.251 C 
ATOM      5  O   UNL     1       4.267   8.873   1.693  1.00  0.00    -0.269 OA
ATOM      6  H   UNL     1       3.547  10.301   0.058  1.00  0.00     0.163 HD
BRANCH   4   7
ATOM      7  C   UNL     1       3.232   7.000   0.634  1.00  0.00     0.047 C 
ATOM      8  C   UNL     1       2.033   6.584   0.166  1.00  0.00     0.022 C 
BRANCH   8   9
ATOM      9  C   UNL     1       1.558   5.213  -0.124  1.00  0.00    -0.025 A 
ATOM     10  C   UNL     1       0.710   2.640  -0.876  1.00  0.00     0.067 A 
ATOM     11  C   UNL     1       1.378   2.823   0.333  1.00  0.00     0.021 A 
ATOM     12  C   UNL     1       0.419   3.736  -1.692  1.00  0.00     0.021 A 
ATOM     13  C   UNL     1       1.774   4.112   0.713  1.00  0.00     0.009 A 
ATOM     14  C   UNL     1       0.842   5.013  -1.315  1.00  0.00     0.009 A 
BRANCH  10  15
ATOM     15  S   UNL     1       0.209   1.038  -1.458  1.00  0.00     0.175 S 
ATOM     16  C   UNL     1       0.735  -0.154  -0.260  1.00  0.00     0.163 C 
ATOM     17  O   UNL     1       0.958   0.792  -2.672  1.00  0.00    -0.224 OA
ATOM     18  O   UNL     1      -1.244   1.042  -1.459  1.00  0.00    -0.224 OA
ENDBRANCH  10  15
ENDBRANCH   8   9
BRANCH   7  19
ATOM     19  C   UNL     1       4.216   6.043   1.199  1.00  0.00    -0.013 A 
ATOM     20  C   UNL     1       4.430   6.031   2.589  1.00  0.00     0.009 A 
ATOM     21  C   UNL     1       4.890   5.105   0.406  1.00  0.00     0.009 A 
ATOM     22  C   UNL     1       5.279   5.094   3.176  1.00  0.00     0.001 A 
ATOM     23  C   UNL     1       5.731   4.157   0.998  1.00  0.00     0.001 A 
ATOM     24  C   UNL     1       5.922   4.150   2.381  1.00  0.00     0.000 A 
ENDBRANCH   7  19
ENDBRANCH   4   7
ENDBRANCH   2   3
ENDBRANCH   1   2
BRANCH   1  25
ATOM     25  C   UNL     1       0.987  11.485  -0.669  1.00  0.00     0.118 C 
BRANCH  25  26
ATOM     26  N   UNL     1       1.365  12.308  -1.807  1.00  0.00    -0.352 N 
ATOM     27  C   UNL     1       0.701  13.346  -2.410  1.00  0.00     0.251 C 
ATOM     28  H   UNL     1       2.236  12.084  -2.209  1.00  0.00     0.163 HD
ATOM     29  O   UNL     1       1.104  13.771  -3.490  1.00  0.00    -0.269 OA
BRANCH  27  30
ATOM     30  C   UNL     1      -0.496  13.955  -1.787  1.00  0.00     0.039 A 
ATOM     31  C   UNL     1      -1.568  14.312  -2.612  1.00  0.00     0.014 A 
ATOM     32  C   UNL     1      -0.546  14.238  -0.419  1.00  0.00     0.014 A 
ATOM     33  C   UNL     1      -2.706  14.905  -2.061  1.00  0.00     0.010 A 
ATOM     34  C   UNL     1      -1.706  14.776   0.139  1.00  0.00     0.010 A 
ATOM     35  C   UNL     1      -2.795  15.120  -0.676  1.00  0.00    -0.014 A 
BRANCH  35  36
ATOM     36  C   UNL     1      -4.025  15.692  -0.072  1.00  0.00     0.031 A 
ATOM     37  C   UNL     1      -3.998  17.044   0.585  1.00  0.00     0.074 A 
ATOM     38  C   UNL     1      -5.159  14.965  -0.064  1.00  0.00     0.049 A 
ATOM     39  N   UNL     1      -4.959  17.681   1.205  1.00  0.00    -0.248 NA
ATOM     40  C   UNL     1      -2.716  17.765   0.564  1.00  0.00     0.031 C 
ATOM     41  C   UNL     1      -5.302  13.618  -0.621  1.00  0.00     0.029 A 
ATOM     42  N   UNL     1      -6.403  15.250   0.440  1.00  0.00    -0.354 N 
ATOM     43  C   UNL     1      -4.395  18.866   1.663  1.00  0.00     0.074 A 
ATOM     44  C   UNL     1      -2.998  18.841   1.285  1.00  0.00     0.031 C 
ATOM     45  C   UNL     1      -6.565  13.201  -0.441  1.00  0.00     0.029 A 
ATOM     46  C   UNL     1      -7.312  14.236   0.268  1.00  0.00     0.049 A 
ATOM     47  H   UNL     1      -6.622  16.102   0.883  1.00  0.00     0.167 HD
ATOM     48  C   UNL     1      -4.991  19.888   2.323  1.00  0.00     0.037 A 
ATOM     49  C   UNL     1      -8.602  14.146   0.644  1.00  0.00     0.037 A 
ATOM     50  C   UNL     1      -6.388  19.925   2.673  1.00  0.00     0.049 A 
ATOM     51  C   UNL     1      -9.246  15.302   1.354  1.00  0.00     0.074 A 
ATOM     52  C   UNL     1      -7.100  20.950   3.273  1.00  0.00     0.029 A 
ATOM     53  N   UNL     1      -7.284  18.890   2.455  1.00  0.00    -0.354 N 
ATOM     54  N   UNL     1      -8.718  16.447   1.714  1.00  0.00    -0.248 NA
ATOM     55  C   UNL     1     -10.666  15.157   1.703  1.00  0.00     0.031 C 
ATOM     56  C   UNL     1      -8.419  20.519   3.453  1.00  0.00     0.029 A 
ATOM     57  C   UNL     1      -8.537  19.242   2.929  1.00  0.00     0.049 A 
ATOM     58  H   UNL     1      -7.062  18.031   2.028  1.00  0.00     0.167 HD
ATOM     59  C   UNL     1      -9.744  17.166   2.313  1.00  0.00     0.074 A 
ATOM     60  C   UNL     1     -10.928  16.334   2.253  1.00  0.00     0.031 C 
ATOM     61  C   UNL     1      -9.707  18.403   2.865  1.00  0.00     0.037 A 
BRANCH  48  62
ATOM     62  C   UNL     1      -4.131  21.055   2.711  1.00  0.00     0.057 A 
ATOM     63  C   UNL     1      -3.643  21.962   1.760  1.00  0.00     0.134 A 
ATOM     64  C   UNL     1      -3.815  21.296   4.054  1.00  0.00     0.134 A 
ATOM     65  F   UNL     1      -3.902  21.783   0.456  1.00  0.00    -0.206 F 
ATOM     66  C   UNL     1      -2.850  23.050   2.128  1.00  0.00     0.040 A 
ATOM     67  C   UNL     1      -3.043  22.394   4.437  1.00  0.00     0.040 A 
ATOM     68  F   UNL     1      -4.255  20.472   5.016  1.00  0.00    -0.206 F 
ATOM     69  C   UNL     1      -2.552  23.271   3.472  1.00  0.00     0.006 A 
ENDBRANCH  48  62
BRANCH  49  70
ATOM     70  C   UNL     1      -9.376  12.919   0.332  1.00  0.00     0.057 A 
ATOM     71  C   UNL     1     -10.367  12.924  -0.656  1.00  0.00     0.134 A 
ATOM     72  C   UNL     1      -9.138  11.715   1.005  1.00  0.00     0.134 A 
ATOM     73  F   UNL     1     -10.650  14.053  -1.322  1.00  0.00    -0.206 F 
ATOM     74  C   UNL     1     -11.105  11.778  -0.955  1.00  0.00     0.040 A 
ATOM     75  C   UNL     1      -9.854  10.556   0.701  1.00  0.00     0.040 A 
ATOM     76  F   UNL     1      -8.196  11.645   1.956  1.00  0.00    -0.206 F 
ATOM     77  C   UNL     1     -10.845  10.588  -0.279  1.00  0.00     0.006 A 
ENDBRANCH  49  70
BRANCH  61  78
ATOM     78  C   UNL     1     -10.989  18.938   3.429  1.00  0.00     0.057 A 
ATOM     79  C   UNL     1     -11.521  18.458   4.632  1.00  0.00     0.134 A 
ATOM     80  C   UNL     1     -11.684  19.963   2.776  1.00  0.00     0.134 A 
ATOM     81  F   UNL     1     -10.910  17.466   5.298  1.00  0.00    -0.206 F 
ATOM     82  C   UNL     1     -12.711  18.965   5.155  1.00  0.00     0.040 A 
ATOM     83  C   UNL     1     -12.863  20.494   3.301  1.00  0.00     0.040 A 
ATOM     84  F   UNL     1     -11.225  20.471   1.622  1.00  0.00    -0.206 F 
ATOM     85  C   UNL     1     -13.383  19.990   4.492  1.00  0.00     0.006 A 
ENDBRANCH  61  78
ENDBRANCH  35  36
ENDBRANCH  27  30
ENDBRANCH  25  26
ENDBRANCH   1  25
TORSDOF 13
