REMARK SMILES CC/C=C/C/C=C/C/C=C/C/C=C/CCSCCCC(=O)NCCCNC(=O)c1ccc(-c2c3nc(c(-c4c(F)cccc4F)c4ccc([nH]4)c(-c4c(F)cccc4F)c4nc(c(-c5c(F)cccc5F)c5ccc2[nH]5)C=C4)C=C3)cc1
REMARK SMILES IDX 17 1 16 2 15 3 14 4 13 5 12 6 11 7 10 8 9 9 8 10 7 11 6 12
REMARK SMILES IDX 5 13 4 14 3 15 2 16 1 17 18 18 19 19 20 20 21 21 22 22 23 24
REMARK SMILES IDX 24 25 25 26 26 27 27 28 28 30 29 31 30 32 82 33 31 34 81 35
REMARK SMILES IDX 32 36 33 37 34 38 75 39 35 40 80 41 74 42 76 43 36 44 79 45
REMARK SMILES IDX 73 46 72 47 37 49 63 50 46 51 62 52 47 53 50 54 61 55 77 56
REMARK SMILES IDX 48 57 49 58 60 60 78 61 51 62 38 63 39 64 44 65 40 66 41 67
REMARK SMILES IDX 43 68 45 69 42 70 64 71 65 72 70 73 66 74 67 75 69 76 71 77
REMARK SMILES IDX 68 78 52 79 53 80 58 81 54 82 55 83 57 84 59 85 56 86
REMARK H PARENT 22 23 26 29 76 48 50 59
REMARK Flexibility Score: inf
ROOT
ATOM      1  C   UNL     1      -6.249  10.825  -8.399  1.00  0.00     0.070 C 
ENDROOT
BRANCH   1   2
ATOM      2  S   UNL     1      -6.650  11.783  -6.871  1.00  0.00    -0.162 SA
BRANCH   2   3
ATOM      3  C   UNL     1      -5.560  11.248  -5.487  1.00  0.00     0.073 C 
BRANCH   3   4
ATOM      4  C   UNL     1      -6.108  10.170  -4.512  1.00  0.00     0.038 C 
BRANCH   4   5
ATOM      5  C   UNL     1      -5.361   8.858  -4.523  1.00  0.00    -0.030 C 
ATOM      6  C   UNL     1      -5.639   7.775  -3.775  1.00  0.00    -0.027 C 
BRANCH   6   7
ATOM      7  C   UNL     1      -5.086   6.381  -4.009  1.00  0.00     0.054 C 
BRANCH   7   8
ATOM      8  C   UNL     1      -3.658   6.289  -4.471  1.00  0.00    -0.027 C 
ATOM      9  C   UNL     1      -2.877   5.229  -4.202  1.00  0.00    -0.027 C 
BRANCH   9  10
ATOM     10  C   UNL     1      -1.421   5.128  -4.567  1.00  0.00     0.054 C 
BRANCH  10  11
ATOM     11  C   UNL     1      -0.606   5.261  -3.314  1.00  0.00    -0.027 C 
ATOM     12  C   UNL     1       0.172   4.294  -2.804  1.00  0.00    -0.027 C 
BRANCH  12  13
ATOM     13  C   UNL     1       0.821   4.382  -1.453  1.00  0.00     0.054 C 
BRANCH  13  14
ATOM     14  C   UNL     1       0.301   3.280  -0.576  1.00  0.00    -0.027 C 
ATOM     15  C   UNL     1       1.069   2.329  -0.022  1.00  0.00    -0.031 C 
BRANCH  15  16
ATOM     16  C   UNL     1       0.524   1.179   0.774  1.00  0.00     0.023 C 
ATOM     17  C   UNL     1       0.917  -0.146   0.138  1.00  0.00     0.008 C 
ENDBRANCH  15  16
ENDBRANCH  13  14
ENDBRANCH  12  13
ENDBRANCH  10  11
ENDBRANCH   9  10
ENDBRANCH   7   8
ENDBRANCH   6   7
ENDBRANCH   4   5
ENDBRANCH   3   4
ENDBRANCH   2   3
ENDBRANCH   1   2
BRANCH   1  18
ATOM     18  C   UNL     1      -4.865  10.334  -8.819  1.00  0.00     0.021 C 
BRANCH  18  19
ATOM     19  C   UNL     1      -4.155   9.273  -7.998  1.00  0.00     0.101 C 
BRANCH  19  20
ATOM     20  C   UNL     1      -4.497   7.810  -8.219  1.00  0.00     0.220 C 
ATOM     21  O   UNL     1      -3.658   7.048  -8.706  1.00  0.00    -0.275 OA
ATOM     22  N   UNL     1      -5.676   7.260  -7.837  1.00  0.00    -0.356 N 
ATOM     23  H   UNL     1      -5.781   6.315  -8.092  1.00  0.00     0.163 HD
BRANCH  22  24
ATOM     24  C   UNL     1      -6.807   7.809  -7.122  1.00  0.00     0.117 C 
BRANCH  24  25
ATOM     25  C   UNL     1      -8.108   7.636  -7.887  1.00  0.00     0.042 C 
BRANCH  25  26
ATOM     26  C   UNL     1      -9.019   6.640  -7.191  1.00  0.00     0.118 C 
BRANCH  26  27
ATOM     27  N   UNL     1      -9.773   7.229  -6.086  1.00  0.00    -0.352 N 
ATOM     28  C   UNL     1     -11.132   7.128  -5.841  1.00  0.00     0.251 C 
ATOM     29  H   UNL     1      -9.254   7.761  -5.440  1.00  0.00     0.163 HD
ATOM     30  O   UNL     1     -11.673   7.758  -4.954  1.00  0.00    -0.269 OA
BRANCH  28  31
ATOM     31  C   UNL     1     -11.914   6.249  -6.737  1.00  0.00     0.039 A 
ATOM     32  C   UNL     1     -12.965   6.788  -7.482  1.00  0.00     0.014 A 
ATOM     33  C   UNL     1     -11.468   4.947  -6.960  1.00  0.00     0.014 A 
ATOM     34  C   UNL     1     -13.498   6.049  -8.541  1.00  0.00     0.010 A 
ATOM     35  C   UNL     1     -11.920   4.267  -8.080  1.00  0.00     0.010 A 
ATOM     36  C   UNL     1     -12.934   4.811  -8.888  1.00  0.00    -0.014 A 
BRANCH  36  37
ATOM     37  C   UNL     1     -13.363   4.037 -10.082  1.00  0.00     0.031 A 
ATOM     38  C   UNL     1     -13.830   2.620  -9.898  1.00  0.00     0.074 A 
ATOM     39  C   UNL     1     -13.192   4.535 -11.322  1.00  0.00     0.049 A 
ATOM     40  N   UNL     1     -13.999   1.678 -10.788  1.00  0.00    -0.248 NA
ATOM     41  C   UNL     1     -14.072   2.190  -8.511  1.00  0.00     0.031 C 
ATOM     42  C   UNL     1     -12.690   5.872 -11.644  1.00  0.00     0.029 A 
ATOM     43  N   UNL     1     -13.390   3.953 -12.550  1.00  0.00    -0.354 N 
ATOM     44  C   UNL     1     -14.305   0.533 -10.064  1.00  0.00     0.074 A 
ATOM     45  C   UNL     1     -14.244   0.887  -8.663  1.00  0.00     0.031 C 
ATOM     46  C   UNL     1     -12.629   6.011 -12.978  1.00  0.00     0.029 A 
ATOM     47  C   UNL     1     -13.039   4.759 -13.607  1.00  0.00     0.049 A 
ATOM     48  H   UNL     1     -13.749   3.043 -12.663  1.00  0.00     0.167 HD
ATOM     49  C   UNL     1     -14.630  -0.698 -10.523  1.00  0.00     0.037 A 
ATOM     50  C   UNL     1     -13.029   4.510 -14.930  1.00  0.00     0.037 A 
ATOM     51  C   UNL     1     -14.758  -1.023 -11.917  1.00  0.00     0.049 A 
ATOM     52  C   UNL     1     -13.455   3.157 -15.427  1.00  0.00     0.074 A 
ATOM     53  C   UNL     1     -15.175  -2.209 -12.492  1.00  0.00     0.029 A 
ATOM     54  N   UNL     1     -14.480  -0.147 -12.957  1.00  0.00    -0.354 N 
ATOM     55  N   UNL     1     -13.799   2.097 -14.737  1.00  0.00    -0.248 NA
ATOM     56  C   UNL     1     -13.496   2.963 -16.884  1.00  0.00     0.031 C 
ATOM     57  C   UNL     1     -15.123  -2.061 -13.882  1.00  0.00     0.029 A 
ATOM     58  C   UNL     1     -14.710  -0.770 -14.171  1.00  0.00     0.049 A 
ATOM     59  H   UNL     1     -14.166   0.780 -12.847  1.00  0.00     0.167 HD
ATOM     60  C   UNL     1     -14.122   1.121 -15.670  1.00  0.00     0.074 A 
ATOM     61  C   UNL     1     -13.936   1.715 -16.978  1.00  0.00     0.031 C 
ATOM     62  C   UNL     1     -14.537  -0.153 -15.462  1.00  0.00     0.037 A 
BRANCH  49  63
ATOM     63  C   UNL     1     -14.871  -1.769  -9.500  1.00  0.00     0.057 A 
ATOM     64  C   UNL     1     -15.974  -1.736  -8.636  1.00  0.00     0.134 A 
ATOM     65  C   UNL     1     -13.976  -2.837  -9.363  1.00  0.00     0.134 A 
ATOM     66  F   UNL     1     -16.861  -0.732  -8.704  1.00  0.00    -0.206 F 
ATOM     67  C   UNL     1     -16.151  -2.697  -7.639  1.00  0.00     0.040 A 
ATOM     68  C   UNL     1     -14.161  -3.823  -8.392  1.00  0.00     0.040 A 
ATOM     69  F   UNL     1     -12.903  -2.935 -10.161  1.00  0.00    -0.206 F 
ATOM     70  C   UNL     1     -15.243  -3.747  -7.518  1.00  0.00     0.006 A 
ENDBRANCH  49  63
BRANCH  50  71
ATOM     71  C   UNL     1     -12.619   5.578 -15.876  1.00  0.00     0.057 A 
ATOM     72  C   UNL     1     -13.567   6.246 -16.660  1.00  0.00     0.134 A 
ATOM     73  C   UNL     1     -11.283   5.979 -15.997  1.00  0.00     0.134 A 
ATOM     74  F   UNL     1     -14.859   5.895 -16.600  1.00  0.00    -0.206 F 
ATOM     75  C   UNL     1     -13.201   7.270 -17.535  1.00  0.00     0.040 A 
ATOM     76  C   UNL     1     -10.906   7.016 -16.853  1.00  0.00     0.040 A 
ATOM     77  F   UNL     1     -10.329   5.385 -15.265  1.00  0.00    -0.206 F 
ATOM     78  C   UNL     1     -11.867   7.662 -17.628  1.00  0.00     0.006 A 
ENDBRANCH  50  71
BRANCH  62  79
ATOM     79  C   UNL     1     -14.862  -0.983 -16.666  1.00  0.00     0.057 A 
ATOM     80  C   UNL     1     -13.862  -1.547 -17.466  1.00  0.00     0.134 A 
ATOM     81  C   UNL     1     -16.194  -1.291 -16.974  1.00  0.00     0.134 A 
ATOM     82  F   UNL     1     -12.569  -1.280 -17.227  1.00  0.00    -0.206 F 
ATOM     83  C   UNL     1     -14.175  -2.389 -18.534  1.00  0.00     0.040 A 
ATOM     84  C   UNL     1     -16.518  -2.148 -18.026  1.00  0.00     0.040 A 
ATOM     85  F   UNL     1     -17.197  -0.787 -16.239  1.00  0.00    -0.206 F 
ATOM     86  C   UNL     1     -15.507  -2.700 -18.809  1.00  0.00     0.006 A 
ENDBRANCH  62  79
ENDBRANCH  36  37
ENDBRANCH  28  31
ENDBRANCH  26  27
ENDBRANCH  25  26
ENDBRANCH  24  25
ENDBRANCH  22  24
ENDBRANCH  19  20
ENDBRANCH  18  19
ENDBRANCH   1  18
TORSDOF 23
