REMARK SMILES Cc1cc(C)n(C)c(=O)c1C(=O)N1CCC2(CC1)C[NH2+][C@@H](C(=O)NCCCNC(=O)c1ccc(-c3c4nc(c(-c5c(F)cccc5F)c5ccc([nH]5)c(-c5c(F)cccc5F)c5nc(c(-c6c(F)cccc6F)c6ccc3[nH]6)C=C5)C=C4)cc1)C2
REMARK SMILES IDX 26 1 25 2 24 3 22 4 23 5 21 7 11 8 12 9 13 10 14 11 18 12
REMARK SMILES IDX 15 13 17 14 16 15 19 16 85 17 20 18 10 21 1 22 2 23 3 24
REMARK SMILES IDX 4 25 8 26 5 27 6 28 9 29 7 30 27 31 28 32 29 33 30 35 31 36
REMARK SMILES IDX 32 37 84 38 33 39 83 40 34 41 35 42 36 43 77 44 37 45 82 46
REMARK SMILES IDX 76 47 78 48 38 49 81 50 75 51 74 52 39 54 65 55 48 56 64 57
REMARK SMILES IDX 49 58 52 59 63 60 79 61 50 62 51 63 62 65 80 66 53 67 40 68
REMARK SMILES IDX 41 69 46 70 42 71 43 72 45 73 47 74 44 75 66 76 67 77 72 78
REMARK SMILES IDX 68 79 69 80 71 81 73 82 70 83 54 84 55 85 60 86 56 87 57 88
REMARK SMILES IDX 59 89 61 90 58 91
REMARK H PARENT 24 6 20 19 20 20 28 34 78 53 52 64
REMARK Flexibility Score: inf
ROOT
ATOM      1  C   UNL     1       2.903  -4.307  -4.500  1.00  0.00     0.042 C 
ENDROOT
BRANCH   1   2
ATOM      2  C   UNL     1       3.352  -5.084  -3.271  1.00  0.00     0.118 C 
BRANCH   2   3
ATOM      3  N   UNL     1       4.793  -5.268  -3.231  1.00  0.00    -0.351 N 
ATOM      4  C   UNL     1       5.720  -4.777  -2.358  1.00  0.00     0.278 C 
ATOM      5  O   UNL     1       6.898  -5.105  -2.529  1.00  0.00    -0.268 OA
ATOM      6  H   UNL     1       5.158  -5.837  -3.947  1.00  0.00     0.163 HD
BRANCH   4   7
ATOM      7  C   UNL     1       5.334  -3.821  -1.224  1.00  0.00     0.273 C 
ATOM      8  C   UNL     1       2.487   2.062  -0.519  1.00  0.00     0.259 C 
ATOM      9  O   UNL     1       3.287   2.977  -0.301  1.00  0.00    -0.269 OA
ATOM     10  N   UNL     1       2.974   0.819  -0.906  1.00  0.00    -0.338 N 
ATOM     11  C   UNL     1       4.355   0.520  -0.561  1.00  0.00     0.120 C 
ATOM     12  C   UNL     1       2.379  -0.115  -1.856  1.00  0.00     0.120 C 
ATOM     13  C   UNL     1       4.388  -0.809   0.170  1.00  0.00     0.034 C 
ATOM     14  C   UNL     1       2.515  -1.587  -1.414  1.00  0.00     0.034 C 
ATOM     15  C   UNL     1       3.841  -1.968  -0.687  1.00  0.00     0.029 C 
ATOM     16  C   UNL     1       3.643  -3.188   0.249  1.00  0.00     0.268 C 
ATOM     17  C   UNL     1       4.904  -2.440  -1.704  1.00  0.00     0.088 C 
ATOM     18  N   UNL     1       4.191  -4.334  -0.453  1.00  0.00    -0.336 N 
ATOM     19  H   UNL     1       3.492  -4.736  -1.078  1.00  0.00     0.346 HD
ATOM     20  H   UNL     1       4.474  -5.071   0.193  1.00  0.00     0.346 HD
BRANCH   8  21
ATOM     21  C   UNL     1       1.032   2.292  -0.182  1.00  0.00     0.108 A 
ATOM     22  C   UNL     1       0.484  -0.045   0.723  1.00  0.00     0.045 C 
ATOM     23  C   UNL     1       0.202   1.386   0.387  1.00  0.00    -0.031 A 
ATOM     24  C   UNL     1      -1.101   1.783   0.887  1.00  0.00     0.026 A 
ATOM     25  C   UNL     1      -1.433   3.068   1.055  1.00  0.00     0.018 A 
ATOM     26  C   UNL     1       0.550   3.737  -0.203  1.00  0.00     0.263 A 
ATOM     27  C   UNL     1      -2.730   3.397   1.742  1.00  0.00     0.064 C 
ATOM     28  N   UNL     1      -0.581   4.052   0.572  1.00  0.00    -0.315 N 
ATOM     29  O   UNL     1       1.137   4.590  -0.869  1.00  0.00    -0.268 OA
ATOM     30  C   UNL     1      -0.871   5.462   0.800  1.00  0.00     0.153 C 
ENDBRANCH   8  21
ENDBRANCH   4   7
ENDBRANCH   2   3
ENDBRANCH   1   2
BRANCH   1  31
ATOM     31  C   UNL     1       3.183  -5.022  -5.812  1.00  0.00     0.118 C 
BRANCH  31  32
ATOM     32  N   UNL     1       2.458  -6.280  -5.922  1.00  0.00    -0.352 N 
ATOM     33  C   UNL     1       1.537  -6.685  -6.850  1.00  0.00     0.251 C 
ATOM     34  H   UNL     1       2.662  -6.941  -5.221  1.00  0.00     0.163 HD
ATOM     35  O   UNL     1       0.882  -7.711  -6.652  1.00  0.00    -0.269 OA
BRANCH  33  36
ATOM     36  C   UNL     1       1.311  -5.897  -8.077  1.00  0.00     0.039 A 
ATOM     37  C   UNL     1       0.003  -5.738  -8.546  1.00  0.00     0.014 A 
ATOM     38  C   UNL     1       2.381  -5.343  -8.785  1.00  0.00     0.014 A 
ATOM     39  C   UNL     1      -0.235  -4.979  -9.693  1.00  0.00     0.010 A 
ATOM     40  C   UNL     1       2.137  -4.523  -9.880  1.00  0.00     0.010 A 
ATOM     41  C   UNL     1       0.829  -4.343 -10.351  1.00  0.00    -0.014 A 
BRANCH  41  42
ATOM     42  C   UNL     1       0.603  -3.498 -11.547  1.00  0.00     0.031 A 
ATOM     43  C   UNL     1       1.175  -3.909 -12.873  1.00  0.00     0.074 A 
ATOM     44  C   UNL     1      -0.047  -2.327 -11.423  1.00  0.00     0.049 A 
ATOM     45  N   UNL     1       1.182  -3.259 -14.008  1.00  0.00    -0.248 NA
ATOM     46  C   UNL     1       1.852  -5.215 -12.923  1.00  0.00     0.031 C 
ATOM     47  C   UNL     1      -0.620  -1.806 -10.181  1.00  0.00     0.029 A 
ATOM     48  N   UNL     1      -0.321  -1.354 -12.351  1.00  0.00    -0.354 N 
ATOM     49  C   UNL     1       1.878  -4.065 -14.899  1.00  0.00     0.074 A 
ATOM     50  C   UNL     1       2.318  -5.230 -14.163  1.00  0.00     0.031 C 
ATOM     51  C   UNL     1      -1.188  -0.616 -10.426  1.00  0.00     0.029 A 
ATOM     52  C   UNL     1      -0.981  -0.270 -11.830  1.00  0.00     0.049 A 
ATOM     53  H   UNL     1      -0.067  -1.427 -13.299  1.00  0.00     0.167 HD
ATOM     54  C   UNL     1       2.112  -3.860 -16.217  1.00  0.00     0.037 A 
ATOM     55  C   UNL     1      -1.365   0.882 -12.413  1.00  0.00     0.037 A 
ATOM     56  C   UNL     1       1.653  -2.707 -16.947  1.00  0.00     0.049 A 
ATOM     57  C   UNL     1      -1.083   1.096 -13.872  1.00  0.00     0.074 A 
ATOM     58  C   UNL     1       1.784  -2.436 -18.297  1.00  0.00     0.029 A 
ATOM     59  N   UNL     1       0.979  -1.632 -16.386  1.00  0.00    -0.354 N 
ATOM     60  N   UNL     1      -0.471   0.304 -14.719  1.00  0.00    -0.248 NA
ATOM     61  C   UNL     1      -1.548   2.360 -14.459  1.00  0.00     0.031 C 
ATOM     62  C   UNL     1       1.238  -1.172 -18.544  1.00  0.00     0.029 A 
ATOM     63  C   UNL     1       0.715  -0.681 -17.358  1.00  0.00     0.049 A 
ATOM     64  H   UNL     1       0.727  -1.556 -15.438  1.00  0.00     0.167 HD
ATOM     65  C   UNL     1      -0.490   0.963 -15.941  1.00  0.00     0.074 A 
ATOM     66  C   UNL     1      -1.191   2.213 -15.728  1.00  0.00     0.031 C 
ATOM     67  C   UNL     1       0.025   0.566 -17.131  1.00  0.00     0.037 A 
BRANCH  54  68
ATOM     68  C   UNL     1       2.906  -4.902 -16.951  1.00  0.00     0.057 A 
ATOM     69  C   UNL     1       2.390  -6.177 -17.217  1.00  0.00     0.134 A 
ATOM     70  C   UNL     1       4.191  -4.614 -17.428  1.00  0.00     0.134 A 
ATOM     71  F   UNL     1       1.171  -6.523 -16.777  1.00  0.00    -0.206 F 
ATOM     72  C   UNL     1       3.133  -7.136 -17.908  1.00  0.00     0.040 A 
ATOM     73  C   UNL     1       4.932  -5.554 -18.146  1.00  0.00     0.040 A 
ATOM     74  F   UNL     1       4.745  -3.411 -17.213  1.00  0.00    -0.206 F 
ATOM     75  C   UNL     1       4.405  -6.823 -18.382  1.00  0.00     0.006 A 
ENDBRANCH  54  68
BRANCH  55  76
ATOM     76  C   UNL     1      -2.079   1.900 -11.604  1.00  0.00     0.057 A 
ATOM     77  C   UNL     1      -3.450   2.120 -11.773  1.00  0.00     0.134 A 
ATOM     78  C   UNL     1      -1.425   2.631 -10.605  1.00  0.00     0.134 A 
ATOM     79  F   UNL     1      -4.127   1.461 -12.725  1.00  0.00    -0.206 F 
ATOM     80  C   UNL     1      -4.148   3.028 -10.975  1.00  0.00     0.040 A 
ATOM     81  C   UNL     1      -2.115   3.525  -9.784  1.00  0.00     0.040 A 
ATOM     82  F   UNL     1      -0.113   2.457 -10.388  1.00  0.00    -0.206 F 
ATOM     83  C   UNL     1      -3.481   3.726  -9.969  1.00  0.00     0.006 A 
ENDBRANCH  55  76
BRANCH  67  84
ATOM     84  C   UNL     1      -0.155   1.486 -18.303  1.00  0.00     0.057 A 
ATOM     85  C   UNL     1       0.555   2.687 -18.415  1.00  0.00     0.134 A 
ATOM     86  C   UNL     1      -1.005   1.136 -19.362  1.00  0.00     0.134 A 
ATOM     87  F   UNL     1       1.377   3.085 -17.433  1.00  0.00    -0.206 F 
ATOM     88  C   UNL     1       0.414   3.517 -19.529  1.00  0.00     0.040 A 
ATOM     89  C   UNL     1      -1.133   1.943 -20.493  1.00  0.00     0.040 A 
ATOM     90  F   UNL     1      -1.706  -0.007 -19.324  1.00  0.00    -0.206 F 
ATOM     91  C   UNL     1      -0.425   3.141 -20.576  1.00  0.00     0.006 A 
ENDBRANCH  67  84
ENDBRANCH  41  42
ENDBRANCH  33  36
ENDBRANCH  31  32
ENDBRANCH   1  31
TORSDOF 11
