REMARK SMILES Cc1nsc(NC(=O)CC[C@H](C)CC[NH3+])c1C(=O)NCCCNC(=O)c1ccc(-c2c3nc(c(-c4c(F)cccc4F)c4ccc([nH]4)c(-c4c(F)cccc4F)c4nc(c(-c5c(F)cccc5F)c5ccc2[nH]5)C=C4)C=C3)cc1
REMARK SMILES IDX 1 1 2 2 3 3 4 4 5 5 16 6 17 7 18 8 19 9 20 11 21 12 22 13
REMARK SMILES IDX 23 14 24 15 25 17 26 18 27 19 79 20 28 21 78 22 29 23 30 24
REMARK SMILES IDX 31 25 72 26 32 27 77 28 71 29 73 30 33 31 76 32 70 33 69 34
REMARK SMILES IDX 34 36 60 37 43 38 59 39 44 40 47 41 58 42 74 43 45 44 46 45
REMARK SMILES IDX 57 47 75 48 48 49 35 50 36 51 41 52 37 53 38 54 40 55 42 56
REMARK SMILES IDX 39 57 61 58 62 59 67 60 63 61 64 62 66 63 68 64 65 65 49 66
REMARK SMILES IDX 50 67 55 68 51 69 52 70 54 71 56 72 53 73 6 74 7 75 8 77
REMARK SMILES IDX 9 78 10 79 11 80 12 81 13 82 14 83 15 84
REMARK H PARENT 19 10 23 16 73 35 47 46 6 76 15 85 15 86 15 87
REMARK Flexibility Score: inf
ROOT
ATOM      1  C   UNL     1       5.681   0.836  -5.303  1.00  0.00     0.069 C 
ATOM      2  C   UNL     1       4.695   0.407  -4.267  1.00  0.00     0.066 A 
ATOM      3  N   UNL     1       4.048  -0.708  -4.623  1.00  0.00    -0.195 NA
ATOM      4  S   UNL     1       2.881  -1.042  -3.526  1.00  0.00    -0.017 S 
ATOM      5  C   UNL     1       3.030   0.431  -2.697  1.00  0.00     0.129 A 
ATOM      6  C   UNL     1       4.289   0.989  -2.978  1.00  0.00     0.097 A 
ENDROOT
BRANCH   6   7
ATOM      7  C   UNL     1       4.827   1.996  -2.037  1.00  0.00     0.256 C 
ATOM      8  O   UNL     1       4.327   2.107  -0.910  1.00  0.00    -0.269 OA
ATOM      9  N   UNL     1       5.882   2.845  -2.264  1.00  0.00    -0.352 N 
ATOM     10  H   UNL     1       6.180   3.349  -1.473  1.00  0.00     0.163 HD
BRANCH   9  11
ATOM     11  C   UNL     1       6.623   3.121  -3.462  1.00  0.00     0.118 C 
BRANCH  11  12
ATOM     12  C   UNL     1       6.907   4.585  -3.765  1.00  0.00     0.042 C 
BRANCH  12  13
ATOM     13  C   UNL     1       8.059   5.181  -2.988  1.00  0.00     0.118 C 
BRANCH  13  14
ATOM     14  N   UNL     1       9.349   4.564  -3.291  1.00  0.00    -0.352 N 
ATOM     15  C   UNL     1      10.565   4.827  -2.676  1.00  0.00     0.251 C 
ATOM     16  H   UNL     1       9.356   3.890  -4.008  1.00  0.00     0.163 HD
ATOM     17  O   UNL     1      11.619   4.554  -3.210  1.00  0.00    -0.269 OA
BRANCH  15  18
ATOM     18  C   UNL     1      10.528   5.481  -1.354  1.00  0.00     0.039 A 
ATOM     19  C   UNL     1      11.296   6.616  -1.103  1.00  0.00     0.014 A 
ATOM     20  C   UNL     1       9.604   5.013  -0.421  1.00  0.00     0.014 A 
ATOM     21  C   UNL     1      11.032   7.349   0.049  1.00  0.00     0.010 A 
ATOM     22  C   UNL     1       9.240   5.821   0.630  1.00  0.00     0.010 A 
ATOM     23  C   UNL     1       9.961   6.982   0.887  1.00  0.00    -0.014 A 
BRANCH  23  24
ATOM     24  C   UNL     1       9.499   7.913   1.920  1.00  0.00     0.031 A 
ATOM     25  C   UNL     1       9.365   9.316   1.441  1.00  0.00     0.074 A 
ATOM     26  C   UNL     1       9.069   7.563   3.152  1.00  0.00     0.049 A 
ATOM     27  N   UNL     1      10.157  10.300   1.708  1.00  0.00    -0.248 NA
ATOM     28  C   UNL     1       8.354   9.631   0.418  1.00  0.00     0.031 C 
ATOM     29  C   UNL     1       8.847   6.216   3.687  1.00  0.00     0.029 A 
ATOM     30  N   UNL     1       8.650   8.361   4.179  1.00  0.00    -0.354 N 
ATOM     31  C   UNL     1       9.601  11.415   1.093  1.00  0.00     0.074 A 
ATOM     32  C   UNL     1       8.633  10.911   0.155  1.00  0.00     0.031 C 
ATOM     33  C   UNL     1       8.128   6.289   4.828  1.00  0.00     0.029 A 
ATOM     34  C   UNL     1       7.997   7.684   5.205  1.00  0.00     0.049 A 
ATOM     35  H   UNL     1       8.798   9.334   4.192  1.00  0.00     0.167 HD
ATOM     36  C   UNL     1       9.774  12.650   1.639  1.00  0.00     0.037 A 
ATOM     37  C   UNL     1       7.393   8.220   6.294  1.00  0.00     0.037 A 
ATOM     38  C   UNL     1      10.866  12.637   2.589  1.00  0.00     0.049 A 
ATOM     39  C   UNL     1       7.966   9.569   6.492  1.00  0.00     0.074 A 
ATOM     40  C   UNL     1      12.207  12.311   2.551  1.00  0.00     0.029 A 
ATOM     41  N   UNL     1      10.517  12.640   3.916  1.00  0.00    -0.354 N 
ATOM     42  N   UNL     1       9.188   9.791   6.882  1.00  0.00    -0.248 NA
ATOM     43  C   UNL     1       7.291  10.698   5.876  1.00  0.00     0.031 C 
ATOM     44  C   UNL     1      12.481  11.704   3.814  1.00  0.00     0.029 A 
ATOM     45  C   UNL     1      11.319  11.759   4.585  1.00  0.00     0.049 A 
ATOM     46  H   UNL     1       9.806  13.187   4.320  1.00  0.00     0.167 HD
ATOM     47  C   UNL     1       9.587  10.893   6.146  1.00  0.00     0.074 A 
ATOM     48  C   UNL     1       8.344  11.492   5.666  1.00  0.00     0.031 C 
ATOM     49  C   UNL     1      10.889  11.030   5.756  1.00  0.00     0.037 A 
BRANCH  36  50
ATOM     50  C   UNL     1       8.686  13.708   1.709  1.00  0.00     0.057 A 
ATOM     51  C   UNL     1       8.993  14.948   2.304  1.00  0.00     0.134 A 
ATOM     52  C   UNL     1       7.308  13.454   1.549  1.00  0.00     0.134 A 
ATOM     53  F   UNL     1      10.267  15.315   2.514  1.00  0.00    -0.206 F 
ATOM     54  C   UNL     1       8.008  15.805   2.812  1.00  0.00     0.040 A 
ATOM     55  C   UNL     1       6.317  14.328   2.007  1.00  0.00     0.040 A 
ATOM     56  F   UNL     1       6.833  12.314   1.040  1.00  0.00    -0.206 F 
ATOM     57  C   UNL     1       6.664  15.488   2.677  1.00  0.00     0.006 A 
ENDBRANCH  36  50
BRANCH  37  58
ATOM     58  C   UNL     1       6.218   7.755   7.066  1.00  0.00     0.057 A 
ATOM     59  C   UNL     1       5.909   8.311   8.318  1.00  0.00     0.134 A 
ATOM     60  C   UNL     1       5.207   6.982   6.471  1.00  0.00     0.134 A 
ATOM     61  F   UNL     1       6.796   9.089   8.957  1.00  0.00    -0.206 F 
ATOM     62  C   UNL     1       4.654   8.151   8.919  1.00  0.00     0.040 A 
ATOM     63  C   UNL     1       3.951   6.808   7.063  1.00  0.00     0.040 A 
ATOM     64  F   UNL     1       5.371   6.451   5.251  1.00  0.00    -0.206 F 
ATOM     65  C   UNL     1       3.664   7.411   8.282  1.00  0.00     0.006 A 
ENDBRANCH  37  58
BRANCH  49  66
ATOM     66  C   UNL     1      11.925  10.207   6.471  1.00  0.00     0.057 A 
ATOM     67  C   UNL     1      11.970   8.805   6.495  1.00  0.00     0.134 A 
ATOM     68  C   UNL     1      12.988  10.883   7.083  1.00  0.00     0.134 A 
ATOM     69  F   UNL     1      11.053   8.064   5.859  1.00  0.00    -0.206 F 
ATOM     70  C   UNL     1      12.999   8.114   7.146  1.00  0.00     0.040 A 
ATOM     71  C   UNL     1      14.040  10.206   7.700  1.00  0.00     0.040 A 
ATOM     72  F   UNL     1      13.038  12.225   7.060  1.00  0.00    -0.206 F 
ATOM     73  C   UNL     1      14.041   8.815   7.746  1.00  0.00     0.006 A 
ENDBRANCH  49  66
ENDBRANCH  23  24
ENDBRANCH  15  18
ENDBRANCH  13  14
ENDBRANCH  12  13
ENDBRANCH  11  12
ENDBRANCH   9  11
ENDBRANCH   6   7
BRANCH   5  74
ATOM     74  N   UNL     1       2.085   0.821  -1.772  1.00  0.00    -0.316 N 
ATOM     75  C   UNL     1       0.719   0.754  -1.820  1.00  0.00     0.225 C 
ATOM     76  H   UNL     1       2.450   1.211  -0.945  1.00  0.00     0.170 HD
ATOM     77  O   UNL     1       0.093   1.108  -0.814  1.00  0.00    -0.275 OA
BRANCH  75  78
ATOM     78  C   UNL     1      -0.061   0.380  -3.077  1.00  0.00     0.101 C 
BRANCH  78  79
ATOM     79  C   UNL     1      -0.683   1.581  -3.810  1.00  0.00     0.013 C 
BRANCH  79  80
ATOM     80  C   UNL     1       0.291   2.600  -4.446  1.00  0.00    -0.008 C 
ATOM     81  C   UNL     1      -0.505   3.708  -5.147  1.00  0.00     0.008 C 
BRANCH  80  82
ATOM     82  C   UNL     1       1.269   1.962  -5.451  1.00  0.00     0.064 C 
BRANCH  82  83
ATOM     83  C   UNL     1       2.376   2.881  -5.989  1.00  0.00     0.259 C 
BRANCH  83  84
ATOM     84  N   UNL     1       3.008   3.701  -4.962  1.00  0.00    -0.358 N 
ATOM     85  H   UNL     1       2.312   4.321  -4.547  1.00  0.00     0.344 HD
ATOM     86  H   UNL     1       3.752   4.257  -5.382  1.00  0.00     0.344 HD
ATOM     87  H   UNL     1       3.400   3.098  -4.239  1.00  0.00     0.344 HD
ENDBRANCH  83  84
ENDBRANCH  82  83
ENDBRANCH  80  82
ENDBRANCH  79  80
ENDBRANCH  78  79
ENDBRANCH  75  78
ENDBRANCH   5  74
TORSDOF 17
