REMARK SMILES CCC(=O)Nc1cc(NC(=O)/C=C/C(=O)NCCCNC(=O)c2ccc(-c3c4nc(c(-c5c(F)cccc5F)c5ccc([nH]5)c(-c5c(F)cccc5F)c5nc(c(-c6c(F)cccc6F)c6ccc3[nH]6)C=C5)C=C4)cc2)ccc1C
REMARK SMILES IDX 17 1 16 2 14 3 15 4 13 6 12 7 10 8 9 9 11 11 8 12 6 13 7 14
REMARK SMILES IDX 79 15 78 16 80 17 77 18 5 19 3 20 4 21 2 23 1 24 18 25 19 26
REMARK SMILES IDX 20 27 21 28 22 30 23 31 24 32 76 33 25 34 75 35 26 36 27 37
REMARK SMILES IDX 28 38 69 39 29 40 74 41 68 42 70 43 30 44 73 45 67 46 66 47
REMARK SMILES IDX 31 49 57 50 40 51 56 52 41 53 44 54 55 55 71 56 42 57 43 58
REMARK SMILES IDX 54 60 72 61 45 62 32 63 33 64 38 65 34 66 35 67 37 68 39 69
REMARK SMILES IDX 36 70 58 71 59 72 64 73 60 74 61 75 63 76 65 77 62 78 46 79
REMARK SMILES IDX 47 80 52 81 48 82 49 83 51 84 53 85 50 86
REMARK H PARENT 16 5 9 10 5 22 20 29 70 48 44 59
REMARK Flexibility Score: inf
ROOT
ATOM      1  C   UNL     1       5.356  -1.082   7.183  1.00  0.00     0.118 C 
ENDROOT
BRANCH   1   2
ATOM      2  N   UNL     1       4.410  -0.301   6.398  1.00  0.00    -0.352 N 
ATOM      3  C   UNL     1       4.506   0.122   5.108  1.00  0.00     0.244 C 
ATOM      4  O   UNL     1       3.634   0.826   4.604  1.00  0.00    -0.270 OA
ATOM      5  H   UNL     1       3.584  -0.043   6.867  1.00  0.00     0.163 HD
BRANCH   3   6
ATOM      6  C   UNL     1       5.673  -0.263   4.290  1.00  0.00     0.077 C 
ATOM      7  C   UNL     1       5.884  -1.559   4.020  1.00  0.00     0.077 C 
BRANCH   7   8
ATOM      8  C   UNL     1       6.810  -1.952   2.949  1.00  0.00     0.248 C 
ATOM      9  N   UNL     1       6.449  -1.797   1.638  1.00  0.00    -0.322 N 
ATOM     10  H   UNL     1       7.114  -2.138   0.997  1.00  0.00     0.170 HD
ATOM     11  O   UNL     1       7.904  -2.425   3.251  1.00  0.00    -0.270 OA
BRANCH   9  12
ATOM     12  C   UNL     1       5.302  -1.240   1.032  1.00  0.00     0.043 A 
ATOM     13  C   UNL     1       3.126  -0.146   1.136  1.00  0.00     0.046 A 
ATOM     14  C   UNL     1       4.107  -0.966   1.697  1.00  0.00     0.052 A 
ATOM     15  C   UNL     1       3.310   0.372  -0.150  1.00  0.00    -0.027 A 
ATOM     16  C   UNL     1       4.425  -0.058  -0.890  1.00  0.00     0.008 A 
ATOM     17  C   UNL     1       2.490   1.496  -0.721  1.00  0.00     0.046 C 
ATOM     18  C   UNL     1       5.412  -0.856  -0.303  1.00  0.00     0.026 A 
BRANCH  13  19
ATOM     19  N   UNL     1       2.136   0.323   2.010  1.00  0.00    -0.326 N 
ATOM     20  C   UNL     1       0.782   0.145   1.964  1.00  0.00     0.224 C 
ATOM     21  O   UNL     1       0.058   0.819   2.701  1.00  0.00    -0.275 OA
ATOM     22  H   UNL     1       2.464   0.858   2.768  1.00  0.00     0.169 HD
BRANCH  20  23
ATOM     23  C   UNL     1       0.195  -0.978   1.130  1.00  0.00     0.097 C 
ATOM     24  C   UNL     1       0.031  -0.690  -0.345  1.00  0.00     0.014 C 
ENDBRANCH  20  23
ENDBRANCH  13  19
ENDBRANCH   9  12
ENDBRANCH   7   8
ENDBRANCH   3   6
ENDBRANCH   1   2
BRANCH   1  25
ATOM     25  C   UNL     1       6.653  -0.328   7.465  1.00  0.00     0.042 C 
BRANCH  25  26
ATOM     26  C   UNL     1       6.546   0.566   8.691  1.00  0.00     0.118 C 
BRANCH  26  27
ATOM     27  N   UNL     1       7.073  -0.048   9.906  1.00  0.00    -0.352 N 
ATOM     28  C   UNL     1       6.978   0.396  11.216  1.00  0.00     0.251 C 
ATOM     29  H   UNL     1       7.562  -0.892   9.777  1.00  0.00     0.163 HD
ATOM     30  O   UNL     1       7.466  -0.242  12.126  1.00  0.00    -0.269 OA
BRANCH  28  31
ATOM     31  C   UNL     1       6.151   1.596  11.492  1.00  0.00     0.039 A 
ATOM     32  C   UNL     1       5.121   1.465  12.427  1.00  0.00     0.014 A 
ATOM     33  C   UNL     1       6.232   2.720  10.673  1.00  0.00     0.014 A 
ATOM     34  C   UNL     1       4.035   2.332  12.358  1.00  0.00     0.010 A 
ATOM     35  C   UNL     1       5.118   3.529  10.545  1.00  0.00     0.010 A 
ATOM     36  C   UNL     1       3.990   3.283  11.335  1.00  0.00    -0.014 A 
BRANCH  36  37
ATOM     37  C   UNL     1       2.740   3.918  10.931  1.00  0.00     0.031 A 
ATOM     38  C   UNL     1       2.442   5.317  11.290  1.00  0.00     0.074 A 
ATOM     39  C   UNL     1       1.828   3.205  10.232  1.00  0.00     0.049 A 
ATOM     40  N   UNL     1       1.257   5.754  11.562  1.00  0.00    -0.248 NA
ATOM     41  C   UNL     1       3.480   6.333  11.404  1.00  0.00     0.031 C 
ATOM     42  C   UNL     1       0.614   3.707   9.596  1.00  0.00     0.029 A 
ATOM     43  N   UNL     1       1.726   1.809  10.136  1.00  0.00    -0.354 N 
ATOM     44  C   UNL     1       1.329   7.125  11.635  1.00  0.00     0.074 A 
ATOM     45  C   UNL     1       2.743   7.432  11.591  1.00  0.00     0.031 C 
ATOM     46  C   UNL     1      -0.237   2.683   9.425  1.00  0.00     0.029 A 
ATOM     47  C   UNL     1       0.348   1.517  10.066  1.00  0.00     0.049 A 
ATOM     48  H   UNL     1       2.468   1.163  10.121  1.00  0.00     0.167 HD
ATOM     49  C   UNL     1       0.193   7.878  11.583  1.00  0.00     0.037 A 
ATOM     50  C   UNL     1      -0.272   0.742  10.999  1.00  0.00     0.037 A 
ATOM     51  C   UNL     1      -0.999   7.050  11.432  1.00  0.00     0.049 A 
ATOM     52  C   UNL     1      -1.405   1.429  11.720  1.00  0.00     0.074 A 
ATOM     53  C   UNL     1      -1.715   6.664  10.311  1.00  0.00     0.029 A 
ATOM     54  N   UNL     1      -1.431   6.239  12.475  1.00  0.00    -0.354 N 
ATOM     55  N   UNL     1      -1.579   2.720  11.737  1.00  0.00    -0.248 NA
ATOM     56  C   UNL     1      -2.388   0.720  12.538  1.00  0.00     0.031 C 
ATOM     57  C   UNL     1      -2.551   5.583  10.670  1.00  0.00     0.029 A 
ATOM     58  C   UNL     1      -2.353   5.317  12.013  1.00  0.00     0.049 A 
ATOM     59  H   UNL     1      -1.125   6.310  13.408  1.00  0.00     0.167 HD
ATOM     60  C   UNL     1      -2.602   3.026  12.595  1.00  0.00     0.074 A 
ATOM     61  C   UNL     1      -3.102   1.740  13.042  1.00  0.00     0.031 C 
ATOM     62  C   UNL     1      -2.928   4.316  12.895  1.00  0.00     0.037 A 
BRANCH  49  63
ATOM     63  C   UNL     1       0.222   9.365  11.325  1.00  0.00     0.057 A 
ATOM     64  C   UNL     1      -0.737   9.988  10.503  1.00  0.00     0.134 A 
ATOM     65  C   UNL     1       1.216  10.227  11.818  1.00  0.00     0.134 A 
ATOM     66  F   UNL     1      -1.816   9.335  10.056  1.00  0.00    -0.206 F 
ATOM     67  C   UNL     1      -0.632  11.321  10.088  1.00  0.00     0.040 A 
ATOM     68  C   UNL     1       1.364  11.549  11.371  1.00  0.00     0.040 A 
ATOM     69  F   UNL     1       2.070   9.827  12.772  1.00  0.00    -0.206 F 
ATOM     70  C   UNL     1       0.448  12.094  10.484  1.00  0.00     0.006 A 
ENDBRANCH  49  63
BRANCH  50  71
ATOM     71  C   UNL     1       0.607  -0.276  11.628  1.00  0.00     0.057 A 
ATOM     72  C   UNL     1       1.106  -1.330  10.847  1.00  0.00     0.134 A 
ATOM     73  C   UNL     1       1.210  -0.059  12.870  1.00  0.00     0.134 A 
ATOM     74  F   UNL     1       0.574  -1.589   9.642  1.00  0.00    -0.206 F 
ATOM     75  C   UNL     1       2.215  -2.081  11.244  1.00  0.00     0.040 A 
ATOM     76  C   UNL     1       2.318  -0.808  13.280  1.00  0.00     0.040 A 
ATOM     77  F   UNL     1       0.803   0.943  13.662  1.00  0.00    -0.206 F 
ATOM     78  C   UNL     1       2.844  -1.799  12.453  1.00  0.00     0.006 A 
ENDBRANCH  50  71
BRANCH  62  79
ATOM     79  C   UNL     1      -3.877   4.739  13.981  1.00  0.00     0.057 A 
ATOM     80  C   UNL     1      -4.026   4.056  15.197  1.00  0.00     0.134 A 
ATOM     81  C   UNL     1      -4.581   5.957  13.881  1.00  0.00     0.134 A 
ATOM     82  F   UNL     1      -3.331   2.940  15.462  1.00  0.00    -0.206 F 
ATOM     83  C   UNL     1      -4.862   4.521  16.220  1.00  0.00     0.040 A 
ATOM     84  C   UNL     1      -5.381   6.455  14.914  1.00  0.00     0.040 A 
ATOM     85  F   UNL     1      -4.503   6.723  12.782  1.00  0.00    -0.206 F 
ATOM     86  C   UNL     1      -5.535   5.728  16.085  1.00  0.00     0.006 A 
ENDBRANCH  62  79
ENDBRANCH  36  37
ENDBRANCH  28  31
ENDBRANCH  26  27
ENDBRANCH  25  26
ENDBRANCH   1  25
TORSDOF 14
