REMARK SMILES C[C@@H](C(=O)NCCCNC(=O)c1ccc(-c2c3nc(c(-c4c(F)cccc4F)c4ccc([nH]4)c(-c4c(F)cccc4F)c4nc(c(-c5c(F)cccc5F)c5ccc2[nH]5)C=C4)C=C3)cc1)c1ccc(C[C@H]2CCC[C@@H]2O)cc1Br
REMARK SMILES IDX 6 1 5 2 3 3 4 4 2 6 1 7 66 8 67 9 78 10 68 11 77 12 79 13
REMARK SMILES IDX 69 14 70 15 71 16 72 17 75 18 73 19 74 20 76 21 7 23 8 24
REMARK SMILES IDX 9 25 10 26 11 28 12 29 13 30 65 31 14 32 64 33 15 34 16 35
REMARK SMILES IDX 17 36 58 37 18 38 63 39 57 40 59 41 19 42 62 43 56 44 55 45
REMARK SMILES IDX 20 47 46 48 29 49 45 50 30 51 33 52 44 53 60 54 31 55 32 56
REMARK SMILES IDX 43 58 61 59 34 60 21 61 22 62 27 63 23 64 24 65 26 66 28 67
REMARK SMILES IDX 25 68 47 69 48 70 53 71 49 72 50 73 52 74 54 75 51 76 35 77
REMARK SMILES IDX 36 78 41 79 37 80 38 81 40 82 42 83 39 84
REMARK H PARENT 5 5 76 22 9 27 59 46 33 57
REMARK Flexibility Score: inf
ROOT
ATOM      1  C   UNL     1       3.312  -2.090  -0.028  1.00  0.00     0.117 C 
ENDROOT
BRANCH   1   2
ATOM      2  N   UNL     1       2.225  -2.376   0.889  1.00  0.00    -0.356 N 
ATOM      3  C   UNL     1       0.957  -1.867   0.923  1.00  0.00     0.227 C 
ATOM      4  O   UNL     1       0.312  -2.033   1.961  1.00  0.00    -0.274 OA
ATOM      5  H   UNL     1       2.432  -3.034   1.592  1.00  0.00     0.163 HD
BRANCH   3   6
ATOM      6  C   UNL     1       0.402  -1.123  -0.305  1.00  0.00     0.106 C 
ATOM      7  C   UNL     1       0.929   0.319  -0.225  1.00  0.00     0.023 C 
BRANCH   6   8
ATOM      8  C   UNL     1      -1.126  -1.223  -0.413  1.00  0.00    -0.022 A 
ATOM      9  C   UNL     1      -1.906  -0.064  -0.580  1.00  0.00     0.006 A 
ATOM     10  C   UNL     1      -1.818  -2.449  -0.354  1.00  0.00     0.022 A 
ATOM     11  C   UNL     1      -3.299  -0.107  -0.556  1.00  0.00     0.004 A 
ATOM     12  C   UNL     1      -3.218  -2.481  -0.258  1.00  0.00     0.019 A 
ATOM     13  Br  UNL     1      -0.943  -4.139  -0.441  1.00  0.00    -0.051 Br
ATOM     14  C   UNL     1      -3.966  -1.300  -0.299  1.00  0.00    -0.047 A 
BRANCH  14  15
ATOM     15  C   UNL     1      -5.453  -1.303  -0.038  1.00  0.00     0.041 C 
BRANCH  15  16
ATOM     16  C   UNL     1      -5.888  -0.759   1.338  1.00  0.00     0.022 C 
ATOM     17  C   UNL     1      -5.270  -1.451   2.564  1.00  0.00     0.007 C 
ATOM     18  C   UNL     1      -5.643   0.733   1.589  1.00  0.00     0.117 C 
ATOM     19  C   UNL     1      -5.090  -0.358   3.624  1.00  0.00     0.003 C 
ATOM     20  C   UNL     1      -5.833   0.858   3.092  1.00  0.00     0.032 C 
BRANCH  18  21
ATOM     21  O   UNL     1      -6.560   1.533   0.869  1.00  0.00    -0.393 OA
ATOM     22  H   UNL     1      -7.466   1.286   1.113  1.00  0.00     0.210 HD
ENDBRANCH  18  21
ENDBRANCH  15  16
ENDBRANCH  14  15
ENDBRANCH   6   8
ENDBRANCH   3   6
ENDBRANCH   1   2
BRANCH   1  23
ATOM     23  C   UNL     1       4.293  -1.088   0.581  1.00  0.00     0.042 C 
BRANCH  23  24
ATOM     24  C   UNL     1       5.055  -1.622   1.788  1.00  0.00     0.118 C 
BRANCH  24  25
ATOM     25  N   UNL     1       6.012  -2.651   1.424  1.00  0.00    -0.352 N 
ATOM     26  C   UNL     1       7.351  -2.739   1.701  1.00  0.00     0.251 C 
ATOM     27  H   UNL     1       5.644  -3.398   0.899  1.00  0.00     0.163 HD
ATOM     28  O   UNL     1       8.026  -3.599   1.135  1.00  0.00    -0.269 OA
BRANCH  26  29
ATOM     29  C   UNL     1       7.998  -1.816   2.661  1.00  0.00     0.039 A 
ATOM     30  C   UNL     1       9.301  -1.384   2.391  1.00  0.00     0.014 A 
ATOM     31  C   UNL     1       7.372  -1.430   3.850  1.00  0.00     0.014 A 
ATOM     32  C   UNL     1       9.965  -0.558   3.300  1.00  0.00     0.010 A 
ATOM     33  C   UNL     1       8.007  -0.545   4.720  1.00  0.00     0.010 A 
ATOM     34  C   UNL     1       9.321  -0.125   4.469  1.00  0.00    -0.014 A 
BRANCH  34  35
ATOM     35  C   UNL     1      10.038   0.708   5.467  1.00  0.00     0.031 A 
ATOM     36  C   UNL     1      10.344   0.150   6.831  1.00  0.00     0.074 A 
ATOM     37  C   UNL     1      10.392   1.970   5.160  1.00  0.00     0.049 A 
ATOM     38  N   UNL     1      10.942   0.723   7.845  1.00  0.00    -0.248 NA
ATOM     39  C   UNL     1       9.894  -1.224   7.100  1.00  0.00     0.031 C 
ATOM     40  C   UNL     1      10.109   2.644   3.893  1.00  0.00     0.029 A 
ATOM     41  N   UNL     1      11.064   2.911   5.897  1.00  0.00    -0.354 N 
ATOM     42  C   UNL     1      10.926  -0.213   8.871  1.00  0.00     0.074 A 
ATOM     43  C   UNL     1      10.208  -1.368   8.378  1.00  0.00     0.031 C 
ATOM     44  C   UNL     1      10.623   3.885   3.933  1.00  0.00     0.029 A 
ATOM     45  C   UNL     1      11.251   4.099   5.233  1.00  0.00     0.049 A 
ATOM     46  H   UNL     1      11.383   2.751   6.815  1.00  0.00     0.167 HD
ATOM     47  C   UNL     1      11.483  -0.134  10.103  1.00  0.00     0.037 A 
ATOM     48  C   UNL     1      11.865   5.230   5.628  1.00  0.00     0.037 A 
ATOM     49  C   UNL     1      12.221   1.004  10.585  1.00  0.00     0.049 A 
ATOM     50  C   UNL     1      12.508   5.284   6.985  1.00  0.00     0.074 A 
ATOM     51  C   UNL     1      12.855   1.171  11.804  1.00  0.00     0.029 A 
ATOM     52  N   UNL     1      12.429   2.169   9.863  1.00  0.00    -0.354 N 
ATOM     53  N   UNL     1      12.533   4.370   7.925  1.00  0.00    -0.248 NA
ATOM     54  C   UNL     1      13.227   6.519   7.328  1.00  0.00     0.031 C 
ATOM     55  C   UNL     1      13.425   2.449  11.829  1.00  0.00     0.029 A 
ATOM     56  C   UNL     1      13.180   3.061  10.611  1.00  0.00     0.049 A 
ATOM     57  H   UNL     1      12.092   2.338   8.954  1.00  0.00     0.167 HD
ATOM     58  C   UNL     1      13.290   4.907   8.958  1.00  0.00     0.074 A 
ATOM     59  C   UNL     1      13.717   6.221   8.523  1.00  0.00     0.031 C 
ATOM     60  C   UNL     1      13.604   4.361  10.158  1.00  0.00     0.037 A 
BRANCH  47  61
ATOM     61  C   UNL     1      11.319  -1.321  11.007  1.00  0.00     0.057 A 
ATOM     62  C   UNL     1      11.981  -2.532  10.760  1.00  0.00     0.134 A 
ATOM     63  C   UNL     1      10.496  -1.255  12.138  1.00  0.00     0.134 A 
ATOM     64  F   UNL     1      12.772  -2.666   9.685  1.00  0.00    -0.206 F 
ATOM     65  C   UNL     1      11.804  -3.643  11.585  1.00  0.00     0.040 A 
ATOM     66  C   UNL     1      10.333  -2.352  12.987  1.00  0.00     0.040 A 
ATOM     67  F   UNL     1       9.837  -0.126  12.437  1.00  0.00    -0.206 F 
ATOM     68  C   UNL     1      10.981  -3.554  12.706  1.00  0.00     0.006 A 
ENDBRANCH  47  61
BRANCH  48  69
ATOM     69  C   UNL     1      11.938   6.388   4.704  1.00  0.00     0.057 A 
ATOM     70  C   UNL     1      13.141   6.742   4.082  1.00  0.00     0.134 A 
ATOM     71  C   UNL     1      10.809   7.162   4.414  1.00  0.00     0.134 A 
ATOM     72  F   UNL     1      14.260   6.047   4.334  1.00  0.00    -0.206 F 
ATOM     73  C   UNL     1      13.224   7.835   3.219  1.00  0.00     0.040 A 
ATOM     74  C   UNL     1      10.872   8.245   3.535  1.00  0.00     0.040 A 
ATOM     75  F   UNL     1       9.625   6.867   4.971  1.00  0.00    -0.206 F 
ATOM     76  C   UNL     1      12.084   8.587   2.939  1.00  0.00     0.006 A 
ENDBRANCH  48  69
BRANCH  60  77
ATOM     77  C   UNL     1      14.483   5.167  11.067  1.00  0.00     0.057 A 
ATOM     78  C   UNL     1      14.008   6.296  11.746  1.00  0.00     0.134 A 
ATOM     79  C   UNL     1      15.814   4.790  11.287  1.00  0.00     0.134 A 
ATOM     80  F   UNL     1      12.746   6.716  11.568  1.00  0.00    -0.206 F 
ATOM     81  C   UNL     1      14.834   7.037  12.592  1.00  0.00     0.040 A 
ATOM     82  C   UNL     1      16.642   5.508  12.149  1.00  0.00     0.040 A 
ATOM     83  F   UNL     1      16.327   3.713  10.673  1.00  0.00    -0.206 F 
ATOM     84  C   UNL     1      16.154   6.640  12.800  1.00  0.00     0.006 A 
ENDBRANCH  60  77
ENDBRANCH  34  35
ENDBRANCH  26  29
ENDBRANCH  24  25
ENDBRANCH  23  24
ENDBRANCH   1  23
TORSDOF 14
