REMARK SMILES COc1cc([C@@H]2CC(NCCCNC(=O)c3ccc(-c4c5nc(c(-c6c(F)cccc6F)c6ccc([nH]6)c(-c6c(F)cccc6F)c6nc(c(-c7c(F)cccc7F)c7ccc4[nH]7)C=C6)C=C5)cc3)=[NH+]c3c(C(=O)[O-])cn(-c4ccc(Cl)cc4)c32)cc(OC)c1O
REMARK SMILES IDX 11 1 10 2 9 3 6 4 7 5 85 6 8 7 71 8 77 9 70 10 72 11 76 12
REMARK SMILES IDX 5 15 3 16 4 17 90 18 87 19 86 20 2 21 1 22 91 23 88 25 89 26
REMARK SMILES IDX 78 27 79 28 84 29 80 30 83 31 81 32 82 33 73 34 74 35 75 36
REMARK SMILES IDX 12 37 13 38 14 39 15 41 16 42 17 43 69 44 18 45 68 46 19 47
REMARK SMILES IDX 20 48 21 49 62 50 22 51 67 52 61 53 63 54 23 55 66 56 60 57
REMARK SMILES IDX 59 58 24 60 50 61 33 62 49 63 34 64 37 65 48 66 64 67 35 68
REMARK SMILES IDX 36 69 47 71 65 72 38 73 25 74 26 75 31 76 27 77 28 78 30 79
REMARK SMILES IDX 32 80 29 81 51 82 52 83 57 84 53 85 54 86 56 87 58 88 55 89
REMARK SMILES IDX 39 90 40 91 45 92 41 93 42 94 44 95 46 96 43 97
REMARK H PARENT 9 13 70 14 91 24 13 40 63 59 37 70
REMARK Flexibility Score: inf
ROOT
ATOM      1  C   UNL     1       3.718  -9.728   3.856  1.00  0.00     0.067 C 
ENDROOT
BRANCH   1   2
ATOM      2  C   UNL     1       2.739  -9.047   4.812  1.00  0.00     0.235 C 
BRANCH   2   3
ATOM      3  N   UNL     1       2.581  -7.625   4.521  1.00  0.00    -0.278 N 
ATOM      4  C   UNL     1       0.144  -4.930   3.216  1.00  0.00     0.083 C 
ATOM      5  C   UNL     1       1.306  -5.559   4.018  1.00  0.00     0.142 C 
ATOM      6  C   UNL     1      -0.857  -5.981   2.856  1.00  0.00     0.078 A 
ATOM      7  C   UNL     1       1.443  -7.087   3.947  1.00  0.00     0.248 C 
ATOM      8  C   UNL     1      -0.642  -7.326   3.021  1.00  0.00     0.155 A 
ATOM      9  N   UNL     1      -2.185  -5.828   2.484  1.00  0.00    -0.315 N 
ATOM     10  N   UNL     1       0.546  -7.890   3.455  1.00  0.00    -0.243 N 
ATOM     11  C   UNL     1      -1.823  -8.048   2.768  1.00  0.00     0.062 A 
ATOM     12  C   UNL     1      -2.773  -7.080   2.480  1.00  0.00     0.106 A 
ATOM     13  H   UNL     1       3.323  -7.017   4.745  1.00  0.00     0.304 HD
ATOM     14  H   UNL     1       0.706  -8.859   3.393  1.00  0.00     0.312 HD
BRANCH   4  15
ATOM     15  C   UNL     1       0.671  -4.136   2.032  1.00  0.00    -0.031 A 
ATOM     16  C   UNL     1       0.905  -1.975   0.895  1.00  0.00     0.164 A 
ATOM     17  C   UNL     1       0.556  -2.737   2.020  1.00  0.00     0.055 A 
ATOM     18  C   UNL     1       1.425  -2.630  -0.233  1.00  0.00     0.200 A 
ATOM     19  C   UNL     1       1.598  -4.027  -0.224  1.00  0.00     0.164 A 
ATOM     20  C   UNL     1       1.223  -4.762   0.911  1.00  0.00     0.055 A 
BRANCH  16  21
ATOM     21  O   UNL     1       0.650  -0.645   1.086  1.00  0.00    -0.493 OA
ATOM     22  C   UNL     1       0.763   0.276   0.015  1.00  0.00     0.278 C 
ENDBRANCH  16  21
BRANCH  18  23
ATOM     23  O   UNL     1       1.776  -1.919  -1.346  1.00  0.00    -0.502 OA
ATOM     24  H   UNL     1       1.664  -0.989  -1.363  1.00  0.00     0.293 HD
ENDBRANCH  18  23
BRANCH  19  25
ATOM     25  O   UNL     1       2.111  -4.834  -1.205  1.00  0.00    -0.493 OA
ATOM     26  C   UNL     1       2.561  -4.250  -2.415  1.00  0.00     0.278 C 
ENDBRANCH  19  25
ENDBRANCH   4  15
BRANCH   9  27
ATOM     27  C   UNL     1      -2.895  -4.640   2.178  1.00  0.00     0.046 A 
ATOM     28  C   UNL     1      -2.417  -3.766   1.201  1.00  0.00     0.028 A 
ATOM     29  C   UNL     1      -4.120  -4.381   2.804  1.00  0.00     0.028 A 
ATOM     30  C   UNL     1      -3.106  -2.585   0.914  1.00  0.00     0.022 A 
ATOM     31  C   UNL     1      -4.811  -3.200   2.514  1.00  0.00     0.022 A 
ATOM     32  C   UNL     1      -4.293  -2.300   1.583  1.00  0.00     0.041 A 
ATOM     33  Cl  UNL     1      -5.131  -0.837   1.244  1.00  0.00    -0.084 Cl
ENDBRANCH   9  27
BRANCH  11  34
ATOM     34  C   UNL     1      -2.095  -9.474   2.805  1.00  0.00     0.077 C 
ATOM     35  O   UNL     1      -3.162  -9.991   2.531  1.00  0.00    -0.545 OA
ATOM     36  O   UNL     1      -1.057 -10.258   3.184  1.00  0.00    -0.545 OA
ENDBRANCH  11  34
ENDBRANCH   2   3
ENDBRANCH   1   2
BRANCH   1  37
ATOM     37  C   UNL     1       5.139  -9.207   3.992  1.00  0.00     0.120 C 
BRANCH  37  38
ATOM     38  N   UNL     1       5.788  -9.567   5.253  1.00  0.00    -0.352 N 
ATOM     39  C   UNL     1       7.095  -9.330   5.636  1.00  0.00     0.251 C 
ATOM     40  H   UNL     1       5.225 -10.036   5.909  1.00  0.00     0.163 HD
ATOM     41  O   UNL     1       7.596  -9.970   6.555  1.00  0.00    -0.269 OA
BRANCH  39  42
ATOM     42  C   UNL     1       7.891  -8.305   4.928  1.00  0.00     0.039 A 
ATOM     43  C   UNL     1       9.258  -8.492   4.708  1.00  0.00     0.014 A 
ATOM     44  C   UNL     1       7.266  -7.141   4.482  1.00  0.00     0.014 A 
ATOM     45  C   UNL     1       9.957  -7.537   3.972  1.00  0.00     0.010 A 
ATOM     46  C   UNL     1       7.917  -6.274   3.633  1.00  0.00     0.010 A 
ATOM     47  C   UNL     1       9.272  -6.442   3.405  1.00  0.00    -0.014 A 
BRANCH  47  48
ATOM     48  C   UNL     1       9.944  -5.583   2.431  1.00  0.00     0.031 A 
ATOM     49  C   UNL     1      10.606  -6.358   1.349  1.00  0.00     0.074 A 
ATOM     50  C   UNL     1       9.865  -4.234   2.374  1.00  0.00     0.049 A 
ATOM     51  N   UNL     1      11.875  -6.531   1.199  1.00  0.00    -0.248 NA
ATOM     52  C   UNL     1       9.781  -7.185   0.453  1.00  0.00     0.031 C 
ATOM     53  C   UNL     1       9.021  -3.331   3.159  1.00  0.00     0.029 A 
ATOM     54  N   UNL     1      10.498  -3.374   1.523  1.00  0.00    -0.354 N 
ATOM     55  C   UNL     1      12.023  -7.297   0.050  1.00  0.00     0.074 A 
ATOM     56  C   UNL     1      10.719  -7.829  -0.247  1.00  0.00     0.031 C 
ATOM     57  C   UNL     1       9.024  -2.099   2.599  1.00  0.00     0.029 A 
ATOM     58  C   UNL     1       9.992  -2.074   1.516  1.00  0.00     0.049 A 
ATOM     59  H   UNL     1      11.255  -3.650   0.957  1.00  0.00     0.167 HD
ATOM     60  C   UNL     1      13.158  -7.191  -0.694  1.00  0.00     0.037 A 
ATOM     61  C   UNL     1      10.337  -1.063   0.673  1.00  0.00     0.037 A 
ATOM     62  C   UNL     1      14.220  -6.588   0.081  1.00  0.00     0.049 A 
ATOM     63  C   UNL     1      11.663  -1.400   0.099  1.00  0.00     0.074 A 
ATOM     64  C   UNL     1      14.818  -6.880   1.294  1.00  0.00     0.029 A 
ATOM     65  N   UNL     1      14.534  -5.274  -0.175  1.00  0.00    -0.354 N 
ATOM     66  N   UNL     1      12.769  -1.405   0.787  1.00  0.00    -0.248 NA
ATOM     67  C   UNL     1      11.676  -2.192  -1.120  1.00  0.00     0.031 C 
ATOM     68  C   UNL     1      14.999  -5.615   1.928  1.00  0.00     0.029 A 
ATOM     69  C   UNL     1      14.604  -4.625   1.030  1.00  0.00     0.049 A 
ATOM     70  H   UNL     1      14.681  -4.873  -1.062  1.00  0.00     0.167 HD
ATOM     71  C   UNL     1      13.426  -2.550   0.367  1.00  0.00     0.074 A 
ATOM     72  C   UNL     1      12.741  -2.955  -0.861  1.00  0.00     0.031 C 
ATOM     73  C   UNL     1      14.261  -3.233   1.203  1.00  0.00     0.037 A 
BRANCH  60  74
ATOM     74  C   UNL     1      13.181  -7.218  -2.205  1.00  0.00     0.057 A 
ATOM     75  C   UNL     1      14.422  -7.122  -2.863  1.00  0.00     0.134 A 
ATOM     76  C   UNL     1      12.055  -7.020  -3.029  1.00  0.00     0.134 A 
ATOM     77  F   UNL     1      15.572  -7.283  -2.192  1.00  0.00    -0.206 F 
ATOM     78  C   UNL     1      14.533  -6.753  -4.209  1.00  0.00     0.040 A 
ATOM     79  C   UNL     1      12.154  -6.702  -4.386  1.00  0.00     0.040 A 
ATOM     80  F   UNL     1      10.803  -7.018  -2.560  1.00  0.00    -0.206 F 
ATOM     81  C   UNL     1      13.396  -6.531  -4.973  1.00  0.00     0.006 A 
ENDBRANCH  60  74
BRANCH  61  82
ATOM     82  C   UNL     1       9.512   0.032   0.100  1.00  0.00     0.057 A 
ATOM     83  C   UNL     1      10.104   1.095  -0.607  1.00  0.00     0.134 A 
ATOM     84  C   UNL     1       8.120  -0.091  -0.043  1.00  0.00     0.134 A 
ATOM     85  F   UNL     1      11.431   1.282  -0.571  1.00  0.00    -0.206 F 
ATOM     86  C   UNL     1       9.365   1.952  -1.436  1.00  0.00     0.040 A 
ATOM     87  C   UNL     1       7.370   0.762  -0.863  1.00  0.00     0.040 A 
ATOM     88  F   UNL     1       7.451  -1.099   0.533  1.00  0.00    -0.206 F 
ATOM     89  C   UNL     1       7.994   1.776  -1.579  1.00  0.00     0.006 A 
ENDBRANCH  61  82
BRANCH  73  90
ATOM     90  C   UNL     1      14.688  -2.583   2.491  1.00  0.00     0.057 A 
ATOM     91  C   UNL     1      13.818  -2.161   3.509  1.00  0.00     0.134 A 
ATOM     92  C   UNL     1      16.059  -2.521   2.771  1.00  0.00     0.134 A 
ATOM     93  F   UNL     1      12.489  -2.267   3.382  1.00  0.00    -0.206 F 
ATOM     94  C   UNL     1      14.297  -1.665   4.728  1.00  0.00     0.040 A 
ATOM     95  C   UNL     1      16.548  -2.066   3.997  1.00  0.00     0.040 A 
ATOM     96  F   UNL     1      16.953  -2.950   1.865  1.00  0.00    -0.206 F 
ATOM     97  C   UNL     1      15.666  -1.626   4.978  1.00  0.00     0.006 A 
ENDBRANCH  73  90
ENDBRANCH  47  48
ENDBRANCH  39  42
ENDBRANCH  37  38
ENDBRANCH   1  37
TORSDOF 15
