REMARK SMILES CC[C@@](C)(NS(=O)(=O)Cc1ccccc1)C(=O)NCCCNC(=O)c1ccc(-c2c3nc(c(-c4c(F)cccc4F)c4ccc([nH]4)c(-c4c(F)cccc4F)c4nc(c(-c5c(F)cccc5F)c5ccc2[nH]5)C=C4)C=C3)cc1
REMARK SMILES IDX 19 1 18 2 16 3 17 4 3 6 4 7 2 8 1 9 5 10 6 12 7 13 8 14 9 15
REMARK SMILES IDX 10 16 11 17 15 18 12 19 14 20 13 21 20 22 21 23 22 24 23 25
REMARK SMILES IDX 24 27 25 28 26 29 78 30 27 31 77 32 28 33 29 34 30 35 71 36
REMARK SMILES IDX 31 37 76 38 70 39 72 40 32 41 75 42 69 43 68 44 33 46 59 47
REMARK SMILES IDX 42 48 58 49 43 50 46 51 57 52 73 53 44 54 45 55 56 57 74 58
REMARK SMILES IDX 47 59 34 60 35 61 40 62 36 63 37 64 39 65 41 66 38 67 60 68
REMARK SMILES IDX 61 69 66 70 62 71 63 72 65 73 67 74 64 75 48 76 49 77 54 78
REMARK SMILES IDX 50 79 51 80 53 81 55 82 52 83
REMARK H PARENT 18 5 5 11 22 26 72 45 46 56
REMARK Flexibility Score: inf
ROOT
ATOM      1  C   UNL     1       2.638   3.655  -3.501  1.00  0.00     0.117 C 
ENDROOT
BRANCH   1   2
ATOM      2  N   UNL     1       3.083   2.971  -2.291  1.00  0.00    -0.354 N 
ATOM      3  C   UNL     1       2.525   2.423  -1.179  1.00  0.00     0.240 C 
ATOM      4  O   UNL     1       3.373   1.983  -0.386  1.00  0.00    -0.273 OA
ATOM      5  H   UNL     1       4.064   2.881  -2.275  1.00  0.00     0.163 HD
BRANCH   3   6
ATOM      6  C   UNL     1       1.018   2.401  -0.792  1.00  0.00     0.108 C 
ATOM      7  C   UNL     1       0.061   2.151  -1.957  1.00  0.00     0.040 C 
BRANCH   6   8
ATOM      8  C   UNL     1       0.802   1.235   0.253  1.00  0.00     0.030 C 
ATOM      9  C   UNL     1       1.118  -0.184  -0.199  1.00  0.00     0.006 C 
ENDBRANCH   6   8
BRANCH   6  10
ATOM     10  N   UNL     1       0.616   3.591   0.016  1.00  0.00    -0.200 NA
ATOM     11  H   UNL     1       1.125   3.494   0.894  1.00  0.00     0.142 HD
BRANCH  10  12
ATOM     12  S   UNL     1       0.776   5.183  -0.391  1.00  0.00     0.216 S 
ATOM     13  O   UNL     1       0.393   5.291  -1.782  1.00  0.00    -0.212 OA
ATOM     14  O   UNL     1       0.019   5.909   0.605  1.00  0.00    -0.212 OA
BRANCH  12  15
ATOM     15  C   UNL     1       2.514   5.592  -0.229  1.00  0.00     0.189 C 
BRANCH  15  16
ATOM     16  C   UNL     1       3.003   5.799   1.173  1.00  0.00    -0.032 A 
ATOM     17  C   UNL     1       3.443   4.724   1.957  1.00  0.00     0.005 A 
ATOM     18  C   UNL     1       3.173   7.105   1.653  1.00  0.00     0.005 A 
ATOM     19  C   UNL     1       4.064   4.957   3.186  1.00  0.00     0.000 A 
ATOM     20  C   UNL     1       3.796   7.335   2.878  1.00  0.00     0.000 A 
ATOM     21  C   UNL     1       4.248   6.261   3.641  1.00  0.00     0.000 A 
ENDBRANCH  15  16
ENDBRANCH  12  15
ENDBRANCH  10  12
ENDBRANCH   6  10
ENDBRANCH   3   6
ENDBRANCH   1   2
BRANCH   1  22
ATOM     22  C   UNL     1       3.006   5.148  -3.585  1.00  0.00     0.042 C 
BRANCH  22  23
ATOM     23  C   UNL     1       4.412   5.556  -3.135  1.00  0.00     0.118 C 
BRANCH  23  24
ATOM     24  N   UNL     1       5.343   5.595  -4.240  1.00  0.00    -0.352 N 
ATOM     25  C   UNL     1       5.956   6.676  -4.824  1.00  0.00     0.251 C 
ATOM     26  H   UNL     1       5.571   4.720  -4.631  1.00  0.00     0.163 HD
ATOM     27  O   UNL     1       6.457   6.538  -5.938  1.00  0.00    -0.269 OA
BRANCH  25  28
ATOM     28  C   UNL     1       6.051   7.997  -4.148  1.00  0.00     0.039 A 
ATOM     29  C   UNL     1       5.968   9.147  -4.942  1.00  0.00     0.014 A 
ATOM     30  C   UNL     1       6.375   8.127  -2.792  1.00  0.00     0.014 A 
ATOM     31  C   UNL     1       6.234  10.408  -4.395  1.00  0.00     0.010 A 
ATOM     32  C   UNL     1       6.590   9.396  -2.233  1.00  0.00     0.010 A 
ATOM     33  C   UNL     1       6.564  10.547  -3.038  1.00  0.00    -0.014 A 
BRANCH  33  34
ATOM     34  C   UNL     1       6.958  11.882  -2.499  1.00  0.00     0.031 A 
ATOM     35  C   UNL     1       8.381  12.141  -2.065  1.00  0.00     0.074 A 
ATOM     36  C   UNL     1       6.056  12.880  -2.430  1.00  0.00     0.049 A 
ATOM     37  N   UNL     1       8.927  13.251  -1.629  1.00  0.00    -0.248 NA
ATOM     38  C   UNL     1       9.309  11.001  -2.115  1.00  0.00     0.031 C 
ATOM     39  C   UNL     1       4.644  12.768  -2.795  1.00  0.00     0.029 A 
ATOM     40  N   UNL     1       6.196  14.190  -2.036  1.00  0.00    -0.354 N 
ATOM     41  C   UNL     1      10.254  12.941  -1.351  1.00  0.00     0.074 A 
ATOM     42  C   UNL     1      10.417  11.528  -1.615  1.00  0.00     0.031 C 
ATOM     43  C   UNL     1       4.054  13.964  -2.636  1.00  0.00     0.029 A 
ATOM     44  C   UNL     1       5.036  14.922  -2.133  1.00  0.00     0.049 A 
ATOM     45  H   UNL     1       7.046  14.568  -1.716  1.00  0.00     0.167 HD
ATOM     46  C   UNL     1      11.254  13.759  -0.939  1.00  0.00     0.037 A 
ATOM     47  C   UNL     1       4.790  16.217  -1.854  1.00  0.00     0.037 A 
ATOM     48  C   UNL     1      11.103  15.170  -0.689  1.00  0.00     0.049 A 
ATOM     49  C   UNL     1       5.913  17.102  -1.381  1.00  0.00     0.074 A 
ATOM     50  C   UNL     1      12.068  16.087  -0.307  1.00  0.00     0.029 A 
ATOM     51  N   UNL     1       9.909  15.868  -0.792  1.00  0.00    -0.354 N 
ATOM     52  N   UNL     1       7.175  16.806  -1.185  1.00  0.00    -0.248 NA
ATOM     53  C   UNL     1       5.577  18.506  -1.103  1.00  0.00     0.031 C 
ATOM     54  C   UNL     1      11.449  17.329  -0.131  1.00  0.00     0.029 A 
ATOM     55  C   UNL     1      10.110  17.199  -0.460  1.00  0.00     0.049 A 
ATOM     56  H   UNL     1       9.047  15.476  -1.060  1.00  0.00     0.167 HD
ATOM     57  C   UNL     1       7.788  17.992  -0.798  1.00  0.00     0.074 A 
ATOM     58  C   UNL     1       6.763  19.013  -0.798  1.00  0.00     0.031 C 
ATOM     59  C   UNL     1       9.086  18.213  -0.474  1.00  0.00     0.037 A 
BRANCH  46  60
ATOM     60  C   UNL     1      12.610  13.145  -0.727  1.00  0.00     0.057 A 
ATOM     61  C   UNL     1      13.393  12.691  -1.798  1.00  0.00     0.134 A 
ATOM     62  C   UNL     1      13.157  13.039   0.558  1.00  0.00     0.134 A 
ATOM     63  F   UNL     1      12.929  12.756  -3.055  1.00  0.00    -0.206 F 
ATOM     64  C   UNL     1      14.655  12.128  -1.595  1.00  0.00     0.040 A 
ATOM     65  C   UNL     1      14.430  12.505   0.771  1.00  0.00     0.040 A 
ATOM     66  F   UNL     1      12.469  13.464   1.629  1.00  0.00    -0.206 F 
ATOM     67  C   UNL     1      15.179  12.040  -0.307  1.00  0.00     0.006 A 
ENDBRANCH  46  60
BRANCH  47  68
ATOM     68  C   UNL     1       3.424  16.771  -2.039  1.00  0.00     0.057 A 
ATOM     69  C   UNL     1       3.149  17.708  -3.043  1.00  0.00     0.134 A 
ATOM     70  C   UNL     1       2.365  16.394  -1.204  1.00  0.00     0.134 A 
ATOM     71  F   UNL     1       4.125  18.126  -3.862  1.00  0.00    -0.206 F 
ATOM     72  C   UNL     1       1.878  18.266  -3.196  1.00  0.00     0.040 A 
ATOM     73  C   UNL     1       1.083  16.923  -1.363  1.00  0.00     0.040 A 
ATOM     74  F   UNL     1       2.561  15.498  -0.225  1.00  0.00    -0.206 F 
ATOM     75  C   UNL     1       0.839  17.868  -2.357  1.00  0.00     0.006 A 
ENDBRANCH  47  68
BRANCH  59  76
ATOM     76  C   UNL     1       9.486  19.623  -0.141  1.00  0.00     0.057 A 
ATOM     77  C   UNL     1       9.083  20.252   1.044  1.00  0.00     0.134 A 
ATOM     78  C   UNL     1      10.312  20.351  -1.008  1.00  0.00     0.134 A 
ATOM     79  F   UNL     1       8.282  19.617   1.913  1.00  0.00    -0.206 F 
ATOM     80  C   UNL     1       9.463  21.563   1.340  1.00  0.00     0.040 A 
ATOM     81  C   UNL     1      10.723  21.651  -0.709  1.00  0.00     0.040 A 
ATOM     82  F   UNL     1      10.744  19.806  -2.155  1.00  0.00    -0.206 F 
ATOM     83  C   UNL     1      10.291  22.263   0.465  1.00  0.00     0.006 A 
ENDBRANCH  59  76
ENDBRANCH  33  34
ENDBRANCH  25  28
ENDBRANCH  23  24
ENDBRANCH  22  23
ENDBRANCH   1  22
TORSDOF 15
