REMARK SMILES CC/C(=C/C(=O)[C@H](Cc1ccc(Cl)cc1Cl)C(=O)NCCCNC(=O)c1ccc(-c2c3nc(c(-c4c(F)cccc4F)c4ccc([nH]4)c(-c4c(F)cccc4F)c4nc(c(-c5c(F)cccc5F)c5ccc2[nH]5)C=C4)C=C3)cc1)N(C)C
REMARK SMILES IDX 20 1 19 2 17 3 18 4 7 6 5 7 6 8 4 9 3 10 2 11 1 12 80 13
REMARK SMILES IDX 81 14 82 15 8 16 9 17 10 18 15 19 11 20 14 21 16 22 12 23
REMARK SMILES IDX 13 24 21 25 22 26 23 27 24 28 25 30 26 31 27 32 79 33 28 34
REMARK SMILES IDX 78 35 29 36 30 37 31 38 72 39 32 40 77 41 71 42 73 43 33 44
REMARK SMILES IDX 76 45 70 46 69 47 34 49 60 50 43 51 59 52 44 53 47 54 58 55
REMARK SMILES IDX 74 56 45 57 46 58 57 60 75 61 48 62 35 63 36 64 41 65 37 66
REMARK SMILES IDX 38 67 40 68 42 69 39 70 61 71 62 72 67 73 63 74 64 75 66 76
REMARK SMILES IDX 68 77 65 78 49 79 50 80 55 81 51 82 52 83 54 84 56 85 53 86
REMARK H PARENT 19 5 23 29 73 48 47 59
REMARK Flexibility Score: inf
ROOT
ATOM      1  C   UNL     1       2.131   0.405  -1.937  1.00  0.00     0.117 C 
ENDROOT
BRANCH   1   2
ATOM      2  N   UNL     1       2.976  -0.767  -1.984  1.00  0.00    -0.355 N 
ATOM      3  C   UNL     1       2.870  -1.911  -2.697  1.00  0.00     0.231 C 
ATOM      4  O   UNL     1       3.462  -2.889  -2.230  1.00  0.00    -0.274 OA
ATOM      5  H   UNL     1       3.764  -0.726  -1.394  1.00  0.00     0.163 HD
BRANCH   3   6
ATOM      6  C   UNL     1       2.111  -2.000  -4.015  1.00  0.00     0.154 C 
BRANCH   6   7
ATOM      7  C   UNL     1       2.759  -1.081  -5.052  1.00  0.00     0.170 C 
ATOM      8  O   UNL     1       2.100  -0.384  -5.824  1.00  0.00    -0.294 OA
BRANCH   7   9
ATOM      9  C   UNL     1       4.244  -0.911  -5.033  1.00  0.00     0.069 C 
ATOM     10  C   UNL     1       5.186  -1.857  -4.822  1.00  0.00     0.016 C 
BRANCH  10  11
ATOM     11  C   UNL     1       6.567  -1.323  -4.429  1.00  0.00     0.050 C 
ATOM     12  C   UNL     1       6.748  -1.236  -2.913  1.00  0.00     0.010 C 
ENDBRANCH  10  11
BRANCH  10  13
ATOM     13  N   UNL     1       5.040  -3.254  -4.902  1.00  0.00    -0.381 N 
ATOM     14  C   UNL     1       5.844  -4.190  -4.101  1.00  0.00     0.143 C 
ATOM     15  C   UNL     1       4.119  -3.941  -5.811  1.00  0.00     0.143 C 
ENDBRANCH  10  13
ENDBRANCH   7   9
ENDBRANCH   6   7
BRANCH   6  16
ATOM     16  C   UNL     1       0.575  -1.846  -3.965  1.00  0.00     0.059 C 
BRANCH  16  17
ATOM     17  C   UNL     1      -0.218  -2.625  -2.919  1.00  0.00    -0.028 A 
ATOM     18  C   UNL     1       0.391  -3.541  -2.049  1.00  0.00     0.007 A 
ATOM     19  C   UNL     1      -1.593  -2.376  -2.727  1.00  0.00     0.045 A 
ATOM     20  C   UNL     1      -0.266  -4.010  -0.910  1.00  0.00     0.021 A 
ATOM     21  C   UNL     1      -2.271  -2.883  -1.612  1.00  0.00     0.041 A 
ATOM     22  Cl  UNL     1      -2.503  -1.415  -3.838  1.00  0.00    -0.084 Cl
ATOM     23  C   UNL     1      -1.585  -3.650  -0.679  1.00  0.00     0.042 A 
ATOM     24  Cl  UNL     1      -2.357  -4.147   0.773  1.00  0.00    -0.084 Cl
ENDBRANCH  16  17
ENDBRANCH   6  16
ENDBRANCH   3   6
ENDBRANCH   1   2
BRANCH   1  25
ATOM     25  C   UNL     1       0.957   0.205  -0.981  1.00  0.00     0.042 C 
BRANCH  25  26
ATOM     26  C   UNL     1       1.302  -0.573   0.286  1.00  0.00     0.118 C 
BRANCH  26  27
ATOM     27  N   UNL     1       2.277   0.126   1.107  1.00  0.00    -0.352 N 
ATOM     28  C   UNL     1       2.133   0.624   2.377  1.00  0.00     0.251 C 
ATOM     29  H   UNL     1       3.161   0.261   0.695  1.00  0.00     0.163 HD
ATOM     30  O   UNL     1       2.974   1.380   2.845  1.00  0.00    -0.269 OA
BRANCH  28  31
ATOM     31  C   UNL     1       0.941   0.255   3.163  1.00  0.00     0.039 A 
ATOM     32  C   UNL     1       0.225   1.262   3.809  1.00  0.00     0.014 A 
ATOM     33  C   UNL     1       0.533  -1.080   3.253  1.00  0.00     0.014 A 
ATOM     34  C   UNL     1      -0.928   0.934   4.519  1.00  0.00     0.010 A 
ATOM     35  C   UNL     1      -0.661  -1.394   3.893  1.00  0.00     0.010 A 
ATOM     36  C   UNL     1      -1.393  -0.392   4.549  1.00  0.00    -0.014 A 
BRANCH  36  37
ATOM     37  C   UNL     1      -2.630  -0.743   5.287  1.00  0.00     0.031 A 
ATOM     38  C   UNL     1      -2.563  -1.640   6.490  1.00  0.00     0.074 A 
ATOM     39  C   UNL     1      -3.816  -0.270   4.860  1.00  0.00     0.049 A 
ATOM     40  N   UNL     1      -3.530  -2.049   7.273  1.00  0.00    -0.248 NA
ATOM     41  C   UNL     1      -1.236  -2.163   6.852  1.00  0.00     0.031 C 
ATOM     42  C   UNL     1      -4.015   0.580   3.685  1.00  0.00     0.029 A 
ATOM     43  N   UNL     1      -5.078  -0.432   5.372  1.00  0.00    -0.354 N 
ATOM     44  C   UNL     1      -2.929  -2.877   8.212  1.00  0.00     0.074 A 
ATOM     45  C   UNL     1      -1.529  -2.968   7.861  1.00  0.00     0.031 C 
ATOM     46  C   UNL     1      -5.315   0.900   3.591  1.00  0.00     0.029 A 
ATOM     47  C   UNL     1      -6.045   0.247   4.673  1.00  0.00     0.049 A 
ATOM     48  H   UNL     1      -5.272  -0.982   6.165  1.00  0.00     0.167 HD
ATOM     49  C   UNL     1      -3.486  -3.485   9.287  1.00  0.00     0.037 A 
ATOM     50  C   UNL     1      -7.372   0.335   4.884  1.00  0.00     0.037 A 
ATOM     51  C   UNL     1      -4.881  -3.393   9.631  1.00  0.00     0.049 A 
ATOM     52  C   UNL     1      -7.977  -0.385   6.057  1.00  0.00     0.074 A 
ATOM     53  C   UNL     1      -5.541  -3.940  10.717  1.00  0.00     0.029 A 
ATOM     54  N   UNL     1      -5.836  -2.718   8.882  1.00  0.00    -0.354 N 
ATOM     55  N   UNL     1      -7.389  -1.110   6.978  1.00  0.00    -0.248 NA
ATOM     56  C   UNL     1      -9.432  -0.269   6.222  1.00  0.00     0.031 C 
ATOM     57  C   UNL     1      -6.903  -3.643  10.596  1.00  0.00     0.029 A 
ATOM     58  C   UNL     1      -7.084  -2.858   9.468  1.00  0.00     0.049 A 
ATOM     59  H   UNL     1      -5.653  -2.214   8.057  1.00  0.00     0.167 HD
ATOM     60  C   UNL     1      -8.395  -1.510   7.849  1.00  0.00     0.074 A 
ATOM     61  C   UNL     1      -9.628  -0.935   7.351  1.00  0.00     0.031 C 
ATOM     62  C   UNL     1      -8.304  -2.280   8.962  1.00  0.00     0.037 A 
BRANCH  49  63
ATOM     63  C   UNL     1      -2.577  -4.309  10.155  1.00  0.00     0.057 A 
ATOM     64  C   UNL     1      -1.556  -3.727  10.922  1.00  0.00     0.134 A 
ATOM     65  C   UNL     1      -2.717  -5.701  10.223  1.00  0.00     0.134 A 
ATOM     66  F   UNL     1      -1.358  -2.401  10.896  1.00  0.00    -0.206 F 
ATOM     67  C   UNL     1      -0.683  -4.502  11.687  1.00  0.00     0.040 A 
ATOM     68  C   UNL     1      -1.871  -6.483  11.012  1.00  0.00     0.040 A 
ATOM     69  F   UNL     1      -3.677  -6.325   9.524  1.00  0.00    -0.206 F 
ATOM     70  C   UNL     1      -0.842  -5.885  11.737  1.00  0.00     0.006 A 
ENDBRANCH  49  63
BRANCH  50  71
ATOM     71  C   UNL     1      -8.210   1.171   3.988  1.00  0.00     0.057 A 
ATOM     72  C   UNL     1      -8.784   2.362   4.446  1.00  0.00     0.134 A 
ATOM     73  C   UNL     1      -8.451   0.808   2.658  1.00  0.00     0.134 A 
ATOM     74  F   UNL     1      -8.603   2.755   5.716  1.00  0.00    -0.206 F 
ATOM     75  C   UNL     1      -9.579   3.156   3.619  1.00  0.00     0.040 A 
ATOM     76  C   UNL     1      -9.223   1.606   1.812  1.00  0.00     0.040 A 
ATOM     77  F   UNL     1      -7.923  -0.318   2.156  1.00  0.00    -0.206 F 
ATOM     78  C   UNL     1      -9.796   2.781   2.294  1.00  0.00     0.006 A 
ENDBRANCH  50  71
BRANCH  62  79
ATOM     79  C   UNL     1      -9.568  -2.513   9.740  1.00  0.00     0.057 A 
ATOM     80  C   UNL     1     -10.602  -3.324   9.255  1.00  0.00     0.134 A 
ATOM     81  C   UNL     1      -9.736  -1.943  11.009  1.00  0.00     0.134 A 
ATOM     82  F   UNL     1     -10.511  -3.889   8.042  1.00  0.00    -0.206 F 
ATOM     83  C   UNL     1     -11.769  -3.537   9.992  1.00  0.00     0.040 A 
ATOM     84  C   UNL     1     -10.884  -2.174  11.768  1.00  0.00     0.040 A 
ATOM     85  F   UNL     1      -8.781  -1.164  11.539  1.00  0.00    -0.206 F 
ATOM     86  C   UNL     1     -11.909  -2.967  11.256  1.00  0.00     0.006 A 
ENDBRANCH  62  79
ENDBRANCH  36  37
ENDBRANCH  28  31
ENDBRANCH  26  27
ENDBRANCH  25  26
ENDBRANCH   1  25
TORSDOF 16
