REMARK SMILES C=C(c1ccccc1)[C@@H](C(=O)NCCCNC(=O)c1ccc(-c2c3nc(c(-c4c(F)cccc4F)c4ccc([nH]4)c(-c4c(F)cccc4F)c4nc(c(-c5c(F)cccc5F)c5ccc2[nH]5)C=C4)C=C3)cc1)S(C)(=O)=O
REMARK SMILES IDX 14 1 13 2 12 3 10 4 11 5 9 7 2 8 1 9 3 10 4 11 8 12 5 13
REMARK SMILES IDX 7 14 6 15 73 16 74 17 75 18 76 19 15 20 16 21 17 22 18 24
REMARK SMILES IDX 19 25 20 26 72 27 21 28 71 29 22 30 23 31 24 32 65 33 25 34
REMARK SMILES IDX 70 35 64 36 66 37 26 38 69 39 63 40 62 41 27 43 53 44 36 45
REMARK SMILES IDX 52 46 37 47 40 48 51 49 67 50 38 51 39 52 50 54 68 55 41 56
REMARK SMILES IDX 28 57 29 58 34 59 30 60 31 61 33 62 35 63 32 64 54 65 55 66
REMARK SMILES IDX 60 67 56 68 57 69 59 70 61 71 58 72 42 73 43 74 48 75 44 76
REMARK SMILES IDX 45 77 47 78 49 79 46 80
REMARK H PARENT 12 6 16 23 66 42 40 53
REMARK Flexibility Score: inf
ROOT
ATOM      1  C   UNL     1      -0.501   3.306   1.585  1.00  0.00     0.042 C 
ENDROOT
BRANCH   1   2
ATOM      2  C   UNL     1      -0.103   3.861   0.218  1.00  0.00     0.117 C 
BRANCH   2   3
ATOM      3  N   UNL     1       1.302   3.625  -0.056  1.00  0.00    -0.355 N 
ATOM      4  C   UNL     1       1.901   2.626  -0.779  1.00  0.00     0.242 C 
ATOM      5  O   UNL     1       3.122   2.534  -0.657  1.00  0.00    -0.273 OA
ATOM      6  H   UNL     1       1.919   4.284   0.337  1.00  0.00     0.163 HD
BRANCH   4   7
ATOM      7  C   UNL     1       1.051   1.719  -1.669  1.00  0.00     0.227 C 
BRANCH   7   8
ATOM      8  C   UNL     1       0.299   0.648  -0.881  1.00  0.00    -0.020 C 
ATOM      9  C   UNL     1       0.926  -0.278  -0.129  1.00  0.00     0.015 C 
BRANCH   8  10
ATOM     10  C   UNL     1      -1.194   0.685  -0.903  1.00  0.00    -0.021 A 
ATOM     11  C   UNL     1      -1.913   1.022  -2.060  1.00  0.00     0.008 A 
ATOM     12  C   UNL     1      -1.931   0.479   0.278  1.00  0.00     0.008 A 
ATOM     13  C   UNL     1      -3.305   1.171  -2.034  1.00  0.00     0.001 A 
ATOM     14  C   UNL     1      -3.320   0.641   0.310  1.00  0.00     0.001 A 
ATOM     15  C   UNL     1      -4.006   0.992  -0.847  1.00  0.00     0.000 A 
ENDBRANCH   8  10
ENDBRANCH   7   8
BRANCH   7  16
ATOM     16  S   UNL     1       2.115   0.993  -2.942  1.00  0.00     0.163 S 
ATOM     17  C   UNL     1       1.025  -0.005  -3.927  1.00  0.00     0.159 C 
ATOM     18  O   UNL     1       2.549   2.062  -3.830  1.00  0.00    -0.228 OA
ATOM     19  O   UNL     1       3.078   0.072  -2.370  1.00  0.00    -0.228 OA
ENDBRANCH   7  16
ENDBRANCH   4   7
ENDBRANCH   2   3
ENDBRANCH   1   2
BRANCH   1  20
ATOM     20  C   UNL     1       0.123   4.037   2.769  1.00  0.00     0.118 C 
BRANCH  20  21
ATOM     21  N   UNL     1      -0.320   5.418   2.865  1.00  0.00    -0.352 N 
ATOM     22  C   UNL     1      -0.971   6.084   3.870  1.00  0.00     0.251 C 
ATOM     23  H   UNL     1      -0.118   5.968   2.074  1.00  0.00     0.163 HD
ATOM     24  O   UNL     1      -1.425   7.202   3.643  1.00  0.00    -0.269 OA
BRANCH  22  25
ATOM     25  C   UNL     1      -1.147   5.484   5.213  1.00  0.00     0.039 A 
ATOM     26  C   UNL     1      -2.324   5.769   5.915  1.00  0.00     0.014 A 
ATOM     27  C   UNL     1      -0.154   4.711   5.821  1.00  0.00     0.014 A 
ATOM     28  C   UNL     1      -2.517   5.253   7.198  1.00  0.00     0.010 A 
ATOM     29  C   UNL     1      -0.384   4.125   7.067  1.00  0.00     0.010 A 
ATOM     30  C   UNL     1      -1.560   4.404   7.777  1.00  0.00    -0.014 A 
BRANCH  30  31
ATOM     31  C   UNL     1      -1.781   3.824   9.127  1.00  0.00     0.031 A 
ATOM     32  C   UNL     1      -0.865   4.169  10.271  1.00  0.00     0.074 A 
ATOM     33  C   UNL     1      -2.797   2.960   9.320  1.00  0.00     0.049 A 
ATOM     34  N   UNL     1      -0.907   3.762  11.516  1.00  0.00    -0.248 NA
ATOM     35  C   UNL     1       0.260   5.069   9.975  1.00  0.00     0.031 C 
ATOM     36  C   UNL     1      -3.725   2.502   8.284  1.00  0.00     0.029 A 
ATOM     37  N   UNL     1      -3.220   2.312  10.453  1.00  0.00    -0.354 N 
ATOM     38  C   UNL     1       0.186   4.346  12.144  1.00  0.00     0.074 A 
ATOM     39  C   UNL     1       0.905   5.088  11.132  1.00  0.00     0.031 C 
ATOM     40  C   UNL     1      -4.626   1.674   8.835  1.00  0.00     0.029 A 
ATOM     41  C   UNL     1      -4.320   1.513  10.253  1.00  0.00     0.049 A 
ATOM     42  H   UNL     1      -2.778   2.410  11.327  1.00  0.00     0.167 HD
ATOM     43  C   UNL     1       0.546   4.291  13.449  1.00  0.00     0.037 A 
ATOM     44  C   UNL     1      -5.005   0.737  11.113  1.00  0.00     0.037 A 
ATOM     45  C   UNL     1      -0.181   3.566  14.460  1.00  0.00     0.049 A 
ATOM     46  C   UNL     1      -4.588   0.694  12.557  1.00  0.00     0.074 A 
ATOM     47  C   UNL     1       0.069   3.497  15.820  1.00  0.00     0.029 A 
ATOM     48  N   UNL     1      -1.296   2.776  14.219  1.00  0.00    -0.354 N 
ATOM     49  N   UNL     1      -3.598   1.315  13.151  1.00  0.00    -0.248 NA
ATOM     50  C   UNL     1      -5.394  -0.147  13.452  1.00  0.00     0.031 C 
ATOM     51  C   UNL     1      -0.862   2.623  16.393  1.00  0.00     0.029 A 
ATOM     52  C   UNL     1      -1.730   2.196  15.401  1.00  0.00     0.049 A 
ATOM     53  H   UNL     1      -1.717   2.647  13.339  1.00  0.00     0.167 HD
ATOM     54  C   UNL     1      -3.678   0.962  14.492  1.00  0.00     0.074 A 
ATOM     55  C   UNL     1      -4.827   0.091  14.626  1.00  0.00     0.031 C 
ATOM     56  C   UNL     1      -2.874   1.327  15.521  1.00  0.00     0.037 A 
BRANCH  43  57
ATOM     57  C   UNL     1       1.787   5.034  13.858  1.00  0.00     0.057 A 
ATOM     58  C   UNL     1       1.848   6.435  13.861  1.00  0.00     0.134 A 
ATOM     59  C   UNL     1       2.928   4.341  14.284  1.00  0.00     0.134 A 
ATOM     60  F   UNL     1       0.795   7.162  13.456  1.00  0.00    -0.206 F 
ATOM     61  C   UNL     1       3.005   7.117  14.241  1.00  0.00     0.040 A 
ATOM     62  C   UNL     1       4.081   5.013  14.697  1.00  0.00     0.040 A 
ATOM     63  F   UNL     1       2.939   3.000  14.316  1.00  0.00    -0.206 F 
ATOM     64  C   UNL     1       4.124   6.405  14.667  1.00  0.00     0.006 A 
ENDBRANCH  43  57
BRANCH  44  65
ATOM     65  C   UNL     1      -6.175  -0.045  10.637  1.00  0.00     0.057 A 
ATOM     66  C   UNL     1      -7.476   0.279  11.039  1.00  0.00     0.134 A 
ATOM     67  C   UNL     1      -6.020  -1.138   9.775  1.00  0.00     0.134 A 
ATOM     68  F   UNL     1      -7.688   1.304  11.877  1.00  0.00    -0.206 F 
ATOM     69  C   UNL     1      -8.578  -0.468  10.620  1.00  0.00     0.040 A 
ATOM     70  C   UNL     1      -7.116  -1.876   9.326  1.00  0.00     0.040 A 
ATOM     71  F   UNL     1      -4.801  -1.494   9.344  1.00  0.00    -0.206 F 
ATOM     72  C   UNL     1      -8.399  -1.547   9.757  1.00  0.00     0.006 A 
ENDBRANCH  44  65
BRANCH  56  73
ATOM     73  C   UNL     1      -3.233   0.812  16.887  1.00  0.00     0.057 A 
ATOM     74  C   UNL     1      -3.105  -0.540  17.230  1.00  0.00     0.134 A 
ATOM     75  C   UNL     1      -3.704   1.686  17.876  1.00  0.00     0.134 A 
ATOM     76  F   UNL     1      -2.671  -1.433  16.327  1.00  0.00    -0.206 F 
ATOM     77  C   UNL     1      -3.468  -1.010  18.493  1.00  0.00     0.040 A 
ATOM     78  C   UNL     1      -4.038   1.233  19.152  1.00  0.00     0.040 A 
ATOM     79  F   UNL     1      -3.840   2.996  17.620  1.00  0.00    -0.206 F 
ATOM     80  C   UNL     1      -3.931  -0.121  19.461  1.00  0.00     0.006 A 
ENDBRANCH  56  73
ENDBRANCH  30  31
ENDBRANCH  22  25
ENDBRANCH  20  21
ENDBRANCH   1  20
TORSDOF 13
