REMARK SMILES NC(=O)CC[C@H](C(=O)NCCCNC(=O)c1ccc(-c2c3nc(c(-c4c(F)cccc4F)c4ccc([nH]4)c(-c4c(F)cccc4F)c4nc(c(-c5c(F)cccc5F)c5ccc2[nH]5)C=C4)C=C3)cc1)N1C(=O)/C(=C/c2ccc(O)c(O)c2)SC1=S
REMARK SMILES IDX 10 1 9 2 7 3 8 4 6 6 5 7 4 8 2 9 1 10 3 13 70 14 71 15 84 16
REMARK SMILES IDX 72 17 73 18 83 19 85 20 74 21 75 22 76 23 82 24 77 25 80 26
REMARK SMILES IDX 78 27 81 28 79 30 11 32 12 33 13 34 14 35 15 37 16 38 17 39
REMARK SMILES IDX 69 40 18 41 68 42 19 43 20 44 21 45 62 46 22 47 67 48 61 49
REMARK SMILES IDX 63 50 23 51 66 52 60 53 59 54 24 56 50 57 33 58 49 59 34 60
REMARK SMILES IDX 37 61 48 62 64 63 35 64 36 65 47 67 65 68 38 69 25 70 26 71
REMARK SMILES IDX 31 72 27 73 28 74 30 75 32 76 29 77 51 78 52 79 57 80 53 81
REMARK SMILES IDX 54 82 56 83 58 84 55 85 39 86 40 87 45 88 41 89 42 90 44 91
REMARK SMILES IDX 46 92 43 93
REMARK H PARENT 9 5 1 11 1 12 81 29 79 31 13 36 63 55 37 66
REMARK Flexibility Score: inf
ROOT
ATOM      1  C   UNL     1       0.427  -0.055  -1.417  1.00  0.00     0.117 C 
ENDROOT
BRANCH   1   2
ATOM      2  N   UNL     1       0.743  -1.402  -1.867  1.00  0.00    -0.354 N 
ATOM      3  C   UNL     1       1.949  -1.964  -2.173  1.00  0.00     0.243 C 
ATOM      4  O   UNL     1       1.920  -2.970  -2.880  1.00  0.00    -0.273 OA
ATOM      5  H   UNL     1      -0.032  -2.001  -1.967  1.00  0.00     0.163 HD
BRANCH   3   6
ATOM      6  C   UNL     1       3.254  -1.368  -1.621  1.00  0.00     0.181 C 
BRANCH   6   7
ATOM      7  C   UNL     1       3.822  -2.088  -0.385  1.00  0.00     0.045 C 
BRANCH   7   8
ATOM      8  C   UNL     1       2.792  -2.345   0.722  1.00  0.00     0.102 C 
BRANCH   8   9
ATOM      9  C   UNL     1       2.181  -3.725   0.591  1.00  0.00     0.217 C 
ATOM     10  N   UNL     1       0.885  -3.764   0.184  1.00  0.00    -0.370 N 
ATOM     11  H   UNL     1       0.428  -4.629   0.078  1.00  0.00     0.159 HD
ATOM     12  H   UNL     1       0.403  -2.926  -0.005  1.00  0.00     0.159 HD
ATOM     13  O   UNL     1       2.804  -4.755   0.818  1.00  0.00    -0.275 OA
ENDBRANCH   8   9
ENDBRANCH   7   8
ENDBRANCH   6   7
BRANCH   6  14
ATOM     14  N   UNL     1       4.170  -1.163  -2.765  1.00  0.00    -0.280 N 
ATOM     15  C   UNL     1       4.140   0.096  -3.354  1.00  0.00     0.266 C 
ATOM     16  C   UNL     1       4.923  -2.119  -3.426  1.00  0.00     0.149 C 
ATOM     17  O   UNL     1       3.459   1.046  -2.986  1.00  0.00    -0.268 OA
ATOM     18  C   UNL     1       5.008   0.142  -4.554  1.00  0.00     0.081 C 
ATOM     19  S   UNL     1       5.718  -1.391  -4.822  1.00  0.00    -0.054 SA
ATOM     20  S   UNL     1       5.162  -3.736  -3.105  1.00  0.00    -0.052 S 
ATOM     21  C   UNL     1       5.153   1.250  -5.294  1.00  0.00     0.029 C 
BRANCH  21  22
ATOM     22  C   UNL     1       5.936   1.316  -6.532  1.00  0.00    -0.020 A 
ATOM     23  C   UNL     1       7.157   2.005  -6.556  1.00  0.00     0.012 A 
ATOM     24  C   UNL     1       5.477   0.663  -7.686  1.00  0.00     0.058 A 
ATOM     25  C   UNL     1       7.928   2.025  -7.721  1.00  0.00     0.051 A 
ATOM     26  C   UNL     1       6.256   0.681  -8.835  1.00  0.00     0.157 A 
ATOM     27  C   UNL     1       7.473   1.357  -8.848  1.00  0.00     0.157 A 
BRANCH  26  28
ATOM     28  O   UNL     1       5.872   0.037  -9.979  1.00  0.00    -0.504 OA
ATOM     29  H   UNL     1       6.418   0.067 -10.739  1.00  0.00     0.293 HD
ENDBRANCH  26  28
BRANCH  27  30
ATOM     30  O   UNL     1       8.237   1.357  -9.979  1.00  0.00    -0.504 OA
ATOM     31  H   UNL     1       9.057   1.811  -9.991  1.00  0.00     0.293 HD
ENDBRANCH  27  30
ENDBRANCH  21  22
ENDBRANCH   6  14
ENDBRANCH   3   6
ENDBRANCH   1   2
BRANCH   1  32
ATOM     32  C   UNL     1      -0.224   0.747  -2.537  1.00  0.00     0.042 C 
BRANCH  32  33
ATOM     33  C   UNL     1      -1.592   0.213  -2.947  1.00  0.00     0.118 C 
BRANCH  33  34
ATOM     34  N   UNL     1      -2.573   0.314  -1.875  1.00  0.00    -0.352 N 
ATOM     35  C   UNL     1      -3.774   0.981  -1.854  1.00  0.00     0.251 C 
ATOM     36  H   UNL     1      -2.342  -0.165  -1.046  1.00  0.00     0.163 HD
ATOM     37  O   UNL     1      -4.374   1.131  -0.799  1.00  0.00    -0.269 OA
BRANCH  35  38
ATOM     38  C   UNL     1      -4.325   1.527  -3.111  1.00  0.00     0.039 A 
ATOM     39  C   UNL     1      -4.850   2.820  -3.116  1.00  0.00     0.014 A 
ATOM     40  C   UNL     1      -4.318   0.760  -4.279  1.00  0.00     0.014 A 
ATOM     41  C   UNL     1      -5.314   3.368  -4.313  1.00  0.00     0.010 A 
ATOM     42  C   UNL     1      -4.698   1.338  -5.484  1.00  0.00     0.010 A 
ATOM     43  C   UNL     1      -5.211   2.643  -5.512  1.00  0.00    -0.014 A 
BRANCH  43  44
ATOM     44  C   UNL     1      -5.652   3.222  -6.805  1.00  0.00     0.031 A 
ATOM     45  C   UNL     1      -6.777   2.580  -7.569  1.00  0.00     0.074 A 
ATOM     46  C   UNL     1      -4.999   4.281  -7.321  1.00  0.00     0.049 A 
ATOM     47  N   UNL     1      -7.257   2.885  -8.747  1.00  0.00    -0.248 NA
ATOM     48  C   UNL     1      -7.427   1.419  -6.939  1.00  0.00     0.031 C 
ATOM     49  C   UNL     1      -3.861   4.961  -6.699  1.00  0.00     0.029 A 
ATOM     50  N   UNL     1      -5.194   4.965  -8.494  1.00  0.00    -0.354 N 
ATOM     51  C   UNL     1      -8.249   1.947  -9.004  1.00  0.00     0.074 A 
ATOM     52  C   UNL     1      -8.260   1.025  -7.890  1.00  0.00     0.031 C 
ATOM     53  C   UNL     1      -3.476   5.981  -7.484  1.00  0.00     0.029 A 
ATOM     54  C   UNL     1      -4.312   6.002  -8.680  1.00  0.00     0.049 A 
ATOM     55  H   UNL     1      -5.898   4.735  -9.142  1.00  0.00     0.167 HD
ATOM     56  C   UNL     1      -9.093   1.875 -10.060  1.00  0.00     0.037 A 
ATOM     57  C   UNL     1      -4.189   6.869  -9.703  1.00  0.00     0.037 A 
ATOM     58  C   UNL     1      -9.096   2.810 -11.154  1.00  0.00     0.049 A 
ATOM     59  C   UNL     1      -5.137   6.767 -10.866  1.00  0.00     0.074 A 
ATOM     60  C   UNL     1      -9.947   2.860 -12.243  1.00  0.00     0.029 A 
ATOM     61  N   UNL     1      -8.202   3.861 -11.295  1.00  0.00    -0.354 N 
ATOM     62  N   UNL     1      -6.114   5.915 -11.065  1.00  0.00    -0.248 NA
ATOM     63  C   UNL     1      -4.970   7.752 -11.943  1.00  0.00     0.031 C 
ATOM     64  C   UNL     1      -9.540   3.914 -13.067  1.00  0.00     0.029 A 
ATOM     65  C   UNL     1      -8.468   4.553 -12.464  1.00  0.00     0.049 A 
ATOM     66  H   UNL     1      -7.484   4.082 -10.658  1.00  0.00     0.167 HD
ATOM     67  C   UNL     1      -6.698   6.281 -12.271  1.00  0.00     0.074 A 
ATOM     68  C   UNL     1      -5.973   7.439 -12.751  1.00  0.00     0.031 C 
ATOM     69  C   UNL     1      -7.742   5.711 -12.922  1.00  0.00     0.037 A 
BRANCH  56  70
ATOM     70  C   UNL     1     -10.084   0.747 -10.078  1.00  0.00     0.057 A 
ATOM     71  C   UNL     1     -11.153   0.686  -9.173  1.00  0.00     0.134 A 
ATOM     72  C   UNL     1      -9.984  -0.280 -11.025  1.00  0.00     0.134 A 
ATOM     73  F   UNL     1     -11.300   1.630  -8.230  1.00  0.00    -0.206 F 
ATOM     74  C   UNL     1     -12.066  -0.369  -9.189  1.00  0.00     0.040 A 
ATOM     75  C   UNL     1     -10.909  -1.325 -11.071  1.00  0.00     0.040 A 
ATOM     76  F   UNL     1      -8.989  -0.283 -11.925  1.00  0.00    -0.206 F 
ATOM     77  C   UNL     1     -11.950  -1.375 -10.145  1.00  0.00     0.006 A 
ENDBRANCH  56  70
BRANCH  57  78
ATOM     78  C   UNL     1      -3.147   7.926  -9.662  1.00  0.00     0.057 A 
ATOM     79  C   UNL     1      -3.493   9.274  -9.511  1.00  0.00     0.134 A 
ATOM     80  C   UNL     1      -1.786   7.619  -9.781  1.00  0.00     0.134 A 
ATOM     81  F   UNL     1      -4.781   9.632  -9.409  1.00  0.00    -0.206 F 
ATOM     82  C   UNL     1      -2.526  10.281  -9.502  1.00  0.00     0.040 A 
ATOM     83  C   UNL     1      -0.807   8.614  -9.748  1.00  0.00     0.040 A 
ATOM     84  F   UNL     1      -1.388   6.346  -9.918  1.00  0.00    -0.206 F 
ATOM     85  C   UNL     1      -1.178   9.950  -9.616  1.00  0.00     0.006 A 
ENDBRANCH  57  78
BRANCH  69  86
ATOM     86  C   UNL     1      -8.190   6.356 -14.200  1.00  0.00     0.057 A 
ATOM     87  C   UNL     1      -7.433   6.279 -15.376  1.00  0.00     0.134 A 
ATOM     88  C   UNL     1      -9.416   7.031 -14.264  1.00  0.00     0.134 A 
ATOM     89  F   UNL     1      -6.243   5.658 -15.379  1.00  0.00    -0.206 F 
ATOM     90  C   UNL     1      -7.867   6.872 -16.563  1.00  0.00     0.040 A 
ATOM     91  C   UNL     1      -9.875   7.602 -15.451  1.00  0.00     0.040 A 
ATOM     92  F   UNL     1     -10.195   7.133 -13.176  1.00  0.00    -0.206 F 
ATOM     93  C   UNL     1      -9.096   7.529 -16.604  1.00  0.00     0.006 A 
ENDBRANCH  69  86
ENDBRANCH  43  44
ENDBRANCH  35  38
ENDBRANCH  33  34
ENDBRANCH  32  33
ENDBRANCH   1  32
TORSDOF 17
