REMARK SMILES Cc1cnc(NC(=O)NC[C@H]2CC[C@H](C(=O)NCCCNC(=O)c3ccc(-c4c5nc(c(-c6c(F)cccc6F)c6ccc([nH]6)c(-c6c(F)cccc6F)c6nc(c(-c7c(F)cccc7F)c7ccc4[nH]7)C=C6)C=C5)cc3)O2)s1
REMARK SMILES IDX 18 1 17 2 15 3 16 4 14 6 11 7 12 8 78 9 13 10 10 11 9 12
REMARK SMILES IDX 6 13 7 14 8 16 5 18 1 19 2 20 3 21 79 22 4 23 19 24 20 25
REMARK SMILES IDX 21 26 22 27 23 29 24 30 25 31 77 32 26 33 76 34 27 35 28 36
REMARK SMILES IDX 29 37 70 38 30 39 75 40 69 41 71 42 31 43 74 44 68 45 67 46
REMARK SMILES IDX 32 48 58 49 41 50 57 51 42 52 45 53 56 54 72 55 43 56 44 57
REMARK SMILES IDX 55 59 73 60 46 61 33 62 34 63 39 64 35 65 36 66 38 67 40 68
REMARK SMILES IDX 37 69 59 70 60 71 65 72 61 73 62 74 64 75 66 76 63 77 47 78
REMARK SMILES IDX 48 79 53 80 49 81 50 82 52 83 54 84 51 85
REMARK H PARENT 17 5 6 15 9 17 21 28 71 47 45 58
REMARK Flexibility Score: inf
ROOT
ATOM      1  C   UNL     1      -2.752   2.997  -1.812  1.00  0.00     0.117 C 
ENDROOT
BRANCH   1   2
ATOM      2  N   UNL     1      -2.681   2.725  -3.228  1.00  0.00    -0.354 N 
ATOM      3  C   UNL     1      -1.612   2.417  -4.016  1.00  0.00     0.249 C 
ATOM      4  O   UNL     1      -1.850   2.190  -5.208  1.00  0.00    -0.272 OA
ATOM      5  H   UNL     1      -3.543   2.769  -3.701  1.00  0.00     0.163 HD
BRANCH   3   6
ATOM      6  C   UNL     1      -0.152   2.437  -3.496  1.00  0.00     0.207 C 
ATOM      7  C   UNL     1       0.675   2.740  -1.323  1.00  0.00     0.138 C 
ATOM      8  C   UNL     1       0.621   4.104  -1.969  1.00  0.00     0.037 C 
ATOM      9  O   UNL     1       0.127   1.793  -2.252  1.00  0.00    -0.363 OA
ATOM     10  C   UNL     1       0.393   3.852  -3.431  1.00  0.00     0.045 C 
BRANCH   7  11
ATOM     11  C   UNL     1       2.007   2.268  -0.726  1.00  0.00     0.149 C 
BRANCH  11  12
ATOM     12  N   UNL     1       3.038   1.809  -1.641  1.00  0.00    -0.335 N 
ATOM     13  N   UNL     1       4.466   3.530  -2.500  1.00  0.00    -0.284 N 
ATOM     14  C   UNL     1       4.083   2.266  -2.327  1.00  0.00     0.321 C 
ATOM     15  H   UNL     1       5.159   3.618  -3.194  1.00  0.00     0.174 HD
ATOM     16  O   UNL     1       4.701   1.408  -2.973  1.00  0.00    -0.248 OA
ATOM     17  H   UNL     1       2.929   0.845  -1.807  1.00  0.00     0.165 HD
BRANCH  13  18
ATOM     18  C   UNL     1       4.133   4.726  -1.954  1.00  0.00     0.190 A 
ATOM     19  C   UNL     1       2.242   7.131   0.322  1.00  0.00     0.058 C 
ATOM     20  C   UNL     1       3.149   6.461  -0.640  1.00  0.00     0.023 A 
ATOM     21  C   UNL     1       3.496   6.822  -1.927  1.00  0.00     0.128 A 
ATOM     22  S   UNL     1       3.888   4.950  -0.286  1.00  0.00    -0.102 S 
ATOM     23  N   UNL     1       4.119   5.832  -2.661  1.00  0.00    -0.228 NA
ENDBRANCH  13  18
ENDBRANCH  11  12
ENDBRANCH   7  11
ENDBRANCH   3   6
ENDBRANCH   1   2
BRANCH   1  24
ATOM     24  C   UNL     1      -2.924   4.483  -1.517  1.00  0.00     0.042 C 
BRANCH  24  25
ATOM     25  C   UNL     1      -4.378   4.929  -1.548  1.00  0.00     0.118 C 
BRANCH  25  26
ATOM     26  N   UNL     1      -5.151   4.328  -0.468  1.00  0.00    -0.352 N 
ATOM     27  C   UNL     1      -5.938   4.912   0.492  1.00  0.00     0.251 C 
ATOM     28  H   UNL     1      -5.101   3.346  -0.420  1.00  0.00     0.163 HD
ATOM     29  O   UNL     1      -6.325   4.243   1.444  1.00  0.00    -0.269 OA
BRANCH  27  30
ATOM     30  C   UNL     1      -6.306   6.339   0.394  1.00  0.00     0.039 A 
ATOM     31  C   UNL     1      -6.376   7.096   1.566  1.00  0.00     0.014 A 
ATOM     32  C   UNL     1      -6.615   6.923  -0.837  1.00  0.00     0.014 A 
ATOM     33  C   UNL     1      -6.700   8.451   1.496  1.00  0.00     0.010 A 
ATOM     34  C   UNL     1      -6.848   8.291  -0.916  1.00  0.00     0.010 A 
ATOM     35  C   UNL     1      -6.904   9.066   0.251  1.00  0.00    -0.014 A 
BRANCH  35  36
ATOM     36  C   UNL     1      -7.186  10.518   0.147  1.00  0.00     0.031 A 
ATOM     37  C   UNL     1      -8.492  10.994  -0.424  1.00  0.00     0.074 A 
ATOM     38  C   UNL     1      -6.235  11.403   0.505  1.00  0.00     0.049 A 
ATOM     39  N   UNL     1      -8.893  12.216  -0.663  1.00  0.00    -0.248 NA
ATOM     40  C   UNL     1      -9.467   9.958  -0.805  1.00  0.00     0.031 C 
ATOM     41  C   UNL     1      -4.910  11.057   1.026  1.00  0.00     0.029 A 
ATOM     42  N   UNL     1      -6.233  12.774   0.476  1.00  0.00    -0.354 N 
ATOM     43  C   UNL     1     -10.154  12.095  -1.234  1.00  0.00     0.074 A 
ATOM     44  C   UNL     1     -10.428  10.681  -1.360  1.00  0.00     0.031 C 
ATOM     45  C   UNL     1      -4.234  12.186   1.291  1.00  0.00     0.029 A 
ATOM     46  C   UNL     1      -5.058  13.331   0.920  1.00  0.00     0.049 A 
ATOM     47  H   UNL     1      -7.000  13.308   0.167  1.00  0.00     0.167 HD
ATOM     48  C   UNL     1     -11.015  13.075  -1.597  1.00  0.00     0.037 A 
ATOM     49  C   UNL     1      -4.685  14.621   1.008  1.00  0.00     0.037 A 
ATOM     50  C   UNL     1     -10.742  14.480  -1.447  1.00  0.00     0.049 A 
ATOM     51  C   UNL     1      -5.657  15.690   0.590  1.00  0.00     0.074 A 
ATOM     52  C   UNL     1     -11.569  15.553  -1.729  1.00  0.00     0.029 A 
ATOM     53  N   UNL     1      -9.547  15.006  -0.978  1.00  0.00    -0.354 N 
ATOM     54  N   UNL     1      -6.873  15.563   0.117  1.00  0.00    -0.248 NA
ATOM     55  C   UNL     1      -5.207  17.082   0.723  1.00  0.00     0.031 C 
ATOM     56  C   UNL     1     -10.855  16.730  -1.478  1.00  0.00     0.029 A 
ATOM     57  C   UNL     1      -9.606  16.390  -0.985  1.00  0.00     0.049 A 
ATOM     58  H   UNL     1      -8.773  14.474  -0.683  1.00  0.00     0.167 HD
ATOM     59  C   UNL     1      -7.345  16.855  -0.073  1.00  0.00     0.074 A 
ATOM     60  C   UNL     1      -6.288  17.751   0.349  1.00  0.00     0.031 C 
ATOM     61  C   UNL     1      -8.545  17.264  -0.553  1.00  0.00     0.037 A 
BRANCH  48  62
ATOM     62  C   UNL     1     -12.332  12.660  -2.188  1.00  0.00     0.057 A 
ATOM     63  C   UNL     1     -13.322  12.027  -1.423  1.00  0.00     0.134 A 
ATOM     64  C   UNL     1     -12.629  12.926  -3.531  1.00  0.00     0.134 A 
ATOM     65  F   UNL     1     -13.099  11.730  -0.134  1.00  0.00    -0.206 F 
ATOM     66  C   UNL     1     -14.546  11.650  -1.978  1.00  0.00     0.040 A 
ATOM     67  C   UNL     1     -13.861  12.582  -4.089  1.00  0.00     0.040 A 
ATOM     68  F   UNL     1     -11.730  13.534  -4.320  1.00  0.00    -0.206 F 
ATOM     69  C   UNL     1     -14.822  11.936  -3.314  1.00  0.00     0.006 A 
ENDBRANCH  48  62
BRANCH  49  70
ATOM     70  C   UNL     1      -3.341  14.974   1.531  1.00  0.00     0.057 A 
ATOM     71  C   UNL     1      -3.192  15.614   2.767  1.00  0.00     0.134 A 
ATOM     72  C   UNL     1      -2.176  14.688   0.810  1.00  0.00     0.134 A 
ATOM     73  F   UNL     1      -4.271  15.928   3.498  1.00  0.00    -0.206 F 
ATOM     74  C   UNL     1      -1.936  15.978   3.256  1.00  0.00     0.040 A 
ATOM     75  C   UNL     1      -0.912  15.021   1.299  1.00  0.00     0.040 A 
ATOM     76  F   UNL     1      -2.248  14.064  -0.376  1.00  0.00    -0.206 F 
ATOM     77  C   UNL     1      -0.791  15.677   2.523  1.00  0.00     0.006 A 
ENDBRANCH  49  70
BRANCH  61  78
ATOM     78  C   UNL     1      -8.794  18.743  -0.607  1.00  0.00     0.057 A 
ATOM     79  C   UNL     1      -8.150  19.571  -1.534  1.00  0.00     0.134 A 
ATOM     80  C   UNL     1      -9.724  19.338   0.256  1.00  0.00     0.134 A 
ATOM     81  F   UNL     1      -7.239  19.066  -2.380  1.00  0.00    -0.206 F 
ATOM     82  C   UNL     1      -8.402  20.943  -1.584  1.00  0.00     0.040 A 
ATOM     83  C   UNL     1     -10.007  20.703   0.195  1.00  0.00     0.040 A 
ATOM     84  F   UNL     1     -10.383  18.600   1.162  1.00  0.00    -0.206 F 
ATOM     85  C   UNL     1      -9.339  21.511  -0.723  1.00  0.00     0.006 A 
ENDBRANCH  61  78
ENDBRANCH  35  36
ENDBRANCH  27  30
ENDBRANCH  25  26
ENDBRANCH  24  25
ENDBRANCH   1  24
TORSDOF 13
