REMARK SMILES COc1ccc(-c2ccc(CCC(=O)NCCCNC(=O)c3ccc(-c4c5nc(c(-c6c(F)cccc6F)c6ccc([nH]6)c(-c6c(F)cccc6F)c6nc(c(-c7c(F)cccc7F)c7ccc4[nH]7)C=C6)C=C5)cc3)n2-c2ccc(C(C)=O)cc2)cc1
REMARK SMILES IDX 16 1 15 2 13 3 14 4 12 6 11 7 10 8 7 9 8 10 76 11 9 12 6 13
REMARK SMILES IDX 3 14 4 15 87 16 5 17 86 18 2 19 1 20 77 21 78 22 85 23 79 24
REMARK SMILES IDX 84 25 80 26 81 27 82 28 83 29 17 30 18 31 19 32 20 33 21 35
REMARK SMILES IDX 22 36 23 37 75 38 24 39 74 40 25 41 26 42 27 43 68 44 28 45
REMARK SMILES IDX 73 46 67 47 69 48 29 49 72 50 66 51 65 52 30 54 56 55 39 56
REMARK SMILES IDX 55 57 40 58 43 59 54 60 70 61 41 62 42 63 53 65 71 66 44 67
REMARK SMILES IDX 31 68 32 69 37 70 33 71 34 72 36 73 38 74 35 75 57 76 58 77
REMARK SMILES IDX 63 78 59 79 60 80 62 81 64 82 61 83 45 84 46 85 51 86 47 87
REMARK SMILES IDX 48 88 50 89 52 90 49 91
REMARK H PARENT 15 5 19 34 69 53 43 64
REMARK Flexibility Score: inf
ROOT
ATOM      1  C   UNL     1       4.880  -5.278  -6.108  1.00  0.00     0.117 C 
ENDROOT
BRANCH   1   2
ATOM      2  N   UNL     1       4.617  -6.300  -7.109  1.00  0.00    -0.356 N 
ATOM      3  C   UNL     1       3.513  -6.494  -7.884  1.00  0.00     0.220 C 
ATOM      4  O   UNL     1       3.453  -7.524  -8.559  1.00  0.00    -0.275 OA
ATOM      5  H   UNL     1       5.346  -6.948  -7.247  1.00  0.00     0.163 HD
BRANCH   3   6
ATOM      6  C   UNL     1       2.423  -5.442  -7.953  1.00  0.00     0.106 C 
BRANCH   6   7
ATOM      7  C   UNL     1       1.042  -5.997  -7.585  1.00  0.00     0.064 C 
BRANCH   7   8
ATOM      8  C   UNL     1       0.790  -5.970  -6.099  1.00  0.00     0.024 A 
ATOM      9  C   UNL     1       0.741  -5.075  -4.025  1.00  0.00     0.053 A 
ATOM     10  C   UNL     1       0.816  -6.456  -3.903  1.00  0.00     0.029 A 
ATOM     11  N   UNL     1       0.484  -4.817  -5.374  1.00  0.00    -0.314 N 
ATOM     12  C   UNL     1       0.848  -7.016  -5.198  1.00  0.00     0.024 A 
BRANCH   9  13
ATOM     13  C   UNL     1       0.706  -4.096  -2.937  1.00  0.00    -0.001 A 
ATOM     14  C   UNL     1       0.653  -2.252  -0.822  1.00  0.00     0.118 A 
ATOM     15  C   UNL     1      -0.484  -2.994  -1.139  1.00  0.00     0.047 A 
ATOM     16  C   UNL     1       1.833  -2.457  -1.534  1.00  0.00     0.047 A 
ATOM     17  C   UNL     1      -0.463  -3.907  -2.197  1.00  0.00     0.014 A 
ATOM     18  C   UNL     1       1.856  -3.375  -2.588  1.00  0.00     0.014 A 
BRANCH  14  19
ATOM     19  O   UNL     1       0.537  -1.392   0.235  1.00  0.00    -0.497 OA
ATOM     20  C   UNL     1       1.167  -0.131   0.027  1.00  0.00     0.278 C 
ENDBRANCH  14  19
ENDBRANCH   9  13
BRANCH  11  21
ATOM     21  C   UNL     1      -0.203  -3.684  -5.885  1.00  0.00     0.046 A 
ATOM     22  C   UNL     1      -1.365  -3.917  -6.630  1.00  0.00     0.027 A 
ATOM     23  C   UNL     1       0.165  -2.381  -5.556  1.00  0.00     0.027 A 
ATOM     24  C   UNL     1      -2.180  -2.853  -7.020  1.00  0.00     0.014 A 
ATOM     25  C   UNL     1      -0.647  -1.315  -5.962  1.00  0.00     0.014 A 
ATOM     26  C   UNL     1      -1.838  -1.543  -6.675  1.00  0.00     0.017 A 
BRANCH  26  27
ATOM     27  C   UNL     1      -2.693  -0.364  -7.013  1.00  0.00     0.159 C 
ATOM     28  C   UNL     1      -4.081  -0.545  -7.578  1.00  0.00     0.093 C 
ATOM     29  O   UNL     1      -2.261   0.769  -6.800  1.00  0.00    -0.295 OA
ENDBRANCH  26  27
ENDBRANCH  11  21
ENDBRANCH   7   8
ENDBRANCH   6   7
ENDBRANCH   3   6
ENDBRANCH   1   2
BRANCH   1  30
ATOM     30  C   UNL     1       4.258  -5.645  -4.766  1.00  0.00     0.042 C 
BRANCH  30  31
ATOM     31  C   UNL     1       4.950  -6.813  -4.081  1.00  0.00     0.118 C 
BRANCH  31  32
ATOM     32  N   UNL     1       5.681  -6.406  -2.895  1.00  0.00    -0.352 N 
ATOM     33  C   UNL     1       6.180  -7.163  -1.869  1.00  0.00     0.251 C 
ATOM     34  H   UNL     1       5.843  -5.438  -2.816  1.00  0.00     0.163 HD
ATOM     35  O   UNL     1       6.643  -6.572  -0.884  1.00  0.00    -0.269 OA
BRANCH  33  36
ATOM     36  C   UNL     1       6.167  -8.647  -1.886  1.00  0.00     0.039 A 
ATOM     37  C   UNL     1       6.200  -9.312  -0.651  1.00  0.00     0.014 A 
ATOM     38  C   UNL     1       6.194  -9.401  -3.064  1.00  0.00     0.014 A 
ATOM     39  C   UNL     1       6.238 -10.703  -0.600  1.00  0.00     0.010 A 
ATOM     40  C   UNL     1       6.176 -10.788  -3.022  1.00  0.00     0.010 A 
ATOM     41  C   UNL     1       6.224 -11.438  -1.789  1.00  0.00    -0.014 A 
BRANCH  41  42
ATOM     42  C   UNL     1       6.292 -12.913  -1.746  1.00  0.00     0.031 A 
ATOM     43  C   UNL     1       4.982 -13.571  -1.359  1.00  0.00     0.074 A 
ATOM     44  C   UNL     1       7.501 -13.470  -2.038  1.00  0.00     0.049 A 
ATOM     45  N   UNL     1       4.778 -14.651  -0.670  1.00  0.00    -0.248 NA
ATOM     46  C   UNL     1       3.713 -12.884  -1.704  1.00  0.00     0.031 C 
ATOM     47  C   UNL     1       8.690 -12.679  -2.405  1.00  0.00     0.029 A 
ATOM     48  N   UNL     1       7.992 -14.759  -2.090  1.00  0.00    -0.354 N 
ATOM     49  C   UNL     1       3.389 -14.861  -0.628  1.00  0.00     0.074 A 
ATOM     50  C   UNL     1       2.782 -13.679  -1.170  1.00  0.00     0.031 C 
ATOM     51  C   UNL     1       9.755 -13.476  -2.589  1.00  0.00     0.029 A 
ATOM     52  C   UNL     1       9.376 -14.858  -2.372  1.00  0.00     0.049 A 
ATOM     53  H   UNL     1       7.424 -15.550  -1.942  1.00  0.00     0.167 HD
ATOM     54  C   UNL     1       2.824 -16.052  -0.275  1.00  0.00     0.037 A 
ATOM     55  C   UNL     1      10.197 -15.951  -2.376  1.00  0.00     0.037 A 
ATOM     56  C   UNL     1       3.827 -17.024   0.015  1.00  0.00     0.049 A 
ATOM     57  C   UNL     1       9.356 -17.110  -2.024  1.00  0.00     0.074 A 
ATOM     58  C   UNL     1       4.690 -17.222   1.061  1.00  0.00     0.029 A 
ATOM     59  N   UNL     1       4.218 -17.826  -1.029  1.00  0.00    -0.354 N 
ATOM     60  N   UNL     1       8.502 -17.690  -2.813  1.00  0.00    -0.248 NA
ATOM     61  C   UNL     1       9.384 -17.598  -0.638  1.00  0.00     0.031 C 
ATOM     62  C   UNL     1       5.809 -17.869   0.485  1.00  0.00     0.029 A 
ATOM     63  C   UNL     1       5.556 -18.096  -0.871  1.00  0.00     0.049 A 
ATOM     64  H   UNL     1       3.643 -18.149  -1.760  1.00  0.00     0.167 HD
ATOM     65  C   UNL     1       7.689 -18.373  -1.933  1.00  0.00     0.074 A 
ATOM     66  C   UNL     1       8.433 -18.524  -0.707  1.00  0.00     0.031 C 
ATOM     67  C   UNL     1       6.341 -18.308  -2.069  1.00  0.00     0.037 A 
BRANCH  54  68
ATOM     68  C   UNL     1       1.408 -16.541  -0.394  1.00  0.00     0.057 A 
ATOM     69  C   UNL     1       0.995 -17.615   0.428  1.00  0.00     0.134 A 
ATOM     70  C   UNL     1       0.554 -16.225  -1.456  1.00  0.00     0.134 A 
ATOM     71  F   UNL     1       1.726 -17.992   1.490  1.00  0.00    -0.206 F 
ATOM     72  C   UNL     1      -0.140 -18.382   0.154  1.00  0.00     0.040 A 
ATOM     73  C   UNL     1      -0.613 -16.959  -1.712  1.00  0.00     0.040 A 
ATOM     74  F   UNL     1       0.858 -15.262  -2.335  1.00  0.00    -0.206 F 
ATOM     75  C   UNL     1      -0.944 -18.061  -0.929  1.00  0.00     0.006 A 
ENDBRANCH  54  68
BRANCH  55  76
ATOM     76  C   UNL     1      11.688 -16.167  -2.498  1.00  0.00     0.057 A 
ATOM     77  C   UNL     1      12.609 -15.254  -3.027  1.00  0.00     0.134 A 
ATOM     78  C   UNL     1      12.285 -17.371  -2.045  1.00  0.00     0.134 A 
ATOM     79  F   UNL     1      12.215 -14.161  -3.689  1.00  0.00    -0.206 F 
ATOM     80  C   UNL     1      14.002 -15.447  -2.958  1.00  0.00     0.040 A 
ATOM     81  C   UNL     1      13.667 -17.580  -1.968  1.00  0.00     0.040 A 
ATOM     82  F   UNL     1      11.553 -18.424  -1.658  1.00  0.00    -0.206 F 
ATOM     83  C   UNL     1      14.537 -16.599  -2.399  1.00  0.00     0.006 A 
ENDBRANCH  55  76
BRANCH  67  84
ATOM     84  C   UNL     1       5.895 -18.000  -3.480  1.00  0.00     0.057 A 
ATOM     85  C   UNL     1       6.101 -18.928  -4.507  1.00  0.00     0.134 A 
ATOM     86  C   UNL     1       5.392 -16.752  -3.874  1.00  0.00     0.134 A 
ATOM     87  F   UNL     1       6.583 -20.148  -4.227  1.00  0.00    -0.206 F 
ATOM     88  C   UNL     1       5.831 -18.623  -5.848  1.00  0.00     0.040 A 
ATOM     89  C   UNL     1       5.100 -16.435  -5.204  1.00  0.00     0.040 A 
ATOM     90  F   UNL     1       5.189 -15.789  -2.977  1.00  0.00    -0.206 F 
ATOM     91  C   UNL     1       5.330 -17.372  -6.201  1.00  0.00     0.006 A 
ENDBRANCH  67  84
ENDBRANCH  41  42
ENDBRANCH  33  36
ENDBRANCH  31  32
ENDBRANCH  30  31
ENDBRANCH   1  30
TORSDOF 16
