REMARK SMILES CC(C)[C@@](C)(CC(=O)N[C@H]1CCCC1(C)C)C(=O)NCCCNC(=O)c1ccc(-c2c3nc(c(-c4c(F)cccc4F)c4ccc([nH]4)c(-c4c(F)cccc4F)c4nc(c(-c5c(F)cccc5F)c5ccc2[nH]5)C=C4)C=C3)cc1
REMARK SMILES IDX 20 1 19 2 17 3 18 4 4 6 5 7 2 8 1 9 3 10 6 11 7 12 8 13 9 14
REMARK SMILES IDX 10 16 11 17 14 18 12 19 13 20 15 21 16 22 21 23 22 24 23 25
REMARK SMILES IDX 24 26 25 28 26 29 27 30 79 31 28 32 78 33 29 34 30 35 31 36
REMARK SMILES IDX 72 37 32 38 77 39 71 40 73 41 33 42 76 43 70 44 69 45 34 47
REMARK SMILES IDX 60 48 43 49 59 50 44 51 47 52 58 53 74 54 45 55 46 56 57 58
REMARK SMILES IDX 75 59 48 60 35 61 36 62 41 63 37 64 38 65 40 66 42 67 39 68
REMARK SMILES IDX 61 69 62 70 67 71 63 72 64 73 66 74 68 75 65 76 49 77 50 78
REMARK SMILES IDX 55 79 51 80 52 81 54 82 56 83 53 84
REMARK H PARENT 19 5 9 15 23 27 73 46 47 57
REMARK Flexibility Score: inf
ROOT
ATOM      1  C   UNL     1      -4.510  -1.340   0.300  1.00  0.00     0.117 C 
ENDROOT
BRANCH   1   2
ATOM      2  N   UNL     1      -3.683  -0.304   0.864  1.00  0.00    -0.356 N 
ATOM      3  C   UNL     1      -2.366  -0.095   0.986  1.00  0.00     0.226 C 
ATOM      4  O   UNL     1      -2.116   0.937   1.623  1.00  0.00    -0.274 OA
ATOM      5  H   UNL     1      -4.215   0.427   1.253  1.00  0.00     0.163 HD
BRANCH   3   6
ATOM      6  C   UNL     1      -1.256  -0.915   0.293  1.00  0.00     0.057 C 
ATOM      7  C   UNL     1      -1.485  -0.705  -1.229  1.00  0.00     0.022 C 
BRANCH   6   8
ATOM      8  C   UNL     1       0.106  -0.303   0.734  1.00  0.00    -0.002 C 
ATOM      9  C   UNL     1       0.536   1.024   0.101  1.00  0.00     0.008 C 
ATOM     10  C   UNL     1       0.262  -0.212   2.281  1.00  0.00     0.008 C 
ENDBRANCH   6   8
BRANCH   6  11
ATOM     11  C   UNL     1      -1.190  -2.472   0.512  1.00  0.00     0.116 C 
BRANCH  11  12
ATOM     12  C   UNL     1      -0.471  -3.032   1.744  1.00  0.00     0.221 C 
ATOM     13  O   UNL     1      -1.146  -3.304   2.745  1.00  0.00    -0.275 OA
ATOM     14  N   UNL     1       0.875  -3.268   1.829  1.00  0.00    -0.353 N 
ATOM     15  H   UNL     1       1.146  -3.523   2.740  1.00  0.00     0.163 HD
BRANCH  14  16
ATOM     16  C   UNL     1       2.032  -3.236   0.897  1.00  0.00     0.087 C 
ATOM     17  C   UNL     1       2.925  -1.973   1.014  1.00  0.00     0.025 C 
ATOM     18  C   UNL     1       3.109  -4.323   1.247  1.00  0.00    -0.015 C 
ATOM     19  C   UNL     1       3.878  -2.199   2.179  1.00  0.00     0.003 C 
ATOM     20  C   UNL     1       3.862  -3.696   2.441  1.00  0.00     0.008 C 
ATOM     21  C   UNL     1       2.555  -5.696   1.631  1.00  0.00     0.013 C 
ATOM     22  C   UNL     1       4.093  -4.525   0.068  1.00  0.00     0.013 C 
ENDBRANCH  14  16
ENDBRANCH  11  12
ENDBRANCH   6  11
ENDBRANCH   3   6
ENDBRANCH   1   2
BRANCH   1  23
ATOM     23  C   UNL     1      -5.174  -2.153   1.401  1.00  0.00     0.042 C 
BRANCH  23  24
ATOM     24  C   UNL     1      -5.764  -1.310   2.529  1.00  0.00     0.118 C 
BRANCH  24  25
ATOM     25  N   UNL     1      -6.646  -0.247   2.050  1.00  0.00    -0.352 N 
ATOM     26  C   UNL     1      -7.983  -0.049   2.260  1.00  0.00     0.251 C 
ATOM     27  H   UNL     1      -6.209   0.433   1.489  1.00  0.00     0.163 HD
ATOM     28  O   UNL     1      -8.589   0.805   1.613  1.00  0.00    -0.269 OA
BRANCH  26  29
ATOM     29  C   UNL     1      -8.697  -0.874   3.247  1.00  0.00     0.039 A 
ATOM     30  C   UNL     1      -9.964  -1.365   2.930  1.00  0.00     0.014 A 
ATOM     31  C   UNL     1      -8.115  -1.158   4.484  1.00  0.00     0.014 A 
ATOM     32  C   UNL     1     -10.630  -2.177   3.845  1.00  0.00     0.010 A 
ATOM     33  C   UNL     1      -8.725  -2.061   5.340  1.00  0.00     0.010 A 
ATOM     34  C   UNL     1     -10.006  -2.548   5.047  1.00  0.00    -0.014 A 
BRANCH  34  35
ATOM     35  C   UNL     1     -10.710  -3.383   6.047  1.00  0.00     0.031 A 
ATOM     36  C   UNL     1     -11.001  -2.820   7.412  1.00  0.00     0.074 A 
ATOM     37  C   UNL     1     -11.051  -4.649   5.741  1.00  0.00     0.049 A 
ATOM     38  N   UNL     1     -11.584  -3.391   8.435  1.00  0.00    -0.248 NA
ATOM     39  C   UNL     1     -10.545  -1.445   7.675  1.00  0.00     0.031 C 
ATOM     40  C   UNL     1     -10.762  -5.322   4.474  1.00  0.00     0.029 A 
ATOM     41  N   UNL     1     -11.716  -5.594   6.478  1.00  0.00    -0.354 N 
ATOM     42  C   UNL     1     -11.551  -2.450   9.457  1.00  0.00     0.074 A 
ATOM     43  C   UNL     1     -10.817  -1.308   8.962  1.00  0.00     0.031 C 
ATOM     44  C   UNL     1     -11.277  -6.562   4.509  1.00  0.00     0.029 A 
ATOM     45  C   UNL     1     -11.901  -6.780   5.811  1.00  0.00     0.049 A 
ATOM     46  H   UNL     1     -12.031  -5.438   7.397  1.00  0.00     0.167 HD
ATOM     47  C   UNL     1     -12.118  -2.511  10.684  1.00  0.00     0.037 A 
ATOM     48  C   UNL     1     -12.509  -7.912   6.207  1.00  0.00     0.037 A 
ATOM     49  C   UNL     1     -12.863  -3.644  11.163  1.00  0.00     0.049 A 
ATOM     50  C   UNL     1     -13.142  -7.958   7.571  1.00  0.00     0.074 A 
ATOM     51  C   UNL     1     -13.512  -3.804  12.373  1.00  0.00     0.029 A 
ATOM     52  N   UNL     1     -13.057  -4.816  10.445  1.00  0.00    -0.354 N 
ATOM     53  N   UNL     1     -13.164  -7.036   8.505  1.00  0.00    -0.248 NA
ATOM     54  C   UNL     1     -13.851  -9.192   7.928  1.00  0.00     0.031 C 
ATOM     55  C   UNL     1     -14.062  -5.090  12.406  1.00  0.00     0.029 A 
ATOM     56  C   UNL     1     -13.807  -5.709  11.192  1.00  0.00     0.049 A 
ATOM     57  H   UNL     1     -12.713  -4.988   9.539  1.00  0.00     0.167 HD
ATOM     58  C   UNL     1     -13.915  -7.566   9.546  1.00  0.00     0.074 A 
ATOM     59  C   UNL     1     -14.342  -8.883   9.120  1.00  0.00     0.031 C 
ATOM     60  C   UNL     1     -14.227  -7.013  10.745  1.00  0.00     0.037 A 
BRANCH  47  61
ATOM     61  C   UNL     1     -11.954  -1.314  11.577  1.00  0.00     0.057 A 
ATOM     62  C   UNL     1     -12.551  -0.080  11.277  1.00  0.00     0.134 A 
ATOM     63  C   UNL     1     -11.188  -1.389  12.746  1.00  0.00     0.134 A 
ATOM     64  F   UNL     1     -13.285   0.068  10.164  1.00  0.00    -0.206 F 
ATOM     65  C   UNL     1     -12.358   1.043  12.084  1.00  0.00     0.040 A 
ATOM     66  C   UNL     1     -11.016  -0.281  13.580  1.00  0.00     0.040 A 
ATOM     67  F   UNL     1     -10.590  -2.537  13.098  1.00  0.00    -0.206 F 
ATOM     68  C   UNL     1     -11.593   0.942  13.243  1.00  0.00     0.006 A 
ENDBRANCH  47  61
BRANCH  48  69
ATOM     69  C   UNL     1     -12.581  -9.075   5.287  1.00  0.00     0.057 A 
ATOM     70  C   UNL     1     -13.793  -9.475   4.713  1.00  0.00     0.134 A 
ATOM     71  C   UNL     1     -11.437  -9.811   4.953  1.00  0.00     0.134 A 
ATOM     72  F   UNL     1     -14.926  -8.818   5.004  1.00  0.00    -0.206 F 
ATOM     73  C   UNL     1     -13.872 -10.576   3.859  1.00  0.00     0.040 A 
ATOM     74  C   UNL     1     -11.496 -10.897   4.078  1.00  0.00     0.040 A 
ATOM     75  F   UNL     1     -10.242  -9.472   5.457  1.00  0.00    -0.206 F 
ATOM     76  C   UNL     1     -12.718 -11.287   3.535  1.00  0.00     0.006 A 
ENDBRANCH  48  69
BRANCH  60  77
ATOM     77  C   UNL     1     -15.111  -7.813  11.657  1.00  0.00     0.057 A 
ATOM     78  C   UNL     1     -14.667  -8.979  12.294  1.00  0.00     0.134 A 
ATOM     79  C   UNL     1     -16.421  -7.391  11.921  1.00  0.00     0.134 A 
ATOM     80  F   UNL     1     -13.427  -9.443  12.076  1.00  0.00    -0.206 F 
ATOM     81  C   UNL     1     -15.506  -9.716  13.132  1.00  0.00     0.040 A 
ATOM     82  C   UNL     1     -17.257  -8.101  12.782  1.00  0.00     0.040 A 
ATOM     83  F   UNL     1     -16.906  -6.276  11.354  1.00  0.00    -0.206 F 
ATOM     84  C   UNL     1     -16.803  -9.274  13.382  1.00  0.00     0.006 A 
ENDBRANCH  60  77
ENDBRANCH  34  35
ENDBRANCH  26  29
ENDBRANCH  24  25
ENDBRANCH  23  24
ENDBRANCH   1  23
TORSDOF 14
