REMARK SMILES C[C@@H](C(=O)NCCCNC(=O)c1ccc(-c2c3nc(c(-c4c(F)cccc4F)c4ccc([nH]4)c(-c4c(F)cccc4F)c4nc(c(-c5c(F)cccc5F)c5ccc2[nH]5)C=C4)C=C3)cc1)[C@@H](C)C(=O)c1cccc(Cl)c1
REMARK SMILES IDX 6 1 5 2 3 3 4 4 2 6 1 7 66 8 67 9 68 10 69 11 70 12 71 13
REMARK SMILES IDX 76 14 72 15 74 16 73 17 75 18 7 19 8 20 9 21 10 22 11 24
REMARK SMILES IDX 12 25 13 26 65 27 14 28 64 29 15 30 16 31 17 32 58 33 18 34
REMARK SMILES IDX 63 35 57 36 59 37 19 38 62 39 56 40 55 41 20 43 46 44 29 45
REMARK SMILES IDX 45 46 30 47 33 48 44 49 60 50 31 51 32 52 43 54 61 55 34 56
REMARK SMILES IDX 21 57 22 58 27 59 23 60 24 61 26 62 28 63 25 64 47 65 48 66
REMARK SMILES IDX 53 67 49 68 50 69 52 70 54 71 51 72 35 73 36 74 41 75 37 76
REMARK SMILES IDX 38 77 40 78 42 79 39 80
REMARK H PARENT 5 5 9 23 59 42 33 53
REMARK Flexibility Score: inf
ROOT
ATOM      1  C   UNL     1       3.348  -1.871  -0.446  1.00  0.00     0.117 C 
ENDROOT
BRANCH   1   2
ATOM      2  N   UNL     1       2.293  -2.461   0.359  1.00  0.00    -0.356 N 
ATOM      3  C   UNL     1       0.977  -2.134   0.483  1.00  0.00     0.223 C 
ATOM      4  O   UNL     1       0.322  -2.728   1.337  1.00  0.00    -0.275 OA
ATOM      5  H   UNL     1       2.577  -3.227   0.908  1.00  0.00     0.163 HD
BRANCH   3   6
ATOM      6  C   UNL     1       0.369  -1.054  -0.407  1.00  0.00     0.086 C 
ATOM      7  C   UNL     1       0.641   0.309   0.236  1.00  0.00     0.019 C 
BRANCH   6   8
ATOM      8  C   UNL     1      -1.145  -1.290  -0.620  1.00  0.00     0.070 C 
ATOM      9  C   UNL     1      -1.760  -0.299  -1.615  1.00  0.00     0.017 C 
BRANCH   8  10
ATOM     10  C   UNL     1      -1.565  -2.713  -1.021  1.00  0.00     0.166 C 
ATOM     11  O   UNL     1      -2.361  -3.361  -0.341  1.00  0.00    -0.294 OA
BRANCH  10  12
ATOM     12  C   UNL     1      -1.194  -3.276  -2.346  1.00  0.00     0.019 A 
ATOM     13  C   UNL     1      -2.234  -3.761  -3.153  1.00  0.00     0.012 A 
ATOM     14  C   UNL     1       0.125  -3.376  -2.786  1.00  0.00     0.032 A 
ATOM     15  C   UNL     1      -1.959  -4.305  -4.409  1.00  0.00     0.002 A 
ATOM     16  C   UNL     1       0.392  -3.914  -4.046  1.00  0.00     0.041 A 
ATOM     17  C   UNL     1      -0.642  -4.374  -4.860  1.00  0.00     0.020 A 
ATOM     18  Cl  UNL     1       2.021  -4.017  -4.593  1.00  0.00    -0.084 Cl
ENDBRANCH  10  12
ENDBRANCH   8  10
ENDBRANCH   6   8
ENDBRANCH   3   6
ENDBRANCH   1   2
BRANCH   1  19
ATOM     19  C   UNL     1       4.300  -1.019   0.390  1.00  0.00     0.042 C 
BRANCH  19  20
ATOM     20  C   UNL     1       5.044  -1.780   1.483  1.00  0.00     0.118 C 
BRANCH  20  21
ATOM     21  N   UNL     1       5.988  -2.750   0.953  1.00  0.00    -0.352 N 
ATOM     22  C   UNL     1       7.322  -2.920   1.218  1.00  0.00     0.251 C 
ATOM     23  H   UNL     1       5.610  -3.383   0.301  1.00  0.00     0.163 HD
ATOM     24  O   UNL     1       7.972  -3.708   0.531  1.00  0.00    -0.269 OA
BRANCH  22  25
ATOM     25  C   UNL     1       8.000  -2.168   2.300  1.00  0.00     0.039 A 
ATOM     26  C   UNL     1       9.313  -1.735   2.086  1.00  0.00     0.014 A 
ATOM     27  C   UNL     1       7.393  -1.945   3.540  1.00  0.00     0.014 A 
ATOM     28  C   UNL     1      10.002  -1.057   3.095  1.00  0.00     0.010 A 
ATOM     29  C   UNL     1       8.055  -1.206   4.521  1.00  0.00     0.010 A 
ATOM     30  C   UNL     1       9.374  -0.774   4.317  1.00  0.00    -0.014 A 
BRANCH  30  31
ATOM     31  C   UNL     1      10.105  -0.075   5.404  1.00  0.00     0.031 A 
ATOM     32  C   UNL     1      10.427  -0.797   6.685  1.00  0.00     0.074 A 
ATOM     33  C   UNL     1      10.455   1.217   5.258  1.00  0.00     0.049 A 
ATOM     34  N   UNL     1      11.029  -0.351   7.759  1.00  0.00    -0.248 NA
ATOM     35  C   UNL     1       9.991  -2.199   6.781  1.00  0.00     0.031 C 
ATOM     36  C   UNL     1      10.161   2.047   4.089  1.00  0.00     0.029 A 
ATOM     37  N   UNL     1      11.130   2.061   6.105  1.00  0.00    -0.354 N 
ATOM     38  C   UNL     1      11.028  -1.409   8.660  1.00  0.00     0.074 A 
ATOM     39  C   UNL     1      10.322  -2.502   8.027  1.00  0.00     0.031 C 
ATOM     40  C   UNL     1      10.669   3.275   4.284  1.00  0.00     0.029 A 
ATOM     41  C   UNL     1      11.305   3.325   5.598  1.00  0.00     0.049 A 
ATOM     42  H   UNL     1      11.457   1.785   6.991  1.00  0.00     0.167 HD
ATOM     43  C   UNL     1      11.585  -1.476   9.893  1.00  0.00     0.037 A 
ATOM     44  C   UNL     1      11.914   4.401   6.129  1.00  0.00     0.037 A 
ATOM     45  C   UNL     1      12.315  -0.402  10.514  1.00  0.00     0.049 A 
ATOM     46  C   UNL     1      12.562   4.291   7.481  1.00  0.00     0.074 A 
ATOM     47  C   UNL     1      12.950  -0.386  11.743  1.00  0.00     0.029 A 
ATOM     48  N   UNL     1      12.513   0.846   9.945  1.00  0.00    -0.354 N 
ATOM     49  N   UNL     1      12.598   3.268   8.299  1.00  0.00    -0.248 NA
ATOM     50  C   UNL     1      13.269   5.482   7.975  1.00  0.00     0.031 C 
ATOM     51  C   UNL     1      13.515   0.882  11.928  1.00  0.00     0.029 A 
ATOM     52  C   UNL     1      13.259   1.642  10.798  1.00  0.00     0.049 A 
ATOM     53  H   UNL     1      12.173   1.126   9.064  1.00  0.00     0.167 HD
ATOM     54  C   UNL     1      13.350   3.681   9.391  1.00  0.00     0.074 A 
ATOM     55  C   UNL     1      13.762   5.044   9.125  1.00  0.00     0.031 C 
ATOM     56  C   UNL     1      13.670   2.992  10.514  1.00  0.00     0.037 A 
BRANCH  43  57
ATOM     57  C   UNL     1      11.431  -2.765  10.645  1.00  0.00     0.057 A 
ATOM     58  C   UNL     1      12.123  -3.924  10.267  1.00  0.00     0.134 A 
ATOM     59  C   UNL     1      10.593  -2.849  11.763  1.00  0.00     0.134 A 
ATOM     60  F   UNL     1      12.931  -3.913   9.196  1.00  0.00    -0.206 F 
ATOM     61  C   UNL     1      11.964  -5.127  10.956  1.00  0.00     0.040 A 
ATOM     62  C   UNL     1      10.444  -4.040  12.475  1.00  0.00     0.040 A 
ATOM     63  F   UNL     1       9.905  -1.776  12.181  1.00  0.00    -0.206 F 
ATOM     64  C   UNL     1      11.125  -5.186  12.067  1.00  0.00     0.006 A 
ENDBRANCH  43  57
BRANCH  44  65
ATOM     65  C   UNL     1      11.976   5.667   5.360  1.00  0.00     0.057 A 
ATOM     66  C   UNL     1      13.171   6.095   4.771  1.00  0.00     0.134 A 
ATOM     67  C   UNL     1      10.845   6.473   5.190  1.00  0.00     0.134 A 
ATOM     68  F   UNL     1      14.291   5.372   4.915  1.00  0.00    -0.206 F 
ATOM     69  C   UNL     1      13.245   7.290   4.054  1.00  0.00     0.040 A 
ATOM     70  C   UNL     1      10.899   7.660   4.458  1.00  0.00     0.040 A 
ATOM     71  F   UNL     1       9.669   6.112   5.724  1.00  0.00    -0.206 F 
ATOM     72  C   UNL     1      12.104   8.074   3.892  1.00  0.00     0.006 A 
ENDBRANCH  44  65
BRANCH  56  73
ATOM     73  C   UNL     1      14.536   3.689  11.520  1.00  0.00     0.057 A 
ATOM     74  C   UNL     1      14.036   4.702  12.348  1.00  0.00     0.134 A 
ATOM     75  C   UNL     1      15.877   3.321  11.681  1.00  0.00     0.134 A 
ATOM     76  F   UNL     1      12.762   5.108  12.233  1.00  0.00    -0.206 F 
ATOM     77  C   UNL     1      14.847   5.340  13.287  1.00  0.00     0.040 A 
ATOM     78  C   UNL     1      16.692   3.937  12.632  1.00  0.00     0.040 A 
ATOM     79  F   UNL     1      16.414   2.354  10.923  1.00  0.00    -0.206 F 
ATOM     80  C   UNL     1      16.178   4.954  13.434  1.00  0.00     0.006 A 
ENDBRANCH  56  73
ENDBRANCH  30  31
ENDBRANCH  22  25
ENDBRANCH  20  21
ENDBRANCH  19  20
ENDBRANCH   1  19
TORSDOF 13
