REMARK SMILES C[C@@H]1[C@H](C)CCC[C@@H]1NC(=O)COc1csc(C(=O)NCCCNC(=O)c2ccc(-c3c4nc(c(-c5c(F)cccc5F)c5ccc([nH]5)c(-c5c(F)cccc5F)c5nc(c(-c6c(F)cccc6F)c6ccc3[nH]6)C=C5)C=C4)cc2)c1
REMARK SMILES IDX 21 1 20 2 18 3 19 4 17 6 14 7 15 8 81 9 16 10 13 11 12 12
REMARK SMILES IDX 10 13 9 14 11 16 8 17 1 18 2 19 3 20 4 21 5 22 7 23 6 24
REMARK SMILES IDX 22 25 23 26 24 27 25 28 26 30 27 31 28 32 80 33 29 34 79 35
REMARK SMILES IDX 30 36 31 37 32 38 73 39 33 40 78 41 72 42 74 43 34 44 77 45
REMARK SMILES IDX 71 46 70 47 35 49 61 50 44 51 60 52 45 53 48 54 59 55 75 56
REMARK SMILES IDX 46 57 47 58 58 60 76 61 49 62 36 63 37 64 42 65 38 66 39 67
REMARK SMILES IDX 41 68 43 69 40 70 62 71 63 72 68 73 64 74 65 75 67 76 69 77
REMARK SMILES IDX 66 78 50 79 51 80 56 81 52 82 53 83 55 84 57 85 54 86
REMARK H PARENT 20 5 9 15 24 29 74 48 48 59
REMARK Flexibility Score: inf
ROOT
ATOM      1  C   UNL     1      -1.687  -2.252   8.505  1.00  0.00     0.118 C 
ENDROOT
BRANCH   1   2
ATOM      2  N   UNL     1      -2.934  -1.536   8.683  1.00  0.00    -0.351 N 
ATOM      3  C   UNL     1      -3.562  -0.577   7.923  1.00  0.00     0.261 C 
ATOM      4  O   UNL     1      -4.665  -0.221   8.347  1.00  0.00    -0.268 OA
ATOM      5  H   UNL     1      -3.424  -1.782   9.501  1.00  0.00     0.163 HD
BRANCH   3   6
ATOM      6  C   UNL     1      -2.967  -0.062   6.697  1.00  0.00     0.096 A 
ATOM      7  C   UNL     1      -1.559   0.484   4.910  1.00  0.00     0.131 A 
ATOM      8  C   UNL     1      -2.770   0.901   4.414  1.00  0.00     0.112 A 
ATOM      9  C   UNL     1      -1.665  -0.021   6.234  1.00  0.00     0.072 A 
ATOM     10  S   UNL     1      -4.027   0.673   5.548  1.00  0.00    -0.135 S 
BRANCH   7  11
ATOM     11  O   UNL     1      -0.403   0.423   4.207  1.00  0.00    -0.483 OA
BRANCH  11  12
ATOM     12  C   UNL     1      -0.013   1.644   3.610  1.00  0.00     0.329 C 
BRANCH  12  13
ATOM     13  C   UNL     1      -0.683   2.116   2.315  1.00  0.00     0.258 C 
ATOM     14  N   UNL     1      -0.990   1.242   1.316  1.00  0.00    -0.350 N 
ATOM     15  H   UNL     1      -1.371   1.657   0.508  1.00  0.00     0.163 HD
ATOM     16  O   UNL     1      -0.913   3.314   2.124  1.00  0.00    -0.271 OA
BRANCH  14  17
ATOM     17  C   UNL     1      -0.846  -0.211   1.246  1.00  0.00     0.085 C 
ATOM     18  C   UNL     1       1.300   0.036  -0.136  1.00  0.00     0.010 C 
ATOM     19  C   UNL     1       0.623  -0.667   1.051  1.00  0.00     0.011 C 
ATOM     20  C   UNL     1       0.675  -2.217   0.955  1.00  0.00    -0.009 C 
ATOM     21  C   UNL     1       2.093  -2.761   0.772  1.00  0.00     0.008 C 
ATOM     22  C   UNL     1      -0.250  -2.760  -0.145  1.00  0.00     0.004 C 
ATOM     23  C   UNL     1      -1.769  -0.762   0.148  1.00  0.00     0.025 C 
ATOM     24  C   UNL     1      -1.685  -2.279   0.039  1.00  0.00     0.002 C 
ENDBRANCH  14  17
ENDBRANCH  12  13
ENDBRANCH  11  12
ENDBRANCH   7  11
ENDBRANCH   3   6
ENDBRANCH   1   2
BRANCH   1  25
ATOM     25  C   UNL     1      -0.563  -1.632   9.335  1.00  0.00     0.042 C 
BRANCH  25  26
ATOM     26  C   UNL     1      -0.697  -1.893  10.836  1.00  0.00     0.118 C 
BRANCH  26  27
ATOM     27  N   UNL     1      -0.549  -3.305  11.159  1.00  0.00    -0.352 N 
ATOM     28  C   UNL     1       0.312  -3.945  12.011  1.00  0.00     0.251 C 
ATOM     29  H   UNL     1      -1.173  -3.901  10.684  1.00  0.00     0.163 HD
ATOM     30  O   UNL     1       0.405  -5.169  11.953  1.00  0.00    -0.269 OA
BRANCH  28  31
ATOM     31  C   UNL     1       1.131  -3.197  12.992  1.00  0.00     0.039 A 
ATOM     32  C   UNL     1       2.422  -3.661  13.263  1.00  0.00     0.014 A 
ATOM     33  C   UNL     1       0.623  -2.105  13.701  1.00  0.00     0.014 A 
ATOM     34  C   UNL     1       3.215  -3.010  14.209  1.00  0.00     0.010 A 
ATOM     35  C   UNL     1       1.438  -1.415  14.600  1.00  0.00     0.010 A 
ATOM     36  C   UNL     1       2.738  -1.865  14.868  1.00  0.00    -0.014 A 
BRANCH  36  37
ATOM     37  C   UNL     1       3.608  -1.131  15.821  1.00  0.00     0.031 A 
ATOM     38  C   UNL     1       3.279  -1.082  17.287  1.00  0.00     0.074 A 
ATOM     39  C   UNL     1       4.688  -0.478  15.352  1.00  0.00     0.049 A 
ATOM     40  N   UNL     1       3.937  -0.503  18.261  1.00  0.00    -0.248 NA
ATOM     41  C   UNL     1       2.040  -1.748  17.713  1.00  0.00     0.031 C 
ATOM     42  C   UNL     1       5.081  -0.401  13.943  1.00  0.00     0.029 A 
ATOM     43  N   UNL     1       5.654   0.243  16.006  1.00  0.00    -0.354 N 
ATOM     44  C   UNL     1       3.189  -0.727  19.410  1.00  0.00     0.074 A 
ATOM     45  C   UNL     1       2.004  -1.453  19.005  1.00  0.00     0.031 C 
ATOM     46  C   UNL     1       6.220   0.301  13.843  1.00  0.00     0.029 A 
ATOM     47  C   UNL     1       6.624   0.744  15.173  1.00  0.00     0.049 A 
ATOM     48  H   UNL     1       5.651   0.389  16.980  1.00  0.00     0.167 HD
ATOM     49  C   UNL     1       3.474  -0.378  20.688  1.00  0.00     0.037 A 
ATOM     50  C   UNL     1       7.721   1.472  15.450  1.00  0.00     0.037 A 
ATOM     51  C   UNL     1       4.664   0.325  21.091  1.00  0.00     0.049 A 
ATOM     52  C   UNL     1       8.027   1.826  16.877  1.00  0.00     0.074 A 
ATOM     53  C   UNL     1       5.078   0.661  22.369  1.00  0.00     0.029 A 
ATOM     54  N   UNL     1       5.631   0.805  20.220  1.00  0.00    -0.354 N 
ATOM     55  N   UNL     1       7.352   1.537  17.963  1.00  0.00    -0.248 NA
ATOM     56  C   UNL     1       9.253   2.600  17.118  1.00  0.00     0.031 C 
ATOM     57  C   UNL     1       6.275   1.379  22.267  1.00  0.00     0.029 A 
ATOM     58  C   UNL     1       6.628   1.454  20.930  1.00  0.00     0.049 A 
ATOM     59  H   UNL     1       5.611   0.700  19.241  1.00  0.00     0.167 HD
ATOM     60  C   UNL     1       8.076   2.079  19.016  1.00  0.00     0.074 A 
ATOM     61  C   UNL     1       9.255   2.694  18.440  1.00  0.00     0.031 C 
ATOM     62  C   UNL     1       7.789   2.071  20.341  1.00  0.00     0.037 A 
BRANCH  49  63
ATOM     63  C   UNL     1       2.478  -0.757  21.746  1.00  0.00     0.057 A 
ATOM     64  C   UNL     1       2.299  -2.087  22.149  1.00  0.00     0.134 A 
ATOM     65  C   UNL     1       1.712   0.221  22.393  1.00  0.00     0.134 A 
ATOM     66  F   UNL     1       2.994  -3.074  21.562  1.00  0.00    -0.206 F 
ATOM     67  C   UNL     1       1.376  -2.434  23.137  1.00  0.00     0.040 A 
ATOM     68  C   UNL     1       0.804  -0.110  23.400  1.00  0.00     0.040 A 
ATOM     69  F   UNL     1       1.839   1.515  22.061  1.00  0.00    -0.206 F 
ATOM     70  C   UNL     1       0.629  -1.442  23.770  1.00  0.00     0.006 A 
ENDBRANCH  49  63
BRANCH  50  71
ATOM     71  C   UNL     1       8.630   1.882  14.352  1.00  0.00     0.057 A 
ATOM     72  C   UNL     1       9.889   1.289  14.200  1.00  0.00     0.134 A 
ATOM     73  C   UNL     1       8.260   2.863  13.425  1.00  0.00     0.134 A 
ATOM     74  F   UNL     1      10.304   0.355  15.068  1.00  0.00    -0.206 F 
ATOM     75  C   UNL     1      10.754   1.667  13.173  1.00  0.00     0.040 A 
ATOM     76  C   UNL     1       9.107   3.235  12.380  1.00  0.00     0.040 A 
ATOM     77  F   UNL     1       7.063   3.460  13.513  1.00  0.00    -0.206 F 
ATOM     78  C   UNL     1      10.361   2.640  12.255  1.00  0.00     0.006 A 
ENDBRANCH  50  71
BRANCH  62  79
ATOM     79  C   UNL     1       8.774   2.742  21.251  1.00  0.00     0.057 A 
ATOM     80  C   UNL     1       8.896   4.137  21.303  1.00  0.00     0.134 A 
ATOM     81  C   UNL     1       9.599   1.988  22.095  1.00  0.00     0.134 A 
ATOM     82  F   UNL     1       8.145   4.915  20.509  1.00  0.00    -0.206 F 
ATOM     83  C   UNL     1       9.824   4.756  22.141  1.00  0.00     0.040 A 
ATOM     84  C   UNL     1      10.513   2.597  22.955  1.00  0.00     0.040 A 
ATOM     85  F   UNL     1       9.527   0.648  22.099  1.00  0.00    -0.206 F 
ATOM     86  C   UNL     1      10.632   3.986  22.974  1.00  0.00     0.006 A 
ENDBRANCH  62  79
ENDBRANCH  36  37
ENDBRANCH  28  31
ENDBRANCH  26  27
ENDBRANCH  25  26
ENDBRANCH   1  25
TORSDOF 14
