REMARK SMILES Cc1nsc(NC(=O)[C@@H]2C=C[C@@H]([NH3+])C2)c1C(=O)NCCCNC(=O)c1ccc(-c2c3nc(c(-c4c(F)cccc4F)c4ccc([nH]4)c(-c4c(F)cccc4F)c4nc(c(-c5c(F)cccc5F)c5ccc2[nH]5)C=C4)C=C3)cc1
REMARK SMILES IDX 19 1 18 2 16 3 17 4 15 6 1 7 2 8 3 9 4 10 5 11 6 12 7 13
REMARK SMILES IDX 8 15 9 16 10 17 14 18 11 19 12 20 13 21 20 25 21 26 22 27
REMARK SMILES IDX 23 28 24 30 25 31 26 32 78 33 27 34 77 35 28 36 29 37 30 38
REMARK SMILES IDX 71 39 31 40 76 41 70 42 72 43 32 44 75 45 69 46 68 47 33 49
REMARK SMILES IDX 59 50 42 51 58 52 43 53 46 54 57 55 73 56 44 57 45 58 56 60
REMARK SMILES IDX 74 61 47 62 34 63 35 64 40 65 36 66 37 67 39 68 41 69 38 70
REMARK SMILES IDX 60 71 61 72 66 73 62 74 63 75 65 76 67 77 64 78 48 79 49 80
REMARK SMILES IDX 54 81 50 82 51 83 53 84 55 85 52 86
REMARK H PARENT 18 5 6 14 13 22 13 23 13 24 22 29 72 48 46 59
REMARK Flexibility Score: inf
ROOT
ATOM      1  C   UNL     1      -7.069   4.003  -2.080  1.00  0.00     0.118 C 
ENDROOT
BRANCH   1   2
ATOM      2  N   UNL     1      -6.570   4.084  -3.432  1.00  0.00    -0.352 N 
ATOM      3  C   UNL     1      -5.378   3.824  -4.044  1.00  0.00     0.256 C 
ATOM      4  O   UNL     1      -5.463   3.849  -5.280  1.00  0.00    -0.269 OA
ATOM      5  H   UNL     1      -7.254   4.404  -4.064  1.00  0.00     0.163 HD
BRANCH   3   6
ATOM      6  C   UNL     1      -4.067   3.591  -3.406  1.00  0.00     0.097 A 
ATOM      7  C   UNL     1      -4.256   3.483  -0.711  1.00  0.00     0.069 C 
ATOM      8  C   UNL     1      -3.572   3.514  -2.028  1.00  0.00     0.066 A 
ATOM      9  N   UNL     1      -2.246   3.467  -1.887  1.00  0.00    -0.195 NA
ATOM     10  S   UNL     1      -1.537   3.451  -3.346  1.00  0.00    -0.017 S 
ATOM     11  C   UNL     1      -2.961   3.349  -4.248  1.00  0.00     0.129 A 
BRANCH  11  12
ATOM     12  N   UNL     1      -2.951   3.167  -5.624  1.00  0.00    -0.315 N 
ATOM     13  C   UNL     1      -2.011   2.683  -6.497  1.00  0.00     0.232 C 
ATOM     14  H   UNL     1      -3.789   3.441  -6.062  1.00  0.00     0.170 HD
ATOM     15  O   UNL     1      -2.284   2.738  -7.703  1.00  0.00    -0.274 OA
BRANCH  13  16
ATOM     16  C   UNL     1      -0.691   2.063  -6.015  1.00  0.00     0.107 C 
ATOM     17  C   UNL     1       0.208   1.571  -7.115  1.00  0.00    -0.012 C 
ATOM     18  C   UNL     1      -0.910   0.784  -5.187  1.00  0.00     0.087 C 
ATOM     19  C   UNL     1       0.319   0.237  -7.129  1.00  0.00     0.033 C 
ATOM     20  C   UNL     1      -0.547  -0.395  -6.097  1.00  0.00     0.205 C 
BRANCH  20  21
ATOM     21  N   UNL     1       0.126  -1.440  -5.349  1.00  0.00    -0.352 N 
ATOM     22  H   UNL     1       0.953  -1.053  -4.895  1.00  0.00     0.345 HD
ATOM     23  H   UNL     1       0.404  -2.188  -5.984  1.00  0.00     0.345 HD
ATOM     24  H   UNL     1      -0.507  -1.812  -4.641  1.00  0.00     0.345 HD
ENDBRANCH  20  21
ENDBRANCH  13  16
ENDBRANCH  11  12
ENDBRANCH   3   6
ENDBRANCH   1   2
BRANCH   1  25
ATOM     25  C   UNL     1      -6.861   5.290  -1.281  1.00  0.00     0.042 C 
BRANCH  25  26
ATOM     26  C   UNL     1      -8.045   6.234  -1.371  1.00  0.00     0.118 C 
BRANCH  26  27
ATOM     27  N   UNL     1      -9.224   5.682  -0.703  1.00  0.00    -0.352 N 
ATOM     28  C   UNL     1     -10.524   6.148  -0.709  1.00  0.00     0.251 C 
ATOM     29  H   UNL     1      -9.069   4.865  -0.175  1.00  0.00     0.163 HD
ATOM     30  O   UNL     1     -11.320   5.793   0.140  1.00  0.00    -0.269 OA
BRANCH  28  31
ATOM     31  C   UNL     1     -10.914   7.111  -1.752  1.00  0.00     0.039 A 
ATOM     32  C   UNL     1     -11.667   8.237  -1.426  1.00  0.00     0.014 A 
ATOM     33  C   UNL     1     -10.441   6.915  -3.047  1.00  0.00     0.014 A 
ATOM     34  C   UNL     1     -11.838   9.221  -2.393  1.00  0.00     0.010 A 
ATOM     35  C   UNL     1     -10.463   7.959  -3.940  1.00  0.00     0.010 A 
ATOM     36  C   UNL     1     -11.186   9.104  -3.637  1.00  0.00    -0.014 A 
BRANCH  36  37
ATOM     37  C   UNL     1     -11.143  10.251  -4.543  1.00  0.00     0.031 A 
ATOM     38  C   UNL     1     -10.825  11.535  -3.864  1.00  0.00     0.074 A 
ATOM     39  C   UNL     1     -11.228  10.190  -5.891  1.00  0.00     0.049 A 
ATOM     40  N   UNL     1     -11.656  12.486  -3.600  1.00  0.00    -0.248 NA
ATOM     41  C   UNL     1      -9.498  11.716  -3.254  1.00  0.00     0.031 C 
ATOM     42  C   UNL     1     -11.252   9.006  -6.755  1.00  0.00     0.029 A 
ATOM     43  N   UNL     1     -11.231  11.213  -6.794  1.00  0.00    -0.354 N 
ATOM     44  C   UNL     1     -10.905  13.496  -3.012  1.00  0.00     0.074 A 
ATOM     45  C   UNL     1      -9.650  12.895  -2.642  1.00  0.00     0.031 C 
ATOM     46  C   UNL     1     -11.030   9.371  -8.037  1.00  0.00     0.029 A 
ATOM     47  C   UNL     1     -11.032  10.820  -8.114  1.00  0.00     0.049 A 
ATOM     48  H   UNL     1     -11.362  12.153  -6.533  1.00  0.00     0.167 HD
ATOM     49  C   UNL     1     -11.281  14.795  -3.160  1.00  0.00     0.037 A 
ATOM     50  C   UNL     1     -10.882  11.622  -9.198  1.00  0.00     0.037 A 
ATOM     51  C   UNL     1     -12.663  14.887  -3.580  1.00  0.00     0.049 A 
ATOM     52  C   UNL     1     -11.462  12.941  -8.855  1.00  0.00     0.074 A 
ATOM     53  C   UNL     1     -13.867  14.405  -3.099  1.00  0.00     0.029 A 
ATOM     54  N   UNL     1     -12.907  15.235  -4.887  1.00  0.00    -0.354 N 
ATOM     55  N   UNL     1     -12.738  13.154  -8.702  1.00  0.00    -0.248 NA
ATOM     56  C   UNL     1     -10.586  13.931  -8.252  1.00  0.00     0.031 C 
ATOM     57  C   UNL     1     -14.605  14.025  -4.262  1.00  0.00     0.029 A 
ATOM     58  C   UNL     1     -13.849  14.373  -5.381  1.00  0.00     0.049 A 
ATOM     59  H   UNL     1     -12.479  15.972  -5.380  1.00  0.00     0.167 HD
ATOM     60  C   UNL     1     -12.814  13.994  -7.604  1.00  0.00     0.074 A 
ATOM     61  C   UNL     1     -11.463  14.530  -7.443  1.00  0.00     0.031 C 
ATOM     62  C   UNL     1     -13.887  13.946  -6.760  1.00  0.00     0.037 A 
BRANCH  49  63
ATOM     63  C   UNL     1     -10.306  15.930  -3.391  1.00  0.00     0.057 A 
ATOM     64  C   UNL     1     -10.809  17.241  -3.490  1.00  0.00     0.134 A 
ATOM     65  C   UNL     1      -8.983  15.764  -3.853  1.00  0.00     0.134 A 
ATOM     66  F   UNL     1     -12.055  17.531  -3.084  1.00  0.00    -0.206 F 
ATOM     67  C   UNL     1     -10.099  18.274  -4.112  1.00  0.00     0.040 A 
ATOM     68  C   UNL     1      -8.246  16.802  -4.428  1.00  0.00     0.040 A 
ATOM     69  F   UNL     1      -8.364  14.580  -3.875  1.00  0.00    -0.206 F 
ATOM     70  C   UNL     1      -8.818  18.052  -4.598  1.00  0.00     0.006 A 
ENDBRANCH  49  63
BRANCH  50  71
ATOM     71  C   UNL     1     -10.078  11.424 -10.425  1.00  0.00     0.057 A 
ATOM     72  C   UNL     1     -10.250  12.257 -11.543  1.00  0.00     0.134 A 
ATOM     73  C   UNL     1      -8.922  10.627 -10.425  1.00  0.00     0.134 A 
ATOM     74  F   UNL     1     -11.306  13.080 -11.625  1.00  0.00    -0.206 F 
ATOM     75  C   UNL     1      -9.304  12.329 -12.574  1.00  0.00     0.040 A 
ATOM     76  C   UNL     1      -7.973  10.684 -11.452  1.00  0.00     0.040 A 
ATOM     77  F   UNL     1      -8.626   9.837  -9.383  1.00  0.00    -0.206 F 
ATOM     78  C   UNL     1      -8.152  11.553 -12.522  1.00  0.00     0.006 A 
ENDBRANCH  50  71
BRANCH  62  79
ATOM     79  C   UNL     1     -15.118  13.216  -7.224  1.00  0.00     0.057 A 
ATOM     80  C   UNL     1     -15.167  11.859  -7.581  1.00  0.00     0.134 A 
ATOM     81  C   UNL     1     -16.335  13.909  -7.218  1.00  0.00     0.134 A 
ATOM     82  F   UNL     1     -14.078  11.081  -7.519  1.00  0.00    -0.206 F 
ATOM     83  C   UNL     1     -16.360  11.243  -7.973  1.00  0.00     0.040 A 
ATOM     84  C   UNL     1     -17.539  13.295  -7.569  1.00  0.00     0.040 A 
ATOM     85  F   UNL     1     -16.380  15.196  -6.838  1.00  0.00    -0.206 F 
ATOM     86  C   UNL     1     -17.552  11.961  -7.965  1.00  0.00     0.006 A 
ENDBRANCH  62  79
ENDBRANCH  36  37
ENDBRANCH  28  31
ENDBRANCH  26  27
ENDBRANCH  25  26
ENDBRANCH   1  25
TORSDOF 13
