REMARK SMILES CCCCCCNC(=O)Oc1cccc(-c2ccc([C@@H](C)C(=O)NCCCNC(=O)c3ccc(-c4c5nc(c(-c6c(F)cccc6F)c6ccc([nH]6)c(-c6c(F)cccc6F)c6nc(c(-c7c(F)cccc7F)c7ccc4[nH]7)C=C6)C=C5)cc3)cc2F)c1
REMARK SMILES IDX 16 1 17 2 18 3 19 4 85 5 86 6 87 7 15 8 11 9 12 10 88 11
REMARK SMILES IDX 13 12 14 13 10 14 8 15 7 16 9 18 6 19 5 20 4 21 3 22 2 23
REMARK SMILES IDX 1 24 20 25 21 26 22 27 23 28 24 29 25 31 26 32 27 33 28 34
REMARK SMILES IDX 29 35 30 37 31 38 32 39 84 40 33 41 83 42 34 43 35 44 36 45
REMARK SMILES IDX 77 46 37 47 82 48 76 49 78 50 38 51 81 52 75 53 74 54 39 56
REMARK SMILES IDX 65 57 48 58 64 59 49 60 52 61 63 62 79 63 50 64 51 65 62 67
REMARK SMILES IDX 80 68 53 69 40 70 41 71 46 72 42 73 43 74 45 75 47 76 44 77
REMARK SMILES IDX 66 78 67 79 72 80 68 81 69 82 71 83 73 84 70 85 54 86 55 87
REMARK SMILES IDX 60 88 56 89 57 90 59 91 61 92 58 93
REMARK H PARENT 7 17 24 30 28 36 78 55 52 66
REMARK Flexibility Score: inf
ROOT
ATOM      1  C   UNL     1      -5.216  -8.197   5.088  1.00  0.00     0.018 A 
ATOM      2  C   UNL     1      -5.817  -9.414   5.454  1.00  0.00     0.012 A 
ATOM      3  C   UNL     1      -5.773  -9.899   6.767  1.00  0.00     0.005 A 
ATOM      4  C   UNL     1      -5.060  -9.226   7.762  1.00  0.00    -0.033 A 
ATOM      5  C   UNL     1      -4.461  -8.008   7.415  1.00  0.00     0.044 A 
ATOM      6  C   UNL     1      -4.559  -7.500   6.115  1.00  0.00     0.131 A 
ATOM      7  F   UNL     1      -4.005  -6.300   5.883  1.00  0.00    -0.206 F 
ENDROOT
BRANCH   1   8
ATOM      8  C   UNL     1      -5.283  -7.706   3.690  1.00  0.00    -0.012 A 
ATOM      9  C   UNL     1      -4.326  -6.514   1.793  1.00  0.00     0.133 A 
ATOM     10  C   UNL     1      -5.434  -6.800   1.003  1.00  0.00     0.047 A 
ATOM     11  C   UNL     1      -4.242  -6.956   3.116  1.00  0.00     0.056 A 
ATOM     12  C   UNL     1      -6.472  -7.546   1.543  1.00  0.00     0.004 A 
ATOM     13  C   UNL     1      -6.400  -7.982   2.871  1.00  0.00     0.009 A 
BRANCH   9  14
ATOM     14  O   UNL     1      -3.371  -5.641   1.250  1.00  0.00    -0.410 OA
BRANCH  14  15
ATOM     15  C   UNL     1      -2.034  -6.007   1.287  1.00  0.00     0.412 C 
ATOM     16  N   UNL     1      -1.204  -5.019   0.829  1.00  0.00    -0.321 N 
ATOM     17  H   UNL     1      -0.243  -5.228   0.798  1.00  0.00     0.167 HD
ATOM     18  O   UNL     1      -1.590  -7.082   1.666  1.00  0.00    -0.224 OA
BRANCH  16  19
ATOM     19  C   UNL     1      -1.598  -3.697   0.385  1.00  0.00     0.119 C 
BRANCH  19  20
ATOM     20  C   UNL     1      -1.004  -2.598   1.265  1.00  0.00     0.021 C 
BRANCH  20  21
ATOM     21  C   UNL     1       0.526  -2.498   1.222  1.00  0.00     0.002 C 
BRANCH  21  22
ATOM     22  C   UNL     1       1.134  -2.273  -0.166  1.00  0.00    -0.000 C 
BRANCH  22  23
ATOM     23  C   UNL     1       0.643  -1.025  -0.905  1.00  0.00    -0.003 C 
ATOM     24  C   UNL     1       0.994   0.272  -0.193  1.00  0.00     0.004 C 
ENDBRANCH  22  23
ENDBRANCH  21  22
ENDBRANCH  20  21
ENDBRANCH  19  20
ENDBRANCH  16  19
ENDBRANCH  14  15
ENDBRANCH   9  14
ENDBRANCH   1   8
BRANCH   4  25
ATOM     25  C   UNL     1      -4.893  -9.771   9.171  1.00  0.00     0.105 C 
ATOM     26  C   UNL     1      -6.168 -10.298   9.829  1.00  0.00     0.023 C 
BRANCH  25  27
ATOM     27  C   UNL     1      -3.664 -10.677   9.339  1.00  0.00     0.227 C 
ATOM     28  O   UNL     1      -2.648 -10.237   9.891  1.00  0.00    -0.274 OA
ATOM     29  N   UNL     1      -3.604 -11.970   8.920  1.00  0.00    -0.356 N 
ATOM     30  H   UNL     1      -2.767 -12.429   9.161  1.00  0.00     0.163 HD
BRANCH  29  31
ATOM     31  C   UNL     1      -4.539 -12.799   8.186  1.00  0.00     0.117 C 
BRANCH  31  32
ATOM     32  C   UNL     1      -4.211 -12.862   6.696  1.00  0.00     0.042 C 
BRANCH  32  33
ATOM     33  C   UNL     1      -3.110 -13.856   6.347  1.00  0.00     0.118 C 
BRANCH  33  34
ATOM     34  N   UNL     1      -3.547 -15.237   6.499  1.00  0.00    -0.352 N 
ATOM     35  C   UNL     1      -3.682 -16.242   5.574  1.00  0.00     0.251 C 
ATOM     36  H   UNL     1      -3.785 -15.493   7.420  1.00  0.00     0.163 HD
ATOM     37  O   UNL     1      -4.273 -17.271   5.894  1.00  0.00    -0.269 OA
BRANCH  35  38
ATOM     38  C   UNL     1      -3.143 -16.109   4.200  1.00  0.00     0.039 A 
ATOM     39  C   UNL     1      -3.860 -16.677   3.140  1.00  0.00     0.014 A 
ATOM     40  C   UNL     1      -1.915 -15.492   3.949  1.00  0.00     0.014 A 
ATOM     41  C   UNL     1      -3.374 -16.580   1.833  1.00  0.00     0.010 A 
ATOM     42  C   UNL     1      -1.471 -15.326   2.638  1.00  0.00     0.010 A 
ATOM     43  C   UNL     1      -2.189 -15.878   1.567  1.00  0.00    -0.014 A 
BRANCH  43  44
ATOM     44  C   UNL     1      -1.672 -15.728   0.183  1.00  0.00     0.031 A 
ATOM     45  C   UNL     1      -0.351 -16.337  -0.202  1.00  0.00     0.074 A 
ATOM     46  C   UNL     1      -2.358 -14.990  -0.711  1.00  0.00     0.049 A 
ATOM     47  N   UNL     1       0.309 -16.241  -1.328  1.00  0.00    -0.248 NA
ATOM     48  C   UNL     1       0.332 -17.139   0.827  1.00  0.00     0.031 C 
ATOM     49  C   UNL     1      -3.629 -14.313  -0.452  1.00  0.00     0.029 A 
ATOM     50  N   UNL     1      -2.073 -14.674  -2.016  1.00  0.00    -0.354 N 
ATOM     51  C   UNL     1       1.490 -16.949  -1.137  1.00  0.00     0.074 A 
ATOM     52  C   UNL     1       1.477 -17.430   0.228  1.00  0.00     0.031 C 
ATOM     53  C   UNL     1      -4.025 -13.678  -1.567  1.00  0.00     0.029 A 
ATOM     54  C   UNL     1      -3.018 -13.871  -2.606  1.00  0.00     0.049 A 
ATOM     55  H   UNL     1      -1.268 -14.993  -2.484  1.00  0.00     0.167 HD
ATOM     56  C   UNL     1       2.484 -17.195  -2.023  1.00  0.00     0.037 A 
ATOM     57  C   UNL     1      -3.063 -13.341  -3.843  1.00  0.00     0.037 A 
ATOM     58  C   UNL     1       2.482 -16.741  -3.389  1.00  0.00     0.049 A 
ATOM     59  C   UNL     1      -1.946 -13.625  -4.808  1.00  0.00     0.074 A 
ATOM     60  C   UNL     1       3.415 -16.987  -4.381  1.00  0.00     0.029 A 
ATOM     61  N   UNL     1       1.497 -15.946  -3.954  1.00  0.00    -0.354 N 
ATOM     62  N   UNL     1      -0.865 -14.345  -4.631  1.00  0.00    -0.248 NA
ATOM     63  C   UNL     1      -2.058 -13.027  -6.146  1.00  0.00     0.031 C 
ATOM     64  C   UNL     1       3.011 -16.311  -5.538  1.00  0.00     0.029 A 
ATOM     65  C   UNL     1       1.806 -15.679  -5.277  1.00  0.00     0.049 A 
ATOM     66  H   UNL     1       0.695 -15.620  -3.484  1.00  0.00     0.167 HD
ATOM     67  C   UNL     1      -0.182 -14.307  -5.839  1.00  0.00     0.074 A 
ATOM     68  C   UNL     1      -0.977 -13.505  -6.745  1.00  0.00     0.031 C 
ATOM     69  C   UNL     1       0.999 -14.886  -6.168  1.00  0.00     0.037 A 
BRANCH  56  70
ATOM     70  C   UNL     1       3.658 -17.997  -1.540  1.00  0.00     0.057 A 
ATOM     71  C   UNL     1       3.553 -19.367  -1.267  1.00  0.00     0.134 A 
ATOM     72  C   UNL     1       4.913 -17.400  -1.371  1.00  0.00     0.134 A 
ATOM     73  F   UNL     1       2.375 -19.998  -1.397  1.00  0.00    -0.206 F 
ATOM     74  C   UNL     1       4.646 -20.109  -0.817  1.00  0.00     0.040 A 
ATOM     75  C   UNL     1       6.021 -18.137  -0.946  1.00  0.00     0.040 A 
ATOM     76  F   UNL     1       5.087 -16.093  -1.621  1.00  0.00    -0.206 F 
ATOM     77  C   UNL     1       5.887 -19.494  -0.661  1.00  0.00     0.006 A 
ENDBRANCH  56  70
BRANCH  57  78
ATOM     78  C   UNL     1      -4.221 -12.506  -4.250  1.00  0.00     0.057 A 
ATOM     79  C   UNL     1      -5.161 -12.981  -5.171  1.00  0.00     0.134 A 
ATOM     80  C   UNL     1      -4.415 -11.220  -3.734  1.00  0.00     0.134 A 
ATOM     81  F   UNL     1      -5.017 -14.198  -5.715  1.00  0.00    -0.206 F 
ATOM     82  C   UNL     1      -6.246 -12.202  -5.577  1.00  0.00     0.040 A 
ATOM     83  C   UNL     1      -5.508 -10.438  -4.113  1.00  0.00     0.040 A 
ATOM     84  F   UNL     1      -3.552 -10.709  -2.844  1.00  0.00    -0.206 F 
ATOM     85  C   UNL     1      -6.424 -10.927  -5.042  1.00  0.00     0.006 A 
ENDBRANCH  57  78
BRANCH  69  86
ATOM     86  C   UNL     1       1.482 -14.704  -7.576  1.00  0.00     0.057 A 
ATOM     87  C   UNL     1       2.007 -13.486  -8.025  1.00  0.00     0.134 A 
ATOM     88  C   UNL     1       1.459 -15.773  -8.481  1.00  0.00     0.134 A 
ATOM     89  F   UNL     1       2.044 -12.420  -7.210  1.00  0.00    -0.206 F 
ATOM     90  C   UNL     1       2.474 -13.331  -9.331  1.00  0.00     0.040 A 
ATOM     91  C   UNL     1       1.945 -15.637  -9.781  1.00  0.00     0.040 A 
ATOM     92  F   UNL     1       0.976 -16.968  -8.111  1.00  0.00    -0.206 F 
ATOM     93  C   UNL     1       2.450 -14.412 -10.211  1.00  0.00     0.006 A 
ENDBRANCH  69  86
ENDBRANCH  43  44
ENDBRANCH  35  38
ENDBRANCH  33  34
ENDBRANCH  32  33
ENDBRANCH  31  32
ENDBRANCH  29  31
ENDBRANCH  25  27
ENDBRANCH   4  25
TORSDOF 19
