REMARK SMILES N#C/C(=C/c1cccc(OCC(=O)NCCCNC(=O)c2ccc(-c3c4nc(c(-c5c(F)cccc5F)c5ccc([nH]5)c(-c5c(F)cccc5F)c5nc(c(-c6c(F)cccc6F)c6ccc3[nH]6)C=C5)C=C4)cc2)c1)c1nc2ccccc2[nH]1
REMARK SMILES IDX 15 1 14 2 12 3 13 4 11 6 10 7 9 8 5 9 6 10 75 11 7 12 8 13
REMARK SMILES IDX 4 14 3 15 2 16 1 17 76 18 77 19 84 20 78 21 83 22 79 24
REMARK SMILES IDX 82 25 80 26 81 27 16 28 17 29 18 30 19 31 20 33 21 34 22 35
REMARK SMILES IDX 74 36 23 37 73 38 24 39 25 40 26 41 67 42 27 43 72 44 66 45
REMARK SMILES IDX 68 46 28 47 71 48 65 49 64 50 29 52 55 53 38 54 54 55 39 56
REMARK SMILES IDX 42 57 53 58 69 59 40 60 41 61 52 63 70 64 43 65 30 66 31 67
REMARK SMILES IDX 36 68 32 69 33 70 35 71 37 72 34 73 56 74 57 75 62 76 58 77
REMARK SMILES IDX 59 78 61 79 63 80 60 81 44 82 45 83 50 84 46 85 47 86 49 87
REMARK SMILES IDX 51 88 48 89
REMARK H PARENT 14 5 84 23 18 32 68 51 42 62
REMARK Flexibility Score: inf
ROOT
ATOM      1  C   UNL     1      10.074   3.104   0.029  1.00  0.00     0.117 C 
ENDROOT
BRANCH   1   2
ATOM      2  N   UNL     1       8.634   3.212   0.158  1.00  0.00    -0.353 N 
ATOM      3  C   UNL     1       7.862   2.843   1.228  1.00  0.00     0.257 C 
ATOM      4  O   UNL     1       6.705   3.260   1.320  1.00  0.00    -0.271 OA
ATOM      5  H   UNL     1       8.155   3.594  -0.613  1.00  0.00     0.163 HD
BRANCH   3   6
ATOM      6  C   UNL     1       8.455   1.943   2.317  1.00  0.00     0.329 C 
BRANCH   6   7
ATOM      7  O   UNL     1       8.975   0.699   1.875  1.00  0.00    -0.484 OA
BRANCH   7   8
ATOM      8  C   UNL     1       8.090  -0.240   1.415  1.00  0.00     0.120 A 
ATOM      9  C   UNL     1       5.905  -1.144   0.832  1.00  0.00    -0.021 A 
ATOM     10  C   UNL     1       6.519  -2.298   0.336  1.00  0.00     0.008 A 
ATOM     11  C   UNL     1       6.697  -0.130   1.397  1.00  0.00     0.054 A 
ATOM     12  C   UNL     1       7.907  -2.426   0.379  1.00  0.00     0.004 A 
ATOM     13  C   UNL     1       8.686  -1.398   0.912  1.00  0.00     0.046 A 
BRANCH   9  14
ATOM     14  C   UNL     1       4.440  -1.012   0.754  1.00  0.00     0.031 C 
ATOM     15  C   UNL     1       3.768  -0.058   0.081  1.00  0.00     0.095 C 
BRANCH  15  16
ATOM     16  C   UNL     1       2.248  -0.058   0.081  1.00  0.00     0.103 C 
ATOM     17  N   UNL     1       0.987  -0.058   0.081  1.00  0.00    -0.192 NA
ENDBRANCH  15  16
BRANCH  15  18
ATOM     18  C   UNL     1       4.429   0.927  -0.708  1.00  0.00     0.149 A 
ATOM     19  N   UNL     1       5.299   0.800  -1.694  1.00  0.00    -0.228 NA
ATOM     20  N   UNL     1       4.179   2.259  -0.456  1.00  0.00    -0.337 N 
ATOM     21  C   UNL     1       5.642   2.078  -2.058  1.00  0.00     0.089 A 
ATOM     22  C   UNL     1       4.961   3.014  -1.294  1.00  0.00     0.066 A 
ATOM     23  H   UNL     1       3.546   2.609   0.212  1.00  0.00     0.168 HD
ATOM     24  C   UNL     1       6.548   2.523  -3.030  1.00  0.00     0.030 A 
ATOM     25  C   UNL     1       5.147   4.393  -1.419  1.00  0.00     0.028 A 
ATOM     26  C   UNL     1       6.772   3.900  -3.167  1.00  0.00     0.002 A 
ATOM     27  C   UNL     1       6.083   4.817  -2.370  1.00  0.00     0.002 A 
ENDBRANCH  15  18
ENDBRANCH   9  14
ENDBRANCH   7   8
ENDBRANCH   6   7
ENDBRANCH   3   6
ENDBRANCH   1   2
BRANCH   1  28
ATOM     28  C   UNL     1      10.560   2.083  -0.994  1.00  0.00     0.042 C 
BRANCH  28  29
ATOM     29  C   UNL     1      10.271   2.375  -2.466  1.00  0.00     0.118 C 
BRANCH  29  30
ATOM     30  N   UNL     1      10.594   3.721  -2.916  1.00  0.00    -0.352 N 
ATOM     31  C   UNL     1      11.020   4.146  -4.154  1.00  0.00     0.251 C 
ATOM     32  H   UNL     1      10.493   4.428  -2.239  1.00  0.00     0.163 HD
ATOM     33  O   UNL     1      11.242   5.336  -4.354  1.00  0.00    -0.269 OA
BRANCH  31  34
ATOM     34  C   UNL     1      11.259   3.164  -5.233  1.00  0.00     0.039 A 
ATOM     35  C   UNL     1      12.516   3.143  -5.845  1.00  0.00     0.014 A 
ATOM     36  C   UNL     1      10.272   2.253  -5.617  1.00  0.00     0.014 A 
ATOM     37  C   UNL     1      12.823   2.134  -6.761  1.00  0.00     0.010 A 
ATOM     38  C   UNL     1      10.590   1.226  -6.508  1.00  0.00     0.010 A 
ATOM     39  C   UNL     1      11.881   1.135  -7.053  1.00  0.00    -0.014 A 
BRANCH  39  40
ATOM     40  C   UNL     1      12.274  -0.082  -7.808  1.00  0.00     0.031 A 
ATOM     41  C   UNL     1      11.758  -0.348  -9.190  1.00  0.00     0.074 A 
ATOM     42  C   UNL     1      13.049  -0.996  -7.191  1.00  0.00     0.049 A 
ATOM     43  N   UNL     1      11.943  -1.399  -9.948  1.00  0.00    -0.248 NA
ATOM     44  C   UNL     1      10.917   0.694  -9.796  1.00  0.00     0.031 C 
ATOM     45  C   UNL     1      13.588  -0.869  -5.835  1.00  0.00     0.029 A 
ATOM     46  N   UNL     1      13.504  -2.220  -7.615  1.00  0.00    -0.354 N 
ATOM     47  C   UNL     1      11.246  -1.148 -11.121  1.00  0.00     0.074 A 
ATOM     48  C   UNL     1      10.606   0.142 -10.962  1.00  0.00     0.031 C 
ATOM     49  C   UNL     1      14.302  -1.966  -5.540  1.00  0.00     0.029 A 
ATOM     50  C   UNL     1      14.242  -2.889  -6.668  1.00  0.00     0.049 A 
ATOM     51  H   UNL     1      13.320  -2.583  -8.511  1.00  0.00     0.167 HD
ATOM     52  C   UNL     1      11.160  -1.918 -12.233  1.00  0.00     0.037 A 
ATOM     53  C   UNL     1      14.791  -4.117  -6.695  1.00  0.00     0.037 A 
ATOM     54  C   UNL     1      11.797  -3.201 -12.392  1.00  0.00     0.049 A 
ATOM     55  C   UNL     1      14.635  -4.970  -7.921  1.00  0.00     0.074 A 
ATOM     56  C   UNL     1      11.813  -4.023 -13.506  1.00  0.00     0.029 A 
ATOM     57  N   UNL     1      12.520  -3.853 -11.405  1.00  0.00    -0.354 N 
ATOM     58  N   UNL     1      14.027  -4.691  -9.047  1.00  0.00    -0.248 NA
ATOM     59  C   UNL     1      15.235  -6.311  -7.876  1.00  0.00     0.031 C 
ATOM     60  C   UNL     1      12.510  -5.192 -13.180  1.00  0.00     0.029 A 
ATOM     61  C   UNL     1      12.959  -5.082 -11.874  1.00  0.00     0.049 A 
ATOM     62  H   UNL     1      12.695  -3.497 -10.504  1.00  0.00     0.167 HD
ATOM     63  C   UNL     1      14.182  -5.813  -9.849  1.00  0.00     0.074 A 
ATOM     64  C   UNL     1      14.956  -6.771  -9.088  1.00  0.00     0.031 C 
ATOM     65  C   UNL     1      13.720  -6.030 -11.104  1.00  0.00     0.037 A 
BRANCH  52  66
ATOM     66  C   UNL     1      10.346  -1.394 -13.378  1.00  0.00     0.057 A 
ATOM     67  C   UNL     1      10.816  -0.361 -14.197  1.00  0.00     0.134 A 
ATOM     68  C   UNL     1       9.112  -1.969 -13.703  1.00  0.00     0.134 A 
ATOM     69  F   UNL     1      11.989   0.235 -13.934  1.00  0.00    -0.206 F 
ATOM     70  C   UNL     1      10.080   0.093 -15.293  1.00  0.00     0.040 A 
ATOM     71  C   UNL     1       8.375  -1.538 -14.807  1.00  0.00     0.040 A 
ATOM     72  F   UNL     1       8.610  -2.969 -12.963  1.00  0.00    -0.206 F 
ATOM     73  C   UNL     1       8.858  -0.501 -15.604  1.00  0.00     0.006 A 
ENDBRANCH  52  66
BRANCH  53  74
ATOM     74  C   UNL     1      15.538  -4.621  -5.517  1.00  0.00     0.057 A 
ATOM     75  C   UNL     1      16.929  -4.764  -5.554  1.00  0.00     0.134 A 
ATOM     76  C   UNL     1      14.881  -4.983  -4.336  1.00  0.00     0.134 A 
ATOM     77  F   UNL     1      17.610  -4.453  -6.667  1.00  0.00    -0.206 F 
ATOM     78  C   UNL     1      17.640  -5.265  -4.463  1.00  0.00     0.040 A 
ATOM     79  C   UNL     1      15.581  -5.465  -3.229  1.00  0.00     0.040 A 
ATOM     80  F   UNL     1      13.548  -4.864  -4.238  1.00  0.00    -0.206 F 
ATOM     81  C   UNL     1      16.966  -5.613  -3.294  1.00  0.00     0.006 A 
ENDBRANCH  53  74
BRANCH  65  82
ATOM     82  C   UNL     1      14.048  -7.351 -11.732  1.00  0.00     0.057 A 
ATOM     83  C   UNL     1      13.389  -8.526 -11.350  1.00  0.00     0.134 A 
ATOM     84  C   UNL     1      15.007  -7.446 -12.747  1.00  0.00     0.134 A 
ATOM     85  F   UNL     1      12.472  -8.504 -10.370  1.00  0.00    -0.206 F 
ATOM     86  C   UNL     1      13.684  -9.753 -11.945  1.00  0.00     0.040 A 
ATOM     87  C   UNL     1      15.297  -8.663 -13.365  1.00  0.00     0.040 A 
ATOM     88  F   UNL     1      15.671  -6.356 -13.160  1.00  0.00    -0.206 F 
ATOM     89  C   UNL     1      14.637  -9.822 -12.961  1.00  0.00     0.006 A 
ENDBRANCH  65  82
ENDBRANCH  39  40
ENDBRANCH  31  34
ENDBRANCH  29  30
ENDBRANCH  28  29
ENDBRANCH   1  28
TORSDOF 15
