REMARK SMILES O=C(COc1cc(-c2ccccc2)nc(Nc2ccccc2Br)n1)NCCCNC(=O)c1ccc(-c2c3nc(c(-c4c(F)cccc4F)c4ccc([nH]4)c(-c4c(F)cccc4F)c4nc(c(-c5c(F)cccc5F)c5ccc2[nH]5)C=C4)C=C3)cc1
REMARK SMILES IDX 26 1 25 2 1 3 2 4 3 6 4 7 5 8 6 9 24 10 7 11 15 12 14 13
REMARK SMILES IDX 8 14 9 15 13 16 10 17 12 18 11 19 16 20 17 22 18 23 22 24
REMARK SMILES IDX 19 25 21 26 23 27 20 28 27 29 28 30 29 31 30 32 31 34 32 35
REMARK SMILES IDX 33 36 85 37 34 38 84 39 35 40 36 41 37 42 78 43 38 44 83 45
REMARK SMILES IDX 77 46 79 47 39 48 82 49 76 50 75 51 40 53 66 54 49 55 65 56
REMARK SMILES IDX 50 57 53 58 64 59 80 60 51 61 52 62 63 64 81 65 54 66 41 67
REMARK SMILES IDX 42 68 47 69 43 70 44 71 46 72 48 73 45 74 67 75 68 76 73 77
REMARK SMILES IDX 69 78 70 79 72 80 74 81 71 82 55 83 56 84 61 85 57 86 58 87
REMARK SMILES IDX 60 88 62 89 59 90
REMARK H PARENT 25 5 16 21 29 33 79 52 53 63
REMARK Flexibility Score: inf
ROOT
ATOM      1  C   UNL     1       2.114   2.430  -0.172  1.00  0.00     0.117 C 
ENDROOT
BRANCH   1   2
ATOM      2  N   UNL     1       2.833   1.176  -0.098  1.00  0.00    -0.353 N 
ATOM      3  O   UNL     1       1.137  -0.045   0.859  1.00  0.00    -0.271 OA
ATOM      4  C   UNL     1       2.219  -0.003   0.284  1.00  0.00     0.258 C 
ATOM      5  H   UNL     1       3.791   1.161  -0.327  1.00  0.00     0.163 HD
BRANCH   4   6
ATOM      6  C   UNL     1       2.988  -1.262  -0.131  1.00  0.00     0.331 C 
BRANCH   6   7
ATOM      7  O   UNL     1       3.825  -1.067  -1.272  1.00  0.00    -0.467 OA
BRANCH   7   8
ATOM      8  C   UNL     1       3.154  -1.225  -2.461  1.00  0.00     0.219 A 
ATOM      9  C   UNL     1       2.178  -0.348  -2.852  1.00  0.00     0.097 A 
ATOM     10  N   UNL     1       3.627  -2.184  -3.259  1.00  0.00    -0.177 NA
ATOM     11  C   UNL     1       1.682  -0.505  -4.124  1.00  0.00     0.080 A 
ATOM     12  C   UNL     1       3.070  -2.300  -4.475  1.00  0.00     0.231 A 
ATOM     13  N   UNL     1       2.113  -1.480  -4.945  1.00  0.00    -0.212 NA
BRANCH  11  14
ATOM     14  C   UNL     1       0.653   0.414  -4.628  1.00  0.00     0.000 A 
ATOM     15  C   UNL     1      -0.578  -0.065  -5.098  1.00  0.00     0.010 A 
ATOM     16  C   UNL     1       0.843   1.809  -4.569  1.00  0.00     0.010 A 
ATOM     17  C   UNL     1      -1.597   0.821  -5.462  1.00  0.00     0.001 A 
ATOM     18  C   UNL     1      -0.172   2.693  -4.936  1.00  0.00     0.001 A 
ATOM     19  C   UNL     1      -1.396   2.197  -5.374  1.00  0.00     0.000 A 
ENDBRANCH  11  14
BRANCH  12  20
ATOM     20  N   UNL     1       3.530  -3.262  -5.369  1.00  0.00    -0.323 N 
ATOM     21  H   UNL     1       3.163  -3.195  -6.280  1.00  0.00     0.170 HD
BRANCH  20  22
ATOM     22  C   UNL     1       4.435  -4.310  -5.169  1.00  0.00     0.055 A 
ATOM     23  C   UNL     1       5.560  -4.373  -6.010  1.00  0.00     0.027 A 
ATOM     24  C   UNL     1       4.318  -5.279  -4.154  1.00  0.00     0.041 A 
ATOM     25  C   UNL     1       6.542  -5.352  -5.840  1.00  0.00     0.002 A 
ATOM     26  C   UNL     1       5.301  -6.263  -3.988  1.00  0.00     0.018 A 
ATOM     27  Br  UNL     1       2.777  -5.422  -3.043  1.00  0.00    -0.049 Br
ATOM     28  C   UNL     1       6.414  -6.296  -4.826  1.00  0.00     0.001 A 
ENDBRANCH  20  22
ENDBRANCH  12  20
ENDBRANCH   7   8
ENDBRANCH   6   7
ENDBRANCH   4   6
ENDBRANCH   1   2
BRANCH   1  29
ATOM     29  C   UNL     1       2.405   3.370   0.982  1.00  0.00     0.042 C 
BRANCH  29  30
ATOM     30  C   UNL     1       3.871   3.760   1.122  1.00  0.00     0.118 C 
BRANCH  30  31
ATOM     31  N   UNL     1       4.400   4.465  -0.038  1.00  0.00    -0.352 N 
ATOM     32  C   UNL     1       5.121   5.628  -0.116  1.00  0.00     0.251 C 
ATOM     33  H   UNL     1       4.209   4.037  -0.904  1.00  0.00     0.163 HD
ATOM     34  O   UNL     1       5.375   6.102  -1.226  1.00  0.00    -0.269 OA
BRANCH  32  35
ATOM     35  C   UNL     1       5.576   6.338   1.101  1.00  0.00     0.039 A 
ATOM     36  C   UNL     1       5.543   7.736   1.109  1.00  0.00     0.014 A 
ATOM     37  C   UNL     1       6.064   5.652   2.217  1.00  0.00     0.014 A 
ATOM     38  C   UNL     1       5.946   8.439   2.246  1.00  0.00     0.010 A 
ATOM     39  C   UNL     1       6.389   6.350   3.379  1.00  0.00     0.010 A 
ATOM     40  C   UNL     1       6.346   7.751   3.402  1.00  0.00    -0.014 A 
BRANCH  40  41
ATOM     41  C   UNL     1       6.745   8.488   4.629  1.00  0.00     0.031 A 
ATOM     42  C   UNL     1       8.158   8.405   5.141  1.00  0.00     0.074 A 
ATOM     43  C   UNL     1       5.826   9.201   5.308  1.00  0.00     0.049 A 
ATOM     44  N   UNL     1       8.688   8.963   6.200  1.00  0.00    -0.248 NA
ATOM     45  C   UNL     1       9.092   7.564   4.376  1.00  0.00     0.031 C 
ATOM     46  C   UNL     1       4.411   9.317   4.953  1.00  0.00     0.029 A 
ATOM     47  N   UNL     1       5.948   9.964   6.442  1.00  0.00    -0.354 N 
ATOM     48  C   UNL     1      10.007   8.529   6.237  1.00  0.00     0.074 A 
ATOM     49  C   UNL     1      10.183   7.620   5.125  1.00  0.00     0.031 C 
ATOM     50  C   UNL     1       3.802  10.128   5.833  1.00  0.00     0.029 A 
ATOM     51  C   UNL     1       4.776  10.569   6.827  1.00  0.00     0.049 A 
ATOM     52  H   UNL     1       6.794  10.068   6.934  1.00  0.00     0.167 HD
ATOM     53  C   UNL     1      10.991   8.874   7.101  1.00  0.00     0.037 A 
ATOM     54  C   UNL     1       4.518  11.393   7.860  1.00  0.00     0.037 A 
ATOM     55  C   UNL     1      10.828   9.802   8.189  1.00  0.00     0.049 A 
ATOM     56  C   UNL     1       5.635  11.790   8.784  1.00  0.00     0.074 A 
ATOM     57  C   UNL     1      11.777  10.255   9.089  1.00  0.00     0.029 A 
ATOM     58  N   UNL     1       9.634  10.425   8.521  1.00  0.00    -0.354 N 
ATOM     59  N   UNL     1       6.893  11.422   8.767  1.00  0.00    -0.248 NA
ATOM     60  C   UNL     1       5.298  12.731   9.861  1.00  0.00     0.031 C 
ATOM     61  C   UNL     1      11.151  11.131   9.983  1.00  0.00     0.029 A 
ATOM     62  C   UNL     1       9.822  11.254   9.615  1.00  0.00     0.049 A 
ATOM     63  H   UNL     1       8.780  10.297   8.049  1.00  0.00     0.167 HD
ATOM     64  C   UNL     1       7.504  12.110   9.807  1.00  0.00     0.074 A 
ATOM     65  C   UNL     1       6.481  12.926  10.427  1.00  0.00     0.031 C 
ATOM     66  C   UNL     1       8.797  12.070  10.213  1.00  0.00     0.037 A 
BRANCH  53  67
ATOM     67  C   UNL     1      12.339   8.248   6.894  1.00  0.00     0.057 A 
ATOM     68  C   UNL     1      13.156   8.601   5.811  1.00  0.00     0.134 A 
ATOM     69  C   UNL     1      12.837   7.301   7.797  1.00  0.00     0.134 A 
ATOM     70  F   UNL     1      12.733   9.492   4.902  1.00  0.00    -0.206 F 
ATOM     71  C   UNL     1      14.408   8.013   5.619  1.00  0.00     0.040 A 
ATOM     72  C   UNL     1      14.098   6.726   7.629  1.00  0.00     0.040 A 
ATOM     73  F   UNL     1      12.109   6.922   8.858  1.00  0.00    -0.206 F 
ATOM     74  C   UNL     1      14.884   7.077   6.533  1.00  0.00     0.006 A 
ENDBRANCH  53  67
BRANCH  54  75
ATOM     75  C   UNL     1       3.152  11.940   8.049  1.00  0.00     0.057 A 
ATOM     76  C   UNL     1       2.874  13.287   7.790  1.00  0.00     0.134 A 
ATOM     77  C   UNL     1       2.099  11.138   8.502  1.00  0.00     0.134 A 
ATOM     78  F   UNL     1       3.849  14.108   7.371  1.00  0.00    -0.206 F 
ATOM     79  C   UNL     1       1.603  13.824   7.994  1.00  0.00     0.040 A 
ATOM     80  C   UNL     1       0.816  11.656   8.689  1.00  0.00     0.040 A 
ATOM     81  F   UNL     1       2.300   9.838   8.761  1.00  0.00    -0.206 F 
ATOM     82  C   UNL     1       0.568  13.006   8.441  1.00  0.00     0.006 A 
ENDBRANCH  54  75
BRANCH  66  83
ATOM     83  C   UNL     1       9.183  12.968  11.350  1.00  0.00     0.057 A 
ATOM     84  C   UNL     1       8.786  12.709  12.668  1.00  0.00     0.134 A 
ATOM     85  C   UNL     1       9.976  14.100  11.123  1.00  0.00     0.134 A 
ATOM     86  F   UNL     1       8.015  11.648  12.949  1.00  0.00    -0.206 F 
ATOM     87  C   UNL     1       9.140  13.560  13.716  1.00  0.00     0.040 A 
ATOM     88  C   UNL     1      10.357  14.945  12.166  1.00  0.00     0.040 A 
ATOM     89  F   UNL     1      10.397  14.400   9.885  1.00  0.00    -0.206 F 
ATOM     90  C   UNL     1       9.931  14.680  13.466  1.00  0.00     0.006 A 
ENDBRANCH  66  83
ENDBRANCH  40  41
ENDBRANCH  32  35
ENDBRANCH  30  31
ENDBRANCH  29  30
ENDBRANCH   1  29
TORSDOF 15
