REMARK SMILES CN1N=C(CC(=O)NCCCNC(=O)c2ccc(-c3c4nc(c(-c5c(F)cccc5F)c5ccc([nH]5)c(-c5c(F)cccc5F)c5nc(c(-c6c(F)cccc6F)c6ccc3[nH]6)C=C5)C=C4)cc2)CC1=O
REMARK SMILES IDX 10 1 9 2 8 3 6 4 7 5 5 7 4 8 1 9 2 10 3 11 70 12 69 13 71 14
REMARK SMILES IDX 11 15 12 16 13 17 14 19 15 20 16 21 68 22 17 23 67 24 18 25
REMARK SMILES IDX 19 26 20 27 61 28 21 29 66 30 60 31 62 32 22 33 65 34 59 35
REMARK SMILES IDX 58 36 23 38 49 39 32 40 48 41 33 42 36 43 47 44 63 45 34 46
REMARK SMILES IDX 35 47 46 49 64 50 37 51 24 52 25 53 30 54 26 55 27 56 29 57
REMARK SMILES IDX 31 58 28 59 50 60 51 61 56 62 52 63 53 64 55 65 57 66 54 67
REMARK SMILES IDX 38 68 39 69 44 70 40 71 41 72 43 73 45 74 42 75
REMARK H PARENT 8 6 12 18 62 37 36 48
REMARK Flexibility Score: inf
ROOT
ATOM      1  C   UNL     1      -2.215   4.001  -0.144  1.00  0.00     0.042 C 
ENDROOT
BRANCH   1   2
ATOM      2  C   UNL     1      -1.852   4.960  -1.273  1.00  0.00     0.117 C 
BRANCH   2   3
ATOM      3  N   UNL     1      -0.518   5.507  -1.116  1.00  0.00    -0.356 N 
ATOM      4  C   UNL     1       0.643   5.142  -1.732  1.00  0.00     0.225 C 
ATOM      5  O   UNL     1       1.676   5.745  -1.442  1.00  0.00    -0.275 OA
ATOM      6  H   UNL     1      -0.440   6.247  -0.473  1.00  0.00     0.163 HD
BRANCH   4   7
ATOM      7  C   UNL     1       0.618   4.078  -2.798  1.00  0.00     0.153 C 
BRANCH   7   8
ATOM      8  C   UNL     1       0.357   2.698  -2.299  1.00  0.00     0.057 C 
ATOM      9  C   UNL     1       0.966  -0.039  -0.195  1.00  0.00     0.177 C 
ATOM     10  N   UNL     1       0.478   0.866  -1.205  1.00  0.00    -0.237 N 
ATOM     11  N   UNL     1       0.993   2.137  -1.316  1.00  0.00    -0.179 NA
ATOM     12  C   UNL     1      -0.523   0.567  -2.124  1.00  0.00     0.248 C 
ATOM     13  C   UNL     1      -0.669   1.811  -2.942  1.00  0.00     0.156 C 
ATOM     14  O   UNL     1      -1.168  -0.461  -2.253  1.00  0.00    -0.273 OA
ENDBRANCH   7   8
ENDBRANCH   4   7
ENDBRANCH   2   3
ENDBRANCH   1   2
BRANCH   1  15
ATOM     15  C   UNL     1      -2.360   4.676   1.217  1.00  0.00     0.118 C 
BRANCH  15  16
ATOM     16  N   UNL     1      -3.431   5.662   1.235  1.00  0.00    -0.352 N 
ATOM     17  C   UNL     1      -4.568   5.735   1.996  1.00  0.00     0.251 C 
ATOM     18  H   UNL     1      -3.320   6.400   0.592  1.00  0.00     0.163 HD
ATOM     19  O   UNL     1      -5.442   6.543   1.689  1.00  0.00    -0.269 OA
BRANCH  17  20
ATOM     20  C   UNL     1      -4.763   4.857   3.171  1.00  0.00     0.039 A 
ATOM     21  C   UNL     1      -6.051   4.387   3.443  1.00  0.00     0.014 A 
ATOM     22  C   UNL     1      -3.712   4.544   4.036  1.00  0.00     0.014 A 
ATOM     23  C   UNL     1      -6.274   3.572   4.554  1.00  0.00     0.010 A 
ATOM     24  C   UNL     1      -3.918   3.659   5.093  1.00  0.00     0.010 A 
ATOM     25  C   UNL     1      -5.204   3.176   5.373  1.00  0.00    -0.014 A 
BRANCH  25  26
ATOM     26  C   UNL     1      -5.429   2.260   6.521  1.00  0.00     0.031 A 
ATOM     27  C   UNL     1      -5.162   2.710   7.930  1.00  0.00     0.074 A 
ATOM     28  C   UNL     1      -5.841   1.000   6.287  1.00  0.00     0.049 A 
ATOM     29  N   UNL     1      -5.316   2.051   9.052  1.00  0.00    -0.248 NA
ATOM     30  C   UNL     1      -4.624   4.067   8.101  1.00  0.00     0.031 C 
ATOM     31  C   UNL     1      -6.067   0.419   4.962  1.00  0.00     0.029 A 
ATOM     32  N   UNL     1      -6.137  -0.021   7.154  1.00  0.00    -0.354 N 
ATOM     33  C   UNL     1      -4.886   2.908  10.057  1.00  0.00     0.074 A 
ATOM     34  C   UNL     1      -4.402   4.107   9.406  1.00  0.00     0.031 C 
ATOM     35  C   UNL     1      -6.492  -0.846   5.106  1.00  0.00     0.029 A 
ATOM     36  C   UNL     1      -6.535  -1.175   6.527  1.00  0.00     0.049 A 
ATOM     37  H   UNL     1      -6.070   0.066   8.133  1.00  0.00     0.167 HD
ATOM     38  C   UNL     1      -4.912   2.725  11.400  1.00  0.00     0.037 A 
ATOM     39  C   UNL     1      -6.892  -2.368   7.036  1.00  0.00     0.037 A 
ATOM     40  C   UNL     1      -5.395   1.529  12.043  1.00  0.00     0.049 A 
ATOM     41  C   UNL     1      -6.930  -2.549   8.526  1.00  0.00     0.074 A 
ATOM     42  C   UNL     1      -5.524   1.266  13.395  1.00  0.00     0.029 A 
ATOM     43  N   UNL     1      -5.812   0.385  11.375  1.00  0.00    -0.354 N 
ATOM     44  N   UNL     1      -6.608  -1.698   9.471  1.00  0.00    -0.248 NA
ATOM     45  C   UNL     1      -7.399  -3.849   9.021  1.00  0.00     0.031 C 
ATOM     46  C   UNL     1      -5.959  -0.056  13.546  1.00  0.00     0.029 A 
ATOM     47  C   UNL     1      -6.168  -0.596  12.287  1.00  0.00     0.049 A 
ATOM     48  H   UNL     1      -5.849   0.286  10.396  1.00  0.00     0.167 HD
ATOM     49  C   UNL     1      -6.853  -2.351  10.672  1.00  0.00     0.074 A 
ATOM     50  C   UNL     1      -7.373  -3.660  10.332  1.00  0.00     0.031 C 
ATOM     51  C   UNL     1      -6.666  -1.906  11.940  1.00  0.00     0.037 A 
BRANCH  38  52
ATOM     52  C   UNL     1      -4.383   3.845  12.254  1.00  0.00     0.057 A 
ATOM     53  C   UNL     1      -5.018   5.094  12.325  1.00  0.00     0.134 A 
ATOM     54  C   UNL     1      -3.213   3.679  13.007  1.00  0.00     0.134 A 
ATOM     55  F   UNL     1      -6.137   5.329  11.623  1.00  0.00    -0.206 F 
ATOM     56  C   UNL     1      -4.483   6.148  13.069  1.00  0.00     0.040 A 
ATOM     57  C   UNL     1      -2.689   4.714  13.784  1.00  0.00     0.040 A 
ATOM     58  F   UNL     1      -2.556   2.509  12.998  1.00  0.00    -0.206 F 
ATOM     59  C   UNL     1      -3.316   5.958  13.805  1.00  0.00     0.006 A 
ENDBRANCH  38  52
BRANCH  39  60
ATOM     60  C   UNL     1      -7.267  -3.470   6.115  1.00  0.00     0.057 A 
ATOM     61  C   UNL     1      -8.594  -3.896   5.991  1.00  0.00     0.134 A 
ATOM     62  C   UNL     1      -6.310  -4.094   5.305  1.00  0.00     0.134 A 
ATOM     63  F   UNL     1      -9.553  -3.347   6.751  1.00  0.00    -0.206 F 
ATOM     64  C   UNL     1      -8.955  -4.911   5.103  1.00  0.00     0.040 A 
ATOM     65  C   UNL     1      -6.661  -5.090   4.394  1.00  0.00     0.040 A 
ATOM     66  F   UNL     1      -5.023  -3.721   5.369  1.00  0.00    -0.206 F 
ATOM     67  C   UNL     1      -7.988  -5.504   4.294  1.00  0.00     0.006 A 
ENDBRANCH  39  60
BRANCH  51  68
ATOM     68  C   UNL     1      -7.050  -2.841  13.054  1.00  0.00     0.057 A 
ATOM     69  C   UNL     1      -6.343  -4.024  13.312  1.00  0.00     0.134 A 
ATOM     70  C   UNL     1      -8.145  -2.554  13.880  1.00  0.00     0.134 A 
ATOM     71  F   UNL     1      -5.290  -4.367  12.554  1.00  0.00    -0.206 F 
ATOM     72  C   UNL     1      -6.736  -4.905  14.321  1.00  0.00     0.040 A 
ATOM     73  C   UNL     1      -8.526  -3.410  14.914  1.00  0.00     0.040 A 
ATOM     74  F   UNL     1      -8.861  -1.434  13.699  1.00  0.00    -0.206 F 
ATOM     75  C   UNL     1      -7.829  -4.597  15.128  1.00  0.00     0.006 A 
ENDBRANCH  51  68
ENDBRANCH  25  26
ENDBRANCH  17  20
ENDBRANCH  15  16
ENDBRANCH   1  15
TORSDOF 11
