REMARK SMILES Cc1c(NC(=O)c2cccc(-c3cc4ccccc4oc3=O)c2)cccc1C(=O)NCCCNC(=O)c1ccc(-c2c3nc(c(-c4c(F)cccc4F)c4ccc([nH]4)c(-c4c(F)cccc4F)c4nc(c(-c5c(F)cccc5F)c5ccc2[nH]5)C=C4)C=C3)cc1
REMARK SMILES IDX 31 1 30 2 28 3 29 4 27 6 1 7 2 8 3 9 24 10 26 11 25 12 4 13
REMARK SMILES IDX 5 14 6 16 7 17 8 18 23 19 9 20 11 21 10 22 12 23 13 24 21 25
REMARK SMILES IDX 14 26 20 27 22 28 15 29 19 30 16 31 18 32 17 33 32 34 33 35
REMARK SMILES IDX 34 36 35 37 36 39 37 40 38 41 90 42 39 43 89 44 40 45 41 46
REMARK SMILES IDX 42 47 83 48 43 49 88 50 82 51 84 52 44 53 87 54 81 55 80 56
REMARK SMILES IDX 45 58 71 59 54 60 70 61 55 62 58 63 69 64 85 65 56 66 57 67
REMARK SMILES IDX 68 69 86 70 59 71 46 72 47 73 52 74 48 75 49 76 51 77 53 78
REMARK SMILES IDX 50 79 72 80 73 81 78 82 74 83 75 84 77 85 79 86 76 87 60 88
REMARK SMILES IDX 61 89 66 90 62 91 63 92 65 93 67 94 64 95
REMARK H PARENT 30 5 4 15 34 38 84 57 58 68
REMARK Flexibility Score: inf
ROOT
ATOM      1  C   UNL     1       3.702   1.527   0.712  1.00  0.00     0.118 C 
ENDROOT
BRANCH   1   2
ATOM      2  N   UNL     1       2.457   2.236   0.442  1.00  0.00    -0.352 N 
ATOM      3  C   UNL     1       1.106   2.015   0.449  1.00  0.00     0.251 C 
ATOM      4  O   UNL     1       0.467   3.028   0.124  1.00  0.00    -0.269 OA
ATOM      5  H   UNL     1       2.647   3.163   0.170  1.00  0.00     0.163 HD
BRANCH   3   6
ATOM      6  C   UNL     1       0.298   0.775   0.769  1.00  0.00     0.044 A 
ATOM      7  C   UNL     1       2.008  -1.061   0.311  1.00  0.00     0.047 C 
ATOM      8  C   UNL     1       0.656  -0.592   0.733  1.00  0.00    -0.015 A 
ATOM      9  C   UNL     1      -0.333  -1.597   0.951  1.00  0.00     0.045 A 
ATOM     10  C   UNL     1      -1.670  -1.261   1.148  1.00  0.00     0.026 A 
ATOM     11  C   UNL     1      -1.072   1.064   0.996  1.00  0.00     0.014 A 
ATOM     12  C   UNL     1      -2.042   0.072   1.164  1.00  0.00     0.003 A 
BRANCH   9  13
ATOM     13  N   UNL     1       0.073  -2.942   0.996  1.00  0.00    -0.322 N 
ATOM     14  C   UNL     1      -0.508  -4.106   0.557  1.00  0.00     0.255 C 
ATOM     15  H   UNL     1       0.948  -3.075   1.429  1.00  0.00     0.170 HD
ATOM     16  O   UNL     1      -0.035  -5.171   0.958  1.00  0.00    -0.269 OA
BRANCH  14  17
ATOM     17  C   UNL     1      -1.576  -4.144  -0.480  1.00  0.00     0.040 A 
ATOM     18  C   UNL     1      -2.349  -5.308  -0.565  1.00  0.00     0.014 A 
ATOM     19  C   UNL     1      -1.733  -3.152  -1.457  1.00  0.00     0.022 A 
ATOM     20  C   UNL     1      -3.293  -5.458  -1.579  1.00  0.00     0.001 A 
ATOM     21  C   UNL     1      -2.688  -3.283  -2.480  1.00  0.00    -0.010 A 
ATOM     22  C   UNL     1      -3.467  -4.448  -2.525  1.00  0.00     0.009 A 
BRANCH  21  23
ATOM     23  C   UNL     1      -2.837  -2.306  -3.591  1.00  0.00     0.068 A 
ATOM     24  C   UNL     1      -2.680  -0.974  -3.427  1.00  0.00     0.028 A 
ATOM     25  C   UNL     1      -2.243  -2.756  -4.892  1.00  0.00     0.344 A 
ATOM     26  C   UNL     1      -1.262  -0.557  -3.509  1.00  0.00     0.018 A 
ATOM     27  O   UNL     1      -0.895  -2.420  -5.033  1.00  0.00    -0.422 OA
ATOM     28  O   UNL     1      -2.860  -3.436  -5.701  1.00  0.00    -0.246 OA
ATOM     29  C   UNL     1      -0.772   0.565  -2.850  1.00  0.00     0.012 A 
ATOM     30  C   UNL     1      -0.387  -1.360  -4.252  1.00  0.00     0.138 A 
ATOM     31  C   UNL     1       0.597   0.841  -2.899  1.00  0.00     0.001 A 
ATOM     32  C   UNL     1       0.979  -1.117  -4.274  1.00  0.00     0.048 A 
ATOM     33  C   UNL     1       1.472  -0.012  -3.582  1.00  0.00     0.004 A 
ENDBRANCH  21  23
ENDBRANCH  14  17
ENDBRANCH   9  13
ENDBRANCH   3   6
ENDBRANCH   1   2
BRANCH   1  34
ATOM     34  C   UNL     1       4.243   0.836  -0.545  1.00  0.00     0.042 C 
BRANCH  34  35
ATOM     35  C   UNL     1       5.552   1.369  -1.097  1.00  0.00     0.118 C 
BRANCH  35  36
ATOM     36  N   UNL     1       6.689   0.467  -0.904  1.00  0.00    -0.352 N 
ATOM     37  C   UNL     1       7.988   0.661  -1.343  1.00  0.00     0.251 C 
ATOM     38  H   UNL     1       6.511  -0.367  -0.412  1.00  0.00     0.163 HD
ATOM     39  O   UNL     1       8.885  -0.133  -1.078  1.00  0.00    -0.269 OA
BRANCH  37  40
ATOM     40  C   UNL     1       8.275   1.931  -2.041  1.00  0.00     0.039 A 
ATOM     41  C   UNL     1       8.975   2.895  -1.316  1.00  0.00     0.014 A 
ATOM     42  C   UNL     1       7.497   2.274  -3.147  1.00  0.00     0.014 A 
ATOM     43  C   UNL     1       8.667   4.234  -1.522  1.00  0.00     0.010 A 
ATOM     44  C   UNL     1       7.137   3.602  -3.300  1.00  0.00     0.010 A 
ATOM     45  C   UNL     1       7.655   4.568  -2.428  1.00  0.00    -0.014 A 
BRANCH  45  46
ATOM     46  C   UNL     1       7.004   5.876  -2.396  1.00  0.00     0.031 A 
ATOM     47  C   UNL     1       7.323   6.895  -3.412  1.00  0.00     0.074 A 
ATOM     48  C   UNL     1       6.150   6.212  -1.401  1.00  0.00     0.049 A 
ATOM     49  N   UNL     1       7.367   8.162  -3.166  1.00  0.00    -0.248 NA
ATOM     50  C   UNL     1       7.648   6.552  -4.789  1.00  0.00     0.031 C 
ATOM     51  C   UNL     1       5.353   7.433  -1.306  1.00  0.00     0.029 A 
ATOM     52  N   UNL     1       6.021   5.614  -0.140  1.00  0.00    -0.354 N 
ATOM     53  C   UNL     1       7.466   8.813  -4.370  1.00  0.00     0.074 A 
ATOM     54  C   UNL     1       7.697   7.766  -5.345  1.00  0.00     0.031 C 
ATOM     55  C   UNL     1       5.092   7.676  -0.014  1.00  0.00     0.029 A 
ATOM     56  C   UNL     1       5.773   6.666   0.773  1.00  0.00     0.049 A 
ATOM     57  H   UNL     1       6.090   4.654   0.068  1.00  0.00     0.167 HD
ATOM     58  C   UNL     1       7.221  10.152  -4.450  1.00  0.00     0.037 A 
ATOM     59  C   UNL     1       6.601   6.896   1.830  1.00  0.00     0.037 A 
ATOM     60  C   UNL     1       6.877  10.738  -3.156  1.00  0.00     0.049 A 
ATOM     61  C   UNL     1       7.295   8.240   1.808  1.00  0.00     0.074 A 
ATOM     62  C   UNL     1       5.686  11.106  -2.550  1.00  0.00     0.029 A 
ATOM     63  N   UNL     1       7.834  10.780  -2.158  1.00  0.00    -0.354 N 
ATOM     64  N   UNL     1       7.096   9.164   0.910  1.00  0.00    -0.248 NA
ATOM     65  C   UNL     1       8.363   8.594   2.745  1.00  0.00     0.031 C 
ATOM     66  C   UNL     1       5.945  11.389  -1.181  1.00  0.00     0.029 A 
ATOM     67  C   UNL     1       7.291  11.182  -0.951  1.00  0.00     0.049 A 
ATOM     68  H   UNL     1       8.782  10.552  -2.290  1.00  0.00     0.167 HD
ATOM     69  C   UNL     1       8.022  10.162   1.080  1.00  0.00     0.074 A 
ATOM     70  C   UNL     1       8.786   9.766   2.247  1.00  0.00     0.031 C 
ATOM     71  C   UNL     1       8.143  11.217   0.224  1.00  0.00     0.037 A 
BRANCH  58  72
ATOM     72  C   UNL     1       7.046  10.856  -5.771  1.00  0.00     0.057 A 
ATOM     73  C   UNL     1       6.109  11.891  -5.933  1.00  0.00     0.134 A 
ATOM     74  C   UNL     1       7.750  10.515  -6.939  1.00  0.00     0.134 A 
ATOM     75  F   UNL     1       5.448  12.415  -4.894  1.00  0.00    -0.206 F 
ATOM     76  C   UNL     1       5.793  12.438  -7.183  1.00  0.00     0.040 A 
ATOM     77  C   UNL     1       7.404  11.008  -8.205  1.00  0.00     0.040 A 
ATOM     78  F   UNL     1       8.822   9.710  -6.895  1.00  0.00    -0.206 F 
ATOM     79  C   UNL     1       6.405  11.962  -8.332  1.00  0.00     0.006 A 
ENDBRANCH  58  72
BRANCH  59  80
ATOM     80  C   UNL     1       7.166   5.646   2.394  1.00  0.00     0.057 A 
ATOM     81  C   UNL     1       6.287   4.729   2.997  1.00  0.00     0.134 A 
ATOM     82  C   UNL     1       8.428   5.178   2.027  1.00  0.00     0.134 A 
ATOM     83  F   UNL     1       5.060   5.119   3.377  1.00  0.00    -0.206 F 
ATOM     84  C   UNL     1       6.604   3.375   3.113  1.00  0.00     0.040 A 
ATOM     85  C   UNL     1       8.760   3.826   2.150  1.00  0.00     0.040 A 
ATOM     86  F   UNL     1       9.315   5.993   1.439  1.00  0.00    -0.206 F 
ATOM     87  C   UNL     1       7.831   2.914   2.650  1.00  0.00     0.006 A 
ENDBRANCH  59  80
BRANCH  71  88
ATOM     88  C   UNL     1       9.103  12.354   0.436  1.00  0.00     0.057 A 
ATOM     89  C   UNL     1       9.309  12.944   1.693  1.00  0.00     0.134 A 
ATOM     90  C   UNL     1       9.769  12.974  -0.639  1.00  0.00     0.134 A 
ATOM     91  F   UNL     1       8.660  12.500   2.780  1.00  0.00    -0.206 F 
ATOM     92  C   UNL     1      10.171  14.032   1.879  1.00  0.00     0.040 A 
ATOM     93  C   UNL     1      10.595  14.090  -0.473  1.00  0.00     0.040 A 
ATOM     94  F   UNL     1       9.661  12.514  -1.893  1.00  0.00    -0.206 F 
ATOM     95  C   UNL     1      10.812  14.613   0.792  1.00  0.00     0.006 A 
ENDBRANCH  71  88
ENDBRANCH  45  46
ENDBRANCH  37  40
ENDBRANCH  35  36
ENDBRANCH  34  35
ENDBRANCH   1  34
TORSDOF 13
