REMARK SMILES C=CCN(CC(=O)NCCCNC(=O)c1ccc(-c2c3nc(c(-c4c(F)cccc4F)c4ccc([nH]4)c(-c4c(F)cccc4F)c4nc(c(-c5c(F)cccc5F)c5ccc2[nH]5)C=C4)C=C3)cc1)C(=O)NC(C)(C)CC
REMARK SMILES IDX 9 1 8 2 6 3 7 4 5 6 4 7 3 8 2 9 1 10 69 11 70 12 71 13 72 15
REMARK SMILES IDX 73 16 74 17 75 18 76 19 10 20 11 21 12 22 13 23 14 25 15 26
REMARK SMILES IDX 16 27 68 28 17 29 67 30 18 31 19 32 20 33 61 34 21 35 66 36
REMARK SMILES IDX 60 37 62 38 22 39 65 40 59 41 58 42 23 44 49 45 32 46 48 47
REMARK SMILES IDX 33 48 36 49 47 50 63 51 34 52 35 53 46 55 64 56 37 57 24 58
REMARK SMILES IDX 25 59 30 60 26 61 27 62 29 63 31 64 28 65 50 66 51 67 56 68
REMARK SMILES IDX 52 69 53 70 55 71 57 72 54 73 38 74 39 75 44 76 40 77 41 78
REMARK SMILES IDX 43 79 45 80 42 81
REMARK H PARENT 8 5 71 14 12 24 62 43 36 54
REMARK Flexibility Score: inf
ROOT
ATOM      1  C   UNL     1      -4.658   0.519  -0.656  1.00  0.00     0.117 C 
ENDROOT
BRANCH   1   2
ATOM      2  N   UNL     1      -5.017   1.775  -0.037  1.00  0.00    -0.354 N 
ATOM      3  C   UNL     1      -4.269   2.898   0.145  1.00  0.00     0.239 C 
ATOM      4  O   UNL     1      -4.883   3.934   0.415  1.00  0.00    -0.273 OA
ATOM      5  H   UNL     1      -5.939   1.826   0.304  1.00  0.00     0.163 HD
BRANCH   3   6
ATOM      6  C   UNL     1      -2.763   2.907  -0.142  1.00  0.00     0.221 C 
BRANCH   6   7
ATOM      7  N   UNL     1      -1.963   1.935   0.596  1.00  0.00    -0.312 N 
BRANCH   7   8
ATOM      8  C   UNL     1      -1.274   0.926  -0.215  1.00  0.00     0.149 C 
BRANCH   8   9
ATOM      9  C   UNL     1       0.199   1.218  -0.269  1.00  0.00    -0.013 C 
ATOM     10  C   UNL     1       1.141   0.301  -0.006  1.00  0.00     0.006 C 
ENDBRANCH   8   9
ENDBRANCH   7   8
BRANCH   7  11
ATOM     11  C   UNL     1      -1.724   1.879   1.932  1.00  0.00     0.318 C 
ATOM     12  O   UNL     1      -1.262   0.845   2.439  1.00  0.00    -0.249 OA
ATOM     13  N   UNL     1      -1.886   2.853   2.825  1.00  0.00    -0.333 N 
ATOM     14  H   UNL     1      -1.474   2.528   3.658  1.00  0.00     0.165 HD
BRANCH  13  15
ATOM     15  C   UNL     1      -2.410   4.212   3.130  1.00  0.00     0.036 C 
ATOM     16  C   UNL     1      -3.880   4.073   3.563  1.00  0.00     0.034 C 
ATOM     17  C   UNL     1      -1.624   4.713   4.374  1.00  0.00     0.034 C 
BRANCH  15  18
ATOM     18  C   UNL     1      -2.263   5.309   2.055  1.00  0.00     0.024 C 
ATOM     19  C   UNL     1      -0.870   5.455   1.453  1.00  0.00     0.006 C 
ENDBRANCH  15  18
ENDBRANCH  13  15
ENDBRANCH   7  11
ENDBRANCH   6   7
ENDBRANCH   3   6
ENDBRANCH   1   2
BRANCH   1  20
ATOM     20  C   UNL     1      -4.502  -0.613   0.348  1.00  0.00     0.042 C 
BRANCH  20  21
ATOM     21  C   UNL     1      -5.746  -0.857   1.196  1.00  0.00     0.118 C 
BRANCH  21  22
ATOM     22  N   UNL     1      -6.945  -1.037   0.386  1.00  0.00    -0.352 N 
ATOM     23  C   UNL     1      -7.671  -2.160   0.102  1.00  0.00     0.251 C 
ATOM     24  H   UNL     1      -7.289  -0.211  -0.025  1.00  0.00     0.163 HD
ATOM     25  O   UNL     1      -8.487  -2.134  -0.822  1.00  0.00    -0.269 OA
BRANCH  23  26
ATOM     26  C   UNL     1      -7.495  -3.395   0.888  1.00  0.00     0.039 A 
ATOM     27  C   UNL     1      -7.576  -4.630   0.238  1.00  0.00     0.014 A 
ATOM     28  C   UNL     1      -7.322  -3.344   2.273  1.00  0.00     0.014 A 
ATOM     29  C   UNL     1      -7.442  -5.809   0.972  1.00  0.00     0.010 A 
ATOM     30  C   UNL     1      -7.098  -4.514   2.989  1.00  0.00     0.010 A 
ATOM     31  C   UNL     1      -7.181  -5.758   2.350  1.00  0.00    -0.014 A 
BRANCH  31  32
ATOM     32  C   UNL     1      -7.040  -6.996   3.152  1.00  0.00     0.031 A 
ATOM     33  C   UNL     1      -8.038  -7.304   4.235  1.00  0.00     0.074 A 
ATOM     34  C   UNL     1      -5.985  -7.806   2.946  1.00  0.00     0.049 A 
ATOM     35  N   UNL     1      -8.057  -8.299   5.084  1.00  0.00    -0.248 NA
ATOM     36  C   UNL     1      -9.144  -6.347   4.409  1.00  0.00     0.031 C 
ATOM     37  C   UNL     1      -4.922  -7.579   1.965  1.00  0.00     0.029 A 
ATOM     38  N   UNL     1      -5.631  -8.981   3.556  1.00  0.00    -0.354 N 
ATOM     39  C   UNL     1      -9.155  -8.073   5.905  1.00  0.00     0.074 A 
ATOM     40  C   UNL     1      -9.746  -6.821   5.488  1.00  0.00     0.031 C 
ATOM     41  C   UNL     1      -4.051  -8.599   2.019  1.00  0.00     0.029 A 
ATOM     42  C   UNL     1      -4.477  -9.533   3.056  1.00  0.00     0.049 A 
ATOM     43  H   UNL     1      -6.153  -9.390   4.283  1.00  0.00     0.167 HD
ATOM     44  C   UNL     1      -9.643  -8.852   6.898  1.00  0.00     0.037 A 
ATOM     45  C   UNL     1      -3.840 -10.669   3.396  1.00  0.00     0.037 A 
ATOM     46  C   UNL     1      -9.075 -10.118   7.278  1.00  0.00     0.049 A 
ATOM     47  C   UNL     1      -4.423 -11.538   4.473  1.00  0.00     0.074 A 
ATOM     48  C   UNL     1      -9.527 -11.018   8.226  1.00  0.00     0.029 A 
ATOM     49  N   UNL     1      -7.930 -10.665   6.718  1.00  0.00    -0.354 N 
ATOM     50  N   UNL     1      -5.499 -11.345   5.198  1.00  0.00    -0.248 NA
ATOM     51  C   UNL     1      -3.711 -12.788   4.773  1.00  0.00     0.031 C 
ATOM     52  C   UNL     1      -8.638 -12.099   8.259  1.00  0.00     0.029 A 
ATOM     53  C   UNL     1      -7.655 -11.887   7.305  1.00  0.00     0.049 A 
ATOM     54  H   UNL     1      -7.393 -10.245   6.008  1.00  0.00     0.167 HD
ATOM     55  C   UNL     1      -5.610 -12.460   6.018  1.00  0.00     0.074 A 
ATOM     56  C   UNL     1      -4.497 -13.329   5.693  1.00  0.00     0.031 C 
ATOM     57  C   UNL     1      -6.548 -12.740   6.955  1.00  0.00     0.037 A 
BRANCH  44  58
ATOM     58  C   UNL     1     -10.857  -8.358   7.630  1.00  0.00     0.057 A 
ATOM     59  C   UNL     1     -12.118  -8.314   7.021  1.00  0.00     0.134 A 
ATOM     60  C   UNL     1     -10.768  -7.935   8.962  1.00  0.00     0.134 A 
ATOM     61  F   UNL     1     -12.269  -8.692   5.743  1.00  0.00    -0.206 F 
ATOM     62  C   UNL     1     -13.241  -7.838   7.700  1.00  0.00     0.040 A 
ATOM     63  C   UNL     1     -11.889  -7.481   9.660  1.00  0.00     0.040 A 
ATOM     64  F   UNL     1      -9.592  -7.955   9.607  1.00  0.00    -0.206 F 
ATOM     65  C   UNL     1     -13.129  -7.425   9.026  1.00  0.00     0.006 A 
ENDBRANCH  44  58
BRANCH  45  66
ATOM     66  C   UNL     1      -2.611 -11.071   2.671  1.00  0.00     0.057 A 
ATOM     67  C   UNL     1      -2.629 -12.137   1.764  1.00  0.00     0.134 A 
ATOM     68  C   UNL     1      -1.397 -10.399   2.853  1.00  0.00     0.134 A 
ATOM     69  F   UNL     1      -3.760 -12.828   1.558  1.00  0.00    -0.206 F 
ATOM     70  C   UNL     1      -1.482 -12.531   1.075  1.00  0.00     0.040 A 
ATOM     71  C   UNL     1      -0.246 -10.769   2.155  1.00  0.00     0.040 A 
ATOM     72  F   UNL     1      -1.317  -9.363   3.701  1.00  0.00    -0.206 F 
ATOM     73  C   UNL     1      -0.286 -11.842   1.266  1.00  0.00     0.006 A 
ENDBRANCH  45  66
BRANCH  57  74
ATOM     74  C   UNL     1      -6.431 -14.054   7.666  1.00  0.00     0.057 A 
ATOM     75  C   UNL     1      -5.461 -14.277   8.649  1.00  0.00     0.134 A 
ATOM     76  C   UNL     1      -7.329 -15.093   7.389  1.00  0.00     0.134 A 
ATOM     77  F   UNL     1      -4.565 -13.324   8.949  1.00  0.00    -0.206 F 
ATOM     78  C   UNL     1      -5.374 -15.497   9.321  1.00  0.00     0.040 A 
ATOM     79  C   UNL     1      -7.266 -16.309   8.071  1.00  0.00     0.040 A 
ATOM     80  F   UNL     1      -8.286 -14.938   6.463  1.00  0.00    -0.206 F 
ATOM     81  C   UNL     1      -6.283 -16.514   9.037  1.00  0.00     0.006 A 
ENDBRANCH  57  74
ENDBRANCH  31  32
ENDBRANCH  23  26
ENDBRANCH  21  22
ENDBRANCH  20  21
ENDBRANCH   1  20
TORSDOF 16
