REMARK SMILES CC(C)CCOCC[N@@H+]1[C@@H](C(=O)NCCCNC(=O)c2ccc(-c3c4nc(c(-c5c(F)cccc5F)c5ccc([nH]5)c(-c5c(F)cccc5F)c5nc(c(-c6c(F)cccc6F)c6ccc3[nH]6)C=C5)C=C4)cc2)CC[C@H]2CCCC[C@H]21
REMARK SMILES IDX 11 1 12 2 13 3 10 5 9 6 81 7 74 9 76 10 80 11 75 12 77 13
REMARK SMILES IDX 79 14 78 15 8 16 7 17 6 18 5 19 4 20 2 21 1 22 3 23 14 24
REMARK SMILES IDX 15 25 16 26 17 27 18 28 19 30 20 31 21 32 73 33 22 34 72 35
REMARK SMILES IDX 23 36 24 37 25 38 66 39 26 40 71 41 65 42 67 43 27 44 70 45
REMARK SMILES IDX 64 46 63 47 28 49 54 50 37 51 53 52 38 53 41 54 52 55 68 56
REMARK SMILES IDX 39 57 40 58 51 60 69 61 42 62 29 63 30 64 35 65 31 66 32 67
REMARK SMILES IDX 34 68 36 69 33 70 55 71 56 72 61 73 57 74 58 75 60 76 62 77
REMARK SMILES IDX 59 78 43 79 44 80 49 81 45 82 46 83 48 84 50 85 47 86
REMARK H PARENT 13 4 9 8 17 29 67 48 41 59
REMARK Flexibility Score: inf
ROOT
ATOM      1  C   UNL     1      -1.367   3.291  -0.156  1.00  0.00     0.278 C 
ATOM      2  O   UNL     1      -1.318   4.364  -0.764  1.00  0.00    -0.268 OA
ATOM      3  N   UNL     1      -2.510   2.555  -0.259  1.00  0.00    -0.351 N 
ATOM      4  H   UNL     1      -3.243   2.974  -0.766  1.00  0.00     0.163 HD
ENDROOT
BRANCH   1   5
ATOM      5  C   UNL     1      -0.183   2.822   0.709  1.00  0.00     0.274 C 
ATOM      6  N   UNL     1       0.404   1.511   0.223  1.00  0.00    -0.320 N 
ATOM      7  C   UNL     1       1.408   1.001   1.228  1.00  0.00     0.187 C 
ATOM      8  H   UNL     1      -0.320   0.802   0.108  1.00  0.00     0.349 HD
ATOM      9  C   UNL     1      -0.609   2.900   2.183  1.00  0.00     0.076 C 
ATOM     10  C   UNL     1       0.952   1.043   2.710  1.00  0.00     0.048 C 
ATOM     11  C   UNL     1       1.959  -0.439   1.074  1.00  0.00     0.065 C 
ATOM     12  C   UNL     1       0.504   2.441   3.099  1.00  0.00     0.016 C 
ATOM     13  C   UNL     1      -0.065  -0.042   3.125  1.00  0.00     0.010 C 
ATOM     14  C   UNL     1       0.976  -1.581   1.348  1.00  0.00     0.006 C 
ATOM     15  C   UNL     1      -0.255  -1.198   2.151  1.00  0.00     0.001 C 
BRANCH   6  16
ATOM     16  C   UNL     1       1.091   1.798  -1.103  1.00  0.00     0.291 C 
BRANCH  16  17
ATOM     17  C   UNL     1       0.307   1.845  -2.469  1.00  0.00     0.221 C 
BRANCH  17  18
ATOM     18  O   UNL     1      -0.144   0.630  -3.070  1.00  0.00    -0.376 OA
BRANCH  18  19
ATOM     19  C   UNL     1      -1.059  -0.149  -2.328  1.00  0.00     0.160 C 
BRANCH  19  20
ATOM     20  C   UNL     1      -0.859  -1.644  -2.617  1.00  0.00     0.031 C 
BRANCH  20  21
ATOM     21  C   UNL     1       0.588  -2.111  -2.923  1.00  0.00    -0.015 C 
ATOM     22  C   UNL     1       1.658  -1.284  -2.237  1.00  0.00     0.007 C 
ATOM     23  C   UNL     1       0.784  -3.568  -2.514  1.00  0.00     0.007 C 
ENDBRANCH  20  21
ENDBRANCH  19  20
ENDBRANCH  18  19
ENDBRANCH  17  18
ENDBRANCH  16  17
ENDBRANCH   6  16
ENDBRANCH   1   5
BRANCH   3  24
ATOM     24  C   UNL     1      -2.793   1.240   0.277  1.00  0.00     0.118 C 
BRANCH  24  25
ATOM     25  C   UNL     1      -3.996   1.218   1.196  1.00  0.00     0.042 C 
BRANCH  25  26
ATOM     26  C   UNL     1      -5.287   1.588   0.485  1.00  0.00     0.118 C 
BRANCH  26  27
ATOM     27  N   UNL     1      -5.608   0.697  -0.625  1.00  0.00    -0.352 N 
ATOM     28  C   UNL     1      -6.696  -0.124  -0.820  1.00  0.00     0.251 C 
ATOM     29  H   UNL     1      -4.942   0.680  -1.350  1.00  0.00     0.163 HD
ATOM     30  O   UNL     1      -6.706  -0.930  -1.734  1.00  0.00    -0.269 OA
BRANCH  28  31
ATOM     31  C   UNL     1      -7.838  -0.038   0.113  1.00  0.00     0.039 A 
ATOM     32  C   UNL     1      -8.425  -1.216   0.580  1.00  0.00     0.014 A 
ATOM     33  C   UNL     1      -8.299   1.202   0.554  1.00  0.00     0.014 A 
ATOM     34  C   UNL     1      -9.412  -1.145   1.564  1.00  0.00     0.010 A 
ATOM     35  C   UNL     1      -9.191   1.266   1.615  1.00  0.00     0.010 A 
ATOM     36  C   UNL     1      -9.761   0.093   2.128  1.00  0.00    -0.014 A 
BRANCH  36  37
ATOM     37  C   UNL     1     -10.726   0.192   3.251  1.00  0.00     0.031 A 
ATOM     38  C   UNL     1     -11.988   0.994   3.085  1.00  0.00     0.074 A 
ATOM     39  C   UNL     1     -10.432  -0.377   4.437  1.00  0.00     0.049 A 
ATOM     40  N   UNL     1     -12.909   1.278   3.969  1.00  0.00    -0.248 NA
ATOM     41  C   UNL     1     -12.232   1.582   1.756  1.00  0.00     0.031 C 
ATOM     42  C   UNL     1      -9.216  -1.137   4.738  1.00  0.00     0.029 A 
ATOM     43  N   UNL     1     -11.133  -0.397   5.616  1.00  0.00    -0.354 N 
ATOM     44  C   UNL     1     -13.832   2.079   3.308  1.00  0.00     0.074 A 
ATOM     45  C   UNL     1     -13.324   2.299   1.972  1.00  0.00     0.031 C 
ATOM     46  C   UNL     1      -9.275  -1.579   6.005  1.00  0.00     0.029 A 
ATOM     47  C   UNL     1     -10.505  -1.093   6.621  1.00  0.00     0.049 A 
ATOM     48  H   UNL     1     -12.005   0.045   5.732  1.00  0.00     0.167 HD
ATOM     49  C   UNL     1     -15.014   2.559   3.759  1.00  0.00     0.037 A 
ATOM     50  C   UNL     1     -10.877  -1.308   7.897  1.00  0.00     0.037 A 
ATOM     51  C   UNL     1     -15.526   2.321   5.082  1.00  0.00     0.049 A 
ATOM     52  C   UNL     1     -12.181  -0.733   8.382  1.00  0.00     0.074 A 
ATOM     53  C   UNL     1     -16.729   2.733   5.627  1.00  0.00     0.029 A 
ATOM     54  N   UNL     1     -14.864   1.602   6.066  1.00  0.00    -0.354 N 
ATOM     55  N   UNL     1     -13.071  -0.028   7.726  1.00  0.00    -0.248 NA
ATOM     56  C   UNL     1     -12.533  -0.988   9.785  1.00  0.00     0.031 C 
ATOM     57  C   UNL     1     -16.776   2.302   6.956  1.00  0.00     0.029 A 
ATOM     58  C   UNL     1     -15.627   1.573   7.221  1.00  0.00     0.049 A 
ATOM     59  H   UNL     1     -13.983   1.176   5.959  1.00  0.00     0.167 HD
ATOM     60  C   UNL     1     -14.104   0.209   8.623  1.00  0.00     0.074 A 
ATOM     61  C   UNL     1     -13.737  -0.440   9.864  1.00  0.00     0.031 C 
ATOM     62  C   UNL     1     -15.254   0.903   8.440  1.00  0.00     0.037 A 
BRANCH  49  63
ATOM     63  C   UNL     1     -15.842   3.372   2.807  1.00  0.00     0.057 A 
ATOM     64  C   UNL     1     -16.465   2.790   1.694  1.00  0.00     0.134 A 
ATOM     65  C   UNL     1     -16.057   4.738   3.025  1.00  0.00     0.134 A 
ATOM     66  F   UNL     1     -16.288   1.489   1.418  1.00  0.00    -0.206 F 
ATOM     67  C   UNL     1     -17.252   3.542   0.821  1.00  0.00     0.040 A 
ATOM     68  C   UNL     1     -16.866   5.494   2.176  1.00  0.00     0.040 A 
ATOM     69  F   UNL     1     -15.494   5.358   4.074  1.00  0.00    -0.206 F 
ATOM     70  C   UNL     1     -17.462   4.897   1.067  1.00  0.00     0.006 A 
ENDBRANCH  49  63
BRANCH  50  71
ATOM     71  C   UNL     1     -10.025  -2.114   8.809  1.00  0.00     0.057 A 
ATOM     72  C   UNL     1     -10.461  -3.353   9.296  1.00  0.00     0.134 A 
ATOM     73  C   UNL     1      -8.780  -1.652   9.254  1.00  0.00     0.134 A 
ATOM     74  F   UNL     1     -11.652  -3.843   8.922  1.00  0.00    -0.206 F 
ATOM     75  C   UNL     1      -9.711  -4.083  10.219  1.00  0.00     0.040 A 
ATOM     76  C   UNL     1      -8.005  -2.387  10.153  1.00  0.00     0.040 A 
ATOM     77  F   UNL     1      -8.298  -0.478   8.819  1.00  0.00    -0.206 F 
ATOM     78  C   UNL     1      -8.477  -3.600  10.649  1.00  0.00     0.006 A 
ENDBRANCH  50  71
BRANCH  62  79
ATOM     79  C   UNL     1     -16.221   0.947   9.587  1.00  0.00     0.057 A 
ATOM     80  C   UNL     1     -15.963   1.685  10.749  1.00  0.00     0.134 A 
ATOM     81  C   UNL     1     -17.445   0.270   9.508  1.00  0.00     0.134 A 
ATOM     82  F   UNL     1     -14.805   2.346  10.892  1.00  0.00    -0.206 F 
ATOM     83  C   UNL     1     -16.876   1.724  11.804  1.00  0.00     0.040 A 
ATOM     84  C   UNL     1     -18.379   0.328  10.543  1.00  0.00     0.040 A 
ATOM     85  F   UNL     1     -17.760  -0.446   8.418  1.00  0.00    -0.206 F 
ATOM     86  C   UNL     1     -18.091   1.050  11.699  1.00  0.00     0.006 A 
ENDBRANCH  62  79
ENDBRANCH  36  37
ENDBRANCH  28  31
ENDBRANCH  26  27
ENDBRANCH  25  26
ENDBRANCH  24  25
ENDBRANCH   3  24
TORSDOF 16
