REMARK SMILES O=C(NCCCNC(=O)[C@@H]1[C@H](C(=O)Nc2ccc(Cn3cncn3)cc2)[C@@H]2C=C[C@H]1CC2)c1ccc(-c2c3nc(c(-c4c(F)cccc4F)c4ccc([nH]4)c(-c4c(F)cccc4F)c4nc(c(-c5c(F)cccc5F)c5ccc2[nH]5)C=C4)C=C3)cc1
REMARK SMILES IDX 6 1 5 2 4 3 3 4 1 5 2 6 33 8 34 9 86 10 35 11 85 12 36 13
REMARK SMILES IDX 37 14 38 15 79 16 39 17 84 18 78 19 80 20 40 21 83 22 77 23
REMARK SMILES IDX 76 24 41 26 67 27 50 28 66 29 51 30 54 31 65 32 81 33 52 34
REMARK SMILES IDX 53 35 64 37 82 38 55 39 42 40 43 41 48 42 44 43 45 44 47 45
REMARK SMILES IDX 49 46 46 47 68 48 69 49 74 50 70 51 71 52 73 53 75 54 72 55
REMARK SMILES IDX 56 56 57 57 62 58 58 59 59 60 61 61 63 62 60 63 7 64 8 65
REMARK SMILES IDX 9 67 10 68 11 69 30 70 27 71 29 72 31 73 28 74 32 75 12 76
REMARK SMILES IDX 13 77 14 78 15 80 16 81 26 82 17 83 25 84 18 85 19 86 20 87
REMARK SMILES IDX 21 88 24 89 22 90 23 91
REMARK H PARENT 3 7 80 25 54 36 7 66 14 79
REMARK Flexibility Score: inf
ROOT
ATOM      1  C   UNL     1       5.145  -1.322  -3.172  1.00  0.00     0.117 C 
ENDROOT
BRANCH   1   2
ATOM      2  C   UNL     1       4.400  -1.234  -1.834  1.00  0.00     0.042 C 
BRANCH   2   3
ATOM      3  C   UNL     1       3.683   0.089  -1.560  1.00  0.00     0.118 C 
BRANCH   3   4
ATOM      4  N   UNL     1       2.252   0.132  -1.367  1.00  0.00    -0.352 N 
ATOM      5  O   UNL     1       0.874   1.193   0.113  1.00  0.00    -0.269 OA
ATOM      6  C   UNL     1       1.685   0.298  -0.123  1.00  0.00     0.251 C 
ATOM      7  H   UNL     1       1.663   0.040  -2.150  1.00  0.00     0.163 HD
BRANCH   6   8
ATOM      8  C   UNL     1       1.843  -0.836   0.793  1.00  0.00     0.039 A 
ATOM      9  C   UNL     1       3.086  -1.425   1.036  1.00  0.00     0.014 A 
ATOM     10  C   UNL     1       0.648  -1.488   1.098  1.00  0.00     0.014 A 
ATOM     11  C   UNL     1       3.137  -2.771   1.321  1.00  0.00     0.010 A 
ATOM     12  C   UNL     1       0.699  -2.812   1.460  1.00  0.00     0.010 A 
ATOM     13  C   UNL     1       1.937  -3.466   1.463  1.00  0.00    -0.014 A 
BRANCH  13  14
ATOM     14  C   UNL     1       1.992  -4.888   1.768  1.00  0.00     0.031 A 
ATOM     15  C   UNL     1       2.592  -5.197   3.104  1.00  0.00     0.074 A 
ATOM     16  C   UNL     1       1.311  -5.751   0.987  1.00  0.00     0.049 A 
ATOM     17  N   UNL     1       3.398  -6.151   3.447  1.00  0.00    -0.248 NA
ATOM     18  C   UNL     1       2.321  -4.234   4.195  1.00  0.00     0.031 C 
ATOM     19  C   UNL     1       0.485  -5.434  -0.189  1.00  0.00     0.029 A 
ATOM     20  N   UNL     1       1.055  -7.070   1.176  1.00  0.00    -0.354 N 
ATOM     21  C   UNL     1       3.575  -6.016   4.826  1.00  0.00     0.074 A 
ATOM     22  C   UNL     1       3.019  -4.748   5.202  1.00  0.00     0.031 C 
ATOM     23  C   UNL     1      -0.382  -6.445  -0.407  1.00  0.00     0.029 A 
ATOM     24  C   UNL     1      -0.091  -7.513   0.530  1.00  0.00     0.049 A 
ATOM     25  H   UNL     1       1.627  -7.657   1.721  1.00  0.00     0.167 HD
ATOM     26  C   UNL     1       3.950  -7.057   5.616  1.00  0.00     0.037 A 
ATOM     27  C   UNL     1      -0.814  -8.615   0.846  1.00  0.00     0.037 A 
ATOM     28  C   UNL     1       4.660  -8.059   4.876  1.00  0.00     0.049 A 
ATOM     29  C   UNL     1       0.028  -9.464   1.726  1.00  0.00     0.074 A 
ATOM     30  C   UNL     1       5.841  -8.075   4.160  1.00  0.00     0.029 A 
ATOM     31  N   UNL     1       3.992  -9.201   4.514  1.00  0.00    -0.354 N 
ATOM     32  N   UNL     1       1.121 -10.060   1.337  1.00  0.00    -0.248 NA
ATOM     33  C   UNL     1      -0.099  -9.270   3.164  1.00  0.00     0.031 C 
ATOM     34  C   UNL     1       5.589  -8.941   3.057  1.00  0.00     0.029 A 
ATOM     35  C   UNL     1       4.289  -9.428   3.195  1.00  0.00     0.049 A 
ATOM     36  H   UNL     1       3.413  -9.751   5.090  1.00  0.00     0.167 HD
ATOM     37  C   UNL     1       1.990  -9.957   2.416  1.00  0.00     0.074 A 
ATOM     38  C   UNL     1       1.158  -9.527   3.537  1.00  0.00     0.031 C 
ATOM     39  C   UNL     1       3.344  -9.951   2.239  1.00  0.00     0.037 A 
BRANCH  26  40
ATOM     40  C   UNL     1       3.342  -7.314   6.973  1.00  0.00     0.057 A 
ATOM     41  C   UNL     1       3.881  -8.319   7.793  1.00  0.00     0.134 A 
ATOM     42  C   UNL     1       2.080  -6.824   7.376  1.00  0.00     0.134 A 
ATOM     43  F   UNL     1       5.067  -8.877   7.507  1.00  0.00    -0.206 F 
ATOM     44  C   UNL     1       3.183  -8.848   8.886  1.00  0.00     0.040 A 
ATOM     45  C   UNL     1       1.399  -7.309   8.494  1.00  0.00     0.040 A 
ATOM     46  F   UNL     1       1.395  -5.926   6.658  1.00  0.00    -0.206 F 
ATOM     47  C   UNL     1       1.934  -8.349   9.234  1.00  0.00     0.006 A 
ENDBRANCH  26  40
BRANCH  27  48
ATOM     48  C   UNL     1      -2.286  -8.770   0.751  1.00  0.00     0.057 A 
ATOM     49  C   UNL     1      -2.887 -10.034   0.739  1.00  0.00     0.134 A 
ATOM     50  C   UNL     1      -3.158  -7.675   0.904  1.00  0.00     0.134 A 
ATOM     51  F   UNL     1      -2.136 -11.141   0.654  1.00  0.00    -0.206 F 
ATOM     52  C   UNL     1      -4.274 -10.200   0.866  1.00  0.00     0.040 A 
ATOM     53  C   UNL     1      -4.543  -7.824   1.019  1.00  0.00     0.040 A 
ATOM     54  F   UNL     1      -2.689  -6.425   1.030  1.00  0.00    -0.206 F 
ATOM     55  C   UNL     1      -5.107  -9.093   1.009  1.00  0.00     0.006 A 
ENDBRANCH  27  48
BRANCH  39  56
ATOM     56  C   UNL     1       3.874 -10.241   0.862  1.00  0.00     0.057 A 
ATOM     57  C   UNL     1       3.674  -9.392  -0.237  1.00  0.00     0.134 A 
ATOM     58  C   UNL     1       4.761 -11.305   0.682  1.00  0.00     0.134 A 
ATOM     59  F   UNL     1       2.939  -8.281  -0.128  1.00  0.00    -0.206 F 
ATOM     60  C   UNL     1       4.289  -9.617  -1.472  1.00  0.00     0.040 A 
ATOM     61  C   UNL     1       5.411 -11.522  -0.537  1.00  0.00     0.040 A 
ATOM     62  F   UNL     1       5.058 -12.118   1.707  1.00  0.00    -0.206 F 
ATOM     63  C   UNL     1       5.168 -10.683  -1.622  1.00  0.00     0.006 A 
ENDBRANCH  39  56
ENDBRANCH  13  14
ENDBRANCH   6   8
ENDBRANCH   3   4
ENDBRANCH   2   3
ENDBRANCH   1   2
BRANCH   1  64
ATOM     64  N   UNL     1       6.495  -0.688  -3.267  1.00  0.00    -0.356 N 
ATOM     65  C   UNL     1       7.355  -0.220  -4.250  1.00  0.00     0.224 C 
ATOM     66  H   UNL     1       6.888  -0.568  -2.373  1.00  0.00     0.163 HD
ATOM     67  O   UNL     1       8.553  -0.134  -3.942  1.00  0.00    -0.275 OA
BRANCH  65  68
ATOM     68  C   UNL     1       7.004   0.099  -5.722  1.00  0.00     0.098 C 
ATOM     69  C   UNL     1       5.535  -0.047  -5.906  1.00  0.00     0.098 C 
ATOM     70  C   UNL     1       7.787  -0.926  -6.631  1.00  0.00     0.025 C 
ATOM     71  C   UNL     1       5.364  -1.683  -6.140  1.00  0.00     0.025 C 
ATOM     72  C   UNL     1       7.766  -2.213  -5.846  1.00  0.00    -0.027 C 
ATOM     73  C   UNL     1       7.076  -1.339  -7.954  1.00  0.00     0.009 C 
ATOM     74  C   UNL     1       6.508  -2.584  -5.533  1.00  0.00    -0.027 C 
ATOM     75  C   UNL     1       5.688  -1.969  -7.636  1.00  0.00     0.009 C 
BRANCH  69  76
ATOM     76  C   UNL     1       4.683   0.998  -4.985  1.00  0.00     0.228 C 
ATOM     77  O   UNL     1       3.444   0.948  -5.118  1.00  0.00    -0.274 OA
ATOM     78  N   UNL     1       5.096   2.015  -4.094  1.00  0.00    -0.326 N 
ATOM     79  H   UNL     1       4.452   2.759  -4.048  1.00  0.00     0.169 HD
BRANCH  78  80
ATOM     80  C   UNL     1       6.235   2.221  -3.235  1.00  0.00     0.041 A 
ATOM     81  C   UNL     1       6.178   1.925  -1.862  1.00  0.00     0.026 A 
ATOM     82  C   UNL     1       7.449   2.717  -3.670  1.00  0.00     0.026 A 
ATOM     83  C   UNL     1       7.322   1.506  -1.162  1.00  0.00     0.008 A 
ATOM     84  C   UNL     1       8.614   2.470  -2.914  1.00  0.00     0.008 A 
ATOM     85  C   UNL     1       8.560   1.650  -1.774  1.00  0.00    -0.026 A 
BRANCH  85  86
ATOM     86  C   UNL     1       9.732   0.741  -1.441  1.00  0.00     0.181 C 
BRANCH  86  87
ATOM     87  N   UNL     1      10.343   1.039  -0.171  1.00  0.00    -0.249 N 
ATOM     88  C   UNL     1      10.100   0.451   1.030  1.00  0.00     0.220 A 
ATOM     89  N   UNL     1      11.310   1.968  -0.072  1.00  0.00    -0.160 NA
ATOM     90  N   UNL     1      10.821   1.040   1.955  1.00  0.00    -0.224 NA
ATOM     91  C   UNL     1      11.536   1.962   1.243  1.00  0.00     0.246 A 
ENDBRANCH  86  87
ENDBRANCH  85  86
ENDBRANCH  78  80
ENDBRANCH  69  76
ENDBRANCH  65  68
ENDBRANCH   1  64
TORSDOF 14
