REMARK SMILES CC(C)[NH2+][C@]1(C(=O)NCCCNC(=O)c2ccc(-c3c4nc(c(-c5c(F)cccc5F)c5ccc([nH]5)c(-c5c(F)cccc5F)c5nc(c(-c6c(F)cccc6F)c6ccc3[nH]6)C=C5)C=C4)cc2)CCC[C@@H]1CCSc1cnccn1
REMARK SMILES IDX 9 1 8 2 6 3 7 4 5 6 69 7 72 8 70 9 71 10 4 11 2 14 1 15 3 16
REMARK SMILES IDX 73 17 74 18 75 19 76 20 77 21 81 22 78 23 80 24 79 25 10 26
REMARK SMILES IDX 11 27 12 28 13 29 14 31 15 32 16 33 68 34 17 35 67 36 18 37
REMARK SMILES IDX 19 38 20 39 61 40 21 41 66 42 60 43 62 44 22 45 65 46 59 47
REMARK SMILES IDX 58 48 23 50 49 51 32 52 48 53 33 54 36 55 47 56 63 57 34 58
REMARK SMILES IDX 35 59 46 61 64 62 37 63 24 64 25 65 30 66 26 67 27 68 29 69
REMARK SMILES IDX 31 70 28 71 50 72 51 73 56 74 52 75 53 76 55 77 57 78 54 79
REMARK SMILES IDX 38 80 39 81 44 82 40 83 41 84 43 85 45 86 42 87
REMARK H PARENT 8 5 4 12 4 13 12 30 62 49 36 60
REMARK Flexibility Score: inf
ROOT
ATOM      1  C   UNL     1      -0.059  -0.427  -3.308  1.00  0.00     0.118 C 
ENDROOT
BRANCH   1   2
ATOM      2  N   UNL     1      -0.090  -0.568  -1.861  1.00  0.00    -0.351 N 
ATOM      3  C   UNL     1      -0.566  -1.499  -0.991  1.00  0.00     0.281 C 
ATOM      4  O   UNL     1      -0.250  -1.290   0.187  1.00  0.00    -0.268 OA
ATOM      5  H   UNL     1       0.335   0.191  -1.401  1.00  0.00     0.163 HD
BRANCH   3   6
ATOM      6  C   UNL     1      -1.492  -2.698  -1.372  1.00  0.00     0.178 C 
ATOM      7  C   UNL     1      -1.080  -3.363  -2.703  1.00  0.00     0.079 C 
ATOM      8  C   UNL     1      -1.218  -3.905  -0.396  1.00  0.00     0.061 C 
ATOM      9  C   UNL     1      -1.428  -4.844  -2.630  1.00  0.00     0.008 C 
ATOM     10  C   UNL     1      -1.683  -5.149  -1.166  1.00  0.00     0.011 C 
BRANCH   6  11
ATOM     11  N   UNL     1      -2.940  -2.379  -1.451  1.00  0.00    -0.331 N 
ATOM     12  H   UNL     1      -3.253  -2.669  -2.377  1.00  0.00     0.347 HD
ATOM     13  H   UNL     1      -3.326  -2.869  -0.644  1.00  0.00     0.347 HD
BRANCH  11  14
ATOM     14  C   UNL     1      -3.411  -1.010  -1.259  1.00  0.00     0.176 C 
ATOM     15  C   UNL     1      -4.831  -0.950  -1.838  1.00  0.00     0.075 C 
ATOM     16  C   UNL     1      -3.460  -0.548   0.197  1.00  0.00     0.075 C 
ENDBRANCH  11  14
ENDBRANCH   6  11
BRANCH   8  17
ATOM     17  C   UNL     1      -1.831  -3.847   1.022  1.00  0.00     0.022 C 
BRANCH  17  18
ATOM     18  C   UNL     1      -1.485  -5.042   1.929  1.00  0.00     0.077 C 
BRANCH  18  19
ATOM     19  S   UNL     1       0.056  -4.882   2.903  1.00  0.00    -0.105 SA
BRANCH  19  20
ATOM     20  C   UNL     1       1.275  -5.023   1.628  1.00  0.00     0.114 A 
ATOM     21  C   UNL     1       1.486  -6.200   0.918  1.00  0.00     0.146 A 
ATOM     22  N   UNL     1       1.963  -3.897   1.329  1.00  0.00    -0.247 NA
ATOM     23  N   UNL     1       2.345  -6.290  -0.131  1.00  0.00    -0.260 NA
ATOM     24  C   UNL     1       2.821  -3.980   0.289  1.00  0.00     0.132 A 
ATOM     25  C   UNL     1       3.004  -5.149  -0.429  1.00  0.00     0.131 A 
ENDBRANCH  19  20
ENDBRANCH  18  19
ENDBRANCH  17  18
ENDBRANCH   8  17
ENDBRANCH   3   6
ENDBRANCH   1   2
BRANCH   1  26
ATOM     26  C   UNL     1      -1.067   0.570  -3.865  1.00  0.00     0.042 C 
BRANCH  26  27
ATOM     27  C   UNL     1      -0.962   1.962  -3.253  1.00  0.00     0.118 C 
BRANCH  27  28
ATOM     28  N   UNL     1       0.260   2.640  -3.662  1.00  0.00    -0.352 N 
ATOM     29  C   UNL     1       0.440   3.691  -4.523  1.00  0.00     0.251 C 
ATOM     30  H   UNL     1       1.086   2.289  -3.256  1.00  0.00     0.163 HD
ATOM     31  O   UNL     1       1.570   3.931  -4.950  1.00  0.00    -0.269 OA
BRANCH  29  32
ATOM     32  C   UNL     1      -0.693   4.547  -4.940  1.00  0.00     0.039 A 
ATOM     33  C   UNL     1      -0.713   5.051  -6.244  1.00  0.00     0.014 A 
ATOM     34  C   UNL     1      -1.682   4.937  -4.032  1.00  0.00     0.014 A 
ATOM     35  C   UNL     1      -1.726   5.930  -6.640  1.00  0.00     0.010 A 
ATOM     36  C   UNL     1      -2.734   5.750  -4.449  1.00  0.00     0.010 A 
ATOM     37  C   UNL     1      -2.748   6.284  -5.745  1.00  0.00    -0.014 A 
BRANCH  37  38
ATOM     38  C   UNL     1      -3.786   7.279  -6.119  1.00  0.00     0.031 A 
ATOM     39  C   UNL     1      -3.846   8.602  -5.402  1.00  0.00     0.074 A 
ATOM     40  C   UNL     1      -4.694   6.989  -7.070  1.00  0.00     0.049 A 
ATOM     41  N   UNL     1      -4.707   9.580  -5.533  1.00  0.00    -0.248 NA
ATOM     42  C   UNL     1      -2.817   8.846  -4.377  1.00  0.00     0.031 C 
ATOM     43  C   UNL     1      -4.772   5.730  -7.813  1.00  0.00     0.029 A 
ATOM     44  N   UNL     1      -5.730   7.736  -7.571  1.00  0.00    -0.354 N 
ATOM     45  C   UNL     1      -4.341  10.535  -4.593  1.00  0.00     0.074 A 
ATOM     46  C   UNL     1      -3.211  10.002  -3.865  1.00  0.00     0.031 C 
ATOM     47  C   UNL     1      -5.786   5.802  -8.692  1.00  0.00     0.029 A 
ATOM     48  C   UNL     1      -6.443   7.099  -8.556  1.00  0.00     0.049 A 
ATOM     49  H   UNL     1      -5.942   8.643  -7.253  1.00  0.00     0.167 HD
ATOM     50  C   UNL     1      -4.878  11.759  -4.371  1.00  0.00     0.037 A 
ATOM     51  C   UNL     1      -7.504   7.517  -9.272  1.00  0.00     0.037 A 
ATOM     52  C   UNL     1      -5.970  12.312  -5.126  1.00  0.00     0.049 A 
ATOM     53  C   UNL     1      -8.056   8.896  -9.038  1.00  0.00     0.074 A 
ATOM     54  C   UNL     1      -6.555  13.561  -5.011  1.00  0.00     0.029 A 
ATOM     55  N   UNL     1      -6.632  11.652  -6.149  1.00  0.00    -0.354 N 
ATOM     56  N   UNL     1      -7.670   9.806  -8.177  1.00  0.00    -0.248 NA
ATOM     57  C   UNL     1      -9.183   9.311  -9.886  1.00  0.00     0.031 C 
ATOM     58  C   UNL     1      -7.587  13.649  -5.953  1.00  0.00     0.029 A 
ATOM     59  C   UNL     1      -7.620  12.467  -6.676  1.00  0.00     0.049 A 
ATOM     60  H   UNL     1      -6.430  10.739  -6.457  1.00  0.00     0.167 HD
ATOM     61  C   UNL     1      -8.482  10.910  -8.402  1.00  0.00     0.074 A 
ATOM     62  C   UNL     1      -9.376  10.559  -9.485  1.00  0.00     0.031 C 
ATOM     63  C   UNL     1      -8.485  12.109  -7.769  1.00  0.00     0.037 A 
BRANCH  50  64
ATOM     64  C   UNL     1      -4.279  12.584  -3.270  1.00  0.00     0.057 A 
ATOM     65  C   UNL     1      -3.008  13.162  -3.389  1.00  0.00     0.134 A 
ATOM     66  C   UNL     1      -4.987  12.818  -2.084  1.00  0.00     0.134 A 
ATOM     67  F   UNL     1      -2.273  12.964  -4.493  1.00  0.00    -0.206 F 
ATOM     68  C   UNL     1      -2.450  13.918  -2.357  1.00  0.00     0.040 A 
ATOM     69  C   UNL     1      -4.450  13.595  -1.056  1.00  0.00     0.040 A 
ATOM     70  F   UNL     1      -6.211  12.299  -1.907  1.00  0.00    -0.206 F 
ATOM     71  C   UNL     1      -3.175  14.141  -1.188  1.00  0.00     0.006 A 
ENDBRANCH  50  64
BRANCH  51  72
ATOM     72  C   UNL     1      -8.087   6.638 -10.316  1.00  0.00     0.057 A 
ATOM     73  C   UNL     1      -7.906   6.920 -11.675  1.00  0.00     0.134 A 
ATOM     74  C   UNL     1      -8.839   5.506  -9.984  1.00  0.00     0.134 A 
ATOM     75  F   UNL     1      -7.208   8.002 -12.052  1.00  0.00    -0.206 F 
ATOM     76  C   UNL     1      -8.469   6.119 -12.669  1.00  0.00     0.040 A 
ATOM     77  C   UNL     1      -9.391   4.684 -10.968  1.00  0.00     0.040 A 
ATOM     78  F   UNL     1      -9.042   5.180  -8.700  1.00  0.00    -0.206 F 
ATOM     79  C   UNL     1      -9.211   4.994 -12.316  1.00  0.00     0.006 A 
ENDBRANCH  51  72
BRANCH  63  80
ATOM     80  C   UNL     1      -9.448  13.144  -8.267  1.00  0.00     0.057 A 
ATOM     81  C   UNL     1     -10.821  13.065  -8.004  1.00  0.00     0.134 A 
ATOM     82  C   UNL     1      -8.987  14.252  -8.989  1.00  0.00     0.134 A 
ATOM     83  F   UNL     1     -11.324  12.022  -7.327  1.00  0.00    -0.206 F 
ATOM     84  C   UNL     1     -11.706  14.041  -8.462  1.00  0.00     0.040 A 
ATOM     85  C   UNL     1      -9.860  15.245  -9.434  1.00  0.00     0.040 A 
ATOM     86  F   UNL     1      -7.682  14.389  -9.267  1.00  0.00    -0.206 F 
ATOM     87  C   UNL     1     -11.225  15.139  -9.175  1.00  0.00     0.006 A 
ENDBRANCH  63  80
ENDBRANCH  37  38
ENDBRANCH  29  32
ENDBRANCH  27  28
ENDBRANCH  26  27
ENDBRANCH   1  26
TORSDOF 16
