REMARK SMILES Cc1ccc(NC(=O)C[C@H]([NH2+]Cc2cccnc2)C(=O)NCCCNC(=O)c2ccc(-c3c4nc(c(-c5c(F)cccc5F)c5ccc([nH]5)c(-c5c(F)cccc5F)c5nc(c(-c6c(F)cccc6F)c6ccc3[nH]6)C=C5)C=C4)cc2)cc1Cl
REMARK SMILES IDX 22 1 21 2 19 3 20 4 10 6 9 7 7 8 6 9 8 11 5 12 1 13 2 14
REMARK SMILES IDX 3 15 83 16 4 17 82 18 84 19 11 20 12 23 13 24 14 25 18 26
REMARK SMILES IDX 15 27 17 28 16 29 23 30 24 31 25 32 26 33 27 35 28 36 29 37
REMARK SMILES IDX 81 38 30 39 80 40 31 41 32 42 33 43 74 44 34 45 79 46 73 47
REMARK SMILES IDX 75 48 35 49 78 50 72 51 71 52 36 54 62 55 45 56 61 57 46 58
REMARK SMILES IDX 49 59 60 60 76 61 47 62 48 63 59 65 77 66 50 67 37 68 38 69
REMARK SMILES IDX 43 70 39 71 40 72 42 73 44 74 41 75 63 76 64 77 69 78 65 79
REMARK SMILES IDX 66 80 68 81 70 82 67 83 51 84 52 85 57 86 53 87 54 88 56 89
REMARK SMILES IDX 58 90 55 91
REMARK H PARENT 21 5 6 10 11 21 11 22 25 34 75 53 49 64
REMARK Flexibility Score: inf
ROOT
ATOM      1  C   UNL     1       2.607  -1.943  -0.006  1.00  0.00     0.118 C 
ENDROOT
BRANCH   1   2
ATOM      2  N   UNL     1       2.179  -2.938  -0.997  1.00  0.00    -0.351 N 
ATOM      3  C   UNL     1       1.018  -3.331  -1.586  1.00  0.00     0.278 C 
ATOM      4  O   UNL     1       1.138  -4.285  -2.373  1.00  0.00    -0.268 OA
ATOM      5  H   UNL     1       2.943  -3.465  -1.327  1.00  0.00     0.163 HD
BRANCH   3   6
ATOM      6  C   UNL     1      -0.424  -2.772  -1.335  1.00  0.00     0.282 C 
BRANCH   6   7
ATOM      7  C   UNL     1      -0.524  -1.378  -0.762  1.00  0.00     0.175 C 
BRANCH   7   8
ATOM      8  C   UNL     1      -0.684  -0.915   0.678  1.00  0.00     0.230 C 
ATOM      9  N   UNL     1      -0.615  -1.534   1.870  1.00  0.00    -0.326 N 
ATOM     10  H   UNL     1      -0.807  -0.886   2.586  1.00  0.00     0.169 HD
ATOM     11  O   UNL     1      -0.924   0.306   0.796  1.00  0.00    -0.274 OA
BRANCH   9  12
ATOM     12  C   UNL     1      -0.362  -2.793   2.437  1.00  0.00     0.042 A 
ATOM     13  C   UNL     1       0.248  -6.589   4.465  1.00  0.00     0.046 C 
ATOM     14  C   UNL     1       0.073  -5.274   3.768  1.00  0.00    -0.032 A 
ATOM     15  C   UNL     1      -0.325  -4.136   4.478  1.00  0.00     0.007 A 
ATOM     16  C   UNL     1       0.272  -5.147   2.397  1.00  0.00     0.046 A 
ATOM     17  C   UNL     1      -0.540  -2.916   3.819  1.00  0.00     0.026 A 
ATOM     18  C   UNL     1       0.081  -3.915   1.766  1.00  0.00     0.047 A 
ATOM     19  Cl  UNL     1       0.780  -6.478   1.415  1.00  0.00    -0.084 Cl
ENDBRANCH   9  12
ENDBRANCH   7   8
ENDBRANCH   6   7
BRANCH   6  20
ATOM     20  N   UNL     1      -1.280  -3.842  -0.790  1.00  0.00    -0.332 N 
ATOM     21  H   UNL     1      -0.886  -4.109   0.112  1.00  0.00     0.347 HD
ATOM     22  H   UNL     1      -1.274  -4.555  -1.518  1.00  0.00     0.347 HD
BRANCH  20  23
ATOM     23  C   UNL     1      -2.695  -3.572  -0.575  1.00  0.00     0.299 C 
BRANCH  23  24
ATOM     24  C   UNL     1      -3.163  -4.218   0.709  1.00  0.00     0.024 A 
ATOM     25  C   UNL     1      -3.106  -5.601   0.914  1.00  0.00     0.013 A 
ATOM     26  C   UNL     1      -3.616  -3.445   1.778  1.00  0.00     0.120 A 
ATOM     27  C   UNL     1      -3.457  -6.137   2.152  1.00  0.00     0.021 A 
ATOM     28  N   UNL     1      -3.975  -3.937   2.989  1.00  0.00    -0.264 NA
ATOM     29  C   UNL     1      -3.873  -5.272   3.150  1.00  0.00     0.111 A 
ENDBRANCH  23  24
ENDBRANCH  20  23
ENDBRANCH   6  20
ENDBRANCH   3   6
ENDBRANCH   1   2
BRANCH   1  30
ATOM     30  C   UNL     1       2.848  -2.562   1.373  1.00  0.00     0.042 C 
BRANCH  30  31
ATOM     31  C   UNL     1       4.272  -2.547   1.909  1.00  0.00     0.118 C 
BRANCH  31  32
ATOM     32  N   UNL     1       4.669  -1.259   2.450  1.00  0.00    -0.352 N 
ATOM     33  C   UNL     1       5.016  -0.850   3.714  1.00  0.00     0.251 C 
ATOM     34  H   UNL     1       4.696  -0.539   1.779  1.00  0.00     0.163 HD
ATOM     35  O   UNL     1       5.182   0.365   3.886  1.00  0.00    -0.269 OA
BRANCH  33  36
ATOM     36  C   UNL     1       5.191  -1.762   4.882  1.00  0.00     0.039 A 
ATOM     37  C   UNL     1       5.033  -1.215   6.165  1.00  0.00     0.014 A 
ATOM     38  C   UNL     1       5.594  -3.095   4.783  1.00  0.00     0.014 A 
ATOM     39  C   UNL     1       5.252  -1.988   7.314  1.00  0.00     0.010 A 
ATOM     40  C   UNL     1       5.712  -3.897   5.927  1.00  0.00     0.010 A 
ATOM     41  C   UNL     1       5.575  -3.349   7.210  1.00  0.00    -0.014 A 
BRANCH  41  42
ATOM     42  C   UNL     1       5.821  -4.177   8.427  1.00  0.00     0.031 A 
ATOM     43  C   UNL     1       7.169  -4.816   8.665  1.00  0.00     0.074 A 
ATOM     44  C   UNL     1       4.831  -4.377   9.320  1.00  0.00     0.049 A 
ATOM     45  N   UNL     1       7.566  -5.568   9.664  1.00  0.00    -0.248 NA
ATOM     46  C   UNL     1       8.197  -4.608   7.635  1.00  0.00     0.031 C 
ATOM     47  C   UNL     1       3.464  -3.869   9.195  1.00  0.00     0.029 A 
ATOM     48  N   UNL     1       4.823  -5.058  10.513  1.00  0.00    -0.354 N 
ATOM     49  C   UNL     1       8.875  -5.936   9.369  1.00  0.00     0.074 A 
ATOM     50  C   UNL     1       9.186  -5.372   8.074  1.00  0.00     0.031 C 
ATOM     51  C   UNL     1       2.763  -4.221  10.285  1.00  0.00     0.029 A 
ATOM     52  C   UNL     1       3.618  -5.004  11.172  1.00  0.00     0.049 A 
ATOM     53  H   UNL     1       5.607  -5.540  10.864  1.00  0.00     0.167 HD
ATOM     54  C   UNL     1       9.752  -6.651  10.116  1.00  0.00     0.037 A 
ATOM     55  C   UNL     1       3.245  -5.515  12.361  1.00  0.00     0.037 A 
ATOM     56  C   UNL     1       9.464  -7.180  11.424  1.00  0.00     0.049 A 
ATOM     57  C   UNL     1       4.246  -6.272  13.190  1.00  0.00     0.074 A 
ATOM     58  C   UNL     1      10.306  -7.869  12.282  1.00  0.00     0.029 A 
ATOM     59  N   UNL     1       8.241  -7.074  12.067  1.00  0.00    -0.354 N 
ATOM     60  N   UNL     1       5.497  -6.554  12.923  1.00  0.00    -0.248 NA
ATOM     61  C   UNL     1       3.784  -6.767  14.495  1.00  0.00     0.031 C 
ATOM     62  C   UNL     1       9.582  -8.208  13.430  1.00  0.00     0.029 A 
ATOM     63  C   UNL     1       8.302  -7.692  13.306  1.00  0.00     0.049 A 
ATOM     64  H   UNL     1       7.446  -6.626  11.698  1.00  0.00     0.167 HD
ATOM     65  C   UNL     1       5.980  -7.233  14.035  1.00  0.00     0.074 A 
ATOM     66  C   UNL     1       4.891  -7.304  14.987  1.00  0.00     0.031 C 
ATOM     67  C   UNL     1       7.214  -7.752  14.248  1.00  0.00     0.037 A 
BRANCH  54  68
ATOM     68  C   UNL     1      11.118  -6.893   9.537  1.00  0.00     0.057 A 
ATOM     69  C   UNL     1      12.055  -5.861   9.397  1.00  0.00     0.134 A 
ATOM     70  C   UNL     1      11.514  -8.179   9.145  1.00  0.00     0.134 A 
ATOM     71  F   UNL     1      11.738  -4.604   9.743  1.00  0.00    -0.206 F 
ATOM     72  C   UNL     1      13.323  -6.091   8.860  1.00  0.00     0.040 A 
ATOM     73  C   UNL     1      12.789  -8.427   8.633  1.00  0.00     0.040 A 
ATOM     74  F   UNL     1      10.671  -9.216   9.261  1.00  0.00    -0.206 F 
ATOM     75  C   UNL     1      13.695  -7.379   8.481  1.00  0.00     0.006 A 
ENDBRANCH  54  68
BRANCH  55  76
ATOM     76  C   UNL     1       1.867  -5.289  12.867  1.00  0.00     0.057 A 
ATOM     77  C   UNL     1       1.627  -4.434  13.949  1.00  0.00     0.134 A 
ATOM     78  C   UNL     1       0.761  -5.926  12.291  1.00  0.00     0.134 A 
ATOM     79  F   UNL     1       2.648  -3.810  14.555  1.00  0.00    -0.206 F 
ATOM     80  C   UNL     1       0.341  -4.234  14.454  1.00  0.00     0.040 A 
ATOM     81  C   UNL     1      -0.533  -5.717  12.770  1.00  0.00     0.040 A 
ATOM     82  F   UNL     1       0.923  -6.752  11.247  1.00  0.00    -0.206 F 
ATOM     83  C   UNL     1      -0.745  -4.874  13.860  1.00  0.00     0.006 A 
ENDBRANCH  55  76
BRANCH  67  84
ATOM     84  C   UNL     1       7.460  -8.408  15.575  1.00  0.00     0.057 A 
ATOM     85  C   UNL     1       6.890  -9.643  15.908  1.00  0.00     0.134 A 
ATOM     86  C   UNL     1       8.287  -7.799  16.528  1.00  0.00     0.134 A 
ATOM     87  F   UNL     1       6.079 -10.273  15.044  1.00  0.00    -0.206 F 
ATOM     88  C   UNL     1       7.107 -10.234  17.154  1.00  0.00     0.040 A 
ATOM     89  C   UNL     1       8.532  -8.392  17.767  1.00  0.00     0.040 A 
ATOM     90  F   UNL     1       8.871  -6.619  16.269  1.00  0.00    -0.206 F 
ATOM     91  C   UNL     1       7.933  -9.609  18.087  1.00  0.00     0.006 A 
ENDBRANCH  67  84
ENDBRANCH  41  42
ENDBRANCH  33  36
ENDBRANCH  31  32
ENDBRANCH  30  31
ENDBRANCH   1  30
TORSDOF 16
