REMARK SMILES C[N@H+]1CCO[C@H](c2noc(-c3ccccc3C(=O)NCCCNC(=O)c3ccc(-c4c5nc(c(-c6c(F)cccc6F)c6ccc([nH]6)c(-c6c(F)cccc6F)c6nc(c(-c7c(F)cccc7F)c7ccc4[nH]7)C=C6)C=C5)cc3)n2)C1
REMARK SMILES IDX 21 1 20 2 19 3 17 4 18 5 16 7 11 8 12 9 13 10 15 11 14 12
REMARK SMILES IDX 10 13 7 14 8 15 80 16 9 17 6 18 1 19 2 20 3 21 81 22 4 24
REMARK SMILES IDX 5 25 22 26 23 27 24 28 25 30 26 31 27 32 79 33 28 34 78 35
REMARK SMILES IDX 29 36 30 37 31 38 72 39 32 40 77 41 71 42 73 43 33 44 76 45
REMARK SMILES IDX 70 46 69 47 34 49 60 50 43 51 59 52 44 53 47 54 58 55 74 56
REMARK SMILES IDX 45 57 46 58 57 60 75 61 48 62 35 63 36 64 41 65 37 66 38 67
REMARK SMILES IDX 40 68 42 69 39 70 61 71 62 72 67 73 63 74 64 75 66 76 68 77
REMARK SMILES IDX 65 78 49 79 50 80 55 81 51 82 52 83 54 84 56 85 53 86
REMARK H PARENT 19 6 2 23 23 29 73 48 47 59
REMARK Flexibility Score: inf
ROOT
ATOM      1  C   UNL     1       2.329   4.506  -3.849  1.00  0.00     0.042 C 
ENDROOT
BRANCH   1   2
ATOM      2  C   UNL     1       2.073   3.110  -4.405  1.00  0.00     0.118 C 
BRANCH   2   3
ATOM      3  N   UNL     1       2.402   2.923  -5.794  1.00  0.00    -0.352 N 
ATOM      4  C   UNL     1       3.500   2.515  -6.492  1.00  0.00     0.252 C 
ATOM      5  O   UNL     1       3.248   2.174  -7.656  1.00  0.00    -0.269 OA
ATOM      6  H   UNL     1       1.647   3.144  -6.387  1.00  0.00     0.163 HD
BRANCH   4   7
ATOM      7  C   UNL     1       4.943   2.536  -6.083  1.00  0.00     0.052 A 
ATOM      8  C   UNL     1       5.576   2.303  -4.849  1.00  0.00     0.053 A 
ATOM      9  C   UNL     1       6.998   2.318  -4.792  1.00  0.00     0.015 A 
ATOM     10  C   UNL     1       7.790   2.561  -5.911  1.00  0.00     0.001 A 
ATOM     11  C   UNL     1       5.786   2.795  -7.202  1.00  0.00     0.014 A 
ATOM     12  C   UNL     1       7.180   2.808  -7.124  1.00  0.00     0.001 A 
BRANCH   8  13
ATOM     13  C   UNL     1       4.943   2.051  -3.571  1.00  0.00     0.258 A 
ATOM     14  C   UNL     1       3.955   1.457  -1.812  1.00  0.00     0.206 A 
ATOM     15  N   UNL     1       4.561   2.602  -1.459  1.00  0.00    -0.059 NA
ATOM     16  N   UNL     1       4.241   1.042  -3.103  1.00  0.00    -0.189 NA
ATOM     17  O   UNL     1       5.202   3.004  -2.623  1.00  0.00    -0.334 OA
BRANCH  14  18
ATOM     18  C   UNL     1       2.972   0.771  -0.897  1.00  0.00     0.245 C 
ATOM     19  C   UNL     1       1.423  -1.865  -0.002  1.00  0.00     0.332 C 
ATOM     20  N   UNL     1       0.939  -0.807  -0.885  1.00  0.00    -0.333 N 
ATOM     21  C   UNL     1       0.249   0.262  -0.137  1.00  0.00     0.290 C 
ATOM     22  C   UNL     1       2.036  -0.196  -1.678  1.00  0.00     0.303 C 
ATOM     23  H   UNL     1       0.279  -1.259  -1.518  1.00  0.00     0.348 HD
ATOM     24  C   UNL     1       1.213   1.137   0.673  1.00  0.00     0.222 C 
ATOM     25  O   UNL     1       2.181   1.755  -0.178  1.00  0.00    -0.358 OA
ENDBRANCH  14  18
ENDBRANCH   8  13
ENDBRANCH   4   7
ENDBRANCH   2   3
ENDBRANCH   1   2
BRANCH   1  26
ATOM     26  C   UNL     1       1.123   5.441  -3.987  1.00  0.00     0.118 C 
BRANCH  26  27
ATOM     27  N   UNL     1      -0.102   4.811  -3.513  1.00  0.00    -0.352 N 
ATOM     28  C   UNL     1      -0.408   4.497  -2.212  1.00  0.00     0.251 C 
ATOM     29  H   UNL     1      -0.778   4.588  -4.194  1.00  0.00     0.163 HD
ATOM     30  O   UNL     1      -0.979   3.442  -1.955  1.00  0.00    -0.269 OA
BRANCH  28  31
ATOM     31  C   UNL     1      -0.153   5.474  -1.134  1.00  0.00     0.039 A 
ATOM     32  C   UNL     1       0.130   5.010   0.155  1.00  0.00     0.014 A 
ATOM     33  C   UNL     1      -0.426   6.826  -1.348  1.00  0.00     0.014 A 
ATOM     34  C   UNL     1       0.086   5.884   1.244  1.00  0.00     0.010 A 
ATOM     35  C   UNL     1      -0.440   7.704  -0.268  1.00  0.00     0.010 A 
ATOM     36  C   UNL     1      -0.228   7.232   1.039  1.00  0.00    -0.014 A 
BRANCH  36  37
ATOM     37  C   UNL     1      -0.460   8.177   2.157  1.00  0.00     0.031 A 
ATOM     38  C   UNL     1      -1.837   8.748   2.337  1.00  0.00     0.074 A 
ATOM     39  C   UNL     1       0.559   8.608   2.918  1.00  0.00     0.049 A 
ATOM     40  N   UNL     1      -2.208   9.855   2.924  1.00  0.00    -0.248 NA
ATOM     41  C   UNL     1      -2.940   7.982   1.734  1.00  0.00     0.031 C 
ATOM     42  C   UNL     1       1.928   8.099   2.874  1.00  0.00     0.029 A 
ATOM     43  N   UNL     1       0.600   9.616   3.848  1.00  0.00    -0.354 N 
ATOM     44  C   UNL     1      -3.572   9.966   2.683  1.00  0.00     0.074 A 
ATOM     45  C   UNL     1      -3.969   8.795   1.931  1.00  0.00     0.031 C 
ATOM     46  C   UNL     1       2.686   8.818   3.719  1.00  0.00     0.029 A 
ATOM     47  C   UNL     1       1.868   9.875   4.306  1.00  0.00     0.049 A 
ATOM     48  H   UNL     1      -0.199  10.103   4.155  1.00  0.00     0.167 HD
ATOM     49  C   UNL     1      -4.403  10.975   3.037  1.00  0.00     0.037 A 
ATOM     50  C   UNL     1       2.326  10.890   5.061  1.00  0.00     0.037 A 
ATOM     51  C   UNL     1      -3.997  12.100   3.838  1.00  0.00     0.049 A 
ATOM     52  C   UNL     1       1.374  11.965   5.502  1.00  0.00     0.074 A 
ATOM     53  C   UNL     1      -4.749  13.181   4.263  1.00  0.00     0.029 A 
ATOM     54  N   UNL     1      -2.723  12.267   4.361  1.00  0.00    -0.354 N 
ATOM     55  N   UNL     1       0.107  12.120   5.200  1.00  0.00    -0.248 NA
ATOM     56  C   UNL     1       1.917  13.013   6.377  1.00  0.00     0.031 C 
ATOM     57  C   UNL     1      -3.926  14.005   5.041  1.00  0.00     0.029 A 
ATOM     58  C   UNL     1      -2.671  13.422   5.120  1.00  0.00     0.049 A 
ATOM     59  H   UNL     1      -1.967  11.654   4.213  1.00  0.00     0.167 HD
ATOM     60  C   UNL     1      -0.301  13.276   5.851  1.00  0.00     0.074 A 
ATOM     61  C   UNL     1       0.849  13.773   6.579  1.00  0.00     0.031 C 
ATOM     62  C   UNL     1      -1.514  13.880   5.842  1.00  0.00     0.037 A 
BRANCH  49  63
ATOM     63  C   UNL     1      -5.810  10.930   2.522  1.00  0.00     0.057 A 
ATOM     64  C   UNL     1      -6.770  10.056   3.043  1.00  0.00     0.134 A 
ATOM     65  C   UNL     1      -6.213  11.796   1.496  1.00  0.00     0.134 A 
ATOM     66  F   UNL     1      -6.445   9.190   4.014  1.00  0.00    -0.206 F 
ATOM     67  C   UNL     1      -8.077  10.032   2.551  1.00  0.00     0.040 A 
ATOM     68  C   UNL     1      -7.521  11.796   1.010  1.00  0.00     0.040 A 
ATOM     69  F   UNL     1      -5.341  12.659   0.952  1.00  0.00    -0.206 F 
ATOM     70  C   UNL     1      -8.457  10.908   1.535  1.00  0.00     0.006 A 
ENDBRANCH  49  63
BRANCH  50  71
ATOM     71  C   UNL     1       3.765  10.954   5.408  1.00  0.00     0.057 A 
ATOM     72  C   UNL     1       4.205  10.655   6.702  1.00  0.00     0.134 A 
ATOM     73  C   UNL     1       4.734  11.289   4.455  1.00  0.00     0.134 A 
ATOM     74  F   UNL     1       3.320  10.348   7.661  1.00  0.00    -0.206 F 
ATOM     75  C   UNL     1       5.559  10.692   7.038  1.00  0.00     0.040 A 
ATOM     76  C   UNL     1       6.093  11.309   4.771  1.00  0.00     0.040 A 
ATOM     77  F   UNL     1       4.373  11.580   3.196  1.00  0.00    -0.206 F 
ATOM     78  C   UNL     1       6.508  11.013   6.068  1.00  0.00     0.006 A 
ENDBRANCH  50  71
BRANCH  62  79
ATOM     79  C   UNL     1      -1.657  15.116   6.674  1.00  0.00     0.057 A 
ATOM     80  C   UNL     1      -1.172  16.354   6.239  1.00  0.00     0.134 A 
ATOM     81  C   UNL     1      -2.307  15.066   7.913  1.00  0.00     0.134 A 
ATOM     82  F   UNL     1      -0.530  16.459   5.066  1.00  0.00    -0.206 F 
ATOM     83  C   UNL     1      -1.312  17.502   7.019  1.00  0.00     0.040 A 
ATOM     84  C   UNL     1      -2.466  16.209   8.695  1.00  0.00     0.040 A 
ATOM     85  F   UNL     1      -2.796  13.907   8.379  1.00  0.00    -0.206 F 
ATOM     86  C   UNL     1      -1.964  17.431   8.250  1.00  0.00     0.006 A 
ENDBRANCH  62  79
ENDBRANCH  36  37
ENDBRANCH  28  31
ENDBRANCH  26  27
ENDBRANCH   1  26
TORSDOF 12
