REMARK SMILES C=CC[N@@H+](CC(=O)NCCCNC(=O)c1ccc(-c2c3nc(c(-c4c(F)cccc4F)c4ccc([nH]4)c(-c4c(F)cccc4F)c4nc(c(-c5c(F)cccc5F)c5ccc2[nH]5)C=C4)C=C3)cc1)C1CCCCC1
REMARK SMILES IDX 9 1 8 2 6 3 7 4 5 6 4 7 3 9 2 10 1 11 69 12 70 13 74 14
REMARK SMILES IDX 71 15 73 16 72 17 10 18 11 19 12 20 13 21 14 23 15 24 16 25
REMARK SMILES IDX 68 26 17 27 67 28 18 29 19 30 20 31 61 32 21 33 66 34 60 35
REMARK SMILES IDX 62 36 22 37 65 38 59 39 58 40 23 42 49 43 32 44 48 45 33 46
REMARK SMILES IDX 36 47 47 48 63 49 34 50 35 51 46 53 64 54 37 55 24 56 25 57
REMARK SMILES IDX 30 58 26 59 27 60 29 61 31 62 28 63 50 64 51 65 56 66 52 67
REMARK SMILES IDX 53 68 55 69 57 70 54 71 38 72 39 73 44 74 40 75 41 76 43 77
REMARK SMILES IDX 45 78 42 79
REMARK H PARENT 8 5 4 8 12 22 62 41 36 52
REMARK Flexibility Score: inf
ROOT
ATOM      1  C   UNL     1      -3.004  -1.264  -0.620  1.00  0.00     0.118 C 
ENDROOT
BRANCH   1   2
ATOM      2  N   UNL     1      -3.770  -0.158  -0.078  1.00  0.00    -0.351 N 
ATOM      3  C   UNL     1      -3.868   1.149  -0.452  1.00  0.00     0.275 C 
ATOM      4  O   UNL     1      -4.758   1.806   0.104  1.00  0.00    -0.269 OA
ATOM      5  H   UNL     1      -4.320  -0.394   0.704  1.00  0.00     0.163 HD
BRANCH   3   6
ATOM      6  C   UNL     1      -2.997   1.793  -1.538  1.00  0.00     0.364 C 
BRANCH   6   7
ATOM      7  N   UNL     1      -1.595   2.127  -1.204  1.00  0.00    -0.321 N 
ATOM      8  H   UNL     1      -1.401   2.863  -1.883  1.00  0.00     0.349 HD
BRANCH   7   9
ATOM      9  C   UNL     1      -0.656   1.062  -1.517  1.00  0.00     0.291 C 
BRANCH   9  10
ATOM     10  C   UNL     1       0.801   1.417  -1.478  1.00  0.00     0.025 C 
ATOM     11  C   UNL     1       1.679   0.826  -0.653  1.00  0.00     0.010 C 
ENDBRANCH   9  10
ENDBRANCH   7   9
BRANCH   7  12
ATOM     12  C   UNL     1      -1.299   2.977  -0.040  1.00  0.00     0.184 C 
ATOM     13  C   UNL     1      -1.732   4.432  -0.310  1.00  0.00     0.065 C 
ATOM     14  C   UNL     1      -1.804   2.509   1.336  1.00  0.00     0.065 C 
ATOM     15  C   UNL     1      -1.273   5.364   0.816  1.00  0.00     0.006 C 
ATOM     16  C   UNL     1      -1.351   3.449   2.456  1.00  0.00     0.006 C 
ATOM     17  C   UNL     1      -1.771   4.890   2.177  1.00  0.00     0.000 C 
ENDBRANCH   7  12
ENDBRANCH   6   7
ENDBRANCH   3   6
ENDBRANCH   1   2
BRANCH   1  18
ATOM     18  C   UNL     1      -1.883  -1.719   0.320  1.00  0.00     0.042 C 
BRANCH  18  19
ATOM     19  C   UNL     1      -2.344  -2.428   1.585  1.00  0.00     0.118 C 
BRANCH  19  20
ATOM     20  N   UNL     1      -2.699  -3.817   1.360  1.00  0.00    -0.352 N 
ATOM     21  C   UNL     1      -2.006  -4.987   1.556  1.00  0.00     0.251 C 
ATOM     22  H   UNL     1      -3.606  -3.945   1.000  1.00  0.00     0.163 HD
ATOM     23  O   UNL     1      -2.491  -6.027   1.113  1.00  0.00    -0.269 OA
BRANCH  21  24
ATOM     24  C   UNL     1      -0.695  -5.048   2.254  1.00  0.00     0.039 A 
ATOM     25  C   UNL     1       0.227  -6.019   1.836  1.00  0.00     0.014 A 
ATOM     26  C   UNL     1      -0.381  -4.260   3.362  1.00  0.00     0.014 A 
ATOM     27  C   UNL     1       1.456  -6.166   2.490  1.00  0.00     0.010 A 
ATOM     28  C   UNL     1       0.882  -4.344   3.960  1.00  0.00     0.010 A 
ATOM     29  C   UNL     1       1.809  -5.311   3.545  1.00  0.00    -0.014 A 
BRANCH  29  30
ATOM     30  C   UNL     1       3.118  -5.443   4.243  1.00  0.00     0.031 A 
ATOM     31  C   UNL     1       3.171  -5.801   5.707  1.00  0.00     0.074 A 
ATOM     32  C   UNL     1       4.264  -5.198   3.579  1.00  0.00     0.049 A 
ATOM     33  N   UNL     1       4.210  -5.897   6.500  1.00  0.00    -0.248 NA
ATOM     34  C   UNL     1       1.885  -6.058   6.373  1.00  0.00     0.031 C 
ATOM     35  C   UNL     1       4.362  -4.803   2.174  1.00  0.00     0.029 A 
ATOM     36  N   UNL     1       5.570  -5.237   4.004  1.00  0.00    -0.354 N 
ATOM     37  C   UNL     1       3.701  -6.197   7.758  1.00  0.00     0.074 A 
ATOM     38  C   UNL     1       2.260  -6.224   7.633  1.00  0.00     0.031 C 
ATOM     39  C   UNL     1       5.656  -4.658   1.846  1.00  0.00     0.029 A 
ATOM     40  C   UNL     1       6.479  -4.917   3.024  1.00  0.00     0.049 A 
ATOM     41  H   UNL     1       5.831  -5.473   4.924  1.00  0.00     0.167 HD
ATOM     42  C   UNL     1       4.370  -6.449   8.909  1.00  0.00     0.037 A 
ATOM     43  C   UNL     1       7.822  -4.835   3.068  1.00  0.00     0.037 A 
ATOM     44  C   UNL     1       5.804  -6.468   9.031  1.00  0.00     0.049 A 
ATOM     45  C   UNL     1       8.544  -5.138   4.350  1.00  0.00     0.074 A 
ATOM     46  C   UNL     1       6.572  -6.785  10.138  1.00  0.00     0.029 A 
ATOM     47  N   UNL     1       6.687  -6.161   8.007  1.00  0.00    -0.354 N 
ATOM     48  N   UNL     1       8.050  -5.477   5.516  1.00  0.00    -0.248 NA
ATOM     49  C   UNL     1      10.012  -5.052   4.322  1.00  0.00     0.031 C 
ATOM     50  C   UNL     1       7.920  -6.637   9.794  1.00  0.00     0.029 A 
ATOM     51  C   UNL     1       7.992  -6.264   8.462  1.00  0.00     0.049 A 
ATOM     52  H   UNL     1       6.426  -5.907   7.093  1.00  0.00     0.167 HD
ATOM     53  C   UNL     1       9.143  -5.666   6.351  1.00  0.00     0.074 A 
ATOM     54  C   UNL     1      10.328  -5.416   5.557  1.00  0.00     0.031 C 
ATOM     55  C   UNL     1       9.162  -6.016   7.660  1.00  0.00     0.037 A 
BRANCH  42  56
ATOM     56  C   UNL     1       3.551  -6.730  10.136  1.00  0.00     0.057 A 
ATOM     57  C   UNL     1       2.843  -7.929  10.293  1.00  0.00     0.134 A 
ATOM     58  C   UNL     1       3.491  -5.802  11.183  1.00  0.00     0.134 A 
ATOM     59  F   UNL     1       2.851  -8.854   9.322  1.00  0.00    -0.206 F 
ATOM     60  C   UNL     1       2.080  -8.182  11.434  1.00  0.00     0.040 A 
ATOM     61  C   UNL     1       2.752  -6.055  12.340  1.00  0.00     0.040 A 
ATOM     62  F   UNL     1       4.152  -4.638  11.101  1.00  0.00    -0.206 F 
ATOM     63  C   UNL     1       2.037  -7.245  12.464  1.00  0.00     0.006 A 
ENDBRANCH  42  56
BRANCH  43  64
ATOM     64  C   UNL     1       8.578  -4.474   1.843  1.00  0.00     0.057 A 
ATOM     65  C   UNL     1       9.325  -5.433   1.150  1.00  0.00     0.134 A 
ATOM     66  C   UNL     1       8.568  -3.170   1.335  1.00  0.00     0.134 A 
ATOM     67  F   UNL     1       9.388  -6.694   1.602  1.00  0.00    -0.206 F 
ATOM     68  C   UNL     1      10.046  -5.107   0.000  1.00  0.00     0.040 A 
ATOM     69  C   UNL     1       9.267  -2.835   0.174  1.00  0.00     0.040 A 
ATOM     70  F   UNL     1       7.866  -2.208   1.952  1.00  0.00    -0.206 F 
ATOM     71  C   UNL     1      10.012  -3.804  -0.494  1.00  0.00     0.006 A 
ENDBRANCH  43  64
BRANCH  55  72
ATOM     72  C   UNL     1      10.505  -6.174   8.309  1.00  0.00     0.057 A 
ATOM     73  C   UNL     1      11.293  -5.069   8.651  1.00  0.00     0.134 A 
ATOM     74  C   UNL     1      10.997  -7.446   8.629  1.00  0.00     0.134 A 
ATOM     75  F   UNL     1      10.882  -3.825   8.359  1.00  0.00    -0.206 F 
ATOM     76  C   UNL     1      12.533  -5.223   9.273  1.00  0.00     0.040 A 
ATOM     77  C   UNL     1      12.226  -7.611   9.270  1.00  0.00     0.040 A 
ATOM     78  F   UNL     1      10.288  -8.545   8.334  1.00  0.00    -0.206 F 
ATOM     79  C   UNL     1      12.999  -6.497   9.589  1.00  0.00     0.006 A 
ENDBRANCH  55  72
ENDBRANCH  29  30
ENDBRANCH  21  24
ENDBRANCH  19  20
ENDBRANCH  18  19
ENDBRANCH   1  18
TORSDOF 14
