REMARK SMILES CC[C@@](C)(NC(=O)Nc1ccccc1C#N)C(=O)NCCCNC(=O)c1ccc(-c2c3nc(c(-c4c(F)cccc4F)c4ccc([nH]4)c(-c4c(F)cccc4F)c4nc(c(-c5c(F)cccc5F)c5ccc2[nH]5)C=C4)C=C3)cc1
REMARK SMILES IDX 20 1 19 2 17 3 18 4 3 6 4 7 2 8 1 9 5 10 6 11 7 13 8 14 9 16
REMARK SMILES IDX 10 17 14 18 11 19 13 20 12 21 15 22 16 23 21 24 22 25 23 26
REMARK SMILES IDX 24 27 25 29 26 30 27 31 79 32 28 33 78 34 29 35 30 36 31 37
REMARK SMILES IDX 72 38 32 39 77 40 71 41 73 42 33 43 76 44 70 45 69 46 34 48
REMARK SMILES IDX 60 49 43 50 59 51 44 52 47 53 58 54 74 55 45 56 46 57 57 59
REMARK SMILES IDX 75 60 48 61 35 62 36 63 41 64 37 65 38 66 40 67 42 68 39 69
REMARK SMILES IDX 61 70 62 71 67 72 63 73 64 74 66 75 68 76 65 77 49 78 50 79
REMARK SMILES IDX 55 80 51 81 52 82 54 83 56 84 53 85
REMARK H PARENT 19 5 5 12 8 15 23 28 73 47 47 58
REMARK Flexibility Score: inf
ROOT
ATOM      1  C   UNL     1       1.396   3.566   4.350  1.00  0.00     0.117 C 
ENDROOT
BRANCH   1   2
ATOM      2  N   UNL     1       1.905   2.868   3.178  1.00  0.00    -0.354 N 
ATOM      3  C   UNL     1       1.278   2.322   2.063  1.00  0.00     0.245 C 
ATOM      4  O   UNL     1       1.382   2.818   0.945  1.00  0.00    -0.272 OA
ATOM      5  H   UNL     1       2.884   2.761   3.175  1.00  0.00     0.163 HD
BRANCH   3   6
ATOM      6  C   UNL     1       0.451   1.055   2.344  1.00  0.00     0.117 C 
ATOM      7  C   UNL     1      -0.970   1.694   2.384  1.00  0.00     0.045 C 
BRANCH   6   8
ATOM      8  C   UNL     1       0.351  -0.180   1.418  1.00  0.00     0.035 C 
ATOM      9  C   UNL     1       0.666  -0.036  -0.051  1.00  0.00     0.007 C 
ENDBRANCH   6   8
BRANCH   6  10
ATOM     10  N   UNL     1       0.924   0.553   3.646  1.00  0.00    -0.324 N 
ATOM     11  C   UNL     1       2.114   0.141   4.108  1.00  0.00     0.320 C 
ATOM     12  H   UNL     1       0.211   0.510   4.324  1.00  0.00     0.166 HD
ATOM     13  O   UNL     1       2.088  -0.403   5.220  1.00  0.00    -0.248 OA
ATOM     14  N   UNL     1       3.358   0.338   3.590  1.00  0.00    -0.307 N 
ATOM     15  H   UNL     1       4.018   0.339   4.320  1.00  0.00     0.171 HD
BRANCH  14  16
ATOM     16  C   UNL     1       4.036   0.546   2.336  1.00  0.00     0.060 A 
ATOM     17  C   UNL     1       4.846  -0.551   1.982  1.00  0.00     0.027 A 
ATOM     18  C   UNL     1       4.277   1.722   1.569  1.00  0.00     0.076 A 
ATOM     19  C   UNL     1       5.631  -0.569   0.821  1.00  0.00     0.002 A 
ATOM     20  C   UNL     1       4.932   1.647   0.321  1.00  0.00     0.021 A 
ATOM     21  C   UNL     1       5.606   0.501  -0.056  1.00  0.00     0.002 A 
BRANCH  18  22
ATOM     22  C   UNL     1       4.242   3.097   2.017  1.00  0.00     0.101 C 
ATOM     23  N   UNL     1       4.316   4.213   2.317  1.00  0.00    -0.192 NA
ENDBRANCH  18  22
ENDBRANCH  14  16
ENDBRANCH   6  10
ENDBRANCH   3   6
ENDBRANCH   1   2
BRANCH   1  24
ATOM     24  C   UNL     1       2.215   3.273   5.635  1.00  0.00     0.042 C 
BRANCH  24  25
ATOM     25  C   UNL     1       3.750   3.261   5.578  1.00  0.00     0.118 C 
BRANCH  25  26
ATOM     26  N   UNL     1       4.359   4.517   5.195  1.00  0.00    -0.352 N 
ATOM     27  C   UNL     1       5.229   5.339   5.867  1.00  0.00     0.251 C 
ATOM     28  H   UNL     1       4.105   4.836   4.299  1.00  0.00     0.163 HD
ATOM     29  O   UNL     1       5.596   6.398   5.365  1.00  0.00    -0.269 OA
BRANCH  27  30
ATOM     30  C   UNL     1       5.707   4.997   7.225  1.00  0.00     0.039 A 
ATOM     31  C   UNL     1       5.641   5.989   8.206  1.00  0.00     0.014 A 
ATOM     32  C   UNL     1       6.257   3.750   7.536  1.00  0.00     0.014 A 
ATOM     33  C   UNL     1       6.056   5.712   9.510  1.00  0.00     0.010 A 
ATOM     34  C   UNL     1       6.604   3.452   8.858  1.00  0.00     0.010 A 
ATOM     35  C   UNL     1       6.501   4.427   9.863  1.00  0.00    -0.014 A 
BRANCH  35  36
ATOM     36  C   UNL     1       6.826   4.109  11.283  1.00  0.00     0.031 A 
ATOM     37  C   UNL     1       8.217   3.700  11.692  1.00  0.00     0.074 A 
ATOM     38  C   UNL     1       5.852   4.168  12.215  1.00  0.00     0.049 A 
ATOM     39  N   UNL     1       8.674   3.398  12.883  1.00  0.00    -0.248 NA
ATOM     40  C   UNL     1       9.221   3.597  10.624  1.00  0.00     0.031 C 
ATOM     41  C   UNL     1       4.451   4.503  11.951  1.00  0.00     0.029 A 
ATOM     42  N   UNL     1       5.888   3.953  13.572  1.00  0.00    -0.354 N 
ATOM     43  C   UNL     1      10.011   3.066  12.706  1.00  0.00     0.074 A 
ATOM     44  C   UNL     1      10.276   3.143  11.285  1.00  0.00     0.031 C 
ATOM     45  C   UNL     1       3.773   4.510  13.109  1.00  0.00     0.029 A 
ATOM     46  C   UNL     1       4.675   4.135  14.193  1.00  0.00     0.049 A 
ATOM     47  H   UNL     1       6.706   3.692  14.054  1.00  0.00     0.167 HD
ATOM     48  C   UNL     1      10.941   2.749  13.641  1.00  0.00     0.037 A 
ATOM     49  C   UNL     1       4.324   4.012  15.488  1.00  0.00     0.037 A 
ATOM     50  C   UNL     1      10.680   2.678  15.056  1.00  0.00     0.049 A 
ATOM     51  C   UNL     1       5.369   3.634  16.502  1.00  0.00     0.074 A 
ATOM     52  C   UNL     1      11.569   2.414  16.085  1.00  0.00     0.029 A 
ATOM     53  N   UNL     1       9.437   2.862  15.644  1.00  0.00    -0.354 N 
ATOM     54  N   UNL     1       6.646   3.396  16.326  1.00  0.00    -0.248 NA
ATOM     55  C   UNL     1       4.925   3.516  17.898  1.00  0.00     0.031 C 
ATOM     56  C   UNL     1      10.853   2.374  17.285  1.00  0.00     0.029 A 
ATOM     57  C   UNL     1       9.530   2.686  17.016  1.00  0.00     0.049 A 
ATOM     58  H   UNL     1       8.610   3.084  15.158  1.00  0.00     0.167 HD
ATOM     59  C   UNL     1       7.163   3.134  17.589  1.00  0.00     0.074 A 
ATOM     60  C   UNL     1       6.064   3.262  18.523  1.00  0.00     0.031 C 
ATOM     61  C   UNL     1       8.433   2.818  17.942  1.00  0.00     0.037 A 
BRANCH  48  62
ATOM     62  C   UNL     1      12.335   2.448  13.161  1.00  0.00     0.057 A 
ATOM     63  C   UNL     1      13.159   3.438  12.606  1.00  0.00     0.134 A 
ATOM     64  C   UNL     1      12.878   1.163  13.294  1.00  0.00     0.134 A 
ATOM     65  F   UNL     1      12.704   4.689  12.444  1.00  0.00    -0.206 F 
ATOM     66  C   UNL     1      14.455   3.153  12.171  1.00  0.00     0.040 A 
ATOM     67  C   UNL     1      14.184   0.874  12.893  1.00  0.00     0.040 A 
ATOM     68  F   UNL     1      12.152   0.168  13.827  1.00  0.00    -0.206 F 
ATOM     69  C   UNL     1      14.973   1.869  12.321  1.00  0.00     0.006 A 
ENDBRANCH  48  62
BRANCH  49  70
ATOM     70  C   UNL     1       2.919   4.262  15.909  1.00  0.00     0.057 A 
ATOM     71  C   UNL     1       2.588   5.349  16.727  1.00  0.00     0.134 A 
ATOM     72  C   UNL     1       1.878   3.409  15.524  1.00  0.00     0.134 A 
ATOM     73  F   UNL     1       3.542   6.193  17.147  1.00  0.00    -0.206 F 
ATOM     74  C   UNL     1       1.281   5.564  17.168  1.00  0.00     0.040 A 
ATOM     75  C   UNL     1       0.561   3.629  15.931  1.00  0.00     0.040 A 
ATOM     76  F   UNL     1       2.123   2.352  14.735  1.00  0.00    -0.206 F 
ATOM     77  C   UNL     1       0.262   4.704  16.765  1.00  0.00     0.006 A 
ENDBRANCH  49  70
BRANCH  61  78
ATOM     78  C   UNL     1       8.715   2.631  19.407  1.00  0.00     0.057 A 
ATOM     79  C   UNL     1       8.206   1.546  20.134  1.00  0.00     0.134 A 
ATOM     80  C   UNL     1       9.528   3.541  20.096  1.00  0.00     0.134 A 
ATOM     81  F   UNL     1       7.412   0.641  19.540  1.00  0.00    -0.206 F 
ATOM     82  C   UNL     1       8.465   1.393  21.498  1.00  0.00     0.040 A 
ATOM     83  C   UNL     1       9.823   3.380  21.451  1.00  0.00     0.040 A 
ATOM     84  F   UNL     1      10.059   4.597  19.462  1.00  0.00    -0.206 F 
ATOM     85  C   UNL     1       9.282   2.309  22.158  1.00  0.00     0.006 A 
ENDBRANCH  61  78
ENDBRANCH  35  36
ENDBRANCH  27  30
ENDBRANCH  25  26
ENDBRANCH  24  25
ENDBRANCH   1  24
TORSDOF 14
