REMARK SMILES CCCN1C(=O)C[C@H](C(=O)NCCCNC(=O)c2ccc(-c3c4nc(c(-c5c(F)cccc5F)c5ccc([nH]5)c(-c5c(F)cccc5F)c5nc(c(-c6c(F)cccc6F)c6ccc3[nH]6)C=C5)C=C4)cc2)[C@@H]1c1cncn1C1CC1
REMARK SMILES IDX 13 1 12 2 11 3 9 4 10 5 8 7 4 8 5 9 72 10 6 11 7 12 3 13
REMARK SMILES IDX 2 14 1 15 73 16 74 17 77 18 75 19 76 20 78 21 79 22 80 23
REMARK SMILES IDX 14 24 15 25 16 26 17 28 18 29 19 30 71 31 20 32 70 33 21 34
REMARK SMILES IDX 22 35 23 36 64 37 24 38 69 39 63 40 65 41 25 42 68 43 62 44
REMARK SMILES IDX 61 45 26 47 52 48 35 49 51 50 36 51 39 52 50 53 66 54 37 55
REMARK SMILES IDX 38 56 49 58 67 59 40 60 27 61 28 62 33 63 29 64 30 65 32 66
REMARK SMILES IDX 34 67 31 68 53 69 54 70 59 71 55 72 56 73 58 74 60 75 57 76
REMARK SMILES IDX 41 77 42 78 47 79 43 80 44 81 46 82 48 83 45 84
REMARK H PARENT 11 6 15 27 65 46 39 57
REMARK Flexibility Score: inf
ROOT
ATOM      1  C   UNL     1      -0.574  -5.149   0.962  1.00  0.00     0.042 C 
ENDROOT
BRANCH   1   2
ATOM      2  C   UNL     1       0.455  -4.641  -0.021  1.00  0.00     0.117 C 
BRANCH   2   3
ATOM      3  N   UNL     1       0.583  -5.380  -1.242  1.00  0.00    -0.356 N 
ATOM      4  C   UNL     1       0.865  -4.873  -2.472  1.00  0.00     0.226 C 
ATOM      5  O   UNL     1       1.261  -5.679  -3.321  1.00  0.00    -0.275 OA
ATOM      6  H   UNL     1       0.454  -6.354  -1.185  1.00  0.00     0.163 HD
BRANCH   4   7
ATOM      7  C   UNL     1       0.670  -3.409  -2.860  1.00  0.00     0.116 C 
ATOM      8  N   UNL     1       0.842  -1.074  -2.611  1.00  0.00    -0.333 N 
ATOM      9  C   UNL     1      -0.482  -1.359  -2.953  1.00  0.00     0.224 C 
ATOM     10  C   UNL     1       1.575  -2.285  -2.356  1.00  0.00     0.146 C 
ATOM     11  O   UNL     1      -1.316  -0.553  -3.337  1.00  0.00    -0.275 OA
ATOM     12  C   UNL     1      -0.736  -2.840  -2.766  1.00  0.00     0.116 C 
BRANCH   8  13
ATOM     13  C   UNL     1       1.523   0.148  -3.039  1.00  0.00     0.120 C 
BRANCH  13  14
ATOM     14  C   UNL     1       1.195   1.429  -2.267  1.00  0.00     0.018 C 
ATOM     15  C   UNL     1       2.086   1.664  -1.053  1.00  0.00     0.006 C 
ENDBRANCH  13  14
ENDBRANCH   8  13
BRANCH  10  16
ATOM     16  C   UNL     1       2.201  -2.331  -1.004  1.00  0.00     0.061 A 
ATOM     17  C   UNL     1       3.427  -2.967  -0.799  1.00  0.00     0.136 A 
ATOM     18  N   UNL     1       1.899  -1.800   0.250  1.00  0.00    -0.330 N 
ATOM     19  N   UNL     1       3.881  -2.834   0.471  1.00  0.00    -0.245 NA
ATOM     20  C   UNL     1       2.974  -2.104   1.065  1.00  0.00     0.199 A 
BRANCH  18  21
ATOM     21  C   UNL     1       0.779  -1.106   0.892  1.00  0.00     0.088 C 
ATOM     22  C   UNL     1      -0.333  -0.278   0.305  1.00  0.00     0.027 C 
ATOM     23  C   UNL     1      -0.667  -1.578   0.928  1.00  0.00     0.027 C 
ENDBRANCH  18  21
ENDBRANCH  10  16
ENDBRANCH   4   7
ENDBRANCH   2   3
ENDBRANCH   1   2
BRANCH   1  24
ATOM     24  C   UNL     1      -0.029  -6.233   1.874  1.00  0.00     0.118 C 
BRANCH  24  25
ATOM     25  N   UNL     1       1.037  -5.760   2.760  1.00  0.00    -0.352 N 
ATOM     26  C   UNL     1       1.086  -5.581   4.123  1.00  0.00     0.251 C 
ATOM     27  H   UNL     1       1.873  -5.528   2.294  1.00  0.00     0.163 HD
ATOM     28  O   UNL     1       2.055  -5.017   4.624  1.00  0.00    -0.269 OA
BRANCH  26  29
ATOM     29  C   UNL     1      -0.031  -6.016   4.989  1.00  0.00     0.039 A 
ATOM     30  C   UNL     1      -0.366  -5.250   6.111  1.00  0.00     0.014 A 
ATOM     31  C   UNL     1      -0.757  -7.170   4.705  1.00  0.00     0.014 A 
ATOM     32  C   UNL     1      -1.488  -5.585   6.873  1.00  0.00     0.010 A 
ATOM     33  C   UNL     1      -1.948  -7.420   5.371  1.00  0.00     0.010 A 
ATOM     34  C   UNL     1      -2.325  -6.638   6.471  1.00  0.00    -0.014 A 
BRANCH  34  35
ATOM     35  C   UNL     1      -3.585  -6.965   7.185  1.00  0.00     0.031 A 
ATOM     36  C   UNL     1      -3.788  -8.347   7.750  1.00  0.00     0.074 A 
ATOM     37  C   UNL     1      -4.581  -6.060   7.239  1.00  0.00     0.049 A 
ATOM     38  N   UNL     1      -4.860  -8.875   8.283  1.00  0.00    -0.248 NA
ATOM     39  C   UNL     1      -2.647  -9.274   7.661  1.00  0.00     0.031 C 
ATOM     40  C   UNL     1      -4.536  -4.709   6.675  1.00  0.00     0.029 A 
ATOM     41  N   UNL     1      -5.837  -6.146   7.786  1.00  0.00    -0.354 N 
ATOM     42  C   UNL     1      -4.532 -10.197   8.557  1.00  0.00     0.074 A 
ATOM     43  C   UNL     1      -3.187 -10.410   8.072  1.00  0.00     0.031 C 
ATOM     44  C   UNL     1      -5.694  -4.082   6.936  1.00  0.00     0.029 A 
ATOM     45  C   UNL     1      -6.580  -4.999   7.644  1.00  0.00     0.049 A 
ATOM     46  H   UNL     1      -6.173  -6.954   8.237  1.00  0.00     0.167 HD
ATOM     47  C   UNL     1      -5.269 -11.141   9.188  1.00  0.00     0.037 A 
ATOM     48  C   UNL     1      -7.837  -4.721   8.038  1.00  0.00     0.037 A 
ATOM     49  C   UNL     1      -6.587 -10.911   9.716  1.00  0.00     0.049 A 
ATOM     50  C   UNL     1      -8.628  -5.777   8.758  1.00  0.00     0.074 A 
ATOM     51  C   UNL     1      -7.392 -11.776  10.434  1.00  0.00     0.029 A 
ATOM     52  N   UNL     1      -7.288  -9.721   9.590  1.00  0.00    -0.354 N 
ATOM     53  N   UNL     1      -8.281  -7.003   9.067  1.00  0.00    -0.248 NA
ATOM     54  C   UNL     1      -9.984  -5.409   9.190  1.00  0.00     0.031 C 
ATOM     55  C   UNL     1      -8.596 -11.121  10.713  1.00  0.00     0.029 A 
ATOM     56  C   UNL     1      -8.522  -9.833  10.206  1.00  0.00     0.049 A 
ATOM     57  H   UNL     1      -6.957  -8.916   9.130  1.00  0.00     0.167 HD
ATOM     58  C   UNL     1      -9.361  -7.542   9.755  1.00  0.00     0.074 A 
ATOM     59  C   UNL     1     -10.369  -6.504   9.829  1.00  0.00     0.031 C 
ATOM     60  C   UNL     1      -9.505  -8.783  10.280  1.00  0.00     0.037 A 
BRANCH  47  61
ATOM     61  C   UNL     1      -4.655 -12.501   9.352  1.00  0.00     0.057 A 
ATOM     62  C   UNL     1      -3.567 -12.722  10.208  1.00  0.00     0.134 A 
ATOM     63  C   UNL     1      -5.163 -13.606   8.658  1.00  0.00     0.134 A 
ATOM     64  F   UNL     1      -3.021 -11.704  10.890  1.00  0.00    -0.206 F 
ATOM     65  C   UNL     1      -2.985 -13.984  10.341  1.00  0.00     0.040 A 
ATOM     66  C   UNL     1      -4.609 -14.879   8.806  1.00  0.00     0.040 A 
ATOM     67  F   UNL     1      -6.206 -13.468   7.826  1.00  0.00    -0.206 F 
ATOM     68  C   UNL     1      -3.511 -15.069   9.643  1.00  0.00     0.006 A 
ENDBRANCH  47  61
BRANCH  48  69
ATOM     69  C   UNL     1      -8.414  -3.375   7.796  1.00  0.00     0.057 A 
ATOM     70  C   UNL     1      -8.633  -2.487   8.856  1.00  0.00     0.134 A 
ATOM     71  C   UNL     1      -8.764  -2.943   6.511  1.00  0.00     0.134 A 
ATOM     72  F   UNL     1      -8.333  -2.850  10.112  1.00  0.00    -0.206 F 
ATOM     73  C   UNL     1      -9.200  -1.228   8.653  1.00  0.00     0.040 A 
ATOM     74  C   UNL     1      -9.309  -1.677   6.290  1.00  0.00     0.040 A 
ATOM     75  F   UNL     1      -8.569  -3.741   5.452  1.00  0.00    -0.206 F 
ATOM     76  C   UNL     1      -9.535  -0.818   7.364  1.00  0.00     0.006 A 
ENDBRANCH  48  69
BRANCH  60  77
ATOM     77  C   UNL     1     -10.780  -9.072  11.015  1.00  0.00     0.057 A 
ATOM     78  C   UNL     1     -11.997  -9.247  10.345  1.00  0.00     0.134 A 
ATOM     79  C   UNL     1     -10.779  -9.214  12.408  1.00  0.00     0.134 A 
ATOM     80  F   UNL     1     -12.066  -9.111   9.012  1.00  0.00    -0.206 F 
ATOM     81  C   UNL     1     -13.174  -9.533  11.038  1.00  0.00     0.040 A 
ATOM     82  C   UNL     1     -11.944  -9.526  13.110  1.00  0.00     0.040 A 
ATOM     83  F   UNL     1      -9.644  -9.067  13.108  1.00  0.00    -0.206 F 
ATOM     84  C   UNL     1     -13.147  -9.680  12.424  1.00  0.00     0.006 A 
ENDBRANCH  60  77
ENDBRANCH  34  35
ENDBRANCH  26  29
ENDBRANCH  24  25
ENDBRANCH   1  24
TORSDOF 14
