REMARK SMILES Cc1ccc(-n2cnnn2)cc1OCC(=O)NCCCNC(=O)c1ccc(-c2c3nc(c(-c4c(F)cccc4F)c4ccc([nH]4)c(-c4c(F)cccc4F)c4nc(c(-c5c(F)cccc5F)c5ccc2[nH]5)C=C4)C=C3)cc1
REMARK SMILES IDX 18 1 17 2 15 3 16 4 14 6 13 7 12 8 1 9 2 10 3 11 4 12 11 13
REMARK SMILES IDX 5 14 6 15 7 16 10 17 8 18 9 19 19 20 20 21 21 22 22 23 23 25
REMARK SMILES IDX 24 26 25 27 77 28 26 29 76 30 27 31 28 32 29 33 70 34 30 35
REMARK SMILES IDX 75 36 69 37 71 38 31 39 74 40 68 41 67 42 32 44 58 45 41 46
REMARK SMILES IDX 57 47 42 48 45 49 56 50 72 51 43 52 44 53 55 55 73 56 46 57
REMARK SMILES IDX 33 58 34 59 39 60 35 61 36 62 38 63 40 64 37 65 59 66 60 67
REMARK SMILES IDX 65 68 61 69 62 70 64 71 66 72 63 73 47 74 48 75 53 76 49 77
REMARK SMILES IDX 50 78 52 79 54 80 51 81
REMARK H PARENT 17 5 21 24 71 43 45 54
REMARK Flexibility Score: inf
ROOT
ATOM      1  C   UNL     1       1.796   4.146   2.310  1.00  0.00     0.117 C 
ENDROOT
BRANCH   1   2
ATOM      2  N   UNL     1       2.659   2.979   2.281  1.00  0.00    -0.353 N 
ATOM      3  C   UNL     1       3.041   2.215   1.215  1.00  0.00     0.257 C 
ATOM      4  O   UNL     1       3.925   1.376   1.399  1.00  0.00    -0.271 OA
ATOM      5  H   UNL     1       3.020   2.699   3.153  1.00  0.00     0.163 HD
BRANCH   3   6
ATOM      6  C   UNL     1       2.432   2.453  -0.176  1.00  0.00     0.329 C 
BRANCH   6   7
ATOM      7  O   UNL     1       1.063   2.195  -0.403  1.00  0.00    -0.483 OA
BRANCH   7   8
ATOM      8  C   UNL     1       0.491   0.962  -0.281  1.00  0.00     0.125 A 
ATOM      9  C   UNL     1       2.517  -0.666  -0.367  1.00  0.00     0.048 C 
ATOM     10  C   UNL     1       1.067  -0.312  -0.196  1.00  0.00    -0.009 A 
ATOM     11  C   UNL     1       0.223  -1.416   0.069  1.00  0.00     0.009 A 
ATOM     12  C   UNL     1      -1.163  -1.290   0.144  1.00  0.00     0.029 A 
ATOM     13  C   UNL     1      -0.918   1.070  -0.270  1.00  0.00     0.075 A 
ATOM     14  C   UNL     1      -1.744  -0.045  -0.076  1.00  0.00     0.072 A 
BRANCH  14  15
ATOM     15  N   UNL     1      -3.152   0.069  -0.109  1.00  0.00    -0.200 N 
ATOM     16  C   UNL     1      -3.934   1.116  -0.528  1.00  0.00     0.252 A 
ATOM     17  N   UNL     1      -3.976  -0.933   0.278  1.00  0.00    -0.040 NA
ATOM     18  N   UNL     1      -5.200   0.803  -0.376  1.00  0.00    -0.117 NA
ATOM     19  N   UNL     1      -5.209  -0.469   0.132  1.00  0.00    -0.024 NA
ENDBRANCH  14  15
ENDBRANCH   7   8
ENDBRANCH   6   7
ENDBRANCH   3   6
ENDBRANCH   1   2
BRANCH   1  20
ATOM     20  C   UNL     1       0.345   3.803   2.616  1.00  0.00     0.042 C 
BRANCH  20  21
ATOM     21  C   UNL     1       0.097   3.423   4.070  1.00  0.00     0.118 C 
BRANCH  21  22
ATOM     22  N   UNL     1      -0.151   4.555   4.958  1.00  0.00    -0.352 N 
ATOM     23  C   UNL     1      -0.337   4.581   6.334  1.00  0.00     0.251 C 
ATOM     24  H   UNL     1      -0.193   5.432   4.514  1.00  0.00     0.163 HD
ATOM     25  O   UNL     1      -0.522   5.640   6.899  1.00  0.00    -0.269 OA
BRANCH  23  26
ATOM     26  C   UNL     1      -0.174   3.330   7.125  1.00  0.00     0.039 A 
ATOM     27  C   UNL     1       0.563   3.399   8.313  1.00  0.00     0.014 A 
ATOM     28  C   UNL     1      -0.571   2.094   6.625  1.00  0.00     0.014 A 
ATOM     29  C   UNL     1       1.122   2.237   8.841  1.00  0.00     0.010 A 
ATOM     30  C   UNL     1       0.056   0.953   7.085  1.00  0.00     0.010 A 
ATOM     31  C   UNL     1       0.962   1.039   8.146  1.00  0.00    -0.014 A 
BRANCH  31  32
ATOM     32  C   UNL     1       1.831  -0.114   8.349  1.00  0.00     0.031 A 
ATOM     33  C   UNL     1       1.360  -1.322   9.050  1.00  0.00     0.074 A 
ATOM     34  C   UNL     1       3.065  -0.097   7.799  1.00  0.00     0.049 A 
ATOM     35  N   UNL     1       2.132  -2.126   9.703  1.00  0.00    -0.248 NA
ATOM     36  C   UNL     1      -0.043  -1.710   9.083  1.00  0.00     0.031 C 
ATOM     37  C   UNL     1       3.987  -1.218   7.650  1.00  0.00     0.029 A 
ATOM     38  N   UNL     1       3.816   1.027   7.425  1.00  0.00    -0.354 N 
ATOM     39  C   UNL     1       1.404  -3.260   9.985  1.00  0.00     0.074 A 
ATOM     40  C   UNL     1       0.040  -2.920   9.646  1.00  0.00     0.031 C 
ATOM     41  C   UNL     1       5.231  -0.735   7.500  1.00  0.00     0.029 A 
ATOM     42  C   UNL     1       5.163   0.704   7.694  1.00  0.00     0.049 A 
ATOM     43  H   UNL     1       3.473   1.870   7.050  1.00  0.00     0.167 HD
ATOM     44  C   UNL     1       2.052  -4.414  10.324  1.00  0.00     0.037 A 
ATOM     45  C   UNL     1       5.892   1.406   8.607  1.00  0.00     0.037 A 
ATOM     46  C   UNL     1       3.501  -4.225  10.351  1.00  0.00     0.049 A 
ATOM     47  C   UNL     1       6.416   0.569   9.750  1.00  0.00     0.074 A 
ATOM     48  C   UNL     1       4.487  -4.495   9.415  1.00  0.00     0.029 A 
ATOM     49  N   UNL     1       4.085  -3.406  11.311  1.00  0.00    -0.354 N 
ATOM     50  N   UNL     1       5.952  -0.609  10.058  1.00  0.00    -0.248 NA
ATOM     51  C   UNL     1       7.466   1.012  10.664  1.00  0.00     0.031 C 
ATOM     52  C   UNL     1       5.657  -3.796   9.790  1.00  0.00     0.029 A 
ATOM     53  C   UNL     1       5.389  -3.109  10.961  1.00  0.00     0.049 A 
ATOM     54  H   UNL     1       3.634  -3.083  12.125  1.00  0.00     0.167 HD
ATOM     55  C   UNL     1       6.568  -1.058  11.197  1.00  0.00     0.074 A 
ATOM     56  C   UNL     1       7.529  -0.022  11.521  1.00  0.00     0.031 C 
ATOM     57  C   UNL     1       6.212  -2.238  11.785  1.00  0.00     0.037 A 
BRANCH  44  58
ATOM     58  C   UNL     1       1.387  -5.774  10.281  1.00  0.00     0.057 A 
ATOM     59  C   UNL     1       2.105  -6.928   9.906  1.00  0.00     0.134 A 
ATOM     60  C   UNL     1       0.026  -6.004  10.542  1.00  0.00     0.134 A 
ATOM     61  F   UNL     1       3.436  -6.919   9.761  1.00  0.00    -0.206 F 
ATOM     62  C   UNL     1       1.492  -8.163   9.658  1.00  0.00     0.040 A 
ATOM     63  C   UNL     1      -0.612  -7.219  10.249  1.00  0.00     0.040 A 
ATOM     64  F   UNL     1      -0.735  -5.075  11.136  1.00  0.00    -0.206 F 
ATOM     65  C   UNL     1       0.119  -8.300   9.783  1.00  0.00     0.006 A 
ENDBRANCH  44  58
BRANCH  45  66
ATOM     66  C   UNL     1       5.481   2.829   8.727  1.00  0.00     0.057 A 
ATOM     67  C   UNL     1       5.653   3.680   7.622  1.00  0.00     0.134 A 
ATOM     68  C   UNL     1       4.620   3.263   9.739  1.00  0.00     0.134 A 
ATOM     69  F   UNL     1       6.464   3.322   6.614  1.00  0.00    -0.206 F 
ATOM     70  C   UNL     1       4.920   4.861   7.478  1.00  0.00     0.040 A 
ATOM     71  C   UNL     1       3.888   4.449   9.610  1.00  0.00     0.040 A 
ATOM     72  F   UNL     1       4.387   2.497  10.814  1.00  0.00    -0.206 F 
ATOM     73  C   UNL     1       4.008   5.231   8.461  1.00  0.00     0.006 A 
ENDBRANCH  45  66
BRANCH  57  74
ATOM     74  C   UNL     1       6.667  -2.723  13.136  1.00  0.00     0.057 A 
ATOM     75  C   UNL     1       6.978  -1.880  14.212  1.00  0.00     0.134 A 
ATOM     76  C   UNL     1       6.665  -4.104  13.436  1.00  0.00     0.134 A 
ATOM     77  F   UNL     1       6.914  -0.546  14.098  1.00  0.00    -0.206 F 
ATOM     78  C   UNL     1       7.317  -2.373  15.479  1.00  0.00     0.040 A 
ATOM     79  C   UNL     1       6.951  -4.605  14.709  1.00  0.00     0.040 A 
ATOM     80  F   UNL     1       6.362  -5.025  12.509  1.00  0.00    -0.206 F 
ATOM     81  C   UNL     1       7.293  -3.739  15.735  1.00  0.00     0.006 A 
ENDBRANCH  57  74
ENDBRANCH  31  32
ENDBRANCH  23  26
ENDBRANCH  21  22
ENDBRANCH  20  21
ENDBRANCH   1  20
TORSDOF 13
