REMARK SMILES Cc1cc(Br)cnc1Sc1nc(CC(=O)NCCCNC(=O)c2ccc(-c3c4nc(c(-c5c(F)cccc5F)c5ccc([nH]5)c(-c5c(F)cccc5F)c5nc(c(-c6c(F)cccc6F)c6ccc3[nH]6)C=C5)C=C4)cc2)cs1
REMARK SMILES IDX 17 1 16 2 14 3 15 4 13 6 12 7 10 8 11 9 78 10 77 11 9 12
REMARK SMILES IDX 8 13 1 14 2 15 3 16 4 17 7 18 5 19 6 20 18 21 19 22 20 23
REMARK SMILES IDX 21 24 22 26 23 27 24 28 76 29 25 30 75 31 26 32 27 33 28 34
REMARK SMILES IDX 69 35 29 36 74 37 68 38 70 39 30 40 73 41 67 42 66 43 31 45
REMARK SMILES IDX 57 46 40 47 56 48 41 49 44 50 55 51 71 52 42 53 43 54 54 56
REMARK SMILES IDX 72 57 45 58 32 59 33 60 38 61 34 62 35 63 37 64 39 65 36 66
REMARK SMILES IDX 58 67 59 68 64 69 60 70 61 71 63 72 65 73 62 74 46 75 47 76
REMARK SMILES IDX 52 77 48 78 49 79 51 80 53 81 50 82
REMARK H PARENT 16 5 20 25 70 44 44 55
REMARK Flexibility Score: inf
ROOT
ATOM      1  C   UNL     1       7.222  -1.642  -3.829  1.00  0.00     0.117 C 
ENDROOT
BRANCH   1   2
ATOM      2  N   UNL     1       7.901  -2.852  -3.399  1.00  0.00    -0.356 N 
ATOM      3  C   UNL     1       7.535  -3.726  -2.415  1.00  0.00     0.226 C 
ATOM      4  O   UNL     1       8.306  -4.642  -2.123  1.00  0.00    -0.275 OA
ATOM      5  H   UNL     1       8.732  -3.070  -3.878  1.00  0.00     0.163 HD
BRANCH   3   6
ATOM      6  C   UNL     1       6.199  -3.569  -1.722  1.00  0.00     0.157 C 
BRANCH   6   7
ATOM      7  C   UNL     1       6.207  -2.454  -0.732  1.00  0.00     0.062 A 
ATOM      8  C   UNL     1       5.425  -0.541   0.078  1.00  0.00     0.156 A 
ATOM      9  N   UNL     1       5.343  -1.381  -0.930  1.00  0.00    -0.234 NA
ATOM     10  S   UNL     1       6.621  -0.921   1.253  1.00  0.00    -0.116 S 
ATOM     11  C   UNL     1       6.981  -2.366   0.410  1.00  0.00     0.092 A 
BRANCH   8  12
ATOM     12  S   UNL     1       4.484   0.907   0.190  1.00  0.00    -0.039 SA
BRANCH  12  13
ATOM     13  C   UNL     1       2.771   0.440   0.077  1.00  0.00     0.106 A 
ATOM     14  C   UNL     1       2.830  -2.117   0.489  1.00  0.00     0.047 C 
ATOM     15  C   UNL     1       2.145  -0.806   0.244  1.00  0.00    -0.017 A 
ATOM     16  C   UNL     1       0.735  -0.862   0.152  1.00  0.00     0.023 A 
ATOM     17  C   UNL     1      -0.009   0.289  -0.048  1.00  0.00     0.036 A 
ATOM     18  N   UNL     1       2.020   1.564  -0.127  1.00  0.00    -0.248 NA
ATOM     19  Br  UNL     1      -1.889   0.225  -0.121  1.00  0.00    -0.049 Br
ATOM     20  C   UNL     1       0.672   1.474  -0.178  1.00  0.00     0.128 A 
ENDBRANCH  12  13
ENDBRANCH   8  12
ENDBRANCH   6   7
ENDBRANCH   3   6
ENDBRANCH   1   2
BRANCH   1  21
ATOM     21  C   UNL     1       7.801  -0.391  -3.173  1.00  0.00     0.042 C 
BRANCH  21  22
ATOM     22  C   UNL     1       9.247  -0.092  -3.552  1.00  0.00     0.118 C 
BRANCH  22  23
ATOM     23  N   UNL     1       9.402   0.232  -4.961  1.00  0.00    -0.352 N 
ATOM     24  C   UNL     1       9.996   1.309  -5.560  1.00  0.00     0.251 C 
ATOM     25  H   UNL     1       9.018  -0.428  -5.583  1.00  0.00     0.163 HD
ATOM     26  O   UNL     1       9.861   1.467  -6.777  1.00  0.00    -0.269 OA
BRANCH  24  27
ATOM     27  C   UNL     1      10.790   2.288  -4.785  1.00  0.00     0.039 A 
ATOM     28  C   UNL     1      10.721   3.638  -5.148  1.00  0.00     0.014 A 
ATOM     29  C   UNL     1      11.658   1.890  -3.764  1.00  0.00     0.014 A 
ATOM     30  C   UNL     1      11.496   4.586  -4.476  1.00  0.00     0.010 A 
ATOM     31  C   UNL     1      12.379   2.845  -3.047  1.00  0.00     0.010 A 
ATOM     32  C   UNL     1      12.325   4.199  -3.411  1.00  0.00    -0.014 A 
BRANCH  32  33
ATOM     33  C   UNL     1      13.183   5.188  -2.711  1.00  0.00     0.031 A 
ATOM     34  C   UNL     1      14.682   5.090  -2.818  1.00  0.00     0.074 A 
ATOM     35  C   UNL     1      12.624   6.150  -1.954  1.00  0.00     0.049 A 
ATOM     36  N   UNL     1      15.604   5.816  -2.238  1.00  0.00    -0.248 NA
ATOM     37  C   UNL     1      15.215   4.016  -3.672  1.00  0.00     0.031 C 
ATOM     38  C   UNL     1      11.188   6.335  -1.742  1.00  0.00     0.029 A 
ATOM     39  N   UNL     1      13.202   7.153  -1.216  1.00  0.00    -0.354 N 
ATOM     40  C   UNL     1      16.819   5.277  -2.640  1.00  0.00     0.074 A 
ATOM     41  C   UNL     1      16.519   4.133  -3.473  1.00  0.00     0.031 C 
ATOM     42  C   UNL     1      10.996   7.401  -0.947  1.00  0.00     0.029 A 
ATOM     43  C   UNL     1      12.293   7.955  -0.570  1.00  0.00     0.049 A 
ATOM     44  H   UNL     1      14.175   7.286  -1.156  1.00  0.00     0.167 HD
ATOM     45  C   UNL     1      18.073   5.707  -2.361  1.00  0.00     0.037 A 
ATOM     46  C   UNL     1      12.485   9.016   0.236  1.00  0.00     0.037 A 
ATOM     47  C   UNL     1      18.373   6.865  -1.562  1.00  0.00     0.049 A 
ATOM     48  C   UNL     1      13.886   9.483   0.519  1.00  0.00     0.074 A 
ATOM     49  C   UNL     1      19.610   7.405  -1.253  1.00  0.00     0.029 A 
ATOM     50  N   UNL     1      17.422   7.668  -0.952  1.00  0.00    -0.354 N 
ATOM     51  N   UNL     1      15.024   8.988   0.097  1.00  0.00    -0.248 NA
ATOM     52  C   UNL     1      14.028  10.665   1.382  1.00  0.00     0.031 C 
ATOM     53  C   UNL     1      19.407   8.521  -0.433  1.00  0.00     0.029 A 
ATOM     54  C   UNL     1      18.044   8.697  -0.265  1.00  0.00     0.049 A 
ATOM     55  H   UNL     1      16.448   7.528  -1.000  1.00  0.00     0.167 HD
ATOM     56  C   UNL     1      16.013   9.817   0.612  1.00  0.00     0.074 A 
ATOM     57  C   UNL     1      15.340  10.850   1.371  1.00  0.00     0.031 C 
ATOM     58  C   UNL     1      17.358   9.731   0.466  1.00  0.00     0.037 A 
BRANCH  45  59
ATOM     59  C   UNL     1      19.215   4.922  -2.937  1.00  0.00     0.057 A 
ATOM     60  C   UNL     1      19.511   4.947  -4.306  1.00  0.00     0.134 A 
ATOM     61  C   UNL     1      20.045   4.152  -2.111  1.00  0.00     0.134 A 
ATOM     62  F   UNL     1      18.747   5.653  -5.153  1.00  0.00    -0.206 F 
ATOM     63  C   UNL     1      20.573   4.213  -4.838  1.00  0.00     0.040 A 
ATOM     64  C   UNL     1      21.126   3.436  -2.627  1.00  0.00     0.040 A 
ATOM     65  F   UNL     1      19.822   4.089  -0.790  1.00  0.00    -0.206 F 
ATOM     66  C   UNL     1      21.388   3.460  -3.996  1.00  0.00     0.006 A 
ENDBRANCH  45  59
BRANCH  46  67
ATOM     67  C   UNL     1      11.320   9.737   0.806  1.00  0.00     0.057 A 
ATOM     68  C   UNL     1      10.977  11.017   0.356  1.00  0.00     0.134 A 
ATOM     69  C   UNL     1      10.534   9.175   1.819  1.00  0.00     0.134 A 
ATOM     70  F   UNL     1      11.705  11.615  -0.598  1.00  0.00    -0.206 F 
ATOM     71  C   UNL     1       9.906  11.723   0.907  1.00  0.00     0.040 A 
ATOM     72  C   UNL     1       9.446   9.860   2.362  1.00  0.00     0.040 A 
ATOM     73  F   UNL     1      10.809   7.949   2.288  1.00  0.00    -0.206 F 
ATOM     74  C   UNL     1       9.135  11.141   1.911  1.00  0.00     0.006 A 
ENDBRANCH  46  67
BRANCH  58  75
ATOM     75  C   UNL     1      18.186  10.811   1.095  1.00  0.00     0.057 A 
ATOM     76  C   UNL     1      18.389  10.880   2.478  1.00  0.00     0.134 A 
ATOM     77  C   UNL     1      18.816  11.775   0.297  1.00  0.00     0.134 A 
ATOM     78  F   UNL     1      17.802   9.994   3.296  1.00  0.00    -0.206 F 
ATOM     79  C   UNL     1      19.172  11.885   3.049  1.00  0.00     0.040 A 
ATOM     80  C   UNL     1      19.620  12.769   0.854  1.00  0.00     0.040 A 
ATOM     81  F   UNL     1      18.669  11.759  -1.036  1.00  0.00    -0.206 F 
ATOM     82  C   UNL     1      19.795  12.830   2.235  1.00  0.00     0.006 A 
ENDBRANCH  58  75
ENDBRANCH  32  33
ENDBRANCH  24  27
ENDBRANCH  22  23
ENDBRANCH  21  22
ENDBRANCH   1  21
TORSDOF 13
