REMARK SMILES CCC(CC)(CC(=O)Nc1cccc(OC)c1)C(=O)NCCCNC(=O)c1ccc(-c2c3nc(c(-c4c(F)cccc4F)c4ccc([nH]4)c(-c4c(F)cccc4F)c4nc(c(-c5c(F)cccc5F)c5ccc2[nH]5)C=C4)C=C3)cc1
REMARK SMILES IDX 21 1 20 2 18 3 19 4 3 6 2 7 1 8 4 9 5 10 6 11 7 12 8 13 9 14
REMARK SMILES IDX 10 16 11 17 17 18 12 19 14 20 13 21 15 22 16 23 22 24 23 25
REMARK SMILES IDX 24 26 25 27 26 29 27 30 28 31 80 32 29 33 79 34 30 35 31 36
REMARK SMILES IDX 32 37 73 38 33 39 78 40 72 41 74 42 34 43 77 44 71 45 70 46
REMARK SMILES IDX 35 48 61 49 44 50 60 51 45 52 48 53 59 54 75 55 46 56 47 57
REMARK SMILES IDX 58 59 76 60 49 61 36 62 37 63 42 64 38 65 39 66 41 67 43 68
REMARK SMILES IDX 40 69 62 70 63 71 68 72 64 73 65 74 67 75 69 76 66 77 50 78
REMARK SMILES IDX 51 79 56 80 52 81 53 82 55 83 57 84 54 85
REMARK H PARENT 20 5 9 15 24 28 74 47 48 58
REMARK Flexibility Score: inf
ROOT
ATOM      1  C   UNL     1       2.442   3.978  -3.801  1.00  0.00     0.117 C 
ENDROOT
BRANCH   1   2
ATOM      2  N   UNL     1       3.168   3.027  -2.984  1.00  0.00    -0.356 N 
ATOM      3  C   UNL     1       2.855   2.673  -1.714  1.00  0.00     0.226 C 
ATOM      4  O   UNL     1       3.760   2.744  -0.881  1.00  0.00    -0.274 OA
ATOM      5  H   UNL     1       3.959   2.600  -3.388  1.00  0.00     0.163 HD
BRANCH   3   6
ATOM      6  C   UNL     1       1.470   2.097  -1.390  1.00  0.00     0.057 C 
BRANCH   6   7
ATOM      7  C   UNL     1       1.763   0.949  -0.408  1.00  0.00     0.014 C 
ATOM      8  C   UNL     1       2.770  -0.141  -0.746  1.00  0.00     0.005 C 
ENDBRANCH   6   7
BRANCH   6   9
ATOM      9  C   UNL     1       0.756   1.464  -2.650  1.00  0.00     0.014 C 
ATOM     10  C   UNL     1      -0.770   1.507  -2.676  1.00  0.00     0.005 C 
ENDBRANCH   6   9
BRANCH   6  11
ATOM     11  C   UNL     1       0.566   3.157  -0.686  1.00  0.00     0.117 C 
BRANCH  11  12
ATOM     12  C   UNL     1       0.899   3.643   0.731  1.00  0.00     0.225 C 
ATOM     13  O   UNL     1       1.731   4.542   0.887  1.00  0.00    -0.275 OA
ATOM     14  N   UNL     1       0.130   3.278   1.817  1.00  0.00    -0.326 N 
ATOM     15  H   UNL     1       0.230   3.879   2.590  1.00  0.00     0.169 HD
BRANCH  14  16
ATOM     16  C   UNL     1      -0.772   2.215   2.042  1.00  0.00     0.044 A 
ATOM     17  C   UNL     1      -1.951   2.463   2.743  1.00  0.00     0.026 A 
ATOM     18  C   UNL     1      -0.478   0.886   1.747  1.00  0.00     0.072 A 
ATOM     19  C   UNL     1      -2.864   1.426   2.990  1.00  0.00     0.006 A 
ATOM     20  C   UNL     1      -1.415  -0.139   1.890  1.00  0.00     0.120 A 
ATOM     21  C   UNL     1      -2.611   0.134   2.530  1.00  0.00     0.046 A 
BRANCH  20  22
ATOM     22  O   UNL     1      -1.178  -1.440   1.540  1.00  0.00    -0.497 OA
ATOM     23  C   UNL     1      -0.709  -1.613   0.202  1.00  0.00     0.278 C 
ENDBRANCH  20  22
ENDBRANCH  14  16
ENDBRANCH  11  12
ENDBRANCH   6  11
ENDBRANCH   3   6
ENDBRANCH   1   2
BRANCH   1  24
ATOM     24  C   UNL     1       2.924   5.391  -3.516  1.00  0.00     0.042 C 
BRANCH  24  25
ATOM     25  C   UNL     1       4.441   5.519  -3.514  1.00  0.00     0.118 C 
BRANCH  25  26
ATOM     26  N   UNL     1       5.046   4.979  -4.730  1.00  0.00    -0.352 N 
ATOM     27  C   UNL     1       5.683   5.636  -5.751  1.00  0.00     0.251 C 
ATOM     28  H   UNL     1       4.988   4.002  -4.831  1.00  0.00     0.163 HD
ATOM     29  O   UNL     1       5.915   5.070  -6.809  1.00  0.00    -0.269 OA
BRANCH  27  30
ATOM     30  C   UNL     1       6.064   7.045  -5.553  1.00  0.00     0.039 A 
ATOM     31  C   UNL     1       5.818   7.968  -6.569  1.00  0.00     0.014 A 
ATOM     32  C   UNL     1       6.631   7.446  -4.342  1.00  0.00     0.014 A 
ATOM     33  C   UNL     1       6.097   9.314  -6.342  1.00  0.00     0.010 A 
ATOM     34  C   UNL     1       6.787   8.795  -4.075  1.00  0.00     0.010 A 
ATOM     35  C   UNL     1       6.554   9.740  -5.083  1.00  0.00    -0.014 A 
BRANCH  35  36
ATOM     36  C   UNL     1       6.854  11.164  -4.812  1.00  0.00     0.031 A 
ATOM     37  C   UNL     1       8.256  11.564  -4.443  1.00  0.00     0.074 A 
ATOM     38  C   UNL     1       5.864  12.075  -4.845  1.00  0.00     0.049 A 
ATOM     39  N   UNL     1       8.719  12.742  -4.112  1.00  0.00    -0.248 NA
ATOM     40  C   UNL     1       9.266  10.492  -4.403  1.00  0.00     0.031 C 
ATOM     41  C   UNL     1       4.457  11.791  -5.135  1.00  0.00     0.029 A 
ATOM     42  N   UNL     1       5.892  13.428  -4.626  1.00  0.00    -0.354 N 
ATOM     43  C   UNL     1      10.061  12.544  -3.810  1.00  0.00     0.074 A 
ATOM     44  C   UNL     1      10.321  11.128  -3.922  1.00  0.00     0.031 C 
ATOM     45  C   UNL     1       3.764  12.941  -5.112  1.00  0.00     0.029 A 
ATOM     46  C   UNL     1       4.668  14.033  -4.765  1.00  0.00     0.049 A 
ATOM     47  H   UNL     1       6.713  13.919  -4.391  1.00  0.00     0.167 HD
ATOM     48  C   UNL     1      11.002  13.467  -3.501  1.00  0.00     0.037 A 
ATOM     49  C   UNL     1       4.318  15.325  -4.624  1.00  0.00     0.037 A 
ATOM     50  C   UNL     1      10.739  14.877  -3.421  1.00  0.00     0.049 A 
ATOM     51  C   UNL     1       5.381  16.331  -4.275  1.00  0.00     0.074 A 
ATOM     52  C   UNL     1      11.629  15.907  -3.173  1.00  0.00     0.029 A 
ATOM     53  N   UNL     1       9.489  15.455  -3.586  1.00  0.00    -0.354 N 
ATOM     54  N   UNL     1       6.662  16.143  -4.067  1.00  0.00    -0.248 NA
ATOM     55  C   UNL     1       4.951  17.730  -4.152  1.00  0.00     0.031 C 
ATOM     56  C   UNL     1      10.907  17.104  -3.136  1.00  0.00     0.029 A 
ATOM     57  C   UNL     1       9.579  16.827  -3.422  1.00  0.00     0.049 A 
ATOM     58  H   UNL     1       8.661  14.963  -3.789  1.00  0.00     0.167 HD
ATOM     59  C   UNL     1       7.196  17.402  -3.821  1.00  0.00     0.074 A 
ATOM     60  C   UNL     1       6.102  18.345  -3.922  1.00  0.00     0.031 C 
ATOM     61  C   UNL     1       8.477  17.748  -3.539  1.00  0.00     0.037 A 
BRANCH  48  62
ATOM     62  C   UNL     1      12.395  12.972  -3.237  1.00  0.00     0.057 A 
ATOM     63  C   UNL     1      13.191  12.419  -4.250  1.00  0.00     0.134 A 
ATOM     64  C   UNL     1      12.955  13.065  -1.957  1.00  0.00     0.134 A 
ATOM     65  F   UNL     1      12.711  12.286  -5.496  1.00  0.00    -0.206 F 
ATOM     66  C   UNL     1      14.479  11.948  -3.993  1.00  0.00     0.040 A 
ATOM     67  C   UNL     1      14.254  12.627  -1.695  1.00  0.00     0.040 A 
ATOM     68  F   UNL     1      12.252  13.586  -0.940  1.00  0.00    -0.206 F 
ATOM     69  C   UNL     1      15.017  12.059  -2.713  1.00  0.00     0.006 A 
ENDBRANCH  48  62
BRANCH  49  70
ATOM     70  C   UNL     1       2.910  15.745  -4.840  1.00  0.00     0.057 A 
ATOM     71  C   UNL     1       2.553  16.540  -5.936  1.00  0.00     0.134 A 
ATOM     72  C   UNL     1       1.890  15.375  -3.955  1.00  0.00     0.134 A 
ATOM     73  F   UNL     1       3.487  16.940  -6.812  1.00  0.00    -0.206 F 
ATOM     74  C   UNL     1       1.241  16.974  -6.130  1.00  0.00     0.040 A 
ATOM     75  C   UNL     1       0.568  15.777  -4.153  1.00  0.00     0.040 A 
ATOM     76  F   UNL     1       2.162  14.604  -2.892  1.00  0.00    -0.206 F 
ATOM     77  C   UNL     1       0.242  16.588  -5.238  1.00  0.00     0.006 A 
ENDBRANCH  49  70
BRANCH  61  78
ATOM     78  C   UNL     1       8.771  19.209  -3.365  1.00  0.00     0.057 A 
ATOM     79  C   UNL     1       8.329  19.929  -2.248  1.00  0.00     0.134 A 
ATOM     80  C   UNL     1       9.545  19.893  -4.312  1.00  0.00     0.134 A 
ATOM     81  F   UNL     1       7.575  19.336  -1.311  1.00  0.00    -0.206 F 
ATOM     82  C   UNL     1       8.624  21.285  -2.093  1.00  0.00     0.040 A 
ATOM     83  C   UNL     1       9.873  21.239  -4.152  1.00  0.00     0.040 A 
ATOM     84  F   UNL     1      10.009  19.259  -5.400  1.00  0.00    -0.206 F 
ATOM     85  C   UNL     1       9.405  21.941  -3.043  1.00  0.00     0.006 A 
ENDBRANCH  61  78
ENDBRANCH  35  36
ENDBRANCH  27  30
ENDBRANCH  25  26
ENDBRANCH  24  25
ENDBRANCH   1  24
TORSDOF 16
