REMARK SMILES CC[C@H](C)[NH2+][C@H](CS)C(=O)NCCCNC(=O)c1ccc(-c2c3nc(c(-c4c(F)cccc4F)c4ccc([nH]4)c(-c4c(F)cccc4F)c4nc(c(-c5c(F)cccc5F)c5ccc2[nH]5)C=C4)C=C3)cc1
REMARK SMILES IDX 12 1 11 2 9 3 10 4 6 6 5 7 3 10 4 11 2 12 1 13 7 14 8 15
REMARK SMILES IDX 13 17 14 18 15 19 16 20 17 22 18 23 19 24 71 25 20 26 70 27
REMARK SMILES IDX 21 28 22 29 23 30 64 31 24 32 69 33 63 34 65 35 25 36 68 37
REMARK SMILES IDX 62 38 61 39 26 41 52 42 35 43 51 44 36 45 39 46 50 47 66 48
REMARK SMILES IDX 37 49 38 50 49 52 67 53 40 54 27 55 28 56 33 57 29 58 30 59
REMARK SMILES IDX 32 60 34 61 31 62 53 63 54 64 59 65 55 66 56 67 58 68 60 69
REMARK SMILES IDX 57 70 41 71 42 72 47 73 43 74 44 75 46 76 48 77 45 78
REMARK H PARENT 11 5 5 8 5 9 8 16 15 21 65 40 39 51
REMARK Flexibility Score: inf
ROOT
ATOM      1  C   UNL     1      -1.872   3.012   4.582  1.00  0.00     0.118 C 
ENDROOT
BRANCH   1   2
ATOM      2  N   UNL     1      -0.749   2.990   5.509  1.00  0.00    -0.351 N 
ATOM      3  C   UNL     1       0.593   2.863   5.257  1.00  0.00     0.279 C 
ATOM      4  O   UNL     1       1.371   2.956   6.209  1.00  0.00    -0.268 OA
ATOM      5  H   UNL     1      -0.990   3.080   6.460  1.00  0.00     0.163 HD
BRANCH   3   6
ATOM      6  C   UNL     1       1.106   2.613   3.816  1.00  0.00     0.282 C 
BRANCH   6   7
ATOM      7  N   UNL     1       0.626   3.751   2.997  1.00  0.00    -0.333 N 
ATOM      8  H   UNL     1      -0.333   3.942   3.286  1.00  0.00     0.347 HD
ATOM      9  H   UNL     1       1.314   4.482   3.174  1.00  0.00     0.347 HD
BRANCH   7  10
ATOM     10  C   UNL     1       0.617   3.631   1.542  1.00  0.00     0.179 C 
ATOM     11  C   UNL     1       0.037   4.947   1.010  1.00  0.00     0.075 C 
BRANCH  10  12
ATOM     12  C   UNL     1       2.002   3.315   0.958  1.00  0.00     0.061 C 
ATOM     13  C   UNL     1       2.021   3.291  -0.565  1.00  0.00     0.010 C 
ENDBRANCH  10  12
ENDBRANCH   7  10
ENDBRANCH   6   7
BRANCH   6  14
ATOM     14  C   UNL     1       0.715   1.177   3.406  1.00  0.00     0.141 C 
BRANCH  14  15
ATOM     15  S   UNL     1       2.087  -0.010   3.643  1.00  0.00    -0.173 SA
ATOM     16  H   UNL     1       3.140   0.352   2.863  1.00  0.00     0.102 HD
ENDBRANCH  14  15
ENDBRANCH   6  14
ENDBRANCH   3   6
ENDBRANCH   1   2
BRANCH   1  17
ATOM     17  C   UNL     1      -2.788   1.806   4.735  1.00  0.00     0.042 C 
BRANCH  17  18
ATOM     18  C   UNL     1      -3.490   1.733   6.081  1.00  0.00     0.118 C 
BRANCH  18  19
ATOM     19  N   UNL     1      -4.459   2.804   6.262  1.00  0.00    -0.352 N 
ATOM     20  C   UNL     1      -5.822   2.747   6.402  1.00  0.00     0.251 C 
ATOM     21  H   UNL     1      -4.077   3.711   6.289  1.00  0.00     0.163 HD
ATOM     22  O   UNL     1      -6.483   3.786   6.346  1.00  0.00    -0.269 OA
BRANCH  20  23
ATOM     23  C   UNL     1      -6.508   1.452   6.594  1.00  0.00     0.039 A 
ATOM     24  C   UNL     1      -7.722   1.225   5.938  1.00  0.00     0.014 A 
ATOM     25  C   UNL     1      -5.977   0.470   7.433  1.00  0.00     0.014 A 
ATOM     26  C   UNL     1      -8.364  -0.008   6.071  1.00  0.00     0.010 A 
ATOM     27  C   UNL     1      -6.567  -0.789   7.492  1.00  0.00     0.010 A 
ATOM     28  C   UNL     1      -7.773  -1.038   6.820  1.00  0.00    -0.014 A 
BRANCH  28  29
ATOM     29  C   UNL     1      -8.404  -2.377   6.927  1.00  0.00     0.031 A 
ATOM     30  C   UNL     1      -8.852  -2.896   8.265  1.00  0.00     0.074 A 
ATOM     31  C   UNL     1      -8.510  -3.155   5.832  1.00  0.00     0.049 A 
ATOM     32  N   UNL     1      -9.353  -4.066   8.575  1.00  0.00    -0.248 NA
ATOM     33  C   UNL     1      -8.689  -1.991   9.414  1.00  0.00     0.031 C 
ATOM     34  C   UNL     1      -8.069  -2.788   4.486  1.00  0.00     0.029 A 
ATOM     35  N   UNL     1      -9.014  -4.423   5.683  1.00  0.00    -0.354 N 
ATOM     36  C   UNL     1      -9.543  -4.043   9.951  1.00  0.00     0.074 A 
ATOM     37  C   UNL     1      -9.055  -2.766  10.424  1.00  0.00     0.031 C 
ATOM     38  C   UNL     1      -8.345  -3.796   3.643  1.00  0.00     0.029 A 
ATOM     39  C   UNL     1      -8.945  -4.894   4.395  1.00  0.00     0.049 A 
ATOM     40  H   UNL     1      -9.389  -4.945   6.428  1.00  0.00     0.167 HD
ATOM     41  C   UNL     1     -10.097  -4.989  10.746  1.00  0.00     0.037 A 
ATOM     42  C   UNL     1      -9.317  -6.081   3.878  1.00  0.00     0.037 A 
ATOM     43  C   UNL     1     -10.608  -6.247  10.269  1.00  0.00     0.049 A 
ATOM     44  C   UNL     1      -9.927  -7.117   4.781  1.00  0.00     0.074 A 
ATOM     45  C   UNL     1     -11.248  -7.244  10.983  1.00  0.00     0.029 A 
ATOM     46  N   UNL     1     -10.534  -6.681   8.954  1.00  0.00    -0.354 N 
ATOM     47  N   UNL     1     -10.164  -7.055   6.068  1.00  0.00    -0.248 NA
ATOM     48  C   UNL     1     -10.324  -8.386   4.156  1.00  0.00     0.031 C 
ATOM     49  C   UNL     1     -11.522  -8.301  10.109  1.00  0.00     0.029 A 
ATOM     50  C   UNL     1     -11.096  -7.942   8.840  1.00  0.00     0.049 A 
ATOM     51  H   UNL     1     -10.140  -6.169   8.211  1.00  0.00     0.167 HD
ATOM     52  C   UNL     1     -10.762  -8.262   6.404  1.00  0.00     0.074 A 
ATOM     53  C   UNL     1     -10.862  -9.033   5.181  1.00  0.00     0.031 C 
ATOM     54  C   UNL     1     -11.192  -8.694   7.615  1.00  0.00     0.037 A 
BRANCH  41  55
ATOM     55  C   UNL     1     -10.176  -4.694  12.216  1.00  0.00     0.057 A 
ATOM     56  C   UNL     1     -11.040  -3.716  12.729  1.00  0.00     0.134 A 
ATOM     57  C   UNL     1      -9.393  -5.407  13.132  1.00  0.00     0.134 A 
ATOM     58  F   UNL     1     -11.809  -2.988  11.905  1.00  0.00    -0.206 F 
ATOM     59  C   UNL     1     -11.097  -3.436  14.095  1.00  0.00     0.040 A 
ATOM     60  C   UNL     1      -9.463  -5.155  14.504  1.00  0.00     0.040 A 
ATOM     61  F   UNL     1      -8.550  -6.361  12.711  1.00  0.00    -0.206 F 
ATOM     62  C   UNL     1     -10.311  -4.161  14.988  1.00  0.00     0.006 A 
ENDBRANCH  41  55
BRANCH  42  63
ATOM     63  C   UNL     1      -9.151  -6.341   2.427  1.00  0.00     0.057 A 
ATOM     64  C   UNL     1     -10.261  -6.409   1.577  1.00  0.00     0.134 A 
ATOM     65  C   UNL     1      -7.887  -6.522   1.853  1.00  0.00     0.134 A 
ATOM     66  F   UNL     1     -11.499  -6.261   2.072  1.00  0.00    -0.206 F 
ATOM     67  C   UNL     1     -10.123  -6.663   0.212  1.00  0.00     0.040 A 
ATOM     68  C   UNL     1      -7.733  -6.754   0.485  1.00  0.00     0.040 A 
ATOM     69  F   UNL     1      -6.784  -6.460   2.612  1.00  0.00    -0.206 F 
ATOM     70  C   UNL     1      -8.854  -6.831  -0.338  1.00  0.00     0.006 A 
ENDBRANCH  42  63
BRANCH  54  71
ATOM     71  C   UNL     1     -11.839 -10.046   7.671  1.00  0.00     0.057 A 
ATOM     72  C   UNL     1     -11.098 -11.227   7.544  1.00  0.00     0.134 A 
ATOM     73  C   UNL     1     -13.217 -10.167   7.896  1.00  0.00     0.134 A 
ATOM     74  F   UNL     1      -9.777 -11.180   7.314  1.00  0.00    -0.206 F 
ATOM     75  C   UNL     1     -11.707 -12.481   7.616  1.00  0.00     0.040 A 
ATOM     76  C   UNL     1     -13.833 -11.415   7.997  1.00  0.00     0.040 A 
ATOM     77  F   UNL     1     -13.983  -9.075   8.036  1.00  0.00    -0.206 F 
ATOM     78  C   UNL     1     -13.078 -12.577   7.850  1.00  0.00     0.006 A 
ENDBRANCH  54  71
ENDBRANCH  28  29
ENDBRANCH  20  23
ENDBRANCH  18  19
ENDBRANCH  17  18
ENDBRANCH   1  17
TORSDOF 15
