REMARK SMILES O=C(NCCCNC(=O)[C@@H]1CCCN(C(=O)/C=C/c2c(F)cccc2Cl)C1)c1ccc(-c2c3nc(c(-c4c(F)cccc4F)c4ccc([nH]4)c(-c4c(F)cccc4F)c4nc(c(-c5c(F)cccc5F)c5ccc2[nH]5)C=C4)C=C3)cc1
REMARK SMILES IDX 5 1 4 2 3 3 1 4 2 5 28 7 29 8 81 9 30 10 80 11 31 12 32 13
REMARK SMILES IDX 33 14 74 15 34 16 79 17 73 18 75 19 35 20 78 21 72 22 71 23
REMARK SMILES IDX 36 25 62 26 45 27 61 28 46 29 49 30 60 31 76 32 47 33 48 34
REMARK SMILES IDX 59 36 77 37 50 38 37 39 38 40 43 41 39 42 40 43 42 44 44 45
REMARK SMILES IDX 41 46 63 47 64 48 69 49 65 50 66 51 68 52 70 53 67 54 51 55
REMARK SMILES IDX 52 56 57 57 53 58 54 59 56 60 58 61 55 62 6 63 7 64 8 65
REMARK SMILES IDX 9 67 10 68 11 69 27 70 12 71 14 72 13 73 15 74 16 75 17 76
REMARK SMILES IDX 18 77 19 78 20 79 25 80 21 81 22 82 24 83 26 84 23 85
REMARK H PARENT 3 6 75 24 49 35 7 66
REMARK Flexibility Score: inf
ROOT
ATOM      1  C   UNL     1       4.758   2.445  -0.694  1.00  0.00     0.042 C 
ENDROOT
BRANCH   1   2
ATOM      2  C   UNL     1       4.447   1.273   0.225  1.00  0.00     0.118 C 
BRANCH   2   3
ATOM      3  N   UNL     1       3.020   0.994   0.316  1.00  0.00    -0.352 N 
ATOM      4  O   UNL     1       1.099  -0.126  -0.056  1.00  0.00    -0.269 OA
ATOM      5  C   UNL     1       2.323  -0.137  -0.036  1.00  0.00     0.251 C 
ATOM      6  H   UNL     1       2.474   1.725   0.684  1.00  0.00     0.163 HD
BRANCH   5   7
ATOM      7  C   UNL     1       3.058  -1.365  -0.407  1.00  0.00     0.039 A 
ATOM      8  C   UNL     1       4.169  -1.777   0.331  1.00  0.00     0.014 A 
ATOM      9  C   UNL     1       2.614  -2.126  -1.492  1.00  0.00     0.014 A 
ATOM     10  C   UNL     1       4.923  -2.859  -0.102  1.00  0.00     0.010 A 
ATOM     11  C   UNL     1       3.314  -3.277  -1.864  1.00  0.00     0.010 A 
ATOM     12  C   UNL     1       4.486  -3.640  -1.183  1.00  0.00    -0.014 A 
BRANCH  12  13
ATOM     13  C   UNL     1       5.220  -4.888  -1.507  1.00  0.00     0.031 A 
ATOM     14  C   UNL     1       5.922  -5.067  -2.822  1.00  0.00     0.074 A 
ATOM     15  C   UNL     1       5.260  -5.860  -0.574  1.00  0.00     0.049 A 
ATOM     16  N   UNL     1       6.612  -6.095  -3.249  1.00  0.00    -0.248 NA
ATOM     17  C   UNL     1       5.837  -3.960  -3.787  1.00  0.00     0.031 C 
ATOM     18  C   UNL     1       4.598  -5.799   0.734  1.00  0.00     0.029 A 
ATOM     19  N   UNL     1       5.889  -7.077  -0.568  1.00  0.00    -0.354 N 
ATOM     20  C   UNL     1       7.028  -5.769  -4.534  1.00  0.00     0.074 A 
ATOM     21  C   UNL     1       6.497  -4.455  -4.827  1.00  0.00     0.031 C 
ATOM     22  C   UNL     1       4.892  -6.906   1.429  1.00  0.00     0.029 A 
ATOM     23  C   UNL     1       5.699  -7.785   0.594  1.00  0.00     0.049 A 
ATOM     24  H   UNL     1       6.425  -7.412  -1.323  1.00  0.00     0.167 HD
ATOM     25  C   UNL     1       7.788  -6.502  -5.382  1.00  0.00     0.037 A 
ATOM     26  C   UNL     1       6.106  -9.018   0.942  1.00  0.00     0.037 A 
ATOM     27  C   UNL     1       8.325  -7.803  -5.072  1.00  0.00     0.049 A 
ATOM     28  C   UNL     1       6.921  -9.813  -0.035  1.00  0.00     0.074 A 
ATOM     29  C   UNL     1       9.146  -8.603  -5.850  1.00  0.00     0.029 A 
ATOM     30  N   UNL     1       8.089  -8.499  -3.896  1.00  0.00    -0.354 N 
ATOM     31  N   UNL     1       7.348  -9.470  -1.226  1.00  0.00    -0.248 NA
ATOM     32  C   UNL     1       7.307 -11.169   0.378  1.00  0.00     0.031 C 
ATOM     33  C   UNL     1       9.364  -9.803  -5.167  1.00  0.00     0.029 A 
ATOM     34  C   UNL     1       8.724  -9.731  -3.941  1.00  0.00     0.049 A 
ATOM     35  H   UNL     1       7.551  -8.168  -3.142  1.00  0.00     0.167 HD
ATOM     36  C   UNL     1       8.068 -10.559  -1.697  1.00  0.00     0.074 A 
ATOM     37  C   UNL     1       8.041 -11.562  -0.653  1.00  0.00     0.031 C 
ATOM     38  C   UNL     1       8.689 -10.716  -2.891  1.00  0.00     0.037 A 
BRANCH  25  39
ATOM     39  C   UNL     1       8.082  -5.932  -6.740  1.00  0.00     0.057 A 
ATOM     40  C   UNL     1       8.987  -4.880  -6.923  1.00  0.00     0.134 A 
ATOM     41  C   UNL     1       7.518  -6.505  -7.888  1.00  0.00     0.134 A 
ATOM     42  F   UNL     1       9.556  -4.281  -5.866  1.00  0.00    -0.206 F 
ATOM     43  C   UNL     1       9.316  -4.413  -8.197  1.00  0.00     0.040 A 
ATOM     44  C   UNL     1       7.856  -6.062  -9.168  1.00  0.00     0.040 A 
ATOM     45  F   UNL     1       6.649  -7.522  -7.785  1.00  0.00    -0.206 F 
ATOM     46  C   UNL     1       8.758  -5.012  -9.325  1.00  0.00     0.006 A 
ENDBRANCH  25  39
BRANCH  26  47
ATOM     47  C   UNL     1       5.724  -9.585   2.259  1.00  0.00     0.057 A 
ATOM     48  C   UNL     1       6.682  -9.846   3.244  1.00  0.00     0.134 A 
ATOM     49  C   UNL     1       4.391  -9.894   2.558  1.00  0.00     0.134 A 
ATOM     50  F   UNL     1       7.978  -9.586   3.012  1.00  0.00    -0.206 F 
ATOM     51  C   UNL     1       6.334 -10.418   4.469  1.00  0.00     0.040 A 
ATOM     52  C   UNL     1       4.024 -10.436   3.790  1.00  0.00     0.040 A 
ATOM     53  F   UNL     1       3.422  -9.659   1.661  1.00  0.00    -0.206 F 
ATOM     54  C   UNL     1       4.999 -10.711   4.745  1.00  0.00     0.006 A 
ENDBRANCH  26  47
BRANCH  38  55
ATOM     55  C   UNL     1       9.415 -12.010  -3.112  1.00  0.00     0.057 A 
ATOM     56  C   UNL     1       8.731 -13.216  -3.309  1.00  0.00     0.134 A 
ATOM     57  C   UNL     1      10.815 -12.046  -3.144  1.00  0.00     0.134 A 
ATOM     58  F   UNL     1       7.390 -13.252  -3.273  1.00  0.00    -0.206 F 
ATOM     59  C   UNL     1       9.414 -14.418  -3.504  1.00  0.00     0.040 A 
ATOM     60  C   UNL     1      11.508 -13.236  -3.368  1.00  0.00     0.040 A 
ATOM     61  F   UNL     1      11.530 -10.925  -2.969  1.00  0.00    -0.206 F 
ATOM     62  C   UNL     1      10.807 -14.428  -3.540  1.00  0.00     0.006 A 
ENDBRANCH  38  55
ENDBRANCH  12  13
ENDBRANCH   5   7
ENDBRANCH   2   3
ENDBRANCH   1   2
BRANCH   1  63
ATOM     63  C   UNL     1       4.211   3.769  -0.187  1.00  0.00     0.117 C 
BRANCH  63  64
ATOM     64  N   UNL     1       4.793   4.131   1.094  1.00  0.00    -0.356 N 
ATOM     65  C   UNL     1       5.737   5.071   1.388  1.00  0.00     0.224 C 
ATOM     66  H   UNL     1       4.455   3.622   1.866  1.00  0.00     0.163 HD
ATOM     67  O   UNL     1       6.189   5.104   2.532  1.00  0.00    -0.275 OA
BRANCH  65  68
ATOM     68  C   UNL     1       6.195   6.019   0.288  1.00  0.00     0.098 C 
ATOM     69  C   UNL     1       7.493   6.766   0.658  1.00  0.00     0.017 C 
ATOM     70  C   UNL     1       5.066   6.999  -0.060  1.00  0.00     0.133 C 
ATOM     71  C   UNL     1       7.275   7.965   1.591  1.00  0.00     0.022 C 
ATOM     72  N   UNL     1       4.937   8.046   0.948  1.00  0.00    -0.338 N 
ATOM     73  C   UNL     1       6.141   8.855   1.090  1.00  0.00     0.120 C 
BRANCH  72  74
ATOM     74  C   UNL     1       3.787   8.086   1.716  1.00  0.00     0.246 C 
ATOM     75  O   UNL     1       2.833   7.329   1.525  1.00  0.00    -0.270 OA
BRANCH  74  76
ATOM     76  C   UNL     1       3.610   9.134   2.753  1.00  0.00     0.072 C 
ATOM     77  C   UNL     1       4.484   9.425   3.727  1.00  0.00     0.018 C 
BRANCH  77  78
ATOM     78  C   UNL     1       4.200  10.459   4.731  1.00  0.00     0.029 A 
ATOM     79  C   UNL     1       3.540  10.101   5.913  1.00  0.00     0.131 A 
ATOM     80  C   UNL     1       4.566  11.805   4.565  1.00  0.00     0.051 A 
ATOM     81  F   UNL     1       3.165   8.829   6.117  1.00  0.00    -0.206 F 
ATOM     82  C   UNL     1       3.259  11.037   6.907  1.00  0.00     0.040 A 
ATOM     83  C   UNL     1       4.287  12.750   5.561  1.00  0.00     0.021 A 
ATOM     84  Cl  UNL     1       5.378  12.363   3.142  1.00  0.00    -0.084 Cl
ATOM     85  C   UNL     1       3.636  12.366   6.733  1.00  0.00     0.005 A 
ENDBRANCH  77  78
ENDBRANCH  74  76
ENDBRANCH  72  74
ENDBRANCH  65  68
ENDBRANCH  63  64
ENDBRANCH   1  63
TORSDOF 13
