REMARK SMILES NC(=O)c1cc(Cl)ccc1N1CCO[C@@H](CC(=O)NCCCNC(=O)c2ccc(-c3c4nc(c(-c5c(F)cccc5F)c5ccc([nH]5)c(-c5c(F)cccc5F)c5nc(c(-c6c(F)cccc6F)c6ccc3[nH]6)C=C5)C=C4)cc2)C1
REMARK SMILES IDX 20 1 19 2 17 3 18 4 16 6 15 7 11 8 12 9 80 10 13 11 14 12
REMARK SMILES IDX 10 13 4 14 5 15 6 16 9 17 7 18 8 19 2 20 1 21 3 24 21 25
REMARK SMILES IDX 22 26 23 27 24 28 25 30 26 31 27 32 79 33 28 34 78 35 29 36
REMARK SMILES IDX 30 37 31 38 72 39 32 40 77 41 71 42 73 43 33 44 76 45 70 46
REMARK SMILES IDX 69 47 34 49 60 50 43 51 59 52 44 53 47 54 58 55 74 56 45 57
REMARK SMILES IDX 46 58 57 60 75 61 48 62 35 63 36 64 41 65 37 66 38 67 40 68
REMARK SMILES IDX 42 69 39 70 61 71 62 72 67 73 63 74 64 75 66 76 68 77 65 78
REMARK SMILES IDX 49 79 50 80 55 81 51 82 52 83 54 84 56 85 53 86
REMARK H PARENT 19 5 1 22 1 23 23 29 73 48 47 59
REMARK Flexibility Score: inf
ROOT
ATOM      1  C   UNL     1      -2.271   2.767   6.523  1.00  0.00     0.117 C 
ENDROOT
BRANCH   1   2
ATOM      2  N   UNL     1      -3.080   3.247   5.409  1.00  0.00    -0.356 N 
ATOM      3  C   UNL     1      -3.805   2.586   4.458  1.00  0.00     0.222 C 
ATOM      4  O   UNL     1      -4.407   3.268   3.627  1.00  0.00    -0.275 OA
ATOM      5  H   UNL     1      -3.109   4.228   5.326  1.00  0.00     0.163 HD
BRANCH   3   6
ATOM      6  C   UNL     1      -3.849   1.070   4.397  1.00  0.00     0.133 C 
BRANCH   6   7
ATOM      7  C   UNL     1      -2.841   0.496   3.394  1.00  0.00     0.147 C 
ATOM      8  N   UNL     1      -0.382   0.168   3.095  1.00  0.00    -0.366 N 
ATOM      9  C   UNL     1      -0.580  -1.256   2.869  1.00  0.00     0.145 C 
ATOM     10  C   UNL     1      -1.421   0.883   3.819  1.00  0.00     0.149 C 
ATOM     11  C   UNL     1      -2.035  -1.509   2.430  1.00  0.00     0.182 C 
ATOM     12  O   UNL     1      -2.979  -0.943   3.364  1.00  0.00    -0.374 OA
BRANCH   8  13
ATOM     13  C   UNL     1       0.786   0.851   2.839  1.00  0.00     0.050 A 
ATOM     14  C   UNL     1       1.149   1.250   1.542  1.00  0.00     0.064 A 
ATOM     15  C   UNL     1       2.203   2.144   1.318  1.00  0.00     0.036 A 
ATOM     16  C   UNL     1       2.920   2.639   2.400  1.00  0.00     0.041 A 
ATOM     17  C   UNL     1       1.577   1.317   3.904  1.00  0.00     0.028 A 
ATOM     18  Cl  UNL     1       4.135   3.823   2.134  1.00  0.00    -0.084 Cl
ATOM     19  C   UNL     1       2.631   2.212   3.692  1.00  0.00     0.023 A 
BRANCH  14  20
ATOM     20  C   UNL     1       0.363   0.813   0.371  1.00  0.00     0.250 C 
ATOM     21  N   UNL     1       1.047   0.034  -0.519  1.00  0.00    -0.366 N 
ATOM     22  H   UNL     1       0.597  -0.301  -1.328  1.00  0.00     0.159 HD
ATOM     23  H   UNL     1       1.990  -0.193  -0.351  1.00  0.00     0.159 HD
ATOM     24  O   UNL     1      -0.806   1.123   0.203  1.00  0.00    -0.269 OA
ENDBRANCH  14  20
ENDBRANCH   8  13
ENDBRANCH   6   7
ENDBRANCH   3   6
ENDBRANCH   1   2
BRANCH   1  25
ATOM     25  C   UNL     1      -0.771   2.999   6.309  1.00  0.00     0.042 C 
BRANCH  25  26
ATOM     26  C   UNL     1      -0.310   4.444   6.444  1.00  0.00     0.118 C 
BRANCH  26  27
ATOM     27  N   UNL     1       0.186   4.718   7.780  1.00  0.00    -0.352 N 
ATOM     28  C   UNL     1       1.469   4.817   8.264  1.00  0.00     0.251 C 
ATOM     29  H   UNL     1      -0.516   4.857   8.456  1.00  0.00     0.163 HD
ATOM     30  O   UNL     1       1.635   4.772   9.482  1.00  0.00    -0.269 OA
BRANCH  28  31
ATOM     31  C   UNL     1       2.656   4.969   7.379  1.00  0.00     0.039 A 
ATOM     32  C   UNL     1       3.877   4.438   7.817  1.00  0.00     0.014 A 
ATOM     33  C   UNL     1       2.632   5.710   6.196  1.00  0.00     0.014 A 
ATOM     34  C   UNL     1       5.048   4.628   7.071  1.00  0.00     0.010 A 
ATOM     35  C   UNL     1       3.783   5.828   5.409  1.00  0.00     0.010 A 
ATOM     36  C   UNL     1       5.012   5.311   5.846  1.00  0.00    -0.014 A 
BRANCH  36  37
ATOM     37  C   UNL     1       6.248   5.524   5.040  1.00  0.00     0.031 A 
ATOM     38  C   UNL     1       6.746   6.921   4.757  1.00  0.00     0.074 A 
ATOM     39  C   UNL     1       6.906   4.471   4.515  1.00  0.00     0.049 A 
ATOM     40  N   UNL     1       7.758   7.309   4.021  1.00  0.00    -0.248 NA
ATOM     41  C   UNL     1       5.999   8.028   5.373  1.00  0.00     0.031 C 
ATOM     42  C   UNL     1       6.529   3.067   4.683  1.00  0.00     0.029 A 
ATOM     43  N   UNL     1       8.018   4.420   3.710  1.00  0.00    -0.354 N 
ATOM     44  C   UNL     1       7.759   8.698   4.073  1.00  0.00     0.074 A 
ATOM     45  C   UNL     1       6.616   9.088   4.871  1.00  0.00     0.031 C 
ATOM     46  C   UNL     1       7.388   2.295   3.997  1.00  0.00     0.029 A 
ATOM     47  C   UNL     1       8.362   3.147   3.323  1.00  0.00     0.049 A 
ATOM     48  H   UNL     1       8.522   5.221   3.436  1.00  0.00     0.167 HD
ATOM     49  C   UNL     1       8.642   9.572   3.532  1.00  0.00     0.037 A 
ATOM     50  C   UNL     1       9.344   2.711   2.511  1.00  0.00     0.037 A 
ATOM     51  C   UNL     1       9.797   9.191   2.761  1.00  0.00     0.049 A 
ATOM     52  C   UNL     1      10.296   3.700   1.898  1.00  0.00     0.074 A 
ATOM     53  C   UNL     1      10.787  10.001   2.232  1.00  0.00     0.029 A 
ATOM     54  N   UNL     1      10.114   7.889   2.405  1.00  0.00    -0.354 N 
ATOM     55  N   UNL     1      10.324   5.005   2.019  1.00  0.00    -0.248 NA
ATOM     56  C   UNL     1      11.361   3.154   1.045  1.00  0.00     0.031 C 
ATOM     57  C   UNL     1      11.678   9.195   1.517  1.00  0.00     0.029 A 
ATOM     58  C   UNL     1      11.271   7.877   1.642  1.00  0.00     0.049 A 
ATOM     59  H   UNL     1       9.595   7.092   2.658  1.00  0.00     0.167 HD
ATOM     60  C   UNL     1      11.427   5.431   1.290  1.00  0.00     0.074 A 
ATOM     61  C   UNL     1      12.046   4.246   0.735  1.00  0.00     0.031 C 
ATOM     62  C   UNL     1      11.887   6.692   1.102  1.00  0.00     0.037 A 
BRANCH  49  63
ATOM     63  C   UNL     1       8.397  11.038   3.759  1.00  0.00     0.057 A 
ATOM     64  C   UNL     1       8.567  11.629   5.018  1.00  0.00     0.134 A 
ATOM     65  C   UNL     1       8.028  11.875   2.699  1.00  0.00     0.134 A 
ATOM     66  F   UNL     1       8.913  10.883   6.078  1.00  0.00    -0.206 F 
ATOM     67  C   UNL     1       8.349  12.993   5.221  1.00  0.00     0.040 A 
ATOM     68  C   UNL     1       7.834  13.246   2.883  1.00  0.00     0.040 A 
ATOM     69  F   UNL     1       7.860  11.379   1.464  1.00  0.00    -0.206 F 
ATOM     70  C   UNL     1       7.987  13.807   4.149  1.00  0.00     0.006 A 
ENDBRANCH  49  63
BRANCH  50  71
ATOM     71  C   UNL     1       9.498   1.258   2.251  1.00  0.00     0.057 A 
ATOM     72  C   UNL     1      10.575   0.542   2.786  1.00  0.00     0.134 A 
ATOM     73  C   UNL     1       8.584   0.552   1.459  1.00  0.00     0.134 A 
ATOM     74  F   UNL     1      11.495   1.167   3.536  1.00  0.00    -0.206 F 
ATOM     75  C   UNL     1      10.750  -0.819   2.528  1.00  0.00     0.040 A 
ATOM     76  C   UNL     1       8.733  -0.813   1.212  1.00  0.00     0.040 A 
ATOM     77  F   UNL     1       7.526   1.178   0.924  1.00  0.00    -0.206 F 
ATOM     78  C   UNL     1       9.823  -1.501   1.742  1.00  0.00     0.006 A 
ENDBRANCH  50  71
BRANCH  62  79
ATOM     79  C   UNL     1      13.143   6.855   0.297  1.00  0.00     0.057 A 
ATOM     80  C   UNL     1      13.164   6.671  -1.091  1.00  0.00     0.134 A 
ATOM     81  C   UNL     1      14.340   7.239   0.917  1.00  0.00     0.134 A 
ATOM     82  F   UNL     1      12.055   6.289  -1.743  1.00  0.00    -0.206 F 
ATOM     83  C   UNL     1      14.335   6.843  -1.831  1.00  0.00     0.040 A 
ATOM     84  C   UNL     1      15.510   7.440   0.183  1.00  0.00     0.040 A 
ATOM     85  F   UNL     1      14.388   7.440   2.242  1.00  0.00    -0.206 F 
ATOM     86  C   UNL     1      15.511   7.236  -1.195  1.00  0.00     0.006 A 
ENDBRANCH  62  79
ENDBRANCH  36  37
ENDBRANCH  28  31
ENDBRANCH  26  27
ENDBRANCH  25  26
ENDBRANCH   1  25
TORSDOF 13
