REMARK SMILES Cc1cc(C(=O)NCCCNC(=O)c2ccc(-c3c4nc(c(-c5c(F)cccc5F)c5ccc([nH]5)c(-c5c(F)cccc5F)c5nc(c(-c6c(F)cccc6F)c6ccc3[nH]6)C=C5)C=C4)cc2)ccc1N[C@H](C)c1cc(F)cc(F)c1
REMARK SMILES IDX 8 1 7 2 5 3 6 4 4 6 1 7 2 8 3 9 70 10 69 11 68 12 71 13
REMARK SMILES IDX 72 15 73 16 74 17 75 18 81 19 76 20 79 21 77 22 78 23 80 24
REMARK SMILES IDX 9 25 10 26 11 27 12 28 13 30 14 31 15 32 67 33 16 34 66 35
REMARK SMILES IDX 17 36 18 37 19 38 60 39 20 40 65 41 59 42 61 43 21 44 64 45
REMARK SMILES IDX 58 46 57 47 22 49 48 50 31 51 47 52 32 53 35 54 46 55 62 56
REMARK SMILES IDX 33 57 34 58 45 60 63 61 36 62 23 63 24 64 29 65 25 66 26 67
REMARK SMILES IDX 28 68 30 69 27 70 49 71 50 72 55 73 51 74 52 75 54 76 56 77
REMARK SMILES IDX 53 78 37 79 38 80 43 81 39 82 40 83 42 84 44 85 41 86
REMARK H PARENT 7 5 71 14 11 29 61 48 35 59
REMARK Flexibility Score: inf
ROOT
ATOM      1  C   UNL     1      -0.654  10.557   2.039  1.00  0.00     0.118 C 
ENDROOT
BRANCH   1   2
ATOM      2  N   UNL     1      -1.799  10.082   2.812  1.00  0.00    -0.352 N 
ATOM      3  C   UNL     1      -2.254   8.839   3.201  1.00  0.00     0.251 C 
ATOM      4  O   UNL     1      -3.269   8.818   3.900  1.00  0.00    -0.269 OA
ATOM      5  H   UNL     1      -2.376  10.815   3.127  1.00  0.00     0.163 HD
BRANCH   3   6
ATOM      6  C   UNL     1      -1.625   7.538   2.819  1.00  0.00     0.040 A 
ATOM      7  C   UNL     1      -2.416   3.844   3.394  1.00  0.00     0.046 C 
ATOM      8  C   UNL     1      -1.723   5.056   2.829  1.00  0.00    -0.027 A 
ATOM      9  C   UNL     1      -2.242   6.332   3.200  1.00  0.00     0.019 A 
ATOM     10  C   UNL     1      -0.551   4.979   2.055  1.00  0.00     0.037 A 
ATOM     11  C   UNL     1       0.092   6.188   1.804  1.00  0.00     0.027 A 
ATOM     12  C   UNL     1      -0.431   7.431   2.142  1.00  0.00     0.016 A 
BRANCH  10  13
ATOM     13  N   UNL     1      -0.040   3.792   1.538  1.00  0.00    -0.378 N 
ATOM     14  H   UNL     1       0.068   3.028   2.150  1.00  0.00     0.161 HD
BRANCH  13  15
ATOM     15  C   UNL     1       0.353   3.610   0.119  1.00  0.00     0.106 C 
ATOM     16  C   UNL     1       0.779   2.152  -0.094  1.00  0.00     0.036 C 
BRANCH  15  17
ATOM     17  C   UNL     1       1.454   4.560  -0.342  1.00  0.00    -0.020 A 
ATOM     18  C   UNL     1       1.126   5.655  -1.170  1.00  0.00     0.045 A 
ATOM     19  C   UNL     1       2.764   4.479   0.163  1.00  0.00     0.045 A 
ATOM     20  C   UNL     1       2.055   6.671  -1.393  1.00  0.00     0.126 A 
ATOM     21  C   UNL     1       3.681   5.497  -0.100  1.00  0.00     0.126 A 
ATOM     22  F   UNL     1       1.681   7.764  -2.074  1.00  0.00    -0.207 F 
ATOM     23  C   UNL     1       3.332   6.606  -0.858  1.00  0.00     0.078 A 
ATOM     24  F   UNL     1       4.905   5.431   0.439  1.00  0.00    -0.207 F 
ENDBRANCH  15  17
ENDBRANCH  13  15
ENDBRANCH  10  13
ENDBRANCH   3   6
ENDBRANCH   1   2
BRANCH   1  25
ATOM     25  C   UNL     1      -0.793  10.303   0.529  1.00  0.00     0.042 C 
BRANCH  25  26
ATOM     26  C   UNL     1      -1.173  11.560  -0.246  1.00  0.00     0.118 C 
BRANCH  26  27
ATOM     27  N   UNL     1      -0.096  12.127  -1.059  1.00  0.00    -0.352 N 
ATOM     28  C   UNL     1      -0.006  13.404  -1.608  1.00  0.00     0.251 C 
ATOM     29  H   UNL     1       0.663  11.528  -1.242  1.00  0.00     0.163 HD
ATOM     30  O   UNL     1       0.946  13.739  -2.274  1.00  0.00    -0.269 OA
BRANCH  28  31
ATOM     31  C   UNL     1      -1.054  14.387  -1.233  1.00  0.00     0.039 A 
ATOM     32  C   UNL     1      -0.634  15.530  -0.549  1.00  0.00     0.014 A 
ATOM     33  C   UNL     1      -2.395  14.013  -1.249  1.00  0.00     0.014 A 
ATOM     34  C   UNL     1      -1.501  16.119   0.366  1.00  0.00     0.010 A 
ATOM     35  C   UNL     1      -3.232  14.547  -0.285  1.00  0.00     0.010 A 
ATOM     36  C   UNL     1      -2.751  15.536   0.582  1.00  0.00    -0.014 A 
BRANCH  36  37
ATOM     37  C   UNL     1      -3.537  15.807   1.781  1.00  0.00     0.031 A 
ATOM     38  C   UNL     1      -4.717  16.687   1.726  1.00  0.00     0.074 A 
ATOM     39  C   UNL     1      -3.195  15.259   2.970  1.00  0.00     0.049 A 
ATOM     40  N   UNL     1      -5.118  17.414   2.715  1.00  0.00    -0.248 NA
ATOM     41  C   UNL     1      -5.526  16.833   0.526  1.00  0.00     0.031 C 
ATOM     42  C   UNL     1      -3.967  15.285   4.209  1.00  0.00     0.029 A 
ATOM     43  N   UNL     1      -1.946  14.756   3.350  1.00  0.00    -0.354 N 
ATOM     44  C   UNL     1      -6.363  17.896   2.394  1.00  0.00     0.074 A 
ATOM     45  C   UNL     1      -6.543  17.563   0.997  1.00  0.00     0.031 C 
ATOM     46  C   UNL     1      -3.129  15.124   5.243  1.00  0.00     0.029 A 
ATOM     47  C   UNL     1      -1.780  15.088   4.715  1.00  0.00     0.049 A 
ATOM     48  H   UNL     1      -1.309  14.267   2.781  1.00  0.00     0.167 HD
ATOM     49  C   UNL     1      -7.165  18.407   3.373  1.00  0.00     0.037 A 
ATOM     50  C   UNL     1      -0.742  15.875   5.120  1.00  0.00     0.037 A 
ATOM     51  C   UNL     1      -6.518  18.392   4.685  1.00  0.00     0.049 A 
ATOM     52  C   UNL     1      -1.156  17.207   5.708  1.00  0.00     0.074 A 
ATOM     53  C   UNL     1      -6.607  17.571   5.799  1.00  0.00     0.029 A 
ATOM     54  N   UNL     1      -5.401  19.182   4.893  1.00  0.00    -0.354 N 
ATOM     55  N   UNL     1      -2.391  17.581   5.900  1.00  0.00    -0.248 NA
ATOM     56  C   UNL     1      -0.200  18.270   6.026  1.00  0.00     0.031 C 
ATOM     57  C   UNL     1      -5.539  17.892   6.684  1.00  0.00     0.029 A 
ATOM     58  C   UNL     1      -4.796  18.902   6.105  1.00  0.00     0.049 A 
ATOM     59  H   UNL     1      -5.076  19.859   4.257  1.00  0.00     0.167 HD
ATOM     60  C   UNL     1      -2.412  18.899   6.276  1.00  0.00     0.074 A 
ATOM     61  C   UNL     1      -1.016  19.285   6.349  1.00  0.00     0.031 C 
ATOM     62  C   UNL     1      -3.570  19.601   6.453  1.00  0.00     0.037 A 
BRANCH  49  63
ATOM     63  C   UNL     1      -8.638  18.667   3.162  1.00  0.00     0.057 A 
ATOM     64  C   UNL     1      -9.569  18.487   4.202  1.00  0.00     0.134 A 
ATOM     65  C   UNL     1      -9.207  19.051   1.936  1.00  0.00     0.134 A 
ATOM     66  F   UNL     1      -9.184  18.252   5.463  1.00  0.00    -0.206 F 
ATOM     67  C   UNL     1     -10.954  18.535   4.001  1.00  0.00     0.040 A 
ATOM     68  C   UNL     1     -10.590  19.044   1.702  1.00  0.00     0.040 A 
ATOM     69  F   UNL     1      -8.449  19.495   0.924  1.00  0.00    -0.206 F 
ATOM     70  C   UNL     1     -11.471  18.765   2.736  1.00  0.00     0.006 A 
ENDBRANCH  49  63
BRANCH  50  71
ATOM     71  C   UNL     1       0.489  15.621   4.327  1.00  0.00     0.057 A 
ATOM     72  C   UNL     1       1.072  14.343   4.406  1.00  0.00     0.134 A 
ATOM     73  C   UNL     1       0.830  16.414   3.230  1.00  0.00     0.134 A 
ATOM     74  F   UNL     1       0.791  13.536   5.442  1.00  0.00    -0.206 F 
ATOM     75  C   UNL     1       1.835  13.818   3.362  1.00  0.00     0.040 A 
ATOM     76  C   UNL     1       1.614  15.905   2.190  1.00  0.00     0.040 A 
ATOM     77  F   UNL     1       0.309  17.640   3.083  1.00  0.00    -0.206 F 
ATOM     78  C   UNL     1       2.072  14.588   2.229  1.00  0.00     0.006 A 
ENDBRANCH  50  71
BRANCH  62  79
ATOM     79  C   UNL     1      -3.620  21.020   6.951  1.00  0.00     0.057 A 
ATOM     80  C   UNL     1      -2.794  21.489   7.984  1.00  0.00     0.134 A 
ATOM     81  C   UNL     1      -4.589  21.935   6.493  1.00  0.00     0.134 A 
ATOM     82  F   UNL     1      -1.898  20.684   8.574  1.00  0.00    -0.206 F 
ATOM     83  C   UNL     1      -2.877  22.798   8.477  1.00  0.00     0.040 A 
ATOM     84  C   UNL     1      -4.714  23.228   7.010  1.00  0.00     0.040 A 
ATOM     85  F   UNL     1      -5.449  21.622   5.513  1.00  0.00    -0.206 F 
ATOM     86  C   UNL     1      -3.843  23.671   7.994  1.00  0.00     0.006 A 
ENDBRANCH  62  79
ENDBRANCH  36  37
ENDBRANCH  28  31
ENDBRANCH  26  27
ENDBRANCH  25  26
ENDBRANCH   1  25
TORSDOF 13
