REMARK SMILES Cc1ccc2c(CC(=O)N3CCC(C(=O)NCCCNC(=O)c4ccc(-c5c6nc(c(-c7c(F)cccc7F)c7ccc([nH]7)c(-c7c(F)cccc7F)c7nc(c(-c8c(F)cccc8F)c8ccc5[nH]8)C=C7)C=C6)cc4)CC3)coc2c1
REMARK SMILES IDX 18 1 17 2 16 3 14 4 15 5 13 7 8 8 9 9 10 10 11 11 78 12
REMARK SMILES IDX 12 13 77 14 7 15 6 16 1 17 2 18 3 19 82 20 4 21 81 22 5 23
REMARK SMILES IDX 80 24 79 25 19 26 20 27 21 28 22 30 23 31 24 32 76 33 25 34
REMARK SMILES IDX 75 35 26 36 27 37 28 38 69 39 29 40 74 41 68 42 70 43 30 44
REMARK SMILES IDX 73 45 67 46 66 47 31 49 57 50 40 51 56 52 41 53 44 54 55 55
REMARK SMILES IDX 71 56 42 57 43 58 54 60 72 61 45 62 32 63 33 64 38 65 34 66
REMARK SMILES IDX 35 67 37 68 39 69 36 70 58 71 59 72 64 73 60 74 61 75 63 76
REMARK SMILES IDX 65 77 62 78 46 79 47 80 52 81 48 82 49 83 51 84 53 85 50 86
REMARK H PARENT 16 6 20 29 70 48 44 59
REMARK Flexibility Score: inf
ROOT
ATOM      1  C   UNL     1      -4.888   7.925  -5.867  1.00  0.00     0.042 C 
ENDROOT
BRANCH   1   2
ATOM      2  C   UNL     1      -4.463   7.215  -4.582  1.00  0.00     0.117 C 
BRANCH   2   3
ATOM      3  N   UNL     1      -5.589   6.857  -3.733  1.00  0.00    -0.356 N 
ATOM      4  C   UNL     1      -6.082   5.652  -3.343  1.00  0.00     0.223 C 
ATOM      5  O   UNL     1      -7.044   5.656  -2.570  1.00  0.00    -0.275 OA
ATOM      6  H   UNL     1      -6.084   7.629  -3.376  1.00  0.00     0.163 HD
BRANCH   4   7
ATOM      7  C   UNL     1      -5.489   4.330  -3.814  1.00  0.00     0.082 C 
ATOM      8  C   UNL     1      -2.399   3.378  -6.126  1.00  0.00     0.227 C 
ATOM      9  O   UNL     1      -2.608   4.106  -7.103  1.00  0.00    -0.275 OA
ATOM     10  N   UNL     1      -3.447   2.971  -5.308  1.00  0.00    -0.342 N 
ATOM     11  C   UNL     1      -4.800   2.975  -5.847  1.00  0.00     0.120 C 
ATOM     12  C   UNL     1      -3.399   2.884  -3.854  1.00  0.00     0.120 C 
ATOM     13  C   UNL     1      -5.600   4.162  -5.335  1.00  0.00     0.035 C 
ATOM     14  C   UNL     1      -4.087   4.098  -3.233  1.00  0.00     0.035 C 
BRANCH   8  15
ATOM     15  C   UNL     1      -1.029   2.723  -5.966  1.00  0.00     0.139 C 
BRANCH  15  16
ATOM     16  C   UNL     1      -0.305   2.973  -4.694  1.00  0.00     0.008 A 
ATOM     17  C   UNL     1       1.044   0.095   0.038  1.00  0.00     0.044 C 
ATOM     18  C   UNL     1       0.689   0.764  -1.259  1.00  0.00    -0.047 A 
ATOM     19  C   UNL     1       0.124   0.021  -2.306  1.00  0.00     0.004 A 
ATOM     20  C   UNL     1       0.947   2.136  -1.423  1.00  0.00     0.051 A 
ATOM     21  C   UNL     1      -0.229   0.625  -3.520  1.00  0.00     0.012 A 
ATOM     22  C   UNL     1       0.584   2.707  -2.642  1.00  0.00     0.134 A 
ATOM     23  C   UNL     1      -0.004   2.004  -3.684  1.00  0.00     0.024 A 
ATOM     24  O   UNL     1       0.724   4.018  -2.980  1.00  0.00    -0.464 OA
ATOM     25  C   UNL     1       0.199   4.169  -4.224  1.00  0.00     0.200 A 
ENDBRANCH  15  16
ENDBRANCH   8  15
ENDBRANCH   4   7
ENDBRANCH   2   3
ENDBRANCH   1   2
BRANCH   1  26
ATOM     26  C   UNL     1      -5.547   9.289  -5.659  1.00  0.00     0.118 C 
BRANCH  26  27
ATOM     27  N   UNL     1      -4.760  10.225  -4.878  1.00  0.00    -0.352 N 
ATOM     28  C   UNL     1      -3.821  11.174  -5.160  1.00  0.00     0.251 C 
ATOM     29  H   UNL     1      -4.949  10.159  -3.914  1.00  0.00     0.163 HD
ATOM     30  O   UNL     1      -3.506  11.911  -4.216  1.00  0.00    -0.269 OA
BRANCH  28  31
ATOM     31  C   UNL     1      -3.111  11.346  -6.456  1.00  0.00     0.039 A 
ATOM     32  C   UNL     1      -3.297  10.564  -7.594  1.00  0.00     0.014 A 
ATOM     33  C   UNL     1      -2.107  12.336  -6.483  1.00  0.00     0.014 A 
ATOM     34  C   UNL     1      -2.429  10.689  -8.677  1.00  0.00     0.010 A 
ATOM     35  C   UNL     1      -1.252  12.482  -7.572  1.00  0.00     0.010 A 
ATOM     36  C   UNL     1      -1.379  11.618  -8.651  1.00  0.00    -0.014 A 
BRANCH  36  37
ATOM     37  C   UNL     1      -0.520  11.709  -9.832  1.00  0.00     0.031 A 
ATOM     38  C   UNL     1      -1.255  11.977 -11.100  1.00  0.00     0.074 A 
ATOM     39  C   UNL     1       0.828  11.632  -9.831  1.00  0.00     0.049 A 
ATOM     40  N   UNL     1      -1.408  11.184 -12.109  1.00  0.00    -0.248 NA
ATOM     41  C   UNL     1      -2.014  13.233 -11.201  1.00  0.00     0.031 C 
ATOM     42  C   UNL     1       1.742  11.637  -8.688  1.00  0.00     0.029 A 
ATOM     43  N   UNL     1       1.679  11.593 -10.900  1.00  0.00    -0.354 N 
ATOM     44  C   UNL     1      -2.125  11.906 -13.058  1.00  0.00     0.074 A 
ATOM     45  C   UNL     1      -2.587  13.101 -12.398  1.00  0.00     0.031 C 
ATOM     46  C   UNL     1       3.012  11.809  -9.127  1.00  0.00     0.029 A 
ATOM     47  C   UNL     1       3.019  11.777 -10.581  1.00  0.00     0.049 A 
ATOM     48  H   UNL     1       1.367  11.445 -11.823  1.00  0.00     0.167 HD
ATOM     49  C   UNL     1      -2.089  11.572 -14.376  1.00  0.00     0.037 A 
ATOM     50  C   UNL     1       4.055  11.920 -11.447  1.00  0.00     0.037 A 
ATOM     51  C   UNL     1      -1.667  10.209 -14.570  1.00  0.00     0.049 A 
ATOM     52  C   UNL     1       3.635  11.369 -12.754  1.00  0.00     0.074 A 
ATOM     53  C   UNL     1      -2.133   8.973 -14.163  1.00  0.00     0.029 A 
ATOM     54  N   UNL     1      -0.385   9.987 -15.008  1.00  0.00    -0.354 N 
ATOM     55  N   UNL     1       3.463  10.100 -12.989  1.00  0.00    -0.248 NA
ATOM     56  C   UNL     1       3.000  12.271 -13.701  1.00  0.00     0.031 C 
ATOM     57  C   UNL     1      -0.960   8.202 -13.906  1.00  0.00     0.029 A 
ATOM     58  C   UNL     1       0.142   8.995 -14.223  1.00  0.00     0.049 A 
ATOM     59  H   UNL     1       0.069  10.453 -15.746  1.00  0.00     0.167 HD
ATOM     60  C   UNL     1       2.351  10.046 -13.813  1.00  0.00     0.074 A 
ATOM     61  C   UNL     1       2.173  11.412 -14.300  1.00  0.00     0.031 C 
ATOM     62  C   UNL     1       1.521   8.963 -13.801  1.00  0.00     0.037 A 
BRANCH  49  63
ATOM     63  C   UNL     1      -2.047  12.593 -15.487  1.00  0.00     0.057 A 
ATOM     64  C   UNL     1      -1.595  13.917 -15.315  1.00  0.00     0.134 A 
ATOM     65  C   UNL     1      -2.148  12.165 -16.823  1.00  0.00     0.134 A 
ATOM     66  F   UNL     1      -1.370  14.447 -14.106  1.00  0.00    -0.206 F 
ATOM     67  C   UNL     1      -1.240  14.743 -16.384  1.00  0.00     0.040 A 
ATOM     68  C   UNL     1      -1.748  12.967 -17.899  1.00  0.00     0.040 A 
ATOM     69  F   UNL     1      -2.551  10.919 -17.118  1.00  0.00    -0.206 F 
ATOM     70  C   UNL     1      -1.282  14.257 -17.680  1.00  0.00     0.006 A 
ENDBRANCH  49  63
BRANCH  50  71
ATOM     71  C   UNL     1       5.295  12.719 -11.313  1.00  0.00     0.057 A 
ATOM     72  C   UNL     1       5.312  13.907 -10.565  1.00  0.00     0.134 A 
ATOM     73  C   UNL     1       6.401  12.502 -12.150  1.00  0.00     0.134 A 
ATOM     74  F   UNL     1       4.273  14.250  -9.790  1.00  0.00    -0.206 F 
ATOM     75  C   UNL     1       6.353  14.838 -10.660  1.00  0.00     0.040 A 
ATOM     76  C   UNL     1       7.448  13.428 -12.258  1.00  0.00     0.040 A 
ATOM     77  F   UNL     1       6.459  11.418 -12.938  1.00  0.00    -0.206 F 
ATOM     78  C   UNL     1       7.420  14.607 -11.521  1.00  0.00     0.006 A 
ENDBRANCH  50  71
BRANCH  62  79
ATOM     79  C   UNL     1       1.999   7.731 -13.083  1.00  0.00     0.057 A 
ATOM     80  C   UNL     1       2.072   6.526 -13.790  1.00  0.00     0.134 A 
ATOM     81  C   UNL     1       2.290   7.678 -11.711  1.00  0.00     0.134 A 
ATOM     82  F   UNL     1       1.753   6.486 -15.094  1.00  0.00    -0.206 F 
ATOM     83  C   UNL     1       2.441   5.329 -13.172  1.00  0.00     0.040 A 
ATOM     84  C   UNL     1       2.695   6.493 -11.088  1.00  0.00     0.040 A 
ATOM     85  F   UNL     1       2.150   8.756 -10.928  1.00  0.00    -0.206 F 
ATOM     86  C   UNL     1       2.769   5.312 -11.820  1.00  0.00     0.006 A 
ENDBRANCH  62  79
ENDBRANCH  36  37
ENDBRANCH  28  31
ENDBRANCH  26  27
ENDBRANCH   1  26
TORSDOF 12
