REMARK SMILES O=C(NCCCNC(=O)[C@H](NC(=O)c1ccc(Br)nc1)c1ccccc1)c1ccc(-c2c3nc(c(-c4c(F)cccc4F)c4ccc([nH]4)c(-c4c(F)cccc4F)c4nc(c(-c5c(F)cccc5F)c5ccc2[nH]5)C=C4)C=C3)cc1
REMARK SMILES IDX 5 1 4 2 3 3 1 4 2 5 27 7 28 8 80 9 29 10 79 11 30 12 31 13
REMARK SMILES IDX 32 14 73 15 33 16 78 17 72 18 74 19 34 20 77 21 71 22 70 23
REMARK SMILES IDX 35 25 61 26 44 27 60 28 45 29 48 30 59 31 75 32 46 33 47 34
REMARK SMILES IDX 58 36 76 37 49 38 36 39 37 40 42 41 38 42 39 43 41 44 43 45
REMARK SMILES IDX 40 46 62 47 63 48 68 49 64 50 65 51 67 52 69 53 66 54 50 55
REMARK SMILES IDX 51 56 56 57 52 58 53 59 55 60 57 61 54 62 6 63 7 64 8 65
REMARK SMILES IDX 9 67 10 68 21 69 22 70 26 71 23 72 25 73 24 74 11 75 12 76
REMARK SMILES IDX 13 78 14 79 15 80 20 81 16 82 19 83 17 84 18 85
REMARK H PARENT 3 6 74 24 48 35 7 66 11 77
REMARK Flexibility Score: inf
ROOT
ATOM      1  C   UNL     1       4.403  -3.208   1.327  1.00  0.00     0.042 C 
ENDROOT
BRANCH   1   2
ATOM      2  C   UNL     1       4.909  -2.559   2.603  1.00  0.00     0.118 C 
BRANCH   2   3
ATOM      3  N   UNL     1       4.923  -1.105   2.522  1.00  0.00    -0.352 N 
ATOM      4  O   UNL     1       4.169   1.004   2.695  1.00  0.00    -0.269 OA
ATOM      5  C   UNL     1       4.088  -0.165   3.073  1.00  0.00     0.251 C 
ATOM      6  H   UNL     1       5.657  -0.733   1.981  1.00  0.00     0.163 HD
BRANCH   5   7
ATOM      7  C   UNL     1       3.079  -0.535   4.091  1.00  0.00     0.039 A 
ATOM      8  C   UNL     1       3.355  -1.483   5.075  1.00  0.00     0.014 A 
ATOM      9  C   UNL     1       1.840   0.116   4.091  1.00  0.00     0.014 A 
ATOM     10  C   UNL     1       2.347  -1.916   5.928  1.00  0.00     0.010 A 
ATOM     11  C   UNL     1       0.865  -0.234   5.032  1.00  0.00     0.010 A 
ATOM     12  C   UNL     1       1.095  -1.284   5.933  1.00  0.00    -0.014 A 
BRANCH  12  13
ATOM     13  C   UNL     1       0.070  -1.709   6.922  1.00  0.00     0.031 A 
ATOM     14  C   UNL     1      -1.252  -2.275   6.479  1.00  0.00     0.074 A 
ATOM     15  C   UNL     1       0.353  -1.610   8.236  1.00  0.00     0.049 A 
ATOM     16  N   UNL     1      -2.244  -2.723   7.209  1.00  0.00    -0.248 NA
ATOM     17  C   UNL     1      -1.499  -2.339   5.031  1.00  0.00     0.031 C 
ATOM     18  C   UNL     1       1.597  -1.070   8.792  1.00  0.00     0.029 A 
ATOM     19  N   UNL     1      -0.369  -1.978   9.342  1.00  0.00    -0.354 N 
ATOM     20  C   UNL     1      -3.240  -3.094   6.314  1.00  0.00     0.074 A 
ATOM     21  C   UNL     1      -2.744  -2.792   4.988  1.00  0.00     0.031 C 
ATOM     22  C   UNL     1       1.576  -1.198  10.126  1.00  0.00     0.029 A 
ATOM     23  C   UNL     1       0.292  -1.759  10.526  1.00  0.00     0.049 A 
ATOM     24  H   UNL     1      -1.274  -2.362   9.292  1.00  0.00     0.167 HD
ATOM     25  C   UNL     1      -4.452  -3.641   6.574  1.00  0.00     0.037 A 
ATOM     26  C   UNL     1      -0.094  -1.973  11.797  1.00  0.00     0.037 A 
ATOM     27  C   UNL     1      -4.934  -3.949   7.898  1.00  0.00     0.049 A 
ATOM     28  C   UNL     1      -1.454  -2.552  12.057  1.00  0.00     0.074 A 
ATOM     29  C   UNL     1      -6.130  -4.543   8.263  1.00  0.00     0.029 A 
ATOM     30  N   UNL     1      -4.249  -3.678   9.074  1.00  0.00    -0.354 N 
ATOM     31  N   UNL     1      -2.367  -2.937  11.198  1.00  0.00    -0.248 NA
ATOM     32  C   UNL     1      -1.837  -2.725  13.463  1.00  0.00     0.031 C 
ATOM     33  C   UNL     1      -6.194  -4.577   9.661  1.00  0.00     0.029 A 
ATOM     34  C   UNL     1      -5.010  -4.067  10.166  1.00  0.00     0.049 A 
ATOM     35  H   UNL     1      -3.355  -3.270   9.125  1.00  0.00     0.167 HD
ATOM     36  C   UNL     1      -3.418  -3.431  11.959  1.00  0.00     0.074 A 
ATOM     37  C   UNL     1      -3.023  -3.305  13.347  1.00  0.00     0.031 C 
ATOM     38  C   UNL     1      -4.602  -3.946  11.544  1.00  0.00     0.037 A 
BRANCH  25  39
ATOM     39  C   UNL     1      -5.359  -3.909   5.405  1.00  0.00     0.057 A 
ATOM     40  C   UNL     1      -5.087  -4.907   4.459  1.00  0.00     0.134 A 
ATOM     41  C   UNL     1      -6.539  -3.171   5.237  1.00  0.00     0.134 A 
ATOM     42  F   UNL     1      -3.970  -5.645   4.551  1.00  0.00    -0.206 F 
ATOM     43  C   UNL     1      -5.935  -5.137   3.372  1.00  0.00     0.040 A 
ATOM     44  C   UNL     1      -7.410  -3.412   4.172  1.00  0.00     0.040 A 
ATOM     45  F   UNL     1      -6.869  -2.206   6.109  1.00  0.00    -0.206 F 
ATOM     46  C   UNL     1      -7.103  -4.391   3.231  1.00  0.00     0.006 A 
ENDBRANCH  25  39
BRANCH  26  47
ATOM     47  C   UNL     1       0.826  -1.649  12.916  1.00  0.00     0.057 A 
ATOM     48  C   UNL     1       1.387  -2.660  13.705  1.00  0.00     0.134 A 
ATOM     49  C   UNL     1       1.172  -0.327  13.220  1.00  0.00     0.134 A 
ATOM     50  F   UNL     1       1.082  -3.945  13.472  1.00  0.00    -0.206 F 
ATOM     51  C   UNL     1       2.243  -2.367  14.767  1.00  0.00     0.040 A 
ATOM     52  C   UNL     1       2.050  -0.021  14.259  1.00  0.00     0.040 A 
ATOM     53  F   UNL     1       0.676   0.687  12.494  1.00  0.00    -0.206 F 
ATOM     54  C   UNL     1       2.583  -1.044  15.042  1.00  0.00     0.006 A 
ENDBRANCH  26  47
BRANCH  38  55
ATOM     55  C   UNL     1      -5.529  -4.468  12.604  1.00  0.00     0.057 A 
ATOM     56  C   UNL     1      -6.196  -3.621  13.498  1.00  0.00     0.134 A 
ATOM     57  C   UNL     1      -5.767  -5.844  12.719  1.00  0.00     0.134 A 
ATOM     58  F   UNL     1      -6.002  -2.295  13.453  1.00  0.00    -0.206 F 
ATOM     59  C   UNL     1      -7.041  -4.127  14.489  1.00  0.00     0.040 A 
ATOM     60  C   UNL     1      -6.634  -6.359  13.683  1.00  0.00     0.040 A 
ATOM     61  F   UNL     1      -5.167  -6.712  11.889  1.00  0.00    -0.206 F 
ATOM     62  C   UNL     1      -7.266  -5.499  14.578  1.00  0.00     0.006 A 
ENDBRANCH  38  55
ENDBRANCH  12  13
ENDBRANCH   5   7
ENDBRANCH   2   3
ENDBRANCH   1   2
BRANCH   1  63
ATOM     63  C   UNL     1       5.357  -3.080   0.146  1.00  0.00     0.117 C 
BRANCH  63  64
ATOM     64  N   UNL     1       6.531  -3.928   0.292  1.00  0.00    -0.354 N 
ATOM     65  C   UNL     1       6.816  -5.184  -0.166  1.00  0.00     0.247 C 
ATOM     66  H   UNL     1       7.256  -3.519   0.818  1.00  0.00     0.163 HD
ATOM     67  O   UNL     1       7.801  -5.739   0.337  1.00  0.00    -0.272 OA
BRANCH  65  68
ATOM     68  C   UNL     1       5.905  -5.950  -1.169  1.00  0.00     0.202 C 
BRANCH  68  69
ATOM     69  C   UNL     1       4.794  -6.685  -0.435  1.00  0.00    -0.016 A 
ATOM     70  C   UNL     1       3.544  -6.101  -0.178  1.00  0.00     0.006 A 
ATOM     71  C   UNL     1       5.011  -8.005  -0.002  1.00  0.00     0.006 A 
ATOM     72  C   UNL     1       2.545  -6.808   0.494  1.00  0.00     0.000 A 
ATOM     73  C   UNL     1       4.002  -8.720   0.646  1.00  0.00     0.000 A 
ATOM     74  C   UNL     1       2.771  -8.120   0.898  1.00  0.00     0.000 A 
ENDBRANCH  68  69
BRANCH  68  75
ATOM     75  N   UNL     1       5.459  -5.101  -2.279  1.00  0.00    -0.336 N 
ATOM     76  C   UNL     1       5.002  -5.437  -3.525  1.00  0.00     0.253 C 
ATOM     77  H   UNL     1       5.494  -4.134  -2.099  1.00  0.00     0.165 HD
ATOM     78  O   UNL     1       4.904  -4.569  -4.388  1.00  0.00    -0.269 OA
BRANCH  76  79
ATOM     79  C   UNL     1       4.693  -6.829  -3.874  1.00  0.00     0.058 A 
ATOM     80  C   UNL     1       3.691  -7.563  -3.249  1.00  0.00     0.018 A 
ATOM     81  C   UNL     1       5.384  -7.428  -4.915  1.00  0.00     0.126 A 
ATOM     82  C   UNL     1       3.505  -8.900  -3.590  1.00  0.00     0.037 A 
ATOM     83  N   UNL     1       5.211  -8.720  -5.286  1.00  0.00    -0.249 NA
ATOM     84  C   UNL     1       4.288  -9.435  -4.601  1.00  0.00     0.106 A 
ATOM     85  Br  UNL     1       4.064 -11.260  -5.056  1.00  0.00    -0.029 Br
ENDBRANCH  76  79
ENDBRANCH  68  75
ENDBRANCH  65  68
ENDBRANCH  63  64
ENDBRANCH   1  63
TORSDOF 13
