REMARK SMILES CC(C)[NH2+][C@@H](C(=O)NCCCNC(=O)c1ccc(-c2c3nc(c(-c4c(F)cccc4F)c4ccc([nH]4)c(-c4c(F)cccc4F)c4nc(c(-c5c(F)cccc5F)c5ccc2[nH]5)C=C4)C=C3)cc1)c1c[nH]c2ccc(Br)cc12
REMARK SMILES IDX 10 1 9 2 8 3 6 4 7 5 5 7 4 8 2 11 1 12 3 13 69 14 70 15
REMARK SMILES IDX 78 16 71 17 72 18 77 19 73 21 75 22 74 23 76 24 11 25 12 26
REMARK SMILES IDX 13 27 14 29 15 30 16 31 68 32 17 33 67 34 18 35 19 36 20 37
REMARK SMILES IDX 61 38 21 39 66 40 60 41 62 42 22 43 65 44 59 45 58 46 23 48
REMARK SMILES IDX 49 49 32 50 48 51 33 52 36 53 47 54 63 55 34 56 35 57 46 59
REMARK SMILES IDX 64 60 37 61 24 62 25 63 30 64 26 65 27 66 29 67 31 68 28 69
REMARK SMILES IDX 50 70 51 71 56 72 52 73 53 74 55 75 57 76 54 77 38 78 39 79
REMARK SMILES IDX 44 80 40 81 41 82 43 83 45 84 42 85
REMARK H PARENT 8 6 4 9 4 10 71 20 12 28 62 47 36 58
REMARK Flexibility Score: inf
ROOT
ATOM      1  C   UNL     1       2.699   3.218   0.035  1.00  0.00     0.042 C 
ENDROOT
BRANCH   1   2
ATOM      2  C   UNL     1       1.368   3.875   0.487  1.00  0.00     0.118 C 
BRANCH   2   3
ATOM      3  N   UNL     1       0.419   4.196  -0.578  1.00  0.00    -0.351 N 
ATOM      4  C   UNL     1      -0.862   3.830  -0.914  1.00  0.00     0.283 C 
ATOM      5  O   UNL     1      -1.353   4.528  -1.814  1.00  0.00    -0.268 OA
ATOM      6  H   UNL     1       0.795   4.840  -1.220  1.00  0.00     0.163 HD
BRANCH   4   7
ATOM      7  C   UNL     1      -1.698   2.743  -0.191  1.00  0.00     0.306 C 
BRANCH   7   8
ATOM      8  N   UNL     1      -1.056   1.459   0.175  1.00  0.00    -0.330 N 
ATOM      9  H   UNL     1      -0.834   1.535   1.167  1.00  0.00     0.347 HD
ATOM     10  H   UNL     1      -1.755   0.794  -0.159  1.00  0.00     0.347 HD
BRANCH   8  11
ATOM     11  C   UNL     1       0.133   0.939  -0.452  1.00  0.00     0.176 C 
ATOM     12  C   UNL     1       0.318  -0.535  -0.074  1.00  0.00     0.075 C 
ATOM     13  C   UNL     1       0.309   1.097  -1.960  1.00  0.00     0.075 C 
ENDBRANCH   8  11
ENDBRANCH   7   8
BRANCH   7  14
ATOM     14  C   UNL     1      -3.064   2.342  -0.825  1.00  0.00     0.044 A 
ATOM     15  C   UNL     1      -3.860   1.331  -0.244  1.00  0.00     0.094 A 
ATOM     16  C   UNL     1      -3.420   2.104  -2.206  1.00  0.00     0.010 A 
ATOM     17  N   UNL     1      -3.348   0.249  -1.012  1.00  0.00    -0.361 N 
ATOM     18  C   UNL     1      -3.395   0.706  -2.323  1.00  0.00     0.046 A 
ATOM     19  C   UNL     1      -3.816   2.844  -3.336  1.00  0.00     0.026 A 
ATOM     20  H   UNL     1      -3.033  -0.626  -0.688  1.00  0.00     0.166 HD
ATOM     21  C   UNL     1      -3.428   0.021  -3.535  1.00  0.00     0.028 A 
ATOM     22  C   UNL     1      -4.091   2.137  -4.521  1.00  0.00     0.018 A 
ATOM     23  C   UNL     1      -3.825   0.770  -4.643  1.00  0.00     0.018 A 
ATOM     24  Br  UNL     1      -4.941   3.023  -5.966  1.00  0.00    -0.051 Br
ENDBRANCH   7  14
ENDBRANCH   4   7
ENDBRANCH   2   3
ENDBRANCH   1   2
BRANCH   1  25
ATOM     25  C   UNL     1       3.315   3.704  -1.277  1.00  0.00     0.118 C 
BRANCH  25  26
ATOM     26  N   UNL     1       4.402   4.634  -1.036  1.00  0.00    -0.352 N 
ATOM     27  C   UNL     1       5.754   4.474  -1.234  1.00  0.00     0.251 C 
ATOM     28  H   UNL     1       4.132   5.510  -0.678  1.00  0.00     0.163 HD
ATOM     29  O   UNL     1       6.532   5.249  -0.689  1.00  0.00    -0.269 OA
BRANCH  27  30
ATOM     30  C   UNL     1       6.293   3.381  -2.084  1.00  0.00     0.039 A 
ATOM     31  C   UNL     1       7.451   2.716  -1.664  1.00  0.00     0.014 A 
ATOM     32  C   UNL     1       5.731   3.061  -3.324  1.00  0.00     0.014 A 
ATOM     33  C   UNL     1       8.011   1.704  -2.454  1.00  0.00     0.010 A 
ATOM     34  C   UNL     1       6.266   2.019  -4.093  1.00  0.00     0.010 A 
ATOM     35  C   UNL     1       7.407   1.323  -3.663  1.00  0.00    -0.014 A 
BRANCH  35  36
ATOM     36  C   UNL     1       7.926   0.170  -4.452  1.00  0.00     0.031 A 
ATOM     37  C   UNL     1       8.525   0.367  -5.819  1.00  0.00     0.074 A 
ATOM     38  C   UNL     1       7.797  -1.078  -3.955  1.00  0.00     0.049 A 
ATOM     39  N   UNL     1       8.949  -0.534  -6.672  1.00  0.00    -0.248 NA
ATOM     40  C   UNL     1       8.655   1.751  -6.298  1.00  0.00     0.031 C 
ATOM     41  C   UNL     1       7.211  -1.412  -2.656  1.00  0.00     0.029 A 
ATOM     42  N   UNL     1       8.131  -2.299  -4.490  1.00  0.00    -0.354 N 
ATOM     43  C   UNL     1       9.381   0.170  -7.790  1.00  0.00     0.074 A 
ATOM     44  C   UNL     1       9.146   1.572  -7.519  1.00  0.00     0.031 C 
ATOM     45  C   UNL     1       7.225  -2.745  -2.495  1.00  0.00     0.029 A 
ATOM     46  C   UNL     1       7.778  -3.365  -3.695  1.00  0.00     0.049 A 
ATOM     47  H   UNL     1       8.580  -2.402  -5.360  1.00  0.00     0.167 HD
ATOM     48  C   UNL     1       9.930  -0.310  -8.932  1.00  0.00     0.037 A 
ATOM     49  C   UNL     1       7.860  -4.692  -3.915  1.00  0.00     0.037 A 
ATOM     50  C   UNL     1      10.190  -1.704  -9.191  1.00  0.00     0.049 A 
ATOM     51  C   UNL     1       8.438  -5.192  -5.212  1.00  0.00     0.074 A 
ATOM     52  C   UNL     1      10.828  -2.270 -10.283  1.00  0.00     0.029 A 
ATOM     53  N   UNL     1       9.814  -2.749  -8.364  1.00  0.00    -0.354 N 
ATOM     54  N   UNL     1       8.929  -4.509  -6.216  1.00  0.00    -0.248 NA
ATOM     55  C   UNL     1       8.471  -6.650  -5.407  1.00  0.00     0.031 C 
ATOM     56  C   UNL     1      10.781  -3.660 -10.147  1.00  0.00     0.029 A 
ATOM     57  C   UNL     1      10.162  -3.959  -8.945  1.00  0.00     0.049 A 
ATOM     58  H   UNL     1       9.366  -2.648  -7.493  1.00  0.00     0.167 HD
ATOM     59  C   UNL     1       9.343  -5.450  -7.150  1.00  0.00     0.074 A 
ATOM     60  C   UNL     1       9.072  -6.753  -6.583  1.00  0.00     0.031 C 
ATOM     61  C   UNL     1       9.891  -5.251  -8.373  1.00  0.00     0.037 A 
BRANCH  48  62
ATOM     62  C   UNL     1      10.295   0.666 -10.013  1.00  0.00     0.057 A 
ATOM     63  C   UNL     1      11.411   1.504  -9.907  1.00  0.00     0.134 A 
ATOM     64  C   UNL     1       9.587   0.683 -11.223  1.00  0.00     0.134 A 
ATOM     65  F   UNL     1      12.132   1.537  -8.776  1.00  0.00    -0.206 F 
ATOM     66  C   UNL     1      11.807   2.329 -10.963  1.00  0.00     0.040 A 
ATOM     67  C   UNL     1       9.986   1.485 -12.293  1.00  0.00     0.040 A 
ATOM     68  F   UNL     1       8.515  -0.106 -11.395  1.00  0.00    -0.206 F 
ATOM     69  C   UNL     1      11.100   2.312 -12.164  1.00  0.00     0.006 A 
ENDBRANCH  48  62
BRANCH  49  70
ATOM     70  C   UNL     1       7.351  -5.655  -2.904  1.00  0.00     0.057 A 
ATOM     71  C   UNL     1       8.216  -6.527  -2.231  1.00  0.00     0.134 A 
ATOM     72  C   UNL     1       5.983  -5.766  -2.626  1.00  0.00     0.134 A 
ATOM     73  F   UNL     1       9.535  -6.487  -2.470  1.00  0.00    -0.206 F 
ATOM     74  C   UNL     1       7.737  -7.493  -1.344  1.00  0.00     0.040 A 
ATOM     75  C   UNL     1       5.493  -6.706  -1.718  1.00  0.00     0.040 A 
ATOM     76  F   UNL     1       5.100  -4.958  -3.232  1.00  0.00    -0.206 F 
ATOM     77  C   UNL     1       6.371  -7.582  -1.084  1.00  0.00     0.006 A 
ENDBRANCH  49  70
BRANCH  61  78
ATOM     78  C   UNL     1      10.248  -6.468  -9.177  1.00  0.00     0.057 A 
ATOM     79  C   UNL     1       9.265  -7.273  -9.766  1.00  0.00     0.134 A 
ATOM     80  C   UNL     1      11.587  -6.811  -9.404  1.00  0.00     0.134 A 
ATOM     81  F   UNL     1       7.964  -7.008  -9.574  1.00  0.00    -0.206 F 
ATOM     82  C   UNL     1       9.601  -8.387 -10.538  1.00  0.00     0.040 A 
ATOM     83  C   UNL     1      11.935  -7.906 -10.197  1.00  0.00     0.040 A 
ATOM     84  F   UNL     1      12.578  -6.078  -8.875  1.00  0.00    -0.206 F 
ATOM     85  C   UNL     1      10.940  -8.700 -10.762  1.00  0.00     0.006 A 
ENDBRANCH  61  78
ENDBRANCH  35  36
ENDBRANCH  27  30
ENDBRANCH  25  26
ENDBRANCH   1  25
TORSDOF 13
