REMARK SMILES COc1ccc(N2C(=O)[NH+]=C(NCCCNC(=O)c3ccc(-c4c5nc(c(-c6c(F)cccc6F)c6ccc([nH]6)c(-c6c(F)cccc6F)c6nc(c(-c7c(F)cccc7F)c7ccc4[nH]7)C=C6)C=C5)cc3)/C(=C\c3cc(Cl)c(OCC(=O)[O-])c(Cl)c3)C2=O)cc1
REMARK SMILES IDX 13 1 12 2 7 3 8 4 88 5 9 6 10 7 73 8 89 9 11 10 74 12 6 14
REMARK SMILES IDX 3 15 4 16 91 17 5 18 90 19 2 20 1 21 75 22 76 23 87 24 77 25
REMARK SMILES IDX 85 26 78 27 79 28 86 29 80 30 81 31 82 32 83 33 84 34 14 35
REMARK SMILES IDX 15 36 16 37 17 38 18 40 19 41 20 42 72 43 21 44 71 45 22 46
REMARK SMILES IDX 23 47 24 48 65 49 25 50 70 51 64 52 66 53 26 54 69 55 63 56
REMARK SMILES IDX 62 57 27 59 53 60 36 61 52 62 37 63 40 64 51 65 67 66 38 67
REMARK SMILES IDX 39 68 50 70 68 71 41 72 28 73 29 74 34 75 30 76 31 77 33 78
REMARK SMILES IDX 35 79 32 80 54 81 55 82 60 83 56 84 57 85 59 86 61 87 58 88
REMARK SMILES IDX 42 89 43 90 48 91 44 92 45 93 47 94 49 95 46 96
REMARK H PARENT 10 11 12 13 16 39 66 58 40 69
REMARK Flexibility Score: inf
ROOT
ATOM      1  C   UNL     1       1.527  -3.840 -10.220  1.00  0.00     0.195 C 
ENDROOT
BRANCH   1   2
ATOM      2  N   UNL     1       2.304  -4.497  -9.175  1.00  0.00    -0.305 N 
ATOM      3  N   UNL     1       1.634  -3.523  -5.182  1.00  0.00    -0.155 N 
ATOM      4  C   UNL     1       0.924  -2.981  -6.254  1.00  0.00     0.448 C 
ATOM      5  C   UNL     1       2.618  -4.487  -5.334  1.00  0.00     0.328 C 
ATOM      6  O   UNL     1       0.038  -2.139  -6.103  1.00  0.00    -0.212 OA
ATOM      7  N   UNL     1       1.242  -3.348  -7.526  1.00  0.00    -0.209 N 
ATOM      8  C   UNL     1       2.891  -4.924  -6.740  1.00  0.00     0.129 C 
ATOM      9  O   UNL     1       3.237  -5.001  -4.399  1.00  0.00    -0.249 OA
ATOM     10  C   UNL     1       2.136  -4.240  -7.828  1.00  0.00     0.236 C 
ATOM     11  H   UNL     1       0.763  -2.909  -8.266  1.00  0.00     0.270 HD
ATOM     12  C   UNL     1       3.817  -5.899  -6.862  1.00  0.00     0.030 C 
ATOM     13  H   UNL     1       2.983  -5.157  -9.443  1.00  0.00     0.256 HD
BRANCH   3  14
ATOM     14  C   UNL     1       1.350  -3.033  -3.865  1.00  0.00     0.111 A 
ATOM     15  C   UNL     1       0.792  -1.921  -1.349  1.00  0.00     0.119 A 
ATOM     16  C   UNL     1      -0.243  -2.425  -2.132  1.00  0.00     0.050 A 
ATOM     17  C   UNL     1       2.110  -2.016  -1.789  1.00  0.00     0.050 A 
ATOM     18  C   UNL     1       0.031  -2.958  -3.394  1.00  0.00     0.047 A 
ATOM     19  C   UNL     1       2.389  -2.580  -3.038  1.00  0.00     0.047 A 
BRANCH  15  20
ATOM     20  O   UNL     1       0.448  -1.398  -0.133  1.00  0.00    -0.497 OA
ATOM     21  C   UNL     1       0.962  -0.081   0.060  1.00  0.00     0.278 C 
ENDBRANCH  15  20
ENDBRANCH   3  14
BRANCH  12  22
ATOM     22  C   UNL     1       4.409  -6.506  -8.053  1.00  0.00    -0.021 A 
ATOM     23  C   UNL     1       4.050  -7.803  -8.434  1.00  0.00     0.032 A 
ATOM     24  C   UNL     1       5.418  -5.832  -8.748  1.00  0.00     0.032 A 
ATOM     25  C   UNL     1       4.689  -8.413  -9.515  1.00  0.00     0.085 A 
ATOM     26  C   UNL     1       6.053  -6.442  -9.832  1.00  0.00     0.085 A 
ATOM     27  Cl  UNL     1       4.218 -10.018  -9.951  1.00  0.00    -0.080 Cl
ATOM     28  C   UNL     1       5.675  -7.726 -10.237  1.00  0.00     0.157 A 
ATOM     29  Cl  UNL     1       7.311  -5.573 -10.632  1.00  0.00    -0.080 Cl
BRANCH  28  30
ATOM     30  O   UNL     1       6.284  -8.343 -11.295  1.00  0.00    -0.485 OA
BRANCH  30  31
ATOM     31  C   UNL     1       5.726  -8.007 -12.561  1.00  0.00     0.282 C 
BRANCH  31  32
ATOM     32  C   UNL     1       4.281  -7.520 -12.761  1.00  0.00     0.079 C 
ATOM     33  O   UNL     1       3.590  -6.908 -11.959  1.00  0.00    -0.546 OA
ATOM     34  O   UNL     1       3.859  -7.750 -14.023  1.00  0.00    -0.546 OA
ENDBRANCH  31  32
ENDBRANCH  30  31
ENDBRANCH  28  30
ENDBRANCH  12  22
ENDBRANCH   1   2
BRANCH   1  35
ATOM     35  C   UNL     1       2.362  -2.814 -10.987  1.00  0.00     0.059 C 
BRANCH  35  36
ATOM     36  C   UNL     1       3.358  -3.428 -11.965  1.00  0.00     0.119 C 
BRANCH  36  37
ATOM     37  N   UNL     1       2.721  -4.235 -12.994  1.00  0.00    -0.352 N 
ATOM     38  C   UNL     1       3.199  -4.718 -14.181  1.00  0.00     0.251 C 
ATOM     39  H   UNL     1       1.785  -4.474 -12.804  1.00  0.00     0.163 HD
ATOM     40  O   UNL     1       2.524  -5.550 -14.789  1.00  0.00    -0.269 OA
BRANCH  38  41
ATOM     41  C   UNL     1       4.500  -4.295 -14.739  1.00  0.00     0.039 A 
ATOM     42  C   UNL     1       4.570  -4.079 -16.121  1.00  0.00     0.014 A 
ATOM     43  C   UNL     1       5.643  -4.134 -13.954  1.00  0.00     0.014 A 
ATOM     44  C   UNL     1       5.748  -3.600 -16.694  1.00  0.00     0.010 A 
ATOM     45  C   UNL     1       6.806  -3.612 -14.515  1.00  0.00     0.010 A 
ATOM     46  C   UNL     1       6.853  -3.304 -15.881  1.00  0.00    -0.014 A 
BRANCH  46  47
ATOM     47  C   UNL     1       7.992  -2.521 -16.413  1.00  0.00     0.031 A 
ATOM     48  C   UNL     1       9.354  -3.124 -16.562  1.00  0.00     0.074 A 
ATOM     49  C   UNL     1       7.787  -1.213 -16.665  1.00  0.00     0.049 A 
ATOM     50  N   UNL     1      10.462  -2.560 -16.969  1.00  0.00    -0.248 NA
ATOM     51  C   UNL     1       9.499  -4.537 -16.184  1.00  0.00     0.031 C 
ATOM     52  C   UNL     1       6.511  -0.513 -16.482  1.00  0.00     0.029 A 
ATOM     53  N   UNL     1       8.640  -0.236 -17.104  1.00  0.00    -0.354 N 
ATOM     54  C   UNL     1      11.438  -3.545 -16.898  1.00  0.00     0.074 A 
ATOM     55  C   UNL     1      10.799  -4.731 -16.367  1.00  0.00     0.031 C 
ATOM     56  C   UNL     1       6.664   0.775 -16.819  1.00  0.00     0.029 A 
ATOM     57  C   UNL     1       8.050   1.001 -17.206  1.00  0.00     0.049 A 
ATOM     58  H   UNL     1       9.585  -0.403 -17.326  1.00  0.00     0.167 HD
ATOM     59  C   UNL     1      12.742  -3.463 -17.258  1.00  0.00     0.037 A 
ATOM     60  C   UNL     1       8.572   2.188 -17.565  1.00  0.00     0.037 A 
ATOM     61  C   UNL     1      13.361  -2.266 -17.772  1.00  0.00     0.049 A 
ATOM     62  C   UNL     1      10.019   2.251 -17.957  1.00  0.00     0.074 A 
ATOM     63  C   UNL     1      14.660  -2.088 -18.216  1.00  0.00     0.029 A 
ATOM     64  N   UNL     1      12.725  -1.038 -17.896  1.00  0.00    -0.354 N 
ATOM     65  N   UNL     1      10.910   1.288 -17.976  1.00  0.00    -0.248 NA
ATOM     66  C   UNL     1      10.532   3.556 -18.390  1.00  0.00     0.031 C 
ATOM     67  C   UNL     1      14.824  -0.741 -18.559  1.00  0.00     0.029 A 
ATOM     68  C   UNL     1      13.612  -0.092 -18.386  1.00  0.00     0.049 A 
ATOM     69  H   UNL     1      11.783  -0.865 -17.669  1.00  0.00     0.167 HD
ATOM     70  C   UNL     1      12.080   1.863 -18.452  1.00  0.00     0.074 A 
ATOM     71  C   UNL     1      11.780   3.255 -18.721  1.00  0.00     0.031 C 
ATOM     72  C   UNL     1      13.291   1.288 -18.652  1.00  0.00     0.037 A 
BRANCH  59  73
ATOM     73  C   UNL     1      13.588  -4.696 -17.102  1.00  0.00     0.057 A 
ATOM     74  C   UNL     1      13.399  -5.828 -17.907  1.00  0.00     0.134 A 
ATOM     75  C   UNL     1      14.632  -4.740 -16.169  1.00  0.00     0.134 A 
ATOM     76  F   UNL     1      12.415  -5.858 -18.819  1.00  0.00    -0.206 F 
ATOM     77  C   UNL     1      14.197  -6.967 -17.770  1.00  0.00     0.040 A 
ATOM     78  C   UNL     1      15.454  -5.862 -16.041  1.00  0.00     0.040 A 
ATOM     79  F   UNL     1      14.878  -3.689 -15.372  1.00  0.00    -0.206 F 
ATOM     80  C   UNL     1      15.233  -6.982 -16.839  1.00  0.00     0.006 A 
ENDBRANCH  59  73
BRANCH  60  81
ATOM     81  C   UNL     1       7.708   3.395 -17.600  1.00  0.00     0.057 A 
ATOM     82  C   UNL     1       7.346   3.988 -18.815  1.00  0.00     0.134 A 
ATOM     83  C   UNL     1       7.206   3.972 -16.427  1.00  0.00     0.134 A 
ATOM     84  F   UNL     1       7.803   3.487 -19.972  1.00  0.00    -0.206 F 
ATOM     85  C   UNL     1       6.533   5.121 -18.864  1.00  0.00     0.040 A 
ATOM     86  C   UNL     1       6.369   5.090 -16.462  1.00  0.00     0.040 A 
ATOM     87  F   UNL     1       7.501   3.443 -15.231  1.00  0.00    -0.206 F 
ATOM     88  C   UNL     1       6.037   5.671 -17.683  1.00  0.00     0.006 A 
ENDBRANCH  60  81
BRANCH  72  89
ATOM     89  C   UNL     1      14.371   2.158 -19.226  1.00  0.00     0.057 A 
ATOM     90  C   UNL     1      14.988   3.168 -18.477  1.00  0.00     0.134 A 
ATOM     91  C   UNL     1      14.824   1.955 -20.536  1.00  0.00     0.134 A 
ATOM     92  F   UNL     1      14.590   3.424 -17.221  1.00  0.00    -0.206 F 
ATOM     93  C   UNL     1      16.003   3.959 -19.018  1.00  0.00     0.040 A 
ATOM     94  C   UNL     1      15.857   2.719 -21.078  1.00  0.00     0.040 A 
ATOM     95  F   UNL     1      14.279   0.999 -21.304  1.00  0.00    -0.206 F 
ATOM     96  C   UNL     1      16.445   3.729 -20.320  1.00  0.00     0.006 A 
ENDBRANCH  72  89
ENDBRANCH  46  47
ENDBRANCH  38  41
ENDBRANCH  36  37
ENDBRANCH  35  36
ENDBRANCH   1  35
TORSDOF 15
