REMARK SMILES CCOC(=O)[C@H]1CCCN(C(=O)N[C@](C)(CC)C(=O)NCCCNC(=O)c2ccc(-c3c4nc(c(-c5c(F)cccc5F)c5ccc([nH]5)c(-c5c(F)cccc5F)c5nc(c(-c6c(F)cccc6F)c6ccc3[nH]6)C=C5)C=C4)cc2)C1
REMARK SMILES IDX 18 1 19 2 20 3 14 5 15 6 13 7 11 8 12 9 10 11 6 12 7 13
REMARK SMILES IDX 81 14 8 15 9 16 4 17 5 18 3 19 2 20 1 21 16 22 17 23 21 24
REMARK SMILES IDX 22 25 23 26 24 27 25 28 26 30 27 31 28 32 80 33 29 34 79 35
REMARK SMILES IDX 30 36 31 37 32 38 73 39 33 40 78 41 72 42 74 43 34 44 77 45
REMARK SMILES IDX 71 46 70 47 35 49 61 50 44 51 60 52 45 53 48 54 59 55 75 56
REMARK SMILES IDX 46 57 47 58 58 60 76 61 49 62 36 63 37 64 42 65 38 66 39 67
REMARK SMILES IDX 41 68 43 69 40 70 62 71 63 72 68 73 64 74 65 75 67 76 69 77
REMARK SMILES IDX 66 78 50 79 51 80 56 81 52 82 53 83 55 84 57 85 54 86
REMARK H PARENT 20 4 13 10 24 29 74 48 48 59
REMARK Flexibility Score: inf
ROOT
ATOM      1  C   UNL     1       3.481   6.923  -0.122  1.00  0.00     0.245 C 
ATOM      2  O   UNL     1       3.939   6.047  -0.870  1.00  0.00    -0.272 OA
ATOM      3  N   UNL     1       4.369   7.906   0.170  1.00  0.00    -0.354 N 
ATOM      4  H   UNL     1       4.950   8.162  -0.582  1.00  0.00     0.163 HD
ENDROOT
BRANCH   1   5
ATOM      5  C   UNL     1       2.051   6.780   0.530  1.00  0.00     0.117 C 
ATOM      6  C   UNL     1       1.282   5.912  -0.506  1.00  0.00     0.045 C 
BRANCH   5   7
ATOM      7  N   UNL     1       1.365   8.089   0.640  1.00  0.00    -0.324 N 
ATOM      8  C   UNL     1       0.124   8.524   0.960  1.00  0.00     0.318 C 
ATOM      9  O   UNL     1      -0.011   9.751   0.897  1.00  0.00    -0.249 OA
ATOM     10  H   UNL     1       1.968   8.837   0.424  1.00  0.00     0.166 HD
BRANCH   8  11
ATOM     11  N   UNL     1      -0.934   7.707   1.295  1.00  0.00    -0.324 N 
ATOM     12  C   UNL     1      -3.164   7.873   2.466  1.00  0.00     0.119 C 
ATOM     13  C   UNL     1      -3.122   6.365   2.730  1.00  0.00     0.019 C 
ATOM     14  C   UNL     1      -2.281   8.314   1.288  1.00  0.00     0.136 C 
ATOM     15  C   UNL     1      -1.688   5.878   2.778  1.00  0.00     0.023 C 
ATOM     16  C   UNL     1      -0.991   6.258   1.482  1.00  0.00     0.121 C 
BRANCH  12  17
ATOM     17  C   UNL     1      -4.609   8.269   2.257  1.00  0.00     0.310 C 
ATOM     18  O   UNL     1      -5.299   8.798   3.123  1.00  0.00    -0.252 OA
BRANCH  17  19
ATOM     19  O   UNL     1      -5.065   7.845   1.046  1.00  0.00    -0.466 OA
BRANCH  19  20
ATOM     20  C   UNL     1      -6.471   8.001   0.807  1.00  0.00     0.229 C 
ATOM     21  C   UNL     1      -7.224   6.805   1.361  1.00  0.00     0.049 C 
ENDBRANCH  19  20
ENDBRANCH  17  19
ENDBRANCH  12  17
ENDBRANCH   8  11
ENDBRANCH   5   7
BRANCH   5  22
ATOM     22  C   UNL     1       2.254   6.239   1.974  1.00  0.00     0.035 C 
ATOM     23  C   UNL     1       2.514   4.752   2.119  1.00  0.00     0.007 C 
ENDBRANCH   5  22
ENDBRANCH   1   5
BRANCH   3  24
ATOM     24  C   UNL     1       4.614   8.646   1.391  1.00  0.00     0.117 C 
BRANCH  24  25
ATOM     25  C   UNL     1       5.580   7.902   2.325  1.00  0.00     0.042 C 
BRANCH  25  26
ATOM     26  C   UNL     1       6.861   7.375   1.677  1.00  0.00     0.118 C 
BRANCH  26  27
ATOM     27  N   UNL     1       7.654   8.422   1.059  1.00  0.00    -0.352 N 
ATOM     28  C   UNL     1       8.943   8.822   1.299  1.00  0.00     0.251 C 
ATOM     29  H   UNL     1       7.191   8.928   0.352  1.00  0.00     0.163 HD
ATOM     30  O   UNL     1       9.352   9.859   0.783  1.00  0.00    -0.269 OA
BRANCH  28  31
ATOM     31  C   UNL     1       9.841   8.044   2.183  1.00  0.00     0.039 A 
ATOM     32  C   UNL     1      10.695   8.747   3.037  1.00  0.00     0.014 A 
ATOM     33  C   UNL     1       9.897   6.647   2.142  1.00  0.00     0.014 A 
ATOM     34  C   UNL     1      11.564   8.053   3.881  1.00  0.00     0.010 A 
ATOM     35  C   UNL     1      10.712   5.953   3.040  1.00  0.00     0.010 A 
ATOM     36  C   UNL     1      11.559   6.649   3.915  1.00  0.00    -0.014 A 
BRANCH  36  37
ATOM     37  C   UNL     1      12.428   5.918   4.876  1.00  0.00     0.031 A 
ATOM     38  C   UNL     1      13.537   5.024   4.389  1.00  0.00     0.074 A 
ATOM     39  C   UNL     1      12.208   6.056   6.199  1.00  0.00     0.049 A 
ATOM     40  N   UNL     1      14.404   4.331   5.085  1.00  0.00    -0.248 NA
ATOM     41  C   UNL     1      13.683   4.873   2.933  1.00  0.00     0.031 C 
ATOM     42  C   UNL     1      11.137   6.856   6.798  1.00  0.00     0.029 A 
ATOM     43  N   UNL     1      12.875   5.536   7.279  1.00  0.00    -0.354 N 
ATOM     44  C   UNL     1      15.197   3.669   4.155  1.00  0.00     0.074 A 
ATOM     45  C   UNL     1      14.670   3.993   2.847  1.00  0.00     0.031 C 
ATOM     46  C   UNL     1      11.244   6.805   8.135  1.00  0.00     0.029 A 
ATOM     47  C   UNL     1      12.364   5.940   8.490  1.00  0.00     0.049 A 
ATOM     48  H   UNL     1      13.647   4.931   7.196  1.00  0.00     0.167 HD
ATOM     49  C   UNL     1      16.282   2.886   4.369  1.00  0.00     0.037 A 
ATOM     50  C   UNL     1      12.753   5.646   9.745  1.00  0.00     0.037 A 
ATOM     51  C   UNL     1      16.811   2.571   5.672  1.00  0.00     0.049 A 
ATOM     52  C   UNL     1      13.945   4.753   9.951  1.00  0.00     0.074 A 
ATOM     53  C   UNL     1      17.926   1.815   5.990  1.00  0.00     0.029 A 
ATOM     54  N   UNL     1      16.260   2.992   6.872  1.00  0.00    -0.354 N 
ATOM     55  N   UNL     1      14.725   4.192   9.059  1.00  0.00    -0.248 NA
ATOM     56  C   UNL     1      14.318   4.461  11.342  1.00  0.00     0.031 C 
ATOM     57  C   UNL     1      18.023   1.739   7.383  1.00  0.00     0.029 A 
ATOM     58  C   UNL     1      17.001   2.495   7.933  1.00  0.00     0.049 A 
ATOM     59  H   UNL     1      15.461   3.561   6.959  1.00  0.00     0.167 HD
ATOM     60  C   UNL     1      15.696   3.508   9.779  1.00  0.00     0.074 A 
ATOM     61  C   UNL     1      15.422   3.747  11.180  1.00  0.00     0.031 C 
ATOM     62  C   UNL     1      16.720   2.746   9.323  1.00  0.00     0.037 A 
BRANCH  49  63
ATOM     63  C   UNL     1      16.984   2.322   3.166  1.00  0.00     0.057 A 
ATOM     64  C   UNL     1      17.726   3.136   2.299  1.00  0.00     0.134 A 
ATOM     65  C   UNL     1      16.973   0.946   2.905  1.00  0.00     0.134 A 
ATOM     66  F   UNL     1      17.771   4.464   2.485  1.00  0.00    -0.206 F 
ATOM     67  C   UNL     1      18.414   2.605   1.207  1.00  0.00     0.040 A 
ATOM     68  C   UNL     1      17.681   0.400   1.833  1.00  0.00     0.040 A 
ATOM     69  F   UNL     1      16.291   0.107   3.699  1.00  0.00    -0.206 F 
ATOM     70  C   UNL     1      18.401   1.231   0.977  1.00  0.00     0.006 A 
ENDBRANCH  49  63
BRANCH  50  71
ATOM     71  C   UNL     1      12.023   6.209  10.912  1.00  0.00     0.057 A 
ATOM     72  C   UNL     1      12.635   7.123  11.778  1.00  0.00     0.134 A 
ATOM     73  C   UNL     1      10.714   5.814  11.214  1.00  0.00     0.134 A 
ATOM     74  F   UNL     1      13.894   7.527  11.553  1.00  0.00    -0.206 F 
ATOM     75  C   UNL     1      11.988   7.595  12.921  1.00  0.00     0.040 A 
ATOM     76  C   UNL     1      10.043   6.303  12.336  1.00  0.00     0.040 A 
ATOM     77  F   UNL     1      10.066   4.948  10.421  1.00  0.00    -0.206 F 
ATOM     78  C   UNL     1      10.686   7.186  13.201  1.00  0.00     0.006 A 
ENDBRANCH  50  71
BRANCH  62  79
ATOM     79  C   UNL     1      17.639   2.152  10.352  1.00  0.00     0.057 A 
ATOM     80  C   UNL     1      17.224   1.131  11.218  1.00  0.00     0.134 A 
ATOM     81  C   UNL     1      18.960   2.604  10.474  1.00  0.00     0.134 A 
ATOM     82  F   UNL     1      15.969   0.661  11.163  1.00  0.00    -0.206 F 
ATOM     83  C   UNL     1      18.077   0.609  12.192  1.00  0.00     0.040 A 
ATOM     84  C   UNL     1      19.831   2.067  11.423  1.00  0.00     0.040 A 
ATOM     85  F   UNL     1      19.427   3.571   9.671  1.00  0.00    -0.206 F 
ATOM     86  C   UNL     1      19.386   1.074  12.293  1.00  0.00     0.006 A 
ENDBRANCH  62  79
ENDBRANCH  36  37
ENDBRANCH  28  31
ENDBRANCH  26  27
ENDBRANCH  25  26
ENDBRANCH  24  25
ENDBRANCH   3  24
TORSDOF 16
