REMARK SMILES Cc1ccc([C@@H](C)Nc2ccc(N)cc2C(=O)NCCCNC(=O)c2ccc(-c3c4nc(c(-c5c(F)cccc5F)c5ccc([nH]5)c(-c5c(F)cccc5F)c5nc(c(-c6c(F)cccc6F)c6ccc3[nH]6)C=C5)C=C4)cc2)cc1F
REMARK SMILES IDX 19 1 18 2 16 3 17 4 15 6 9 7 10 8 11 9 14 10 12 11 8 12 6 14
REMARK SMILES IDX 7 15 5 16 1 17 2 18 3 19 80 20 4 21 79 22 81 23 13 24 20 27
REMARK SMILES IDX 21 28 22 29 23 30 24 32 25 33 26 34 78 35 27 36 77 37 28 38
REMARK SMILES IDX 29 39 30 40 71 41 31 42 76 43 70 44 72 45 32 46 75 47 69 48
REMARK SMILES IDX 68 49 33 51 59 52 42 53 58 54 43 55 46 56 57 57 73 58 44 59
REMARK SMILES IDX 45 60 56 62 74 63 47 64 34 65 35 66 40 67 36 68 37 69 39 70
REMARK SMILES IDX 41 71 38 72 60 73 61 74 66 75 62 76 63 77 65 78 67 79 64 80
REMARK SMILES IDX 48 81 49 82 54 83 50 84 51 85 53 86 55 87 52 88
REMARK H PARENT 18 5 8 13 13 25 13 26 22 31 72 50 46 61
REMARK Flexibility Score: inf
ROOT
ATOM      1  C   UNL     1      -0.847  -2.972   0.788  1.00  0.00     0.118 C 
ENDROOT
BRANCH   1   2
ATOM      2  N   UNL     1      -0.973  -3.762  -0.436  1.00  0.00    -0.352 N 
ATOM      3  C   UNL     1      -2.003  -4.558  -0.881  1.00  0.00     0.253 C 
ATOM      4  O   UNL     1      -2.016  -4.942  -2.049  1.00  0.00    -0.269 OA
ATOM      5  H   UNL     1      -0.195  -3.716  -1.039  1.00  0.00     0.163 HD
BRANCH   3   6
ATOM      6  C   UNL     1      -2.976  -5.095   0.090  1.00  0.00     0.065 A 
ATOM      7  C   UNL     1      -3.622  -4.335   1.068  1.00  0.00     0.048 A 
ATOM      8  C   UNL     1      -3.871  -5.016   2.273  1.00  0.00     0.028 A 
ATOM      9  C   UNL     1      -3.648  -6.396   2.414  1.00  0.00     0.027 A 
ATOM     10  C   UNL     1      -2.921  -6.501   0.161  1.00  0.00     0.041 A 
ATOM     11  C   UNL     1      -3.286  -7.169   1.319  1.00  0.00     0.032 A 
BRANCH   7  12
ATOM     12  N   UNL     1      -4.014  -3.012   0.987  1.00  0.00    -0.378 N 
ATOM     13  H   UNL     1      -4.421  -2.657   1.811  1.00  0.00     0.161 HD
BRANCH  12  14
ATOM     14  C   UNL     1      -3.929  -2.046  -0.108  1.00  0.00     0.106 C 
ATOM     15  C   UNL     1      -4.490  -2.518  -1.440  1.00  0.00     0.036 C 
BRANCH  14  16
ATOM     16  C   UNL     1      -2.597  -1.334  -0.030  1.00  0.00    -0.023 A 
ATOM     17  C   UNL     1       1.659   1.435   0.642  1.00  0.00     0.047 C 
ATOM     18  C   UNL     1       0.451   0.573   0.465  1.00  0.00    -0.015 A 
ATOM     19  C   UNL     1      -0.882   0.688   1.656  1.00  0.00     0.007 A 
ATOM     20  C   UNL     1       0.244  -0.457  -1.008  1.00  0.00     0.126 A 
ATOM     21  C   UNL     1      -2.381  -0.311   1.455  1.00  0.00     0.006 A 
ATOM     22  C   UNL     1      -1.258  -1.416  -1.264  1.00  0.00     0.045 A 
ATOM     23  F   UNL     1       1.244  -0.539  -1.895  1.00  0.00    -0.207 F 
ENDBRANCH  14  16
ENDBRANCH  12  14
ENDBRANCH   7  12
BRANCH  11  24
ATOM     24  N   UNL     1      -3.076  -8.533   1.432  1.00  0.00    -0.399 N 
ATOM     25  H   UNL     1      -3.336  -9.005   2.256  1.00  0.00     0.156 HD
ATOM     26  H   UNL     1      -2.667  -9.031   0.688  1.00  0.00     0.156 HD
ENDBRANCH  11  24
ENDBRANCH   3   6
ENDBRANCH   1   2
BRANCH   1  27
ATOM     27  C   UNL     1      -0.658  -1.248   0.748  1.00  0.00     0.042 C 
BRANCH  27  28
ATOM     28  C   UNL     1      -1.562   0.433  -0.327  1.00  0.00     0.118 C 
BRANCH  28  29
ATOM     29  N   UNL     1      -2.837   1.411  -0.014  1.00  0.00    -0.352 N 
ATOM     30  C   UNL     1      -2.896   2.791  -0.148  1.00  0.00     0.251 C 
ATOM     31  H   UNL     1      -3.656   0.969   0.307  1.00  0.00     0.163 HD
ATOM     32  O   UNL     1      -3.807   3.475   0.296  1.00  0.00    -0.269 OA
BRANCH  30  33
ATOM     33  C   UNL     1      -1.868   3.384  -1.004  1.00  0.00     0.039 A 
ATOM     34  C   UNL     1      -1.043   4.458  -0.652  1.00  0.00     0.014 A 
ATOM     35  C   UNL     1      -1.691   2.674  -2.185  1.00  0.00     0.014 A 
ATOM     36  C   UNL     1      -0.041   4.821  -1.546  1.00  0.00     0.010 A 
ATOM     37  C   UNL     1      -0.493   2.768  -2.794  1.00  0.00     0.010 A 
ATOM     38  C   UNL     1       0.190   3.966  -2.623  1.00  0.00    -0.014 A 
BRANCH  38  39
ATOM     39  C   UNL     1       0.995   4.235  -3.795  1.00  0.00     0.031 A 
ATOM     40  C   UNL     1       2.442   4.211  -3.627  1.00  0.00     0.074 A 
ATOM     41  C   UNL     1       0.256   4.190  -4.934  1.00  0.00     0.049 A 
ATOM     42  N   UNL     1       3.269   4.970  -4.245  1.00  0.00    -0.248 NA
ATOM     43  C   UNL     1       3.098   3.364  -2.625  1.00  0.00     0.031 C 
ATOM     44  C   UNL     1       0.574   3.932  -6.324  1.00  0.00     0.029 A 
ATOM     45  N   UNL     1      -1.135   4.399  -4.979  1.00  0.00    -0.354 N 
ATOM     46  C   UNL     1       4.485   4.331  -4.120  1.00  0.00     0.074 A 
ATOM     47  C   UNL     1       4.391   3.568  -2.902  1.00  0.00     0.031 C 
ATOM     48  C   UNL     1      -0.468   4.334  -7.087  1.00  0.00     0.029 A 
ATOM     49  C   UNL     1      -1.460   4.953  -6.216  1.00  0.00     0.049 A 
ATOM     50  H   UNL     1      -1.772   4.189  -4.258  1.00  0.00     0.167 HD
ATOM     51  C   UNL     1       5.267   4.194  -5.231  1.00  0.00     0.037 A 
ATOM     52  C   UNL     1      -1.843   6.266  -6.180  1.00  0.00     0.037 A 
ATOM     53  C   UNL     1       4.522   4.660  -6.409  1.00  0.00     0.049 A 
ATOM     54  C   UNL     1      -0.696   7.162  -6.600  1.00  0.00     0.074 A 
ATOM     55  C   UNL     1       3.870   4.037  -7.460  1.00  0.00     0.029 A 
ATOM     56  N   UNL     1       4.053   5.954  -6.407  1.00  0.00    -0.354 N 
ATOM     57  N   UNL     1       0.519   6.734  -6.815  1.00  0.00    -0.248 NA
ATOM     58  C   UNL     1      -0.813   8.599  -6.805  1.00  0.00     0.031 C 
ATOM     59  C   UNL     1       3.041   5.013  -8.108  1.00  0.00     0.029 A 
ATOM     60  C   UNL     1       3.176   6.212  -7.431  1.00  0.00     0.049 A 
ATOM     61  H   UNL     1       4.319   6.626  -5.739  1.00  0.00     0.167 HD
ATOM     62  C   UNL     1       1.331   7.761  -7.191  1.00  0.00     0.074 A 
ATOM     63  C   UNL     1       0.455   8.922  -7.124  1.00  0.00     0.031 C 
ATOM     64  C   UNL     1       2.648   7.566  -7.516  1.00  0.00     0.037 A 
BRANCH  51  65
ATOM     65  C   UNL     1       6.571   3.438  -5.340  1.00  0.00     0.057 A 
ATOM     66  C   UNL     1       7.122   3.161  -6.608  1.00  0.00     0.134 A 
ATOM     67  C   UNL     1       7.383   3.042  -4.261  1.00  0.00     0.134 A 
ATOM     68  F   UNL     1       6.517   3.543  -7.741  1.00  0.00    -0.206 F 
ATOM     69  C   UNL     1       8.346   2.507  -6.790  1.00  0.00     0.040 A 
ATOM     70  C   UNL     1       8.600   2.359  -4.429  1.00  0.00     0.040 A 
ATOM     71  F   UNL     1       7.084   3.348  -2.994  1.00  0.00    -0.206 F 
ATOM     72  C   UNL     1       9.087   2.092  -5.698  1.00  0.00     0.006 A 
ENDBRANCH  51  65
BRANCH  52  73
ATOM     73  C   UNL     1      -2.805   6.491  -5.035  1.00  0.00     0.057 A 
ATOM     74  C   UNL     1      -4.022   5.772  -5.073  1.00  0.00     0.134 A 
ATOM     75  C   UNL     1      -2.370   6.905  -3.769  1.00  0.00     0.134 A 
ATOM     76  F   UNL     1      -4.521   5.359  -6.250  1.00  0.00    -0.206 F 
ATOM     77  C   UNL     1      -4.661   5.319  -3.912  1.00  0.00     0.040 A 
ATOM     78  C   UNL     1      -3.025   6.484  -2.600  1.00  0.00     0.040 A 
ATOM     79  F   UNL     1      -1.230   7.596  -3.630  1.00  0.00    -0.206 F 
ATOM     80  C   UNL     1      -4.135   5.640  -2.667  1.00  0.00     0.006 A 
ENDBRANCH  52  73
BRANCH  64  81
ATOM     81  C   UNL     1       3.601   8.684  -7.863  1.00  0.00     0.057 A 
ATOM     82  C   UNL     1       3.208   9.800  -8.603  1.00  0.00     0.134 A 
ATOM     83  C   UNL     1       4.973   8.657  -7.513  1.00  0.00     0.134 A 
ATOM     84  F   UNL     1       1.996   9.866  -9.172  1.00  0.00    -0.206 F 
ATOM     85  C   UNL     1       4.064  10.885  -8.822  1.00  0.00     0.040 A 
ATOM     86  C   UNL     1       5.850   9.705  -7.774  1.00  0.00     0.040 A 
ATOM     87  F   UNL     1       5.556   7.629  -6.886  1.00  0.00    -0.206 F 
ATOM     88  C   UNL     1       5.385  10.847  -8.393  1.00  0.00     0.006 A 
ENDBRANCH  64  81
ENDBRANCH  38  39
ENDBRANCH  30  33
ENDBRANCH  28  29
ENDBRANCH  27  28
ENDBRANCH   1  27
TORSDOF 14
