REMARK SMILES COc1cccc([C@@]([NH3+])(C(=O)NCCCNC(=O)c2ccc(-c3c4nc(c(-c5c(F)cccc5F)c5ccc([nH]5)c(-c5c(F)cccc5F)c5nc(c(-c6c(F)cccc6F)c6ccc3[nH]6)C=C5)C=C4)cc2)C(F)(F)F)c1
REMARK SMILES IDX 14 1 13 2 12 3 10 4 11 5 8 7 7 8 3 9 4 10 77 11 5 12 6 13
REMARK SMILES IDX 2 14 1 15 9 16 73 20 74 21 75 22 76 23 15 24 16 25 17 26
REMARK SMILES IDX 18 28 19 29 20 30 72 31 21 32 71 33 22 34 23 35 24 36 65 37
REMARK SMILES IDX 25 38 70 39 64 40 66 41 26 42 69 43 63 44 62 45 27 47 53 48
REMARK SMILES IDX 36 49 52 50 37 51 40 52 51 53 67 54 38 55 39 56 50 58 68 59
REMARK SMILES IDX 41 60 28 61 29 62 34 63 30 64 31 65 33 66 35 67 32 68 54 69
REMARK SMILES IDX 55 70 60 71 56 72 57 73 59 74 61 75 58 76 42 77 43 78 48 79
REMARK SMILES IDX 44 80 45 81 47 82 49 83 46 84
REMARK H PARENT 12 6 9 17 9 18 9 19 16 27 66 46 40 57
REMARK Flexibility Score: inf
ROOT
ATOM      1  C   UNL     1       1.824   4.225  -5.960  1.00  0.00     0.042 C 
ENDROOT
BRANCH   1   2
ATOM      2  C   UNL     1       3.296   3.824  -5.897  1.00  0.00     0.118 C 
BRANCH   2   3
ATOM      3  N   UNL     1       3.839   4.001  -4.561  1.00  0.00    -0.350 N 
ATOM      4  C   UNL     1       4.082   3.135  -3.531  1.00  0.00     0.296 C 
ATOM      5  O   UNL     1       4.413   3.690  -2.476  1.00  0.00    -0.267 OA
ATOM      6  H   UNL     1       4.080   4.933  -4.355  1.00  0.00     0.163 HD
BRANCH   4   7
ATOM      7  C   UNL     1       3.940   1.583  -3.629  1.00  0.00     0.295 C 
BRANCH   7   8
ATOM      8  C   UNL     1       2.470   1.140  -3.410  1.00  0.00     0.035 A 
ATOM      9  C   UNL     1       0.638   0.342  -1.981  1.00  0.00     0.119 A 
ATOM     10  C   UNL     1      -0.230   0.359  -3.070  1.00  0.00     0.046 A 
ATOM     11  C   UNL     1       1.970   0.747  -2.150  1.00  0.00     0.057 A 
ATOM     12  C   UNL     1       0.227   0.750  -4.321  1.00  0.00     0.004 A 
ATOM     13  C   UNL     1       1.564   1.112  -4.489  1.00  0.00     0.011 A 
BRANCH   9  14
ATOM     14  O   UNL     1       0.071  -0.107  -0.820  1.00  0.00    -0.497 OA
ATOM     15  C   UNL     1       0.848  -0.017   0.366  1.00  0.00     0.278 C 
ENDBRANCH   9  14
ENDBRANCH   7   8
BRANCH   7  16
ATOM     16  N   UNL     1       4.418   1.101  -4.990  1.00  0.00    -0.333 N 
ATOM     17  H   UNL     1       3.786   1.445  -5.714  1.00  0.00     0.345 HD
ATOM     18  H   UNL     1       4.429   0.082  -5.006  1.00  0.00     0.345 HD
ATOM     19  H   UNL     1       5.359   1.455  -5.165  1.00  0.00     0.345 HD
ENDBRANCH   7  16
BRANCH   7  20
ATOM     20  C   UNL     1       4.933   1.037  -2.537  1.00  0.00     0.458 C 
ATOM     21  F   UNL     1       4.684   1.417  -1.269  1.00  0.00    -0.164 F 
ATOM     22  F   UNL     1       4.923  -0.327  -2.545  1.00  0.00    -0.164 F 
ATOM     23  F   UNL     1       6.213   1.391  -2.833  1.00  0.00    -0.164 F 
ENDBRANCH   7  20
ENDBRANCH   4   7
ENDBRANCH   2   3
ENDBRANCH   1   2
BRANCH   1  24
ATOM     24  C   UNL     1       1.597   5.732  -5.950  1.00  0.00     0.118 C 
BRANCH  24  25
ATOM     25  N   UNL     1       1.976   6.354  -7.210  1.00  0.00    -0.352 N 
ATOM     26  C   UNL     1       1.218   7.034  -8.130  1.00  0.00     0.251 C 
ATOM     27  H   UNL     1       2.931   6.274  -7.440  1.00  0.00     0.163 HD
ATOM     28  O   UNL     1       1.699   7.294  -9.230  1.00  0.00    -0.269 OA
BRANCH  26  29
ATOM     29  C   UNL     1      -0.172   7.449  -7.825  1.00  0.00     0.039 A 
ATOM     30  C   UNL     1      -1.128   7.386  -8.845  1.00  0.00     0.014 A 
ATOM     31  C   UNL     1      -0.529   7.955  -6.573  1.00  0.00     0.014 A 
ATOM     32  C   UNL     1      -2.445   7.780  -8.595  1.00  0.00     0.010 A 
ATOM     33  C   UNL     1      -1.858   8.277  -6.302  1.00  0.00     0.010 A 
ATOM     34  C   UNL     1      -2.828   8.204  -7.313  1.00  0.00    -0.014 A 
BRANCH  34  35
ATOM     35  C   UNL     1      -4.231   8.591  -7.017  1.00  0.00     0.031 A 
ATOM     36  C   UNL     1      -4.562  10.006  -6.628  1.00  0.00     0.074 A 
ATOM     37  C   UNL     1      -5.201   7.656  -7.039  1.00  0.00     0.049 A 
ATOM     38  N   UNL     1      -5.711  10.518  -6.264  1.00  0.00    -0.248 NA
ATOM     39  C   UNL     1      -3.449  10.968  -6.621  1.00  0.00     0.031 C 
ATOM     40  C   UNL     1      -5.004   6.240  -7.354  1.00  0.00     0.029 A 
ATOM     41  N   UNL     1      -6.545   7.755  -6.777  1.00  0.00    -0.354 N 
ATOM     42  C   UNL     1      -5.455  11.850  -5.965  1.00  0.00     0.074 A 
ATOM     43  C   UNL     1      -4.035  12.058  -6.147  1.00  0.00     0.031 C 
ATOM     44  C   UNL     1      -6.186   5.607  -7.283  1.00  0.00     0.029 A 
ATOM     45  C   UNL     1      -7.216   6.562  -6.886  1.00  0.00     0.049 A 
ATOM     46  H   UNL     1      -6.985   8.601  -6.535  1.00  0.00     0.167 HD
ATOM     47  C   UNL     1      -6.326  12.818  -5.592  1.00  0.00     0.037 A 
ATOM     48  C   UNL     1      -8.514   6.268  -6.682  1.00  0.00     0.037 A 
ATOM     49  C   UNL     1      -7.744  12.620  -5.444  1.00  0.00     0.049 A 
ATOM     50  C   UNL     1      -9.463   7.362  -6.283  1.00  0.00     0.074 A 
ATOM     51  C   UNL     1      -8.719  13.554  -5.139  1.00  0.00     0.029 A 
ATOM     52  N   UNL     1      -8.389  11.402  -5.592  1.00  0.00    -0.354 N 
ATOM     53  N   UNL     1      -9.218   8.632  -6.069  1.00  0.00    -0.248 NA
ATOM     54  C   UNL     1     -10.873   6.984  -6.104  1.00  0.00     0.031 C 
ATOM     55  C   UNL     1      -9.950  12.894  -5.066  1.00  0.00     0.029 A 
ATOM     56  C   UNL     1      -9.747  11.556  -5.365  1.00  0.00     0.049 A 
ATOM     57  H   UNL     1      -7.948  10.553  -5.823  1.00  0.00     0.167 HD
ATOM     58  C   UNL     1     -10.441   9.208  -5.753  1.00  0.00     0.074 A 
ATOM     59  C   UNL     1     -11.430   8.152  -5.818  1.00  0.00     0.031 C 
ATOM     60  C   UNL     1     -10.720  10.496  -5.438  1.00  0.00     0.037 A 
BRANCH  47  61
ATOM     61  C   UNL     1      -5.767  14.185  -5.322  1.00  0.00     0.057 A 
ATOM     62  C   UNL     1      -5.297  15.008  -6.354  1.00  0.00     0.134 A 
ATOM     63  C   UNL     1      -5.728  14.697  -4.019  1.00  0.00     0.134 A 
ATOM     64  F   UNL     1      -5.296  14.573  -7.623  1.00  0.00    -0.206 F 
ATOM     65  C   UNL     1      -4.782  16.280  -6.097  1.00  0.00     0.040 A 
ATOM     66  C   UNL     1      -5.239  15.977  -3.752  1.00  0.00     0.040 A 
ATOM     67  F   UNL     1      -6.168  13.964  -2.985  1.00  0.00    -0.206 F 
ATOM     68  C   UNL     1      -4.758  16.770  -4.793  1.00  0.00     0.006 A 
ENDBRANCH  47  61
BRANCH  48  69
ATOM     69  C   UNL     1      -8.996   4.878  -6.874  1.00  0.00     0.057 A 
ATOM     70  C   UNL     1      -9.800   4.538  -7.968  1.00  0.00     0.134 A 
ATOM     71  C   UNL     1      -8.665   3.859  -5.973  1.00  0.00     0.134 A 
ATOM     72  F   UNL     1     -10.165   5.477  -8.853  1.00  0.00    -0.206 F 
ATOM     73  C   UNL     1     -10.271   3.238  -8.152  1.00  0.00     0.040 A 
ATOM     74  C   UNL     1      -9.110   2.549  -6.158  1.00  0.00     0.040 A 
ATOM     75  F   UNL     1      -7.891   4.120  -4.910  1.00  0.00    -0.206 F 
ATOM     76  C   UNL     1      -9.921   2.237  -7.248  1.00  0.00     0.006 A 
ENDBRANCH  48  69
BRANCH  60  77
ATOM     77  C   UNL     1     -12.154  10.840  -5.166  1.00  0.00     0.057 A 
ATOM     78  C   UNL     1     -12.791  10.457  -3.979  1.00  0.00     0.134 A 
ATOM     79  C   UNL     1     -12.893  11.593  -6.086  1.00  0.00     0.134 A 
ATOM     80  F   UNL     1     -12.141   9.723  -3.064  1.00  0.00    -0.206 F 
ATOM     81  C   UNL     1     -14.122  10.796  -3.727  1.00  0.00     0.040 A 
ATOM     82  C   UNL     1     -14.216  11.957  -5.834  1.00  0.00     0.040 A 
ATOM     83  F   UNL     1     -12.338  11.997  -7.239  1.00  0.00    -0.206 F 
ATOM     84  C   UNL     1     -14.836  11.553  -4.653  1.00  0.00     0.006 A 
ENDBRANCH  60  77
ENDBRANCH  34  35
ENDBRANCH  26  29
ENDBRANCH  24  25
ENDBRANCH   1  24
TORSDOF 14
