REMARK SMILES CC(C)[C@H](NC(=O)OCc1ccccc1)C(=O)NCC(=O)NCCCNC(=O)c1ccc(-c2c3nc(c(-c4c(F)cccc4F)c4ccc([nH]4)c(-c4c(F)cccc4F)c4nc(c(-c5c(F)cccc5F)c5ccc2[nH]5)C=C4)C=C3)cc1
REMARK SMILES IDX 20 1 21 2 22 3 19 5 18 6 16 7 17 8 4 10 2 11 1 12 3 13 5 14
REMARK SMILES IDX 6 15 7 17 8 18 9 19 10 20 11 21 15 22 12 23 14 24 13 25
REMARK SMILES IDX 23 26 24 27 25 28 26 29 27 30 28 32 29 33 30 34 82 35 31 36
REMARK SMILES IDX 81 37 32 38 33 39 34 40 75 41 35 42 80 43 74 44 76 45 36 46
REMARK SMILES IDX 79 47 73 48 72 49 37 51 63 52 46 53 62 54 47 55 50 56 61 57
REMARK SMILES IDX 77 58 48 59 49 60 60 62 78 63 51 64 38 65 39 66 44 67 40 68
REMARK SMILES IDX 41 69 43 70 45 71 42 72 64 73 65 74 70 75 66 76 67 77 69 78
REMARK SMILES IDX 71 79 68 80 52 81 53 82 58 83 54 84 55 85 57 86 59 87 56 88
REMARK H PARENT 22 4 18 9 5 16 26 31 76 50 50 61
REMARK Flexibility Score: inf
ROOT
ATOM      1  C   UNL     1       1.599  -3.930   2.683  1.00  0.00     0.239 C 
ATOM      2  O   UNL     1       1.617  -5.041   3.222  1.00  0.00    -0.273 OA
ATOM      3  N   UNL     1       2.693  -3.119   2.822  1.00  0.00    -0.355 N 
ATOM      4  H   UNL     1       3.398  -3.484   3.405  1.00  0.00     0.163 HD
ENDROOT
BRANCH   1   5
ATOM      5  C   UNL     1       0.363  -3.474   1.910  1.00  0.00     0.216 C 
BRANCH   5   6
ATOM      6  N   UNL     1      -0.808  -3.247   2.726  1.00  0.00    -0.345 N 
ATOM      7  C   UNL     1      -1.699  -2.221   2.717  1.00  0.00     0.243 C 
ATOM      8  O   UNL     1      -2.719  -2.349   3.405  1.00  0.00    -0.273 OA
ATOM      9  H   UNL     1      -0.990  -3.946   3.395  1.00  0.00     0.164 HD
BRANCH   7  10
ATOM     10  C   UNL     1      -1.501  -0.926   1.876  1.00  0.00     0.177 C 
BRANCH  10  11
ATOM     11  C   UNL     1      -1.678  -1.100   0.328  1.00  0.00     0.015 C 
ATOM     12  C   UNL     1      -0.418  -1.099  -0.558  1.00  0.00     0.010 C 
ATOM     13  C   UNL     1      -2.586  -2.284  -0.027  1.00  0.00     0.010 C 
ENDBRANCH  10  11
BRANCH  10  14
ATOM     14  N   UNL     1      -0.342  -0.117   2.260  1.00  0.00    -0.309 N 
ATOM     15  C   UNL     1      -0.062   0.256   3.551  1.00  0.00     0.408 C 
ATOM     16  H   UNL     1       0.273   0.176   1.550  1.00  0.00     0.167 HD
ATOM     17  O   UNL     1       0.568   1.295   3.777  1.00  0.00    -0.225 OA
BRANCH  15  18
ATOM     18  O   UNL     1      -0.411  -0.658   4.478  1.00  0.00    -0.445 OA
BRANCH  18  19
ATOM     19  C   UNL     1       0.085  -0.512   5.830  1.00  0.00     0.270 C 
BRANCH  19  20
ATOM     20  C   UNL     1       0.941  -1.706   6.220  1.00  0.00    -0.011 A 
ATOM     21  C   UNL     1       0.578  -3.011   5.875  1.00  0.00     0.007 A 
ATOM     22  C   UNL     1       2.131  -1.531   6.941  1.00  0.00     0.007 A 
ATOM     23  C   UNL     1       1.437  -4.087   6.125  1.00  0.00     0.000 A 
ATOM     24  C   UNL     1       3.003  -2.602   7.174  1.00  0.00     0.000 A 
ATOM     25  C   UNL     1       2.668  -3.878   6.739  1.00  0.00     0.000 A 
ENDBRANCH  19  20
ENDBRANCH  18  19
ENDBRANCH  15  18
ENDBRANCH  10  14
ENDBRANCH   7  10
ENDBRANCH   5   6
ENDBRANCH   1   5
BRANCH   3  26
ATOM     26  C   UNL     1       2.999  -1.808   2.257  1.00  0.00     0.117 C 
BRANCH  26  27
ATOM     27  C   UNL     1       3.013  -0.679   3.291  1.00  0.00     0.042 C 
BRANCH  27  28
ATOM     28  C   UNL     1       4.202  -0.622   4.251  1.00  0.00     0.118 C 
BRANCH  28  29
ATOM     29  N   UNL     1       5.094   0.495   3.981  1.00  0.00    -0.352 N 
ATOM     30  C   UNL     1       5.383   1.674   4.629  1.00  0.00     0.251 C 
ATOM     31  H   UNL     1       5.605   0.382   3.148  1.00  0.00     0.163 HD
ATOM     32  O   UNL     1       6.105   2.462   4.008  1.00  0.00    -0.269 OA
BRANCH  30  33
ATOM     33  C   UNL     1       4.921   2.083   5.997  1.00  0.00     0.039 A 
ATOM     34  C   UNL     1       4.926   3.460   6.281  1.00  0.00     0.014 A 
ATOM     35  C   UNL     1       4.622   1.221   7.053  1.00  0.00     0.014 A 
ATOM     36  C   UNL     1       4.650   3.954   7.568  1.00  0.00     0.010 A 
ATOM     37  C   UNL     1       4.261   1.722   8.330  1.00  0.00     0.010 A 
ATOM     38  C   UNL     1       4.299   3.096   8.620  1.00  0.00    -0.014 A 
BRANCH  38  39
ATOM     39  C   UNL     1       4.036   3.655   9.993  1.00  0.00     0.031 A 
ATOM     40  C   UNL     1       4.900   3.289  11.182  1.00  0.00     0.074 A 
ATOM     41  C   UNL     1       3.043   4.551  10.193  1.00  0.00     0.049 A 
ATOM     42  N   UNL     1       4.878   3.768  12.406  1.00  0.00    -0.248 NA
ATOM     43  C   UNL     1       5.910   2.242  10.978  1.00  0.00     0.031 C 
ATOM     44  C   UNL     1       2.089   4.997   9.179  1.00  0.00     0.029 A 
ATOM     45  N   UNL     1       2.685   5.266  11.318  1.00  0.00    -0.354 N 
ATOM     46  C   UNL     1       5.863   3.083  13.111  1.00  0.00     0.074 A 
ATOM     47  C   UNL     1       6.426   2.115  12.193  1.00  0.00     0.031 C 
ATOM     48  C   UNL     1       1.291   5.940   9.708  1.00  0.00     0.029 A 
ATOM     49  C   UNL     1       1.652   6.151  11.108  1.00  0.00     0.049 A 
ATOM     50  H   UNL     1       3.128   5.153  12.190  1.00  0.00     0.167 HD
ATOM     51  C   UNL     1       6.288   3.252  14.389  1.00  0.00     0.037 A 
ATOM     52  C   UNL     1       1.064   7.043  11.932  1.00  0.00     0.037 A 
ATOM     53  C   UNL     1       5.764   4.220  15.321  1.00  0.00     0.049 A 
ATOM     54  C   UNL     1       1.544   7.208  13.349  1.00  0.00     0.074 A 
ATOM     55  C   UNL     1       6.182   4.483  16.616  1.00  0.00     0.029 A 
ATOM     56  N   UNL     1       4.708   5.079  15.066  1.00  0.00    -0.354 N 
ATOM     57  N   UNL     1       2.528   6.603  13.966  1.00  0.00    -0.248 NA
ATOM     58  C   UNL     1       0.834   8.194  14.181  1.00  0.00     0.031 C 
ATOM     59  C   UNL     1       5.352   5.470  17.159  1.00  0.00     0.029 A 
ATOM     60  C   UNL     1       4.449   5.857  16.185  1.00  0.00     0.049 A 
ATOM     61  H   UNL     1       4.215   5.130  14.215  1.00  0.00     0.167 HD
ATOM     62  C   UNL     1       2.576   7.156  15.241  1.00  0.00     0.074 A 
ATOM     63  C   UNL     1       1.531   8.154  15.308  1.00  0.00     0.031 C 
ATOM     64  C   UNL     1       3.419   6.861  16.260  1.00  0.00     0.037 A 
BRANCH  51  65
ATOM     65  C   UNL     1       7.405   2.365  14.868  1.00  0.00     0.057 A 
ATOM     66  C   UNL     1       8.719   2.523  14.409  1.00  0.00     0.134 A 
ATOM     67  C   UNL     1       7.176   1.381  15.839  1.00  0.00     0.134 A 
ATOM     68  F   UNL     1       9.008   3.445  13.478  1.00  0.00    -0.206 F 
ATOM     69  C   UNL     1       9.758   1.715  14.873  1.00  0.00     0.040 A 
ATOM     70  C   UNL     1       8.212   0.586  16.332  1.00  0.00     0.040 A 
ATOM     71  F   UNL     1       5.945   1.188  16.337  1.00  0.00    -0.206 F 
ATOM     72  C   UNL     1       9.507   0.746  15.843  1.00  0.00     0.006 A 
ENDBRANCH  51  65
BRANCH  52  73
ATOM     73  C   UNL     1      -0.041   7.900  11.427  1.00  0.00     0.057 A 
ATOM     74  C   UNL     1       0.141   9.275  11.232  1.00  0.00     0.134 A 
ATOM     75  C   UNL     1      -1.309   7.372  11.156  1.00  0.00     0.134 A 
ATOM     76  F   UNL     1       1.324   9.844  11.503  1.00  0.00    -0.206 F 
ATOM     77  C   UNL     1      -0.902  10.097  10.801  1.00  0.00     0.040 A 
ATOM     78  C   UNL     1      -2.353   8.178  10.700  1.00  0.00     0.040 A 
ATOM     79  F   UNL     1      -1.548   6.064  11.327  1.00  0.00    -0.206 F 
ATOM     80  C   UNL     1      -2.152   9.547  10.528  1.00  0.00     0.006 A 
ENDBRANCH  52  73
BRANCH  64  81
ATOM     81  C   UNL     1       3.282   7.653  17.530  1.00  0.00     0.057 A 
ATOM     82  C   UNL     1       2.198   7.483  18.401  1.00  0.00     0.134 A 
ATOM     83  C   UNL     1       4.265   8.580  17.902  1.00  0.00     0.134 A 
ATOM     84  F   UNL     1       1.215   6.620  18.102  1.00  0.00    -0.206 F 
ATOM     85  C   UNL     1       2.082   8.225  19.579  1.00  0.00     0.040 A 
ATOM     86  C   UNL     1       4.174   9.310  19.089  1.00  0.00     0.040 A 
ATOM     87  F   UNL     1       5.336   8.788  17.120  1.00  0.00    -0.206 F 
ATOM     88  C   UNL     1       3.076   9.138  19.929  1.00  0.00     0.006 A 
ENDBRANCH  64  81
ENDBRANCH  38  39
ENDBRANCH  30  33
ENDBRANCH  28  29
ENDBRANCH  27  28
ENDBRANCH  26  27
ENDBRANCH   3  26
TORSDOF 17
