REMARK SMILES CS(=O)(=O)Nc1ccc(-c2cc(Cl)cc3c2O[C@H](C(F)(F)F)C(C(=O)NCCCNC(=O)c2ccc(-c4c5nc(c(-c6c(F)cccc6F)c6ccc([nH]6)c(-c6c(F)cccc6F)c6nc(c(-c7c(F)cccc7F)c7ccc4[nH]7)C=C6)C=C5)cc2)=C3)cc1
REMARK SMILES IDX 27 1 26 2 24 3 25 4 23 6 10 7 11 8 16 9 12 10 15 11 17 12
REMARK SMILES IDX 13 13 14 14 87 15 18 16 9 17 6 18 7 19 89 20 8 21 88 22 5 23
REMARK SMILES IDX 2 25 1 26 3 27 4 28 19 29 20 30 21 31 22 32 28 33 29 34
REMARK SMILES IDX 30 35 31 36 32 38 33 39 34 40 86 41 35 42 85 43 36 44 37 45
REMARK SMILES IDX 38 46 79 47 39 48 84 49 78 50 80 51 40 52 83 53 77 54 76 55
REMARK SMILES IDX 41 57 67 58 50 59 66 60 51 61 54 62 65 63 81 64 52 65 53 66
REMARK SMILES IDX 64 68 82 69 55 70 42 71 43 72 48 73 44 74 45 75 47 76 49 77
REMARK SMILES IDX 46 78 68 79 69 80 74 81 70 82 71 83 73 84 75 85 72 86 56 87
REMARK SMILES IDX 57 88 62 89 58 90 59 91 61 92 63 93 60 94
REMARK H PARENT 26 5 5 24 30 37 80 56 54 67
REMARK Flexibility Score: inf
ROOT
ATOM      1  C   UNL     1      10.583   8.342  -4.421  1.00  0.00     0.118 C 
ENDROOT
BRANCH   1   2
ATOM      2  N   UNL     1       9.136   8.426  -4.390  1.00  0.00    -0.352 N 
ATOM      3  C   UNL     1       8.270   7.385  -4.323  1.00  0.00     0.251 C 
ATOM      4  O   UNL     1       7.240   7.399  -4.987  1.00  0.00    -0.270 OA
ATOM      5  H   UNL     1       8.743   9.329  -4.421  1.00  0.00     0.163 HD
BRANCH   3   6
ATOM      6  C   UNL     1       8.565   6.324  -3.315  1.00  0.00     0.067 C 
ATOM      7  C   UNL     1       5.020   4.335  -3.369  1.00  0.00     0.026 A 
ATOM      8  C   UNL     1       3.977   5.297  -3.296  1.00  0.00     0.033 A 
ATOM      9  C   UNL     1       6.311   4.793  -3.070  1.00  0.00     0.135 A 
ATOM     10  C   UNL     1       4.179   6.591  -2.821  1.00  0.00     0.042 A 
ATOM     11  C   UNL     1       6.478   6.073  -2.485  1.00  0.00     0.019 A 
ATOM     12  O   UNL     1       7.451   4.062  -3.362  1.00  0.00    -0.475 OA
ATOM     13  Cl  UNL     1       2.869   7.702  -2.791  1.00  0.00    -0.084 Cl
ATOM     14  C   UNL     1       5.421   6.969  -2.351  1.00  0.00     0.032 A 
ATOM     15  C   UNL     1       7.859   6.514  -2.182  1.00  0.00     0.025 C 
ATOM     16  C   UNL     1       8.567   4.905  -3.873  1.00  0.00     0.314 C 
BRANCH   7  17
ATOM     17  C   UNL     1       4.568   2.932  -3.547  1.00  0.00    -0.014 A 
ATOM     18  C   UNL     1       2.703   0.839  -3.136  1.00  0.00     0.048 A 
ATOM     19  C   UNL     1       2.666   1.605  -4.303  1.00  0.00     0.027 A 
ATOM     20  C   UNL     1       3.789   0.990  -2.278  1.00  0.00     0.027 A 
ATOM     21  C   UNL     1       3.605   2.621  -4.523  1.00  0.00     0.011 A 
ATOM     22  C   UNL     1       4.720   2.025  -2.485  1.00  0.00     0.011 A 
BRANCH  18  23
ATOM     23  N   UNL     1       1.529   0.094  -2.829  1.00  0.00    -0.284 N 
ATOM     24  H   UNL     1       0.787   0.164  -3.472  1.00  0.00     0.180 HD
BRANCH  23  25
ATOM     25  S   UNL     1       1.267  -0.881  -1.510  1.00  0.00     0.229 S 
ATOM     26  C   UNL     1       1.136   0.264  -0.145  1.00  0.00     0.183 C 
ATOM     27  O   UNL     1       2.413  -1.737  -1.300  1.00  0.00    -0.207 OA
ATOM     28  O   UNL     1      -0.053  -1.440  -1.717  1.00  0.00    -0.207 OA
ENDBRANCH  23  25
ENDBRANCH  18  23
ENDBRANCH   7  17
BRANCH  16  29
ATOM     29  C   UNL     1       9.943   4.265  -3.586  1.00  0.00     0.429 C 
ATOM     30  F   UNL     1       9.865   3.204  -2.753  1.00  0.00    -0.167 F 
ATOM     31  F   UNL     1      10.532   3.845  -4.732  1.00  0.00    -0.167 F 
ATOM     32  F   UNL     1      10.813   5.140  -3.014  1.00  0.00    -0.167 F 
ENDBRANCH  16  29
ENDBRANCH   3   6
ENDBRANCH   1   2
BRANCH   1  33
ATOM     33  C   UNL     1      11.108   8.884  -5.753  1.00  0.00     0.042 C 
BRANCH  33  34
ATOM     34  C   UNL     1      10.805  10.360  -6.002  1.00  0.00     0.118 C 
BRANCH  34  35
ATOM     35  N   UNL     1      11.442  11.248  -5.043  1.00  0.00    -0.352 N 
ATOM     36  C   UNL     1      12.197  12.373  -5.278  1.00  0.00     0.251 C 
ATOM     37  H   UNL     1      11.316  11.012  -4.095  1.00  0.00     0.163 HD
ATOM     38  O   UNL     1      12.775  12.938  -4.355  1.00  0.00    -0.269 OA
BRANCH  36  39
ATOM     39  C   UNL     1      12.337  12.876  -6.660  1.00  0.00     0.039 A 
ATOM     40  C   UNL     1      13.614  13.142  -7.157  1.00  0.00     0.014 A 
ATOM     41  C   UNL     1      11.213  13.040  -7.473  1.00  0.00     0.014 A 
ATOM     42  C   UNL     1      13.772  13.493  -8.499  1.00  0.00     0.010 A 
ATOM     43  C   UNL     1      11.378  13.315  -8.826  1.00  0.00     0.010 A 
ATOM     44  C   UNL     1      12.660  13.536  -9.356  1.00  0.00    -0.014 A 
BRANCH  44  45
ATOM     45  C   UNL     1      12.809  13.792 -10.812  1.00  0.00     0.031 A 
ATOM     46  C   UNL     1      12.166  14.999 -11.434  1.00  0.00     0.074 A 
ATOM     47  C   UNL     1      13.445  12.892 -11.588  1.00  0.00     0.049 A 
ATOM     48  N   UNL     1      12.076  15.331 -12.697  1.00  0.00    -0.248 NA
ATOM     49  C   UNL     1      11.508  15.943 -10.516  1.00  0.00     0.031 C 
ATOM     50  C   UNL     1      14.074  11.657 -11.114  1.00  0.00     0.029 A 
ATOM     51  N   UNL     1      13.653  12.868 -12.944  1.00  0.00    -0.354 N 
ATOM     52  C   UNL     1      11.335  16.506 -12.726  1.00  0.00     0.074 A 
ATOM     53  C   UNL     1      10.957  16.802 -11.361  1.00  0.00     0.031 C 
ATOM     54  C   UNL     1      14.610  11.007 -12.159  1.00  0.00     0.029 A 
ATOM     55  C   UNL     1      14.328  11.753 -13.380  1.00  0.00     0.049 A 
ATOM     56  H   UNL     1      13.347  13.583 -13.549  1.00  0.00     0.167 HD
ATOM     57  C   UNL     1      11.017  17.279 -13.791  1.00  0.00     0.037 A 
ATOM     58  C   UNL     1      14.668  11.369 -14.625  1.00  0.00     0.037 A 
ATOM     59  C   UNL     1      11.419  16.999 -15.144  1.00  0.00     0.049 A 
ATOM     60  C   UNL     1      14.298  12.242 -15.792  1.00  0.00     0.074 A 
ATOM     61  C   UNL     1      11.199  17.754 -16.283  1.00  0.00     0.029 A 
ATOM     62  N   UNL     1      12.126  15.873 -15.540  1.00  0.00    -0.354 N 
ATOM     63  N   UNL     1      13.650  13.382 -15.798  1.00  0.00    -0.248 NA
ATOM     64  C   UNL     1      14.709  11.778 -17.125  1.00  0.00     0.031 C 
ATOM     65  C   UNL     1      11.736  17.064 -17.375  1.00  0.00     0.029 A 
ATOM     66  C   UNL     1      12.333  15.904 -16.909  1.00  0.00     0.049 A 
ATOM     67  H   UNL     1      12.434  15.158 -14.937  1.00  0.00     0.167 HD
ATOM     68  C   UNL     1      13.603  13.786 -17.126  1.00  0.00     0.074 A 
ATOM     69  C   UNL     1      14.296  12.774 -17.896  1.00  0.00     0.031 C 
ATOM     70  C   UNL     1      13.037  14.896 -17.659  1.00  0.00     0.037 A 
BRANCH  57  71
ATOM     71  C   UNL     1      10.194  18.508 -13.532  1.00  0.00     0.057 A 
ATOM     72  C   UNL     1      10.716  19.618 -12.855  1.00  0.00     0.134 A 
ATOM     73  C   UNL     1       8.873  18.595 -13.991  1.00  0.00     0.134 A 
ATOM     74  F   UNL     1      11.970  19.596 -12.378  1.00  0.00    -0.206 F 
ATOM     75  C   UNL     1       9.946  20.758 -12.618  1.00  0.00     0.040 A 
ATOM     76  C   UNL     1       8.103  19.741 -13.786  1.00  0.00     0.040 A 
ATOM     77  F   UNL     1       8.313  17.572 -14.653  1.00  0.00    -0.206 F 
ATOM     78  C   UNL     1       8.637  20.824 -13.091  1.00  0.00     0.006 A 
ENDBRANCH  57  71
BRANCH  58  79
ATOM     79  C   UNL     1      15.417  10.103 -14.835  1.00  0.00     0.057 A 
ATOM     80  C   UNL     1      16.755  10.118 -15.248  1.00  0.00     0.134 A 
ATOM     81  C   UNL     1      14.816   8.854 -14.641  1.00  0.00     0.134 A 
ATOM     82  F   UNL     1      17.379  11.284 -15.469  1.00  0.00    -0.206 F 
ATOM     83  C   UNL     1      17.463   8.938 -15.478  1.00  0.00     0.040 A 
ATOM     84  C   UNL     1      15.520   7.665 -14.843  1.00  0.00     0.040 A 
ATOM     85  F   UNL     1      13.540   8.771 -14.238  1.00  0.00    -0.206 F 
ATOM     86  C   UNL     1      16.846   7.706 -15.271  1.00  0.00     0.006 A 
ENDBRANCH  58  79
BRANCH  70  87
ATOM     87  C   UNL     1      13.181  15.100 -19.139  1.00  0.00     0.057 A 
ATOM     88  C   UNL     1      12.462  14.336 -20.066  1.00  0.00     0.134 A 
ATOM     89  C   UNL     1      14.013  16.111 -19.638  1.00  0.00     0.134 A 
ATOM     90  F   UNL     1      11.659  13.344 -19.652  1.00  0.00    -0.206 F 
ATOM     91  C   UNL     1      12.578  14.559 -21.439  1.00  0.00     0.040 A 
ATOM     92  C   UNL     1      14.117  16.360 -21.007  1.00  0.00     0.040 A 
ATOM     93  F   UNL     1      14.723  16.884 -18.803  1.00  0.00    -0.206 F 
ATOM     94  C   UNL     1      13.401  15.579 -21.912  1.00  0.00     0.006 A 
ENDBRANCH  70  87
ENDBRANCH  44  45
ENDBRANCH  36  39
ENDBRANCH  34  35
ENDBRANCH  33  34
ENDBRANCH   1  33
TORSDOF 14
