REMARK SMILES Cc1coc2cc3c(cc12)[C@@H](C)[C@H](CCC(=O)N[C@@H](Cc1c[nH]c2ccccc12)C(=O)NCCCNC(=O)c1ccc(-c2c4nc(c(-c5c(F)cccc5F)c5ccc([nH]5)c(-c5c(F)cccc5F)c5nc(c(-c6c(F)cccc6F)c6ccc2[nH]6)C=C5)C=C4)cc1)C(=O)O3
REMARK SMILES IDX 33 1 32 2 30 3 31 4 19 6 18 7 16 8 17 9 15 11 14 12 13 13
REMARK SMILES IDX 1 14 2 15 3 16 10 17 4 18 5 19 9 20 6 21 8 22 7 23 11 24
REMARK SMILES IDX 95 25 12 26 93 27 94 28 20 29 21 30 22 31 29 32 23 33 24 34
REMARK SMILES IDX 28 35 25 37 27 38 26 39 34 40 35 41 36 42 37 43 38 45 39 46
REMARK SMILES IDX 40 47 92 48 41 49 91 50 42 51 43 52 44 53 85 54 45 55 90 56
REMARK SMILES IDX 84 57 86 58 46 59 89 60 83 61 82 62 47 64 73 65 56 66 72 67
REMARK SMILES IDX 57 68 60 69 71 70 87 71 58 72 59 73 70 75 88 76 61 77 48 78
REMARK SMILES IDX 49 79 54 80 50 81 51 82 53 83 55 84 52 85 74 86 75 87 80 88
REMARK SMILES IDX 76 89 77 90 79 91 81 92 78 93 62 94 63 95 68 96 64 97 65 98
REMARK SMILES IDX 67 99 69 100 66 101
REMARK H PARENT 32 5 18 10 23 36 36 44 86 63 60 74
REMARK Flexibility Score: inf
ROOT
ATOM      1  C   UNL     1      -5.163  -2.701  -7.810  1.00  0.00     0.117 C 
ENDROOT
BRANCH   1   2
ATOM      2  N   UNL     1      -5.119  -4.120  -8.013  1.00  0.00    -0.354 N 
ATOM      3  C   UNL     1      -4.358  -4.989  -7.274  1.00  0.00     0.242 C 
ATOM      4  O   UNL     1      -4.625  -6.192  -7.333  1.00  0.00    -0.273 OA
ATOM      5  H   UNL     1      -5.675  -4.497  -8.733  1.00  0.00     0.163 HD
BRANCH   3   6
ATOM      6  C   UNL     1      -3.187  -4.476  -6.396  1.00  0.00     0.175 C 
BRANCH   6   7
ATOM      7  N   UNL     1      -2.133  -3.892  -7.255  1.00  0.00    -0.344 N 
ATOM      8  C   UNL     1      -0.839  -4.222  -7.537  1.00  0.00     0.220 C 
ATOM      9  O   UNL     1      -0.249  -3.524  -8.368  1.00  0.00    -0.275 OA
ATOM     10  H   UNL     1      -2.433  -3.084  -7.730  1.00  0.00     0.164 HD
BRANCH   8  11
ATOM     11  C   UNL     1      -0.081  -5.347  -6.825  1.00  0.00     0.101 C 
BRANCH  11  12
ATOM     12  C   UNL     1       0.699  -4.994  -5.519  1.00  0.00     0.026 C 
BRANCH  12  13
ATOM     13  C   UNL     1      -0.143  -4.174  -4.543  1.00  0.00     0.107 C 
ATOM     14  C   UNL     1       1.025   0.343   0.964  1.00  0.00     0.048 C 
ATOM     15  C   UNL     1       0.768   0.600  -0.467  1.00  0.00    -0.005 A 
ATOM     16  C   UNL     1       0.672   1.833  -1.082  1.00  0.00     0.199 A 
ATOM     17  C   UNL     1       0.666  -0.371  -1.508  1.00  0.00     0.024 A 
ATOM     18  O   UNL     1       0.616   1.698  -2.428  1.00  0.00    -0.464 OA
ATOM     19  C   UNL     1       0.674   0.366  -2.686  1.00  0.00     0.137 A 
ATOM     20  C   UNL     1       0.609  -1.787  -1.575  1.00  0.00     0.020 A 
ATOM     21  C   UNL     1       0.769  -0.187  -3.945  1.00  0.00     0.095 A 
ATOM     22  C   UNL     1       0.625  -2.409  -2.832  1.00  0.00    -0.001 A 
ATOM     23  C   UNL     1       0.795  -1.581  -3.967  1.00  0.00     0.138 A 
ATOM     24  C   UNL     1       0.307  -3.907  -3.068  1.00  0.00     0.034 C 
ATOM     25  O   UNL     1       0.872  -2.156  -5.214  1.00  0.00    -0.426 OA
ATOM     26  C   UNL     1      -0.868  -4.350  -2.158  1.00  0.00     0.014 C 
ATOM     27  C   UNL     1      -0.302  -2.812  -5.127  1.00  0.00     0.314 C 
ATOM     28  O   UNL     1      -1.382  -2.285  -5.317  1.00  0.00    -0.251 OA
ENDBRANCH  12  13
ENDBRANCH  11  12
ENDBRANCH   8  11
ENDBRANCH   6   7
BRANCH   6  29
ATOM     29  C   UNL     1      -3.667  -3.742  -5.093  1.00  0.00     0.072 C 
BRANCH  29  30
ATOM     30  C   UNL     1      -4.351  -2.371  -4.970  1.00  0.00    -0.020 A 
ATOM     31  C   UNL     1      -5.508  -2.236  -4.210  1.00  0.00     0.087 A 
ATOM     32  C   UNL     1      -4.048  -1.008  -5.432  1.00  0.00     0.003 A 
ATOM     33  N   UNL     1      -5.951  -0.948  -4.266  1.00  0.00    -0.361 N 
ATOM     34  C   UNL     1      -5.092  -0.177  -5.004  1.00  0.00     0.046 A 
ATOM     35  C   UNL     1      -3.053  -0.369  -6.223  1.00  0.00     0.010 A 
ATOM     36  H   UNL     1      -6.774  -0.618  -3.837  1.00  0.00     0.166 HD
ATOM     37  C   UNL     1      -5.183   1.189  -5.320  1.00  0.00     0.026 A 
ATOM     38  C   UNL     1      -3.096   1.004  -6.503  1.00  0.00     0.001 A 
ATOM     39  C   UNL     1      -4.160   1.772  -6.066  1.00  0.00     0.002 A 
ENDBRANCH  29  30
ENDBRANCH   6  29
ENDBRANCH   3   6
ENDBRANCH   1   2
BRANCH   1  40
ATOM     40  C   UNL     1      -5.454  -1.820  -8.998  1.00  0.00     0.042 C 
BRANCH  40  41
ATOM     41  C   UNL     1      -6.912  -1.823  -9.434  1.00  0.00     0.118 C 
BRANCH  41  42
ATOM     42  N   UNL     1      -7.862  -1.671  -8.345  1.00  0.00    -0.352 N 
ATOM     43  C   UNL     1      -8.546  -0.622  -7.802  1.00  0.00     0.251 C 
ATOM     44  H   UNL     1      -8.057  -2.523  -7.893  1.00  0.00     0.163 HD
ATOM     45  O   UNL     1      -9.416  -0.902  -6.974  1.00  0.00    -0.269 OA
BRANCH  43  46
ATOM     46  C   UNL     1      -8.284   0.812  -8.081  1.00  0.00     0.039 A 
ATOM     47  C   UNL     1      -7.098   1.308  -8.612  1.00  0.00     0.014 A 
ATOM     48  C   UNL     1      -9.249   1.724  -7.614  1.00  0.00     0.014 A 
ATOM     49  C   UNL     1      -6.820   2.667  -8.551  1.00  0.00     0.010 A 
ATOM     50  C   UNL     1      -8.990   3.090  -7.577  1.00  0.00     0.010 A 
ATOM     51  C   UNL     1      -7.745   3.551  -7.986  1.00  0.00    -0.014 A 
BRANCH  51  52
ATOM     52  C   UNL     1      -7.379   4.964  -7.944  1.00  0.00     0.031 A 
ATOM     53  C   UNL     1      -7.057   5.545  -9.278  1.00  0.00     0.074 A 
ATOM     54  C   UNL     1      -7.379   5.720  -6.827  1.00  0.00     0.049 A 
ATOM     55  N   UNL     1      -5.925   6.011  -9.694  1.00  0.00    -0.248 NA
ATOM     56  C   UNL     1      -8.094   5.466 -10.320  1.00  0.00     0.031 C 
ATOM     57  C   UNL     1      -7.902   5.392  -5.499  1.00  0.00     0.029 A 
ATOM     58  N   UNL     1      -6.953   7.006  -6.674  1.00  0.00    -0.354 N 
ATOM     59  C   UNL     1      -6.146   6.447 -10.999  1.00  0.00     0.074 A 
ATOM     60  C   UNL     1      -7.450   5.965 -11.376  1.00  0.00     0.031 C 
ATOM     61  C   UNL     1      -7.961   6.517  -4.749  1.00  0.00     0.029 A 
ATOM     62  C   UNL     1      -7.346   7.608  -5.485  1.00  0.00     0.049 A 
ATOM     63  H   UNL     1      -6.410   7.471  -7.351  1.00  0.00     0.167 HD
ATOM     64  C   UNL     1      -5.322   7.348 -11.600  1.00  0.00     0.037 A 
ATOM     65  C   UNL     1      -7.210   8.918  -5.159  1.00  0.00     0.037 A 
ATOM     66  C   UNL     1      -4.033   7.388 -10.964  1.00  0.00     0.049 A 
ATOM     67  C   UNL     1      -6.156   9.486  -6.032  1.00  0.00     0.074 A 
ATOM     68  C   UNL     1      -3.008   6.482 -10.778  1.00  0.00     0.029 A 
ATOM     69  N   UNL     1      -3.780   8.417 -10.092  1.00  0.00    -0.354 N 
ATOM     70  N   UNL     1      -4.894   9.173  -5.950  1.00  0.00    -0.248 NA
ATOM     71  C   UNL     1      -6.573  10.089  -7.288  1.00  0.00     0.031 C 
ATOM     72  C   UNL     1      -2.483   6.777  -9.486  1.00  0.00     0.029 A 
ATOM     73  C   UNL     1      -3.187   7.873  -8.985  1.00  0.00     0.049 A 
ATOM     74  H   UNL     1      -3.986   9.369 -10.236  1.00  0.00     0.167 HD
ATOM     75  C   UNL     1      -4.454   9.140  -7.264  1.00  0.00     0.074 A 
ATOM     76  C   UNL     1      -5.506   9.797  -8.035  1.00  0.00     0.031 C 
ATOM     77  C   UNL     1      -3.414   8.341  -7.638  1.00  0.00     0.037 A 
BRANCH  64  78
ATOM     78  C   UNL     1      -5.806   8.445 -12.516  1.00  0.00     0.057 A 
ATOM     79  C   UNL     1      -4.867   9.272 -13.161  1.00  0.00     0.134 A 
ATOM     80  C   UNL     1      -7.136   8.914 -12.551  1.00  0.00     0.134 A 
ATOM     81  F   UNL     1      -3.565   8.947 -13.187  1.00  0.00    -0.206 F 
ATOM     82  C   UNL     1      -5.214  10.506 -13.725  1.00  0.00     0.040 A 
ATOM     83  C   UNL     1      -7.500  10.120 -13.155  1.00  0.00     0.040 A 
ATOM     84  F   UNL     1      -8.135   8.288 -11.919  1.00  0.00    -0.206 F 
ATOM     85  C   UNL     1      -6.534  10.938 -13.715  1.00  0.00     0.006 A 
ENDBRANCH  64  78
BRANCH  65  86
ATOM     86  C   UNL     1      -8.137   9.792  -4.399  1.00  0.00     0.057 A 
ATOM     87  C   UNL     1      -7.732  11.057  -3.945  1.00  0.00     0.134 A 
ATOM     88  C   UNL     1      -9.520   9.542  -4.368  1.00  0.00     0.134 A 
ATOM     89  F   UNL     1      -6.438  11.408  -3.971  1.00  0.00    -0.206 F 
ATOM     90  C   UNL     1      -8.650  12.030  -3.524  1.00  0.00     0.040 A 
ATOM     91  C   UNL     1     -10.446  10.502  -3.945  1.00  0.00     0.040 A 
ATOM     92  F   UNL     1     -10.026   8.394  -4.839  1.00  0.00    -0.206 F 
ATOM     93  C   UNL     1     -10.014  11.758  -3.537  1.00  0.00     0.006 A 
ENDBRANCH  65  86
BRANCH  77  94
ATOM     94  C   UNL     1      -2.598   7.687  -6.557  1.00  0.00     0.057 A 
ATOM     95  C   UNL     1      -3.096   6.703  -5.690  1.00  0.00     0.134 A 
ATOM     96  C   UNL     1      -1.220   7.927  -6.522  1.00  0.00     0.134 A 
ATOM     97  F   UNL     1      -4.386   6.344  -5.714  1.00  0.00    -0.206 F 
ATOM     98  C   UNL     1      -2.259   6.003  -4.814  1.00  0.00     0.040 A 
ATOM     99  C   UNL     1      -0.370   7.214  -5.674  1.00  0.00     0.040 A 
ATOM    100  F   UNL     1      -0.669   8.819  -7.360  1.00  0.00    -0.206 F 
ATOM    101  C   UNL     1      -0.889   6.250  -4.814  1.00  0.00     0.006 A 
ENDBRANCH  77  94
ENDBRANCH  51  52
ENDBRANCH  43  46
ENDBRANCH  41  42
ENDBRANCH  40  41
ENDBRANCH   1  40
TORSDOF 16
