REMARK SMILES CC(C)(C)OC(=O)Nc1ccc(-c2cccc(Cl)c2C(=O)NCCCNC(=O)c2ccc(-c3c4nc(c(-c5c(F)cccc5F)c5ccc([nH]5)c(-c5c(F)cccc5F)c5nc(c(-c6c(F)cccc6F)c6ccc3[nH]6)C=C5)C=C4)cc2)cc1
REMARK SMILES IDX 23 1 22 2 20 3 21 4 19 6 13 7 14 8 15 9 17 10 16 11 18 12
REMARK SMILES IDX 12 13 9 14 10 15 84 16 11 17 83 18 8 19 6 20 7 21 5 23 2 24
REMARK SMILES IDX 1 25 3 26 4 27 24 28 25 29 26 30 27 31 28 33 29 34 30 35
REMARK SMILES IDX 82 36 31 37 81 38 32 39 33 40 34 41 75 42 35 43 80 44 74 45
REMARK SMILES IDX 76 46 36 47 79 48 73 49 72 50 37 52 63 53 46 54 62 55 47 56
REMARK SMILES IDX 50 57 61 58 77 59 48 60 49 61 60 63 78 64 51 65 38 66 39 67
REMARK SMILES IDX 44 68 40 69 41 70 43 71 45 72 42 73 64 74 65 75 70 76 66 77
REMARK SMILES IDX 67 78 69 79 71 80 68 81 52 82 53 83 58 84 54 85 55 86 57 87
REMARK SMILES IDX 59 88 56 89
REMARK H PARENT 22 5 8 22 26 32 76 51 50 62
REMARK Flexibility Score: inf
ROOT
ATOM      1  C   UNL     1       4.930  -5.637  -1.075  1.00  0.00     0.118 C 
ENDROOT
BRANCH   1   2
ATOM      2  N   UNL     1       6.273  -5.508  -1.541  1.00  0.00    -0.352 N 
ATOM      3  C   UNL     1       6.607  -4.912  -2.748  1.00  0.00     0.253 C 
ATOM      4  O   UNL     1       7.620  -4.207  -2.743  1.00  0.00    -0.269 OA
ATOM      5  H   UNL     1       6.999  -5.859  -0.976  1.00  0.00     0.163 HD
BRANCH   3   6
ATOM      6  C   UNL     1       5.898  -5.144  -4.066  1.00  0.00     0.066 A 
ATOM      7  C   UNL     1       4.527  -4.883  -4.392  1.00  0.00    -0.004 A 
ATOM      8  C   UNL     1       4.116  -4.985  -5.746  1.00  0.00     0.009 A 
ATOM      9  C   UNL     1       4.990  -5.338  -6.765  1.00  0.00     0.002 A 
ATOM     10  C   UNL     1       6.753  -5.556  -5.125  1.00  0.00     0.054 A 
ATOM     11  C   UNL     1       6.304  -5.637  -6.451  1.00  0.00     0.021 A 
ATOM     12  Cl  UNL     1       8.396  -6.084  -4.889  1.00  0.00    -0.083 Cl
BRANCH   7  13
ATOM     13  C   UNL     1       3.424  -4.593  -3.456  1.00  0.00    -0.017 A 
ATOM     14  C   UNL     1       1.515  -4.329  -1.371  1.00  0.00     0.044 A 
ATOM     15  C   UNL     1       1.518  -5.465  -2.181  1.00  0.00     0.027 A 
ATOM     16  C   UNL     1       2.405  -3.291  -1.678  1.00  0.00     0.027 A 
ATOM     17  C   UNL     1       2.439  -5.583  -3.228  1.00  0.00     0.011 A 
ATOM     18  C   UNL     1       3.348  -3.415  -2.714  1.00  0.00     0.011 A 
BRANCH  14  19
ATOM     19  N   UNL     1       0.647  -4.351  -0.263  1.00  0.00    -0.291 N 
ATOM     20  C   UNL     1       0.286  -3.364   0.619  1.00  0.00     0.412 C 
ATOM     21  O   UNL     1      -0.472  -3.610   1.546  1.00  0.00    -0.224 OA
ATOM     22  H   UNL     1       0.228  -5.225  -0.090  1.00  0.00     0.173 HD
BRANCH  20  23
ATOM     23  O   UNL     1       0.758  -2.147   0.288  1.00  0.00    -0.444 OA
BRANCH  23  24
ATOM     24  C   UNL     1       0.352  -0.938   0.964  1.00  0.00     0.106 C 
ATOM     25  C   UNL     1       0.974   0.172   0.103  1.00  0.00     0.056 C 
ATOM     26  C   UNL     1       0.933  -0.866   2.375  1.00  0.00     0.056 C 
ATOM     27  C   UNL     1      -1.170  -0.778   0.957  1.00  0.00     0.056 C 
ENDBRANCH  23  24
ENDBRANCH  20  23
ENDBRANCH  14  19
ENDBRANCH   7  13
ENDBRANCH   3   6
ENDBRANCH   1   2
BRANCH   1  28
ATOM     28  C   UNL     1       4.572  -6.659  -0.035  1.00  0.00     0.042 C 
BRANCH  28  29
ATOM     29  C   UNL     1       4.739  -6.241   1.409  1.00  0.00     0.118 C 
BRANCH  29  30
ATOM     30  N   UNL     1       4.052  -5.013   1.810  1.00  0.00    -0.352 N 
ATOM     31  C   UNL     1       3.062  -4.762   2.737  1.00  0.00     0.251 C 
ATOM     32  H   UNL     1       4.354  -4.212   1.324  1.00  0.00     0.163 HD
ATOM     33  O   UNL     1       2.690  -3.606   2.917  1.00  0.00    -0.269 OA
BRANCH  31  34
ATOM     34  C   UNL     1       2.416  -5.861   3.489  1.00  0.00     0.039 A 
ATOM     35  C   UNL     1       1.051  -5.795   3.795  1.00  0.00     0.014 A 
ATOM     36  C   UNL     1       3.148  -6.970   3.893  1.00  0.00     0.014 A 
ATOM     37  C   UNL     1       0.425  -6.877   4.425  1.00  0.00     0.010 A 
ATOM     38  C   UNL     1       2.501  -8.108   4.340  1.00  0.00     0.010 A 
ATOM     39  C   UNL     1       1.143  -8.055   4.671  1.00  0.00    -0.014 A 
BRANCH  39  40
ATOM     40  C   UNL     1       0.569  -9.209   5.403  1.00  0.00     0.031 A 
ATOM     41  C   UNL     1       1.224  -9.645   6.691  1.00  0.00     0.074 A 
ATOM     42  C   UNL     1      -0.461  -9.904   4.887  1.00  0.00     0.049 A 
ATOM     43  N   UNL     1       0.995 -10.703   7.426  1.00  0.00    -0.248 NA
ATOM     44  C   UNL     1       2.330  -8.806   7.188  1.00  0.00     0.031 C 
ATOM     45  C   UNL     1      -1.142  -9.609   3.625  1.00  0.00     0.029 A 
ATOM     46  N   UNL     1      -1.108 -11.015   5.362  1.00  0.00    -0.354 N 
ATOM     47  C   UNL     1       1.948 -10.667   8.437  1.00  0.00     0.074 A 
ATOM     48  C   UNL     1       2.816  -9.546   8.170  1.00  0.00     0.031 C 
ATOM     49  C   UNL     1      -2.135 -10.496   3.444  1.00  0.00     0.029 A 
ATOM     50  C   UNL     1      -2.134 -11.443   4.555  1.00  0.00     0.049 A 
ATOM     51  H   UNL     1      -0.862 -11.463   6.203  1.00  0.00     0.167 HD
ATOM     52  C   UNL     1       2.064 -11.468   9.521  1.00  0.00     0.037 A 
ATOM     53  C   UNL     1      -2.975 -12.483   4.705  1.00  0.00     0.037 A 
ATOM     54  C   UNL     1       1.160 -12.547   9.807  1.00  0.00     0.049 A 
ATOM     55  C   UNL     1      -2.844 -13.347   5.930  1.00  0.00     0.074 A 
ATOM     56  C   UNL     1       1.140 -13.392  10.900  1.00  0.00     0.029 A 
ATOM     57  N   UNL     1       0.103 -12.920   8.989  1.00  0.00    -0.354 N 
ATOM     58  N   UNL     1      -1.974 -13.273   6.910  1.00  0.00    -0.248 NA
ATOM     59  C   UNL     1      -3.825 -14.430   6.080  1.00  0.00     0.031 C 
ATOM     60  C   UNL     1       0.097 -14.307  10.721  1.00  0.00     0.029 A 
ATOM     61  C   UNL     1      -0.570 -13.990   9.548  1.00  0.00     0.049 A 
ATOM     62  H   UNL     1      -0.132 -12.486   8.136  1.00  0.00     0.167 HD
ATOM     63  C   UNL     1      -2.327 -14.269   7.811  1.00  0.00     0.074 A 
ATOM     64  C   UNL     1      -3.499 -14.924   7.265  1.00  0.00     0.031 C 
ATOM     65  C   UNL     1      -1.743 -14.613   8.987  1.00  0.00     0.037 A 
BRANCH  52  66
ATOM     66  C   UNL     1       3.198 -11.189  10.469  1.00  0.00     0.057 A 
ATOM     67  C   UNL     1       3.260 -10.013  11.231  1.00  0.00     0.134 A 
ATOM     68  C   UNL     1       4.247 -12.104  10.616  1.00  0.00     0.134 A 
ATOM     69  F   UNL     1       2.299  -9.082  11.126  1.00  0.00    -0.206 F 
ATOM     70  C   UNL     1       4.341  -9.739  12.071  1.00  0.00     0.040 A 
ATOM     71  C   UNL     1       5.316 -11.858  11.480  1.00  0.00     0.040 A 
ATOM     72  F   UNL     1       4.255 -13.251   9.920  1.00  0.00    -0.206 F 
ATOM     73  C   UNL     1       5.370 -10.668  12.202  1.00  0.00     0.006 A 
ENDBRANCH  52  66
BRANCH  53  74
ATOM     74  C   UNL     1      -4.042 -12.734   3.702  1.00  0.00     0.057 A 
ATOM     75  C   UNL     1      -5.392 -12.540   4.020  1.00  0.00     0.134 A 
ATOM     76  C   UNL     1      -3.745 -13.183   2.410  1.00  0.00     0.134 A 
ATOM     77  F   UNL     1      -5.744 -12.124   5.245  1.00  0.00    -0.206 F 
ATOM     78  C   UNL     1      -6.409 -12.810   3.102  1.00  0.00     0.040 A 
ATOM     79  C   UNL     1      -4.750 -13.431   1.472  1.00  0.00     0.040 A 
ATOM     80  F   UNL     1      -2.472 -13.377   2.035  1.00  0.00    -0.206 F 
ATOM     81  C   UNL     1      -6.087 -13.254   1.821  1.00  0.00     0.006 A 
ENDBRANCH  53  74
BRANCH  65  82
ATOM     82  C   UNL     1      -2.402 -15.700   9.785  1.00  0.00     0.057 A 
ATOM     83  C   UNL     1      -2.401 -17.037   9.370  1.00  0.00     0.134 A 
ATOM     84  C   UNL     1      -3.030 -15.400  11.001  1.00  0.00     0.134 A 
ATOM     85  F   UNL     1      -1.823 -17.390   8.211  1.00  0.00    -0.206 F 
ATOM     86  C   UNL     1      -3.038 -18.031  10.115  1.00  0.00     0.040 A 
ATOM     87  C   UNL     1      -3.639 -16.390  11.772  1.00  0.00     0.040 A 
ATOM     88  F   UNL     1      -3.054 -14.141  11.465  1.00  0.00    -0.206 F 
ATOM     89  C   UNL     1      -3.655 -17.708  11.322  1.00  0.00     0.006 A 
ENDBRANCH  65  82
ENDBRANCH  39  40
ENDBRANCH  31  34
ENDBRANCH  29  30
ENDBRANCH  28  29
ENDBRANCH   1  28
TORSDOF 14
