REMARK SMILES CC1(C)CCCC[C@@]1(C(=O)NCCCNC(=O)c1ccc(-c2c3nc(c(-c4c(F)cccc4F)c4ccc([nH]4)c(-c4c(F)cccc4F)c4nc(c(-c5c(F)cccc5F)c5ccc2[nH]5)C=C4)C=C3)cc1)[NH+]1CC[NH2+]CC1
REMARK SMILES IDX 13 1 12 2 11 3 9 4 10 5 8 7 1 8 2 9 3 10 4 11 5 12 7 13 6 14
REMARK SMILES IDX 72 15 73 16 77 17 74 19 76 20 75 21 14 24 15 25 16 26 17 28
REMARK SMILES IDX 18 29 19 30 71 31 20 32 70 33 21 34 22 35 23 36 64 37 24 38
REMARK SMILES IDX 69 39 63 40 65 41 25 42 68 43 62 44 61 45 26 47 52 48 35 49
REMARK SMILES IDX 51 50 36 51 39 52 50 53 66 54 37 55 38 56 49 58 67 59 40 60
REMARK SMILES IDX 27 61 28 62 33 63 29 64 30 65 32 66 34 67 31 68 53 69 54 70
REMARK SMILES IDX 59 71 55 72 56 73 58 74 60 75 57 76 41 77 42 78 47 79 43 80
REMARK SMILES IDX 44 81 46 82 48 83 45 84
REMARK H PARENT 11 6 72 18 75 22 75 23 15 27 65 46 39 57
REMARK Flexibility Score: inf
ROOT
ATOM      1  C   UNL     1      -3.492  -0.487  -2.584  1.00  0.00     0.042 C 
ENDROOT
BRANCH   1   2
ATOM      2  C   UNL     1      -2.628  -1.669  -2.141  1.00  0.00     0.118 C 
BRANCH   2   3
ATOM      3  N   UNL     1      -1.495  -1.914  -3.021  1.00  0.00    -0.351 N 
ATOM      4  C   UNL     1      -0.160  -2.099  -2.805  1.00  0.00     0.281 C 
ATOM      5  O   UNL     1       0.442  -2.525  -3.800  1.00  0.00    -0.268 OA
ATOM      6  H   UNL     1      -1.743  -1.954  -3.973  1.00  0.00     0.163 HD
BRANCH   4   7
ATOM      7  C   UNL     1       0.598  -1.794  -1.422  1.00  0.00     0.182 C 
ATOM      8  C   UNL     1       1.668   0.239  -0.045  1.00  0.00     0.018 C 
ATOM      9  C   UNL     1       0.885  -0.205  -1.320  1.00  0.00     0.029 C 
ATOM     10  C   UNL     1      -0.390   0.655  -1.361  1.00  0.00     0.018 C 
ATOM     11  C   UNL     1       1.740   0.234  -2.551  1.00  0.00     0.013 C 
ATOM     12  C   UNL     1       3.097  -0.453  -2.618  1.00  0.00     0.001 C 
ATOM     13  C   UNL     1       2.009  -2.501  -1.494  1.00  0.00     0.080 C 
ATOM     14  C   UNL     1       3.003  -1.964  -2.533  1.00  0.00     0.007 C 
BRANCH   7  15
ATOM     15  N   UNL     1      -0.252  -2.443  -0.348  1.00  0.00    -0.313 N 
ATOM     16  C   UNL     1       0.019  -2.102   1.054  1.00  0.00     0.325 C 
ATOM     17  C   UNL     1      -0.367  -3.920  -0.485  1.00  0.00     0.325 C 
ATOM     18  H   UNL     1      -1.147  -1.998  -0.554  1.00  0.00     0.349 HD
ATOM     19  C   UNL     1      -0.938  -2.794   2.062  1.00  0.00     0.322 C 
ATOM     20  C   UNL     1      -1.361  -4.552   0.514  1.00  0.00     0.322 C 
ATOM     21  N   UNL     1      -1.008  -4.254   1.909  1.00  0.00    -0.337 N 
ATOM     22  H   UNL     1      -1.720  -4.633   2.534  1.00  0.00     0.346 HD
ATOM     23  H   UNL     1      -0.111  -4.677   2.144  1.00  0.00     0.346 HD
ENDBRANCH   7  15
ENDBRANCH   4   7
ENDBRANCH   2   3
ENDBRANCH   1   2
BRANCH   1  24
ATOM     24  C   UNL     1      -4.041  -0.576  -4.003  1.00  0.00     0.118 C 
BRANCH  24  25
ATOM     25  N   UNL     1      -5.222  -1.417  -4.089  1.00  0.00    -0.352 N 
ATOM     26  C   UNL     1      -6.517  -1.083  -4.404  1.00  0.00     0.251 C 
ATOM     27  H   UNL     1      -5.072  -2.369  -3.892  1.00  0.00     0.163 HD
ATOM     28  O   UNL     1      -7.412  -1.902  -4.216  1.00  0.00    -0.269 OA
BRANCH  26  29
ATOM     29  C   UNL     1      -6.856   0.256  -4.949  1.00  0.00     0.039 A 
ATOM     30  C   UNL     1      -8.031   0.874  -4.510  1.00  0.00     0.014 A 
ATOM     31  C   UNL     1      -6.070   0.881  -5.922  1.00  0.00     0.014 A 
ATOM     32  C   UNL     1      -8.390   2.129  -5.009  1.00  0.00     0.010 A 
ATOM     33  C   UNL     1      -6.390   2.168  -6.364  1.00  0.00     0.010 A 
ATOM     34  C   UNL     1      -7.561   2.800  -5.924  1.00  0.00    -0.014 A 
BRANCH  34  35
ATOM     35  C   UNL     1      -7.926   4.155  -6.417  1.00  0.00     0.031 A 
ATOM     36  C   UNL     1      -8.259   4.386  -7.867  1.00  0.00     0.074 A 
ATOM     37  C   UNL     1      -7.933   5.194  -5.559  1.00  0.00     0.049 A 
ATOM     38  N   UNL     1      -8.643   5.490  -8.460  1.00  0.00    -0.248 NA
ATOM     39  C   UNL     1      -8.119   3.238  -8.774  1.00  0.00     0.031 C 
ATOM     40  C   UNL     1      -7.558   5.126  -4.146  1.00  0.00     0.029 A 
ATOM     41  N   UNL     1      -8.272   6.510  -5.750  1.00  0.00    -0.354 N 
ATOM     42  C   UNL     1      -8.776   5.172  -9.806  1.00  0.00     0.074 A 
ATOM     43  C   UNL     1      -8.384   3.786  -9.950  1.00  0.00     0.031 C 
ATOM     44  C   UNL     1      -7.720   6.337  -3.590  1.00  0.00     0.029 A 
ATOM     45  C   UNL     1      -8.193   7.270  -4.608  1.00  0.00     0.049 A 
ATOM     46  H   UNL     1      -8.546   6.876  -6.622  1.00  0.00     0.167 HD
ATOM     47  C   UNL     1      -9.207   5.953 -10.826  1.00  0.00     0.037 A 
ATOM     48  C   UNL     1      -8.483   8.567  -4.399  1.00  0.00     0.037 A 
ATOM     49  C   UNL     1      -9.628   7.323 -10.681  1.00  0.00     0.049 A 
ATOM     50  C   UNL     1      -9.016   9.399  -5.531  1.00  0.00     0.074 A 
ATOM     51  C   UNL     1     -10.154   8.171 -11.640  1.00  0.00     0.029 A 
ATOM     52  N   UNL     1      -9.568   8.046  -9.499  1.00  0.00    -0.354 N 
ATOM     53  N   UNL     1      -9.224   9.057  -6.779  1.00  0.00    -0.248 NA
ATOM     54  C   UNL     1      -9.370  10.790  -5.220  1.00  0.00     0.031 C 
ATOM     55  C   UNL     1     -10.380   9.418 -11.047  1.00  0.00     0.029 A 
ATOM     56  C   UNL     1     -10.032   9.335  -9.709  1.00  0.00     0.049 A 
ATOM     57  H   UNL     1      -9.244   7.695  -8.639  1.00  0.00     0.167 HD
ATOM     58  C   UNL     1      -9.751  10.183  -7.398  1.00  0.00     0.074 A 
ATOM     59  C   UNL     1      -9.849  11.211  -6.382  1.00  0.00     0.031 C 
ATOM     60  C   UNL     1     -10.119  10.351  -8.691  1.00  0.00     0.037 A 
BRANCH  47  61
ATOM     61  C   UNL     1      -9.252   5.337 -12.194  1.00  0.00     0.057 A 
ATOM     62  C   UNL     1     -10.202   4.365 -12.535  1.00  0.00     0.134 A 
ATOM     63  C   UNL     1      -8.354   5.739 -13.190  1.00  0.00     0.134 A 
ATOM     64  F   UNL     1     -11.085   3.928 -11.624  1.00  0.00    -0.206 F 
ATOM     65  C   UNL     1     -10.239   3.795 -13.809  1.00  0.00     0.040 A 
ATOM     66  C   UNL     1      -8.397   5.194 -14.475  1.00  0.00     0.040 A 
ATOM     67  F   UNL     1      -7.423   6.670 -12.934  1.00  0.00    -0.206 F 
ATOM     68  C   UNL     1      -9.337   4.213 -14.785  1.00  0.00     0.006 A 
ENDBRANCH  47  61
BRANCH  48  69
ATOM     69  C   UNL     1      -8.325   9.146  -3.042  1.00  0.00     0.057 A 
ATOM     70  C   UNL     1      -9.440   9.443  -2.251  1.00  0.00     0.134 A 
ATOM     71  C   UNL     1      -7.060   9.402  -2.501  1.00  0.00     0.134 A 
ATOM     72  F   UNL     1     -10.678   9.235  -2.724  1.00  0.00    -0.206 F 
ATOM     73  C   UNL     1      -9.305   9.989  -0.974  1.00  0.00     0.040 A 
ATOM     74  C   UNL     1      -6.910   9.927  -1.217  1.00  0.00     0.040 A 
ATOM     75  F   UNL     1      -5.954   9.130  -3.208  1.00  0.00    -0.206 F 
ATOM     76  C   UNL     1      -8.035  10.226  -0.451  1.00  0.00     0.006 A 
ENDBRANCH  48  69
BRANCH  60  77
ATOM     77  C   UNL     1     -10.677  11.690  -9.072  1.00  0.00     0.057 A 
ATOM     78  C   UNL     1      -9.862  12.825  -9.178  1.00  0.00     0.134 A 
ATOM     79  C   UNL     1     -12.041  11.845  -9.347  1.00  0.00     0.134 A 
ATOM     80  F   UNL     1      -8.549  12.745  -8.915  1.00  0.00    -0.206 F 
ATOM     81  C   UNL     1     -10.389  14.072  -9.516  1.00  0.00     0.040 A 
ATOM     82  C   UNL     1     -12.576  13.082  -9.709  1.00  0.00     0.040 A 
ATOM     83  F   UNL     1     -12.875  10.796  -9.271  1.00  0.00    -0.206 F 
ATOM     84  C   UNL     1     -11.751  14.202  -9.786  1.00  0.00     0.006 A 
ENDBRANCH  60  77
ENDBRANCH  34  35
ENDBRANCH  26  29
ENDBRANCH  24  25
ENDBRANCH   1  24
TORSDOF 11
