REMARK SMILES C[C@H]1[C@H](C(=O)NCCCNC(=O)c2ccc(-c3c4nc(c(-c5c(F)cccc5F)c5ccc([nH]5)c(-c5c(F)cccc5F)c5nc(c(-c6c(F)cccc6F)c6ccc3[nH]6)C=C5)C=C4)cc2)CCN1c1ccc(C(N)=O)c(Cl)c1
REMARK SMILES IDX 8 1 7 2 6 3 4 4 5 5 3 7 1 8 2 9 69 10 67 11 68 12 70 13
REMARK SMILES IDX 71 14 79 15 72 16 77 17 73 18 78 19 74 20 75 21 76 22 9 25
REMARK SMILES IDX 10 26 11 27 12 29 13 30 14 31 66 32 15 33 65 34 16 35 17 36
REMARK SMILES IDX 18 37 59 38 19 39 64 40 58 41 60 42 20 43 63 44 57 45 56 46
REMARK SMILES IDX 21 48 47 49 30 50 46 51 31 52 34 53 45 54 61 55 32 56 33 57
REMARK SMILES IDX 44 59 62 60 35 61 22 62 23 63 28 64 24 65 25 66 27 67 29 68
REMARK SMILES IDX 26 69 48 70 49 71 54 72 50 73 51 74 53 75 55 76 52 77 36 78
REMARK SMILES IDX 37 79 42 80 38 81 39 82 41 83 43 84 40 85
REMARK H PARENT 6 6 75 23 75 24 10 28 60 47 34 58
REMARK Flexibility Score: inf
ROOT
ATOM      1  C   UNL     1      -0.256   0.076   3.987  1.00  0.00     0.042 C 
ENDROOT
BRANCH   1   2
ATOM      2  C   UNL     1      -1.155   0.663   2.906  1.00  0.00     0.117 C 
BRANCH   2   3
ATOM      3  N   UNL     1      -0.617   1.898   2.358  1.00  0.00    -0.356 N 
ATOM      4  C   UNL     1      -0.101   2.188   1.135  1.00  0.00     0.225 C 
ATOM      5  O   UNL     1       0.328   3.332   0.962  1.00  0.00    -0.275 OA
ATOM      6  H   UNL     1      -0.629   2.658   2.984  1.00  0.00     0.163 HD
BRANCH   4   7
ATOM      7  C   UNL     1      -0.039   1.176   0.003  1.00  0.00     0.102 C 
ATOM      8  C   UNL     1       2.086  -0.083  -0.527  1.00  0.00     0.032 C 
ATOM      9  C   UNL     1       0.834  -0.040   0.351  1.00  0.00     0.091 C 
ATOM     10  N   UNL     1      -0.020  -1.197   0.066  1.00  0.00    -0.368 N 
ATOM     11  C   UNL     1      -1.407   0.643  -0.424  1.00  0.00     0.037 C 
ATOM     12  C   UNL     1      -1.191  -0.836  -0.720  1.00  0.00     0.118 C 
BRANCH  10  13
ATOM     13  C   UNL     1       0.221  -2.483   0.477  1.00  0.00     0.038 A 
ATOM     14  C   UNL     1      -0.062  -3.577  -0.341  1.00  0.00     0.027 A 
ATOM     15  C   UNL     1       0.720  -2.771   1.750  1.00  0.00     0.047 A 
ATOM     16  C   UNL     1       0.127  -4.898   0.096  1.00  0.00     0.017 A 
ATOM     17  C   UNL     1       0.879  -4.087   2.224  1.00  0.00     0.055 A 
ATOM     18  C   UNL     1       0.589  -5.178   1.392  1.00  0.00     0.058 A 
ATOM     19  Cl  UNL     1       1.425  -4.217   3.863  1.00  0.00    -0.083 Cl
BRANCH  18  20
ATOM     20  C   UNL     1       0.727  -6.597   1.855  1.00  0.00     0.250 C 
ATOM     21  N   UNL     1       0.658  -7.600   0.925  1.00  0.00    -0.366 N 
ATOM     22  O   UNL     1       0.892  -6.918   3.027  1.00  0.00    -0.269 OA
ATOM     23  H   UNL     1       0.526  -7.382  -0.026  1.00  0.00     0.159 HD
ATOM     24  H   UNL     1       0.740  -8.540   1.208  1.00  0.00     0.159 HD
ENDBRANCH  18  20
ENDBRANCH  10  13
ENDBRANCH   4   7
ENDBRANCH   2   3
ENDBRANCH   1   2
BRANCH   1  25
ATOM     25  C   UNL     1      -0.179   0.909   5.256  1.00  0.00     0.118 C 
BRANCH  25  26
ATOM     26  N   UNL     1      -1.451   0.973   5.958  1.00  0.00    -0.352 N 
ATOM     27  C   UNL     1      -1.817   0.474   7.184  1.00  0.00     0.251 C 
ATOM     28  H   UNL     1      -2.164   1.452   5.478  1.00  0.00     0.163 HD
ATOM     29  O   UNL     1      -3.005   0.457   7.494  1.00  0.00    -0.269 OA
BRANCH  27  30
ATOM     30  C   UNL     1      -0.804  -0.053   8.125  1.00  0.00     0.039 A 
ATOM     31  C   UNL     1      -1.123  -1.175   8.895  1.00  0.00     0.014 A 
ATOM     32  C   UNL     1       0.438   0.566   8.286  1.00  0.00     0.014 A 
ATOM     33  C   UNL     1      -0.179  -1.705   9.777  1.00  0.00     0.010 A 
ATOM     34  C   UNL     1       1.412  -0.021   9.088  1.00  0.00     0.010 A 
ATOM     35  C   UNL     1       1.111  -1.155   9.854  1.00  0.00    -0.014 A 
BRANCH  35  36
ATOM     36  C   UNL     1       2.148  -1.753  10.734  1.00  0.00     0.031 A 
ATOM     37  C   UNL     1       2.744  -0.957  11.864  1.00  0.00     0.074 A 
ATOM     38  C   UNL     1       2.588  -3.002  10.486  1.00  0.00     0.049 A 
ATOM     39  N   UNL     1       3.679  -1.299  12.714  1.00  0.00    -0.248 NA
ATOM     40  C   UNL     1       2.244   0.415  12.046  1.00  0.00     0.031 C 
ATOM     41  C   UNL     1       2.137  -3.855   9.384  1.00  0.00     0.029 A 
ATOM     42  N   UNL     1       3.520  -3.769  11.139  1.00  0.00    -0.354 N 
ATOM     43  C   UNL     1       3.883  -0.187  13.522  1.00  0.00     0.074 A 
ATOM     44  C   UNL     1       3.023   0.862  13.020  1.00  0.00     0.031 C 
ATOM     45  C   UNL     1       2.768  -5.037   9.457  1.00  0.00     0.029 A 
ATOM     46  C   UNL     1       3.697  -5.012  10.582  1.00  0.00     0.049 A 
ATOM     47  H   UNL     1       4.014  -3.458  11.932  1.00  0.00     0.167 HD
ATOM     48  C   UNL     1       4.691  -0.059  14.602  1.00  0.00     0.037 A 
ATOM     49  C   UNL     1       4.520  -6.018  10.934  1.00  0.00     0.037 A 
ATOM     50  C   UNL     1       5.537  -1.109  15.107  1.00  0.00     0.049 A 
ATOM     51  C   UNL     1       5.410  -5.851  12.133  1.00  0.00     0.074 A 
ATOM     52  C   UNL     1       6.356  -1.095  16.223  1.00  0.00     0.029 A 
ATOM     53  N   UNL     1       5.677  -2.360  14.525  1.00  0.00    -0.354 N 
ATOM     54  N   UNL     1       5.539  -4.818  12.931  1.00  0.00    -0.248 NA
ATOM     55  C   UNL     1       6.262  -6.994  12.486  1.00  0.00     0.031 C 
ATOM     56  C   UNL     1       7.028  -2.321  16.288  1.00  0.00     0.029 A 
ATOM     57  C   UNL     1       6.586  -3.119  15.245  1.00  0.00     0.049 A 
ATOM     58  H   UNL     1       5.201  -2.664  13.718  1.00  0.00     0.167 HD
ATOM     59  C   UNL     1       6.468  -5.194  13.893  1.00  0.00     0.074 A 
ATOM     60  C   UNL     1       6.851  -6.558  13.591  1.00  0.00     0.031 C 
ATOM     61  C   UNL     1       6.962  -4.474  14.931  1.00  0.00     0.037 A 
BRANCH  48  62
ATOM     62  C   UNL     1       4.691   1.266  15.311  1.00  0.00     0.057 A 
ATOM     63  C   UNL     1       3.578   1.718  16.033  1.00  0.00     0.134 A 
ATOM     64  C   UNL     1       5.825   2.089  15.296  1.00  0.00     0.134 A 
ATOM     65  F   UNL     1       2.454   0.986  16.080  1.00  0.00    -0.206 F 
ATOM     66  C   UNL     1       3.580   2.952  16.686  1.00  0.00     0.040 A 
ATOM     67  C   UNL     1       5.850   3.311  15.972  1.00  0.00     0.040 A 
ATOM     68  F   UNL     1       6.929   1.716  14.632  1.00  0.00    -0.206 F 
ATOM     69  C   UNL     1       4.722   3.749  16.662  1.00  0.00     0.006 A 
ENDBRANCH  48  62
BRANCH  49  70
ATOM     70  C   UNL     1       4.524  -7.279  10.150  1.00  0.00     0.057 A 
ATOM     71  C   UNL     1       4.027  -8.471  10.690  1.00  0.00     0.134 A 
ATOM     72  C   UNL     1       5.024  -7.323   8.843  1.00  0.00     0.134 A 
ATOM     73  F   UNL     1       3.553  -8.497  11.945  1.00  0.00    -0.206 F 
ATOM     74  C   UNL     1       4.045  -9.665   9.968  1.00  0.00     0.040 A 
ATOM     75  C   UNL     1       5.019  -8.503   8.098  1.00  0.00     0.040 A 
ATOM     76  F   UNL     1       5.511  -6.214   8.266  1.00  0.00    -0.206 F 
ATOM     77  C   UNL     1       4.536  -9.681   8.664  1.00  0.00     0.006 A 
ENDBRANCH  49  70
BRANCH  61  78
ATOM     78  C   UNL     1       7.949  -5.162  15.830  1.00  0.00     0.057 A 
ATOM     79  C   UNL     1       9.247  -5.473  15.406  1.00  0.00     0.134 A 
ATOM     80  C   UNL     1       7.601  -5.499  17.145  1.00  0.00     0.134 A 
ATOM     81  F   UNL     1       9.642  -5.188  14.156  1.00  0.00    -0.206 F 
ATOM     82  C   UNL     1      10.152  -6.125  16.246  1.00  0.00     0.040 A 
ATOM     83  C   UNL     1       8.507  -6.123  18.003  1.00  0.00     0.040 A 
ATOM     84  F   UNL     1       6.378  -5.220  17.619  1.00  0.00    -0.206 F 
ATOM     85  C   UNL     1       9.784  -6.446  17.551  1.00  0.00     0.006 A 
ENDBRANCH  61  78
ENDBRANCH  35  36
ENDBRANCH  27  30
ENDBRANCH  25  26
ENDBRANCH   1  25
TORSDOF 12
