REMARK SMILES NS(=O)(=O)c1ccc(N2N=C(C(=O)NCCCNC(=O)c3ccc(-c4c5nc(c(-c6c(F)cccc6F)c6ccc([nH]6)c(-c6c(F)cccc6F)c6nc(c(-c7c(F)cccc7F)c7ccc4[nH]7)C=C6)C=C5)cc3)C[C@H]2c2cccs2)cc1
REMARK SMILES IDX 15 1 14 2 12 3 13 4 11 6 9 7 10 8 76 9 75 10 8 11 5 12 6 13
REMARK SMILES IDX 83 14 7 15 82 16 2 17 3 18 4 19 1 20 77 23 78 24 81 25 79 26
REMARK SMILES IDX 80 27 16 28 17 29 18 30 19 31 20 33 21 34 22 35 74 36 23 37
REMARK SMILES IDX 73 38 24 39 25 40 26 41 67 42 27 43 72 44 66 45 68 46 28 47
REMARK SMILES IDX 71 48 65 49 64 50 29 52 55 53 38 54 54 55 39 56 42 57 53 58
REMARK SMILES IDX 69 59 40 60 41 61 52 63 70 64 43 65 30 66 31 67 36 68 32 69
REMARK SMILES IDX 33 70 35 71 37 72 34 73 56 74 57 75 62 76 58 77 59 78 61 79
REMARK SMILES IDX 63 80 60 81 44 82 45 83 50 84 46 85 47 86 49 87 51 88 48 89
REMARK H PARENT 14 5 1 21 1 22 18 32 68 51 42 62
REMARK Flexibility Score: inf
ROOT
ATOM      1  C   UNL     1       3.039  -6.432  -9.477  1.00  0.00     0.118 C 
ENDROOT
BRANCH   1   2
ATOM      2  N   UNL     1       1.682  -6.381  -8.972  1.00  0.00    -0.351 N 
ATOM      3  C   UNL     1       1.108  -6.021  -7.784  1.00  0.00     0.267 C 
ATOM      4  O   UNL     1      -0.094  -6.248  -7.655  1.00  0.00    -0.268 OA
ATOM      5  H   UNL     1       1.020  -6.673  -9.639  1.00  0.00     0.163 HD
BRANCH   3   6
ATOM      6  C   UNL     1       1.833  -5.318  -6.648  1.00  0.00     0.128 C 
ATOM      7  N   UNL     1       2.047  -4.093  -4.922  1.00  0.00    -0.256 N 
ATOM      8  N   UNL     1       1.150  -4.656  -5.762  1.00  0.00    -0.171 NA
ATOM      9  C   UNL     1       3.439  -4.418  -5.214  1.00  0.00     0.154 C 
ATOM     10  C   UNL     1       3.306  -5.394  -6.394  1.00  0.00     0.097 C 
BRANCH   7  11
ATOM     11  C   UNL     1       1.641  -3.526  -3.724  1.00  0.00     0.060 A 
ATOM     12  C   UNL     1       0.889  -2.350  -1.291  1.00  0.00     0.082 A 
ATOM     13  C   UNL     1       0.639  -3.707  -1.513  1.00  0.00     0.024 A 
ATOM     14  C   UNL     1       1.497  -1.573  -2.275  1.00  0.00     0.024 A 
ATOM     15  C   UNL     1       1.003  -4.285  -2.734  1.00  0.00     0.029 A 
ATOM     16  C   UNL     1       1.868  -2.166  -3.481  1.00  0.00     0.029 A 
BRANCH  12  17
ATOM     17  S   UNL     1       0.433  -1.652   0.265  1.00  0.00     0.238 S 
ATOM     18  O   UNL     1       1.117  -2.379   1.308  1.00  0.00    -0.207 OA
ATOM     19  O   UNL     1      -0.993  -1.425   0.269  1.00  0.00    -0.207 OA
BRANCH  17  20
ATOM     20  N   UNL     1       1.134  -0.121   0.266  1.00  0.00    -0.225 NA
ATOM     21  H   UNL     1       0.915   0.353   1.142  1.00  0.00     0.137 HD
ATOM     22  H   UNL     1       0.767   0.421  -0.516  1.00  0.00     0.137 HD
ENDBRANCH  17  20
ENDBRANCH  12  17
ENDBRANCH   7  11
BRANCH   9  23
ATOM     23  C   UNL     1       4.343  -3.223  -5.476  1.00  0.00     0.030 A 
ATOM     24  C   UNL     1       5.141  -2.573  -4.549  1.00  0.00     0.017 A 
ATOM     25  S   UNL     1       4.417  -2.428  -6.999  1.00  0.00    -0.147 S 
ATOM     26  C   UNL     1       5.833  -1.456  -5.099  1.00  0.00     0.012 A 
ATOM     27  C   UNL     1       5.557  -1.290  -6.436  1.00  0.00     0.065 A 
ENDBRANCH   9  23
ENDBRANCH   3   6
ENDBRANCH   1   2
BRANCH   1  28
ATOM     28  C   UNL     1       3.541  -7.870  -9.538  1.00  0.00     0.042 C 
BRANCH  28  29
ATOM     29  C   UNL     1       2.906  -8.666 -10.675  1.00  0.00     0.118 C 
BRANCH  29  30
ATOM     30  N   UNL     1       3.299  -8.155 -11.984  1.00  0.00    -0.352 N 
ATOM     31  C   UNL     1       4.073  -8.723 -12.963  1.00  0.00     0.251 C 
ATOM     32  H   UNL     1       2.953  -7.259 -12.198  1.00  0.00     0.163 HD
ATOM     33  O   UNL     1       4.496  -8.028 -13.882  1.00  0.00    -0.269 OA
BRANCH  31  34
ATOM     34  C   UNL     1       4.408 -10.161 -12.913  1.00  0.00     0.039 A 
ATOM     35  C   UNL     1       5.691 -10.572 -13.285  1.00  0.00     0.014 A 
ATOM     36  C   UNL     1       3.453 -11.107 -12.534  1.00  0.00     0.014 A 
ATOM     37  C   UNL     1       6.035 -11.923 -13.210  1.00  0.00     0.010 A 
ATOM     38  C   UNL     1       3.821 -12.438 -12.375  1.00  0.00     0.010 A 
ATOM     39  C   UNL     1       5.113 -12.861 -12.717  1.00  0.00    -0.014 A 
BRANCH  39  40
ATOM     40  C   UNL     1       5.477 -14.290 -12.552  1.00  0.00     0.031 A 
ATOM     41  C   UNL     1       4.747 -15.350 -13.330  1.00  0.00     0.074 A 
ATOM     42  C   UNL     1       6.408 -14.637 -11.643  1.00  0.00     0.049 A 
ATOM     43  N   UNL     1       4.856 -16.652 -13.256  1.00  0.00    -0.248 NA
ATOM     44  C   UNL     1       3.738 -14.887 -14.297  1.00  0.00     0.031 C 
ATOM     45  C   UNL     1       7.145 -13.705 -10.786  1.00  0.00     0.029 A 
ATOM     46  N   UNL     1       6.885 -15.870 -11.277  1.00  0.00    -0.354 N 
ATOM     47  C   UNL     1       3.918 -17.161 -14.145  1.00  0.00     0.074 A 
ATOM     48  C   UNL     1       3.214 -16.031 -14.711  1.00  0.00     0.031 C 
ATOM     49  C   UNL     1       7.995 -14.398 -10.012  1.00  0.00     0.029 A 
ATOM     50  C   UNL     1       7.838 -15.821 -10.289  1.00  0.00     0.049 A 
ATOM     51  H   UNL     1       6.573 -16.711 -11.685  1.00  0.00     0.167 HD
ATOM     52  C   UNL     1       3.681 -18.452 -14.478  1.00  0.00     0.037 A 
ATOM     53  C   UNL     1       8.504 -16.814  -9.671  1.00  0.00     0.037 A 
ATOM     54  C   UNL     1       4.410 -19.570 -13.941  1.00  0.00     0.049 A 
ATOM     55  C   UNL     1       8.235 -18.238 -10.071  1.00  0.00     0.074 A 
ATOM     56  C   UNL     1       4.294 -20.910 -14.266  1.00  0.00     0.029 A 
ATOM     57  N   UNL     1       5.392 -19.477 -12.967  1.00  0.00    -0.354 N 
ATOM     58  N   UNL     1       7.394 -18.699 -10.964  1.00  0.00    -0.248 NA
ATOM     59  C   UNL     1       9.012 -19.277  -9.383  1.00  0.00     0.031 C 
ATOM     60  C   UNL     1       5.182 -21.633 -13.462  1.00  0.00     0.029 A 
ATOM     61  C   UNL     1       5.880 -20.738 -12.668  1.00  0.00     0.049 A 
ATOM     62  H   UNL     1       5.698 -18.639 -12.551  1.00  0.00     0.167 HD
ATOM     63  C   UNL     1       7.559 -20.078 -10.965  1.00  0.00     0.074 A 
ATOM     64  C   UNL     1       8.590 -20.376  -9.993  1.00  0.00     0.031 C 
ATOM     65  C   UNL     1       6.914 -21.013 -11.704  1.00  0.00     0.037 A 
BRANCH  52  66
ATOM     66  C   UNL     1       2.595 -18.723 -15.478  1.00  0.00     0.057 A 
ATOM     67  C   UNL     1       2.742 -18.396 -16.833  1.00  0.00     0.134 A 
ATOM     68  C   UNL     1       1.406 -19.353 -15.091  1.00  0.00     0.134 A 
ATOM     69  F   UNL     1       3.852 -17.780 -17.267  1.00  0.00    -0.206 F 
ATOM     70  C   UNL     1       1.735 -18.664 -17.762  1.00  0.00     0.040 A 
ATOM     71  C   UNL     1       0.403 -19.650 -16.015  1.00  0.00     0.040 A 
ATOM     72  F   UNL     1       1.203 -19.697 -13.810  1.00  0.00    -0.206 F 
ATOM     73  C   UNL     1       0.564 -19.300 -17.354  1.00  0.00     0.006 A 
ENDBRANCH  52  66
BRANCH  53  74
ATOM     74  C   UNL     1       9.509 -16.497  -8.626  1.00  0.00     0.057 A 
ATOM     75  C   UNL     1      10.876 -16.678  -8.864  1.00  0.00     0.134 A 
ATOM     76  C   UNL     1       9.131 -16.013  -7.368  1.00  0.00     0.134 A 
ATOM     77  F   UNL     1      11.298 -17.154 -10.045  1.00  0.00    -0.206 F 
ATOM     78  C   UNL     1      11.832 -16.410  -7.883  1.00  0.00     0.040 A 
ATOM     79  C   UNL     1      10.077 -15.718  -6.385  1.00  0.00     0.040 A 
ATOM     80  F   UNL     1       7.837 -15.808  -7.081  1.00  0.00    -0.206 F 
ATOM     81  C   UNL     1      11.432 -15.924  -6.639  1.00  0.00     0.006 A 
ENDBRANCH  53  74
BRANCH  65  82
ATOM     82  C   UNL     1       7.331 -22.441 -11.515  1.00  0.00     0.057 A 
ATOM     83  C   UNL     1       6.985 -23.165 -10.368  1.00  0.00     0.134 A 
ATOM     84  C   UNL     1       8.052 -23.110 -12.512  1.00  0.00     0.134 A 
ATOM     85  F   UNL     1       6.307 -22.577  -9.371  1.00  0.00    -0.206 F 
ATOM     86  C   UNL     1       7.360 -24.500 -10.210  1.00  0.00     0.040 A 
ATOM     87  C   UNL     1       8.411 -24.451 -12.377  1.00  0.00     0.040 A 
ATOM     88  F   UNL     1       8.407 -22.474 -13.639  1.00  0.00    -0.206 F 
ATOM     89  C   UNL     1       8.069 -25.148 -11.220  1.00  0.00     0.006 A 
ENDBRANCH  65  82
ENDBRANCH  39  40
ENDBRANCH  31  34
ENDBRANCH  29  30
ENDBRANCH  28  29
ENDBRANCH   1  28
TORSDOF 14
