REMARK SMILES Cc1c(CC(=O)NCCCNC(=O)c2ccc(-c3c4nc(c(-c5c(F)cccc5F)c5ccc([nH]5)c(-c5c(F)cccc5F)c5nc(c(-c6c(F)cccc6F)c6ccc3[nH]6)C=C5)C=C4)cc2)cc(-c2ccc(S(C)(=O)=O)cc2)n1-c1cccc(F)c1
REMARK SMILES IDX 8 1 7 2 5 3 6 4 4 6 3 7 1 8 2 9 80 10 68 11 69 12 81 13
REMARK SMILES IDX 82 14 87 15 83 16 85 17 84 18 86 19 70 20 71 21 79 22 72 23
REMARK SMILES IDX 78 24 73 25 74 26 75 27 76 28 77 29 9 30 10 31 11 32 12 33
REMARK SMILES IDX 13 35 14 36 15 37 67 38 16 39 66 40 17 41 18 42 19 43 60 44
REMARK SMILES IDX 20 45 65 46 59 47 61 48 21 49 64 50 58 51 57 52 22 54 48 55
REMARK SMILES IDX 31 56 47 57 32 58 35 59 46 60 62 61 33 62 34 63 45 65 63 66
REMARK SMILES IDX 36 67 23 68 24 69 29 70 25 71 26 72 28 73 30 74 27 75 49 76
REMARK SMILES IDX 50 77 55 78 51 79 52 80 54 81 56 82 53 83 37 84 38 85 43 86
REMARK SMILES IDX 39 87 40 88 42 89 44 90 41 91
REMARK H PARENT 7 5 11 34 61 53 35 64
REMARK Flexibility Score: inf
ROOT
ATOM      1  C   UNL     1       2.596  -1.281  -4.237  1.00  0.00     0.117 C 
ENDROOT
BRANCH   1   2
ATOM      2  N   UNL     1       2.226  -2.221  -3.195  1.00  0.00    -0.356 N 
ATOM      3  C   UNL     1       1.104  -2.314  -2.426  1.00  0.00     0.224 C 
ATOM      4  O   UNL     1       1.084  -3.192  -1.558  1.00  0.00    -0.275 OA
ATOM      5  H   UNL     1       2.903  -2.911  -3.011  1.00  0.00     0.163 HD
BRANCH   3   6
ATOM      6  C   UNL     1      -0.103  -1.423  -2.664  1.00  0.00     0.137 C 
BRANCH   6   7
ATOM      7  C   UNL     1       0.126   0.029  -2.378  1.00  0.00    -0.017 A 
ATOM      8  C   UNL     1       1.027  -0.054   0.053  1.00  0.00     0.065 C 
ATOM      9  C   UNL     1       0.653   0.613  -1.233  1.00  0.00     0.024 A 
ATOM     10  N   UNL     1       0.733   1.990  -1.437  1.00  0.00    -0.313 N 
ATOM     11  C   UNL     1      -0.217   1.089  -3.255  1.00  0.00     0.033 A 
ATOM     12  C   UNL     1       0.193   2.283  -2.692  1.00  0.00     0.053 A 
BRANCH  10  13
ATOM     13  C   UNL     1       1.311   2.941  -0.548  1.00  0.00     0.049 A 
ATOM     14  C   UNL     1       0.649   4.151  -0.290  1.00  0.00     0.027 A 
ATOM     15  C   UNL     1       2.581   2.708  -0.012  1.00  0.00     0.065 A 
ATOM     16  C   UNL     1       1.266   5.133   0.487  1.00  0.00     0.005 A 
ATOM     17  C   UNL     1       3.185   3.703   0.749  1.00  0.00     0.125 A 
ATOM     18  C   UNL     1       2.542   4.911   1.000  1.00  0.00     0.039 A 
ATOM     19  F   UNL     1       4.423   3.507   1.222  1.00  0.00    -0.207 F 
ENDBRANCH  10  13
BRANCH  12  20
ATOM     20  C   UNL     1       0.209   3.599  -3.342  1.00  0.00    -0.001 A 
ATOM     21  C   UNL     1       1.417   4.289  -3.526  1.00  0.00     0.011 A 
ATOM     22  C   UNL     1      -0.983   4.171  -3.806  1.00  0.00     0.011 A 
ATOM     23  C   UNL     1       1.433   5.553  -4.116  1.00  0.00     0.021 A 
ATOM     24  C   UNL     1      -0.976   5.436  -4.401  1.00  0.00     0.021 A 
ATOM     25  C   UNL     1       0.231   6.126  -4.536  1.00  0.00     0.067 A 
BRANCH  25  26
ATOM     26  S   UNL     1       0.258   7.738  -5.282  1.00  0.00     0.175 S 
ATOM     27  C   UNL     1       0.738   8.815  -3.956  1.00  0.00     0.163 C 
ATOM     28  O   UNL     1       1.326   7.727  -6.269  1.00  0.00    -0.224 OA
ATOM     29  O   UNL     1      -1.099   8.077  -5.654  1.00  0.00    -0.224 OA
ENDBRANCH  25  26
ENDBRANCH  12  20
ENDBRANCH   6   7
ENDBRANCH   3   6
ENDBRANCH   1   2
BRANCH   1  30
ATOM     30  C   UNL     1       3.449  -0.100  -3.743  1.00  0.00     0.042 C 
BRANCH  30  31
ATOM     31  C   UNL     1       4.583  -0.419  -2.752  1.00  0.00     0.118 C 
BRANCH  31  32
ATOM     32  N   UNL     1       5.885  -0.582  -3.366  1.00  0.00    -0.352 N 
ATOM     33  C   UNL     1       7.128  -0.461  -2.775  1.00  0.00     0.251 C 
ATOM     34  H   UNL     1       5.884  -0.806  -4.324  1.00  0.00     0.163 HD
ATOM     35  O   UNL     1       8.127  -0.685  -3.456  1.00  0.00    -0.269 OA
BRANCH  33  36
ATOM     36  C   UNL     1       7.294   0.016  -1.362  1.00  0.00     0.039 A 
ATOM     37  C   UNL     1       7.565   1.361  -1.161  1.00  0.00     0.014 A 
ATOM     38  C   UNL     1       7.437  -0.844  -0.259  1.00  0.00     0.014 A 
ATOM     39  C   UNL     1       7.947   1.829   0.120  1.00  0.00     0.010 A 
ATOM     40  C   UNL     1       7.903  -0.372   1.026  1.00  0.00     0.010 A 
ATOM     41  C   UNL     1       8.207   0.982   1.251  1.00  0.00    -0.014 A 
BRANCH  41  42
ATOM     42  C   UNL     1       9.239   1.538   2.299  1.00  0.00     0.031 A 
ATOM     43  C   UNL     1      10.342   2.100   1.462  1.00  0.00     0.074 A 
ATOM     44  C   UNL     1       9.467   1.604   3.662  1.00  0.00     0.049 A 
ATOM     45  N   UNL     1      10.959   1.375   0.570  1.00  0.00    -0.248 NA
ATOM     46  C   UNL     1      10.531   3.546   1.321  1.00  0.00     0.031 C 
ATOM     47  C   UNL     1       8.651   1.042   4.747  1.00  0.00     0.029 A 
ATOM     48  N   UNL     1      10.505   2.218   4.415  1.00  0.00    -0.354 N 
ATOM     49  C   UNL     1      11.835   2.226  -0.056  1.00  0.00     0.074 A 
ATOM     50  C   UNL     1      11.361   3.561   0.275  1.00  0.00     0.031 C 
ATOM     51  C   UNL     1       9.124   1.422   5.970  1.00  0.00     0.029 A 
ATOM     52  C   UNL     1      10.342   2.218   5.835  1.00  0.00     0.049 A 
ATOM     53  H   UNL     1      11.293   2.621   3.982  1.00  0.00     0.167 HD
ATOM     54  C   UNL     1      13.126   1.806  -0.177  1.00  0.00     0.037 A 
ATOM     55  C   UNL     1      11.138   2.746   6.838  1.00  0.00     0.037 A 
ATOM     56  C   UNL     1      14.003   2.472   0.745  1.00  0.00     0.049 A 
ATOM     57  C   UNL     1      12.492   2.937   6.301  1.00  0.00     0.074 A 
ATOM     58  C   UNL     1      14.171   3.789   1.120  1.00  0.00     0.029 A 
ATOM     59  N   UNL     1      14.525   1.704   1.764  1.00  0.00    -0.354 N 
ATOM     60  N   UNL     1      13.317   1.947   6.160  1.00  0.00    -0.248 NA
ATOM     61  C   UNL     1      13.046   4.258   6.011  1.00  0.00     0.031 C 
ATOM     62  C   UNL     1      14.285   3.748   2.530  1.00  0.00     0.029 A 
ATOM     63  C   UNL     1      14.494   2.433   2.931  1.00  0.00     0.049 A 
ATOM     64  H   UNL     1      14.864   0.784   1.673  1.00  0.00     0.167 HD
ATOM     65  C   UNL     1      14.247   2.440   5.304  1.00  0.00     0.074 A 
ATOM     66  C   UNL     1      14.213   3.877   5.486  1.00  0.00     0.031 C 
ATOM     67  C   UNL     1      14.477   1.716   4.183  1.00  0.00     0.037 A 
BRANCH  54  68
ATOM     68  C   UNL     1      13.281   0.374  -0.585  1.00  0.00     0.057 A 
ATOM     69  C   UNL     1      13.729   0.077  -1.873  1.00  0.00     0.134 A 
ATOM     70  C   UNL     1      12.902  -0.708   0.229  1.00  0.00     0.134 A 
ATOM     71  F   UNL     1      14.159   1.056  -2.684  1.00  0.00    -0.206 F 
ATOM     72  C   UNL     1      13.742  -1.235  -2.353  1.00  0.00     0.040 A 
ATOM     73  C   UNL     1      12.865  -2.014  -0.253  1.00  0.00     0.040 A 
ATOM     74  F   UNL     1      12.574  -0.518   1.518  1.00  0.00    -0.206 F 
ATOM     75  C   UNL     1      13.278  -2.280  -1.554  1.00  0.00     0.006 A 
ENDBRANCH  54  68
BRANCH  55  76
ATOM     76  C   UNL     1      11.136   3.056   8.336  1.00  0.00     0.057 A 
ATOM     77  C   UNL     1      12.342   2.978   9.103  1.00  0.00     0.134 A 
ATOM     78  C   UNL     1      10.129   3.809   8.944  1.00  0.00     0.134 A 
ATOM     79  F   UNL     1      13.395   2.263   8.685  1.00  0.00    -0.206 F 
ATOM     80  C   UNL     1      12.566   3.685  10.296  1.00  0.00     0.040 A 
ATOM     81  C   UNL     1      10.329   4.493  10.169  1.00  0.00     0.040 A 
ATOM     82  F   UNL     1       8.953   3.986   8.327  1.00  0.00    -0.206 F 
ATOM     83  C   UNL     1      11.558   4.465  10.828  1.00  0.00     0.006 A 
ENDBRANCH  55  76
BRANCH  67  84
ATOM     84  C   UNL     1      14.483   0.201   4.343  1.00  0.00     0.057 A 
ATOM     85  C   UNL     1      13.500  -0.591   4.979  1.00  0.00     0.134 A 
ATOM     86  C   UNL     1      15.617  -0.493   3.905  1.00  0.00     0.134 A 
ATOM     87  F   UNL     1      12.302  -0.103   5.332  1.00  0.00    -0.206 F 
ATOM     88  C   UNL     1      13.696  -1.950   5.265  1.00  0.00     0.040 A 
ATOM     89  C   UNL     1      15.798  -1.863   4.130  1.00  0.00     0.040 A 
ATOM     90  F   UNL     1      16.582   0.154   3.235  1.00  0.00    -0.206 F 
ATOM     91  C   UNL     1      14.852  -2.590   4.844  1.00  0.00     0.006 A 
ENDBRANCH  67  84
ENDBRANCH  41  42
ENDBRANCH  33  36
ENDBRANCH  31  32
ENDBRANCH  30  31
ENDBRANCH   1  30
TORSDOF 14
