REMARK SMILES CC(C)C[C@H](NC(=O)[C@H](Cc1ccccc1)NC(=O)CNC(=O)C[NH3+])C(=O)NCCCNC(=O)c1ccc(-c2c3nc(c(-c4c(F)cccc4F)c4ccc([nH]4)c(-c4c(F)cccc4F)c4nc(c(-c5c(F)cccc5F)c5ccc2[nH]5)C=C4)C=C3)cc1
REMARK SMILES IDX 26 1 27 2 28 3 5 5 4 6 2 7 1 8 3 9 6 10 7 11 8 13 9 14 17 15
REMARK SMILES IDX 18 16 19 18 20 19 21 20 22 21 23 23 24 24 25 25 10 29 11 30
REMARK SMILES IDX 12 31 16 32 13 33 15 34 14 35 29 36 30 37 31 38 32 39 33 40
REMARK SMILES IDX 34 42 35 43 36 44 88 45 37 46 87 47 38 48 39 49 40 50 81 51
REMARK SMILES IDX 41 52 86 53 80 54 82 55 42 56 85 57 79 58 78 59 43 61 69 62
REMARK SMILES IDX 52 63 68 64 53 65 56 66 67 67 83 68 54 69 55 70 66 72 84 73
REMARK SMILES IDX 57 74 44 75 45 76 50 77 46 78 47 79 49 80 51 81 48 82 70 83
REMARK SMILES IDX 71 84 76 85 72 86 73 87 75 88 77 89 74 90 58 91 59 92 64 93
REMARK SMILES IDX 60 94 61 95 63 96 65 97 62 98
REMARK H PARENT 28 4 6 12 17 17 21 22 25 26 25 27 25 28 32 41 82 60 56 71
REMARK Flexibility Score: inf
ROOT
ATOM      1  C   UNL     1      -2.265   3.123   3.255  1.00  0.00     0.242 C 
ATOM      2  O   UNL     1      -2.397   3.814   4.267  1.00  0.00    -0.273 OA
ATOM      3  N   UNL     1      -2.216   1.772   3.419  1.00  0.00    -0.354 N 
ATOM      4  H   UNL     1      -2.212   1.459   4.353  1.00  0.00     0.163 HD
ENDROOT
BRANCH   1   5
ATOM      5  C   UNL     1      -2.024   3.785   1.883  1.00  0.00     0.171 C 
BRANCH   5   6
ATOM      6  C   UNL     1      -3.063   3.393   0.802  1.00  0.00     0.038 C 
BRANCH   6   7
ATOM      7  C   UNL     1      -2.649   3.072  -0.655  1.00  0.00    -0.015 C 
ATOM      8  C   UNL     1      -1.840   1.791  -0.894  1.00  0.00     0.007 C 
ATOM      9  C   UNL     1      -3.938   2.934  -1.486  1.00  0.00     0.007 C 
ENDBRANCH   6   7
ENDBRANCH   5   6
BRANCH   5  10
ATOM     10  N   UNL     1      -0.607   3.698   1.553  1.00  0.00    -0.343 N 
ATOM     11  C   UNL     1       0.470   4.398   2.025  1.00  0.00     0.243 C 
ATOM     12  H   UNL     1      -0.387   3.019   0.875  1.00  0.00     0.164 HD
ATOM     13  O   UNL     1       1.538   4.156   1.449  1.00  0.00    -0.273 OA
BRANCH  11  14
ATOM     14  C   UNL     1       0.399   5.382   3.228  1.00  0.00     0.175 C 
BRANCH  14  15
ATOM     15  N   UNL     1       1.729   5.990   3.441  1.00  0.00    -0.342 N 
ATOM     16  C   UNL     1       2.697   5.783   4.371  1.00  0.00     0.240 C 
ATOM     17  H   UNL     1       1.958   6.682   2.779  1.00  0.00     0.164 HD
ATOM     18  O   UNL     1       3.759   6.399   4.224  1.00  0.00    -0.273 OA
BRANCH  16  19
ATOM     19  C   UNL     1       2.584   4.730   5.479  1.00  0.00     0.216 C 
BRANCH  19  20
ATOM     20  N   UNL     1       1.315   4.640   6.181  1.00  0.00    -0.342 N 
ATOM     21  C   UNL     1       0.569   3.523   6.431  1.00  0.00     0.275 C 
ATOM     22  H   UNL     1       0.947   5.489   6.518  1.00  0.00     0.164 HD
ATOM     23  O   UNL     1      -0.453   3.622   7.111  1.00  0.00    -0.268 OA
BRANCH  21  24
ATOM     24  C   UNL     1       1.035   2.168   5.893  1.00  0.00     0.360 C 
BRANCH  24  25
ATOM     25  N   UNL     1       1.115   2.180   4.428  1.00  0.00    -0.350 N 
ATOM     26  H   UNL     1       0.192   2.373   4.039  1.00  0.00     0.344 HD
ATOM     27  H   UNL     1       1.440   1.271   4.098  1.00  0.00     0.344 HD
ATOM     28  H   UNL     1       1.769   2.904   4.130  1.00  0.00     0.344 HD
ENDBRANCH  24  25
ENDBRANCH  21  24
ENDBRANCH  19  20
ENDBRANCH  16  19
ENDBRANCH  14  15
BRANCH  14  29
ATOM     29  C   UNL     1      -0.637   6.519   3.197  1.00  0.00     0.070 C 
BRANCH  29  30
ATOM     30  C   UNL     1      -0.730   7.432   1.988  1.00  0.00    -0.045 A 
ATOM     31  C   UNL     1      -0.712   6.978   0.662  1.00  0.00     0.004 A 
ATOM     32  C   UNL     1      -0.973   8.798   2.204  1.00  0.00     0.004 A 
ATOM     33  C   UNL     1      -0.916   7.851  -0.409  1.00  0.00     0.000 A 
ATOM     34  C   UNL     1      -1.175   9.674   1.134  1.00  0.00     0.000 A 
ATOM     35  C   UNL     1      -1.148   9.200  -0.173  1.00  0.00     0.000 A 
ENDBRANCH  29  30
ENDBRANCH  14  29
ENDBRANCH  11  14
ENDBRANCH   5  10
ENDBRANCH   1   5
BRANCH   3  36
ATOM     36  C   UNL     1      -2.170   0.732   2.417  1.00  0.00     0.117 C 
BRANCH  36  37
ATOM     37  C   UNL     1      -0.808   0.083   2.269  1.00  0.00     0.042 C 
BRANCH  37  38
ATOM     38  C   UNL     1      -0.479  -0.826   3.440  1.00  0.00     0.118 C 
BRANCH  38  39
ATOM     39  N   UNL     1      -1.424  -1.932   3.541  1.00  0.00    -0.352 N 
ATOM     40  C   UNL     1      -1.238  -3.267   3.292  1.00  0.00     0.251 C 
ATOM     41  H   UNL     1      -2.331  -1.682   3.833  1.00  0.00     0.163 HD
ATOM     42  O   UNL     1      -2.204  -4.003   3.132  1.00  0.00    -0.269 OA
BRANCH  40  43
ATOM     43  C   UNL     1       0.133  -3.804   3.216  1.00  0.00     0.039 A 
ATOM     44  C   UNL     1       0.447  -4.745   2.235  1.00  0.00     0.014 A 
ATOM     45  C   UNL     1       1.103  -3.371   4.123  1.00  0.00     0.014 A 
ATOM     46  C   UNL     1       1.760  -5.202   2.123  1.00  0.00     0.010 A 
ATOM     47  C   UNL     1       2.425  -3.749   3.946  1.00  0.00     0.010 A 
ATOM     48  C   UNL     1       2.764  -4.676   2.952  1.00  0.00    -0.014 A 
BRANCH  48  49
ATOM     49  C   UNL     1       4.181  -5.083   2.810  1.00  0.00     0.031 A 
ATOM     50  C   UNL     1       4.880  -5.762   3.954  1.00  0.00     0.074 A 
ATOM     51  C   UNL     1       4.855  -4.761   1.690  1.00  0.00     0.049 A 
ATOM     52  N   UNL     1       6.138  -6.096   4.073  1.00  0.00    -0.248 NA
ATOM     53  C   UNL     1       4.061  -6.079   5.137  1.00  0.00     0.031 C 
ATOM     54  C   UNL     1       4.293  -4.057   0.535  1.00  0.00     0.029 A 
ATOM     55  N   UNL     1       6.166  -4.969   1.346  1.00  0.00    -0.354 N 
ATOM     56  C   UNL     1       6.264  -6.642   5.344  1.00  0.00     0.074 A 
ATOM     57  C   UNL     1       4.970  -6.541   5.981  1.00  0.00     0.031 C 
ATOM     58  C   UNL     1       5.246  -3.912  -0.398  1.00  0.00     0.029 A 
ATOM     59  C   UNL     1       6.496  -4.468   0.110  1.00  0.00     0.049 A 
ATOM     60  H   UNL     1       6.809  -5.433   1.929  1.00  0.00     0.167 HD
ATOM     61  C   UNL     1       7.355  -7.200   5.917  1.00  0.00     0.037 A 
ATOM     62  C   UNL     1       7.678  -4.448  -0.532  1.00  0.00     0.037 A 
ATOM     63  C   UNL     1       8.632  -7.317   5.266  1.00  0.00     0.049 A 
ATOM     64  C   UNL     1       8.880  -5.057   0.135  1.00  0.00     0.074 A 
ATOM     65  C   UNL     1       9.785  -7.923   5.732  1.00  0.00     0.029 A 
ATOM     66  N   UNL     1       8.925  -6.812   4.007  1.00  0.00    -0.354 N 
ATOM     67  N   UNL     1       8.969  -5.637   1.307  1.00  0.00    -0.248 NA
ATOM     68  C   UNL     1      10.145  -5.010  -0.611  1.00  0.00     0.031 C 
ATOM     69  C   UNL     1      10.790  -7.739   4.777  1.00  0.00     0.029 A 
ATOM     70  C   UNL     1      10.248  -7.067   3.692  1.00  0.00     0.049 A 
ATOM     71  H   UNL     1       8.285  -6.342   3.424  1.00  0.00     0.167 HD
ATOM     72  C   UNL     1      10.290  -6.047   1.430  1.00  0.00     0.074 A 
ATOM     73  C   UNL     1      10.961  -5.663   0.205  1.00  0.00     0.031 C 
ATOM     74  C   UNL     1      10.895  -6.681   2.464  1.00  0.00     0.037 A 
BRANCH  61  75
ATOM     75  C   UNL     1       7.212  -7.727   7.316  1.00  0.00     0.057 A 
ATOM     76  C   UNL     1       6.438  -8.860   7.605  1.00  0.00     0.134 A 
ATOM     77  C   UNL     1       7.878  -7.113   8.383  1.00  0.00     0.134 A 
ATOM     78  F   UNL     1       5.761  -9.487   6.631  1.00  0.00    -0.206 F 
ATOM     79  C   UNL     1       6.310  -9.345   8.907  1.00  0.00     0.040 A 
ATOM     80  C   UNL     1       7.782  -7.607   9.686  1.00  0.00     0.040 A 
ATOM     81  F   UNL     1       8.639  -6.027   8.178  1.00  0.00    -0.206 F 
ATOM     82  C   UNL     1       6.990  -8.722   9.951  1.00  0.00     0.006 A 
ENDBRANCH  61  75
BRANCH  62  83
ATOM     83  C   UNL     1       7.781  -3.842  -1.884  1.00  0.00     0.057 A 
ATOM     84  C   UNL     1       8.016  -4.634  -3.014  1.00  0.00     0.134 A 
ATOM     85  C   UNL     1       7.653  -2.461  -2.080  1.00  0.00     0.134 A 
ATOM     86  F   UNL     1       8.163  -5.961  -2.888  1.00  0.00    -0.206 F 
ATOM     87  C   UNL     1       8.142  -4.075  -4.286  1.00  0.00     0.040 A 
ATOM     88  C   UNL     1       7.749  -1.891  -3.351  1.00  0.00     0.040 A 
ATOM     89  F   UNL     1       7.415  -1.648  -1.041  1.00  0.00    -0.206 F 
ATOM     90  C   UNL     1       8.003  -2.699  -4.458  1.00  0.00     0.006 A 
ENDBRANCH  62  83
BRANCH  74  91
ATOM     91  C   UNL     1      12.346  -7.029   2.302  1.00  0.00     0.057 A 
ATOM     92  C   UNL     1      13.348  -6.052   2.342  1.00  0.00     0.134 A 
ATOM     93  C   UNL     1      12.746  -8.363   2.158  1.00  0.00     0.134 A 
ATOM     94  F   UNL     1      13.030  -4.755   2.464  1.00  0.00    -0.206 F 
ATOM     95  C   UNL     1      14.697  -6.389   2.224  1.00  0.00     0.040 A 
ATOM     96  C   UNL     1      14.093  -8.715   2.069  1.00  0.00     0.040 A 
ATOM     97  F   UNL     1      11.836  -9.348   2.123  1.00  0.00    -0.206 F 
ATOM     98  C   UNL     1      15.073  -7.725   2.097  1.00  0.00     0.006 A 
ENDBRANCH  74  91
ENDBRANCH  48  49
ENDBRANCH  40  43
ENDBRANCH  38  39
ENDBRANCH  37  38
ENDBRANCH  36  37
ENDBRANCH   3  36
TORSDOF 21
