REMARK SMILES CCc1ccc2c(CC(=O)NCCCNC(=O)c3ccc(-c4c5nc(c(-c6c(F)cccc6F)c6ccc([nH]6)c(-c6c(F)cccc6F)c6nc(c(-c7c(F)cccc7F)c7ccc4[nH]7)C=C6)C=C5)cc3)c(C(=O)c3cc(C)ccn3)[nH]c2c1
REMARK SMILES IDX 12 1 11 2 9 3 10 4 8 6 7 7 3 8 4 9 84 10 5 11 83 12 6 13
REMARK SMILES IDX 82 14 72 15 2 17 1 18 73 19 74 20 75 21 76 22 81 23 77 24
REMARK SMILES IDX 80 25 78 26 79 27 13 28 14 29 15 30 16 31 17 33 18 34 19 35
REMARK SMILES IDX 71 36 20 37 70 38 21 39 22 40 23 41 64 42 24 43 69 44 63 45
REMARK SMILES IDX 65 46 25 47 68 48 62 49 61 50 26 52 52 53 35 54 51 55 36 56
REMARK SMILES IDX 39 57 50 58 66 59 37 60 38 61 49 63 67 64 40 65 27 66 28 67
REMARK SMILES IDX 33 68 29 69 30 70 32 71 34 72 31 73 53 74 54 75 59 76 55 77
REMARK SMILES IDX 56 78 58 79 60 80 57 81 41 82 42 83 47 84 43 85 44 86 46 87
REMARK SMILES IDX 48 88 45 89
REMARK H PARENT 11 5 82 16 15 32 65 51 39 62
REMARK Flexibility Score: inf
ROOT
ATOM      1  C   UNL     1       4.967   2.808  -5.521  1.00  0.00     0.117 C 
ENDROOT
BRANCH   1   2
ATOM      2  N   UNL     1       4.993   2.456  -6.925  1.00  0.00    -0.356 N 
ATOM      3  C   UNL     1       3.959   2.237  -7.790  1.00  0.00     0.224 C 
ATOM      4  O   UNL     1       4.245   2.177  -8.988  1.00  0.00    -0.275 OA
ATOM      5  H   UNL     1       5.891   2.359  -7.315  1.00  0.00     0.163 HD
BRANCH   3   6
ATOM      6  C   UNL     1       2.512   2.202  -7.309  1.00  0.00     0.138 C 
BRANCH   6   7
ATOM      7  C   UNL     1       2.206   1.142  -6.282  1.00  0.00    -0.002 A 
ATOM      8  C   UNL     1       0.997   1.197  -2.220  1.00  0.00    -0.046 A 
ATOM      9  C   UNL     1       1.074   2.441  -2.859  1.00  0.00     0.004 A 
ATOM     10  C   UNL     1       1.274   0.032  -2.953  1.00  0.00     0.030 A 
ATOM     11  C   UNL     1       1.452   2.552  -4.203  1.00  0.00     0.011 A 
ATOM     12  C   UNL     1       1.655   0.163  -4.297  1.00  0.00     0.046 A 
ATOM     13  C   UNL     1       1.761   1.391  -4.939  1.00  0.00     0.004 A 
ATOM     14  N   UNL     1       1.986  -0.800  -5.219  1.00  0.00    -0.352 N 
ATOM     15  C   UNL     1       2.237  -0.243  -6.456  1.00  0.00     0.093 A 
ATOM     16  H   UNL     1       2.038  -1.763  -5.022  1.00  0.00     0.167 HD
BRANCH   8  17
ATOM     17  C   UNL     1       0.546   1.160  -0.775  1.00  0.00     0.032 C 
ATOM     18  C   UNL     1       1.081   0.002   0.058  1.00  0.00     0.009 C 
ENDBRANCH   8  17
BRANCH  15  19
ATOM     19  C   UNL     1       2.492  -1.000  -7.679  1.00  0.00     0.227 C 
ATOM     20  O   UNL     1       2.662  -0.474  -8.777  1.00  0.00    -0.285 OA
BRANCH  19  21
ATOM     21  C   UNL     1       2.483  -2.486  -7.624  1.00  0.00     0.113 A 
ATOM     22  C   UNL     1       1.293  -3.159  -7.363  1.00  0.00     0.036 A 
ATOM     23  N   UNL     1       3.670  -3.102  -7.849  1.00  0.00    -0.253 NA
ATOM     24  C   UNL     1       1.317  -4.555  -7.327  1.00  0.00    -0.047 A 
ATOM     25  C   UNL     1       3.656  -4.450  -7.849  1.00  0.00     0.112 A 
ATOM     26  C   UNL     1       0.076  -5.348  -7.046  1.00  0.00     0.044 C 
ATOM     27  C   UNL     1       2.523  -5.209  -7.592  1.00  0.00     0.023 A 
ENDBRANCH  19  21
ENDBRANCH  15  19
ENDBRANCH   6   7
ENDBRANCH   3   6
ENDBRANCH   1   2
BRANCH   1  28
ATOM     28  C   UNL     1       5.375   1.658  -4.605  1.00  0.00     0.042 C 
BRANCH  28  29
ATOM     29  C   UNL     1       6.822   1.193  -4.763  1.00  0.00     0.118 C 
BRANCH  29  30
ATOM     30  N   UNL     1       7.792   2.234  -4.458  1.00  0.00    -0.352 N 
ATOM     31  C   UNL     1       8.870   2.247  -3.612  1.00  0.00     0.251 C 
ATOM     32  H   UNL     1       7.648   3.077  -4.945  1.00  0.00     0.163 HD
ATOM     33  O   UNL     1       9.456   3.311  -3.418  1.00  0.00    -0.269 OA
BRANCH  31  34
ATOM     34  C   UNL     1       9.338   1.027  -2.913  1.00  0.00     0.039 A 
ATOM     35  C   UNL     1       9.836   1.167  -1.612  1.00  0.00     0.014 A 
ATOM     36  C   UNL     1       9.366  -0.228  -3.527  1.00  0.00     0.014 A 
ATOM     37  C   UNL     1      10.311   0.053  -0.916  1.00  0.00     0.010 A 
ATOM     38  C   UNL     1       9.784  -1.353  -2.810  1.00  0.00     0.010 A 
ATOM     39  C   UNL     1      10.263  -1.223  -1.498  1.00  0.00    -0.014 A 
BRANCH  39  40
ATOM     40  C   UNL     1      10.698  -2.417  -0.729  1.00  0.00     0.031 A 
ATOM     41  C   UNL     1      11.923  -3.191  -1.127  1.00  0.00     0.074 A 
ATOM     42  C   UNL     1       9.964  -2.822   0.326  1.00  0.00     0.049 A 
ATOM     43  N   UNL     1      12.452  -4.247  -0.560  1.00  0.00    -0.248 NA
ATOM     44  C   UNL     1      12.637  -2.733  -2.329  1.00  0.00     0.031 C 
ATOM     45  C   UNL     1       8.724  -2.192   0.784  1.00  0.00     0.029 A 
ATOM     46  N   UNL     1      10.155  -3.859   1.204  1.00  0.00    -0.354 N 
ATOM     47  C   UNL     1      13.551  -4.586  -1.340  1.00  0.00     0.074 A 
ATOM     48  C   UNL     1      13.589  -3.649  -2.443  1.00  0.00     0.031 C 
ATOM     49  C   UNL     1       8.283  -2.837   1.877  1.00  0.00     0.029 A 
ATOM     50  C   UNL     1       9.194  -3.935   2.182  1.00  0.00     0.049 A 
ATOM     51  H   UNL     1      10.910  -4.488   1.140  1.00  0.00     0.167 HD
ATOM     52  C   UNL     1      14.456  -5.575  -1.145  1.00  0.00     0.037 A 
ATOM     53  C   UNL     1       9.065  -4.787   3.215  1.00  0.00     0.037 A 
ATOM     54  C   UNL     1      14.437  -6.494  -0.036  1.00  0.00     0.049 A 
ATOM     55  C   UNL     1      10.102  -5.851   3.430  1.00  0.00     0.074 A 
ATOM     56  C   UNL     1      15.343  -7.494   0.274  1.00  0.00     0.029 A 
ATOM     57  N   UNL     1      13.461  -6.522   0.948  1.00  0.00    -0.354 N 
ATOM     58  N   UNL     1      11.170  -6.119   2.719  1.00  0.00    -0.248 NA
ATOM     59  C   UNL     1       9.922  -6.723   4.599  1.00  0.00     0.031 C 
ATOM     60  C   UNL     1      14.900  -8.146   1.431  1.00  0.00     0.029 A 
ATOM     61  C   UNL     1      13.736  -7.530   1.859  1.00  0.00     0.049 A 
ATOM     62  H   UNL     1      12.686  -5.916   0.993  1.00  0.00     0.167 HD
ATOM     63  C   UNL     1      11.799  -7.176   3.363  1.00  0.00     0.074 A 
ATOM     64  C   UNL     1      11.003  -7.488   4.532  1.00  0.00     0.031 C 
ATOM     65  C   UNL     1      12.933  -7.831   3.015  1.00  0.00     0.037 A 
BRANCH  52  66
ATOM     66  C   UNL     1      15.556  -5.711  -2.157  1.00  0.00     0.057 A 
ATOM     67  C   UNL     1      16.613  -4.794  -2.222  1.00  0.00     0.134 A 
ATOM     68  C   UNL     1      15.578  -6.788  -3.053  1.00  0.00     0.134 A 
ATOM     69  F   UNL     1      16.644  -3.735  -1.399  1.00  0.00    -0.206 F 
ATOM     70  C   UNL     1      17.641  -4.931  -3.156  1.00  0.00     0.040 A 
ATOM     71  C   UNL     1      16.612  -6.947  -3.976  1.00  0.00     0.040 A 
ATOM     72  F   UNL     1      14.599  -7.705  -3.039  1.00  0.00    -0.206 F 
ATOM     73  C   UNL     1      17.645  -6.013  -4.033  1.00  0.00     0.006 A 
ENDBRANCH  52  66
BRANCH  53  74
ATOM     74  C   UNL     1       7.928  -4.641   4.155  1.00  0.00     0.057 A 
ATOM     75  C   UNL     1       8.122  -4.138   5.446  1.00  0.00     0.134 A 
ATOM     76  C   UNL     1       6.626  -5.000   3.788  1.00  0.00     0.134 A 
ATOM     77  F   UNL     1       9.352  -3.796   5.858  1.00  0.00    -0.206 F 
ATOM     78  C   UNL     1       7.065  -4.011   6.347  1.00  0.00     0.040 A 
ATOM     79  C   UNL     1       5.555  -4.859   4.672  1.00  0.00     0.040 A 
ATOM     80  F   UNL     1       6.376  -5.481   2.562  1.00  0.00    -0.206 F 
ATOM     81  C   UNL     1       5.775  -4.368   5.958  1.00  0.00     0.006 A 
ENDBRANCH  53  74
BRANCH  65  82
ATOM     82  C   UNL     1      13.383  -8.935   3.924  1.00  0.00     0.057 A 
ATOM     83  C   UNL     1      12.724 -10.171   3.962  1.00  0.00     0.134 A 
ATOM     84  C   UNL     1      14.489  -8.763   4.766  1.00  0.00     0.134 A 
ATOM     85  F   UNL     1      11.649 -10.392   3.191  1.00  0.00    -0.206 F 
ATOM     86  C   UNL     1      13.133 -11.188   4.827  1.00  0.00     0.040 A 
ATOM     87  C   UNL     1      14.920  -9.780   5.618  1.00  0.00     0.040 A 
ATOM     88  F   UNL     1      15.166  -7.605   4.773  1.00  0.00    -0.206 F 
ATOM     89  C   UNL     1      14.236 -10.994   5.656  1.00  0.00     0.006 A 
ENDBRANCH  65  82
ENDBRANCH  39  40
ENDBRANCH  31  34
ENDBRANCH  29  30
ENDBRANCH  28  29
ENDBRANCH   1  28
TORSDOF 14
