REMARK SMILES NS(=O)(=O)c1ccc(-n2nc(C(F)(F)F)cc2-c2ccc(CC(=O)NCCCNC(=O)c3ccc(-c4c5nc(c(-c6c(F)cccc6F)c6ccc([nH]6)c(-c6c(F)cccc6F)c6nc(c(-c7c(F)cccc7F)c7ccc4[nH]7)C=C6)C=C5)cc3)cc2)cc1
REMARK SMILES IDX 23 1 24 2 25 3 22 5 21 6 18 7 19 8 87 9 20 10 86 11 17 12
REMARK SMILES IDX 9 13 10 14 11 15 16 16 8 17 5 18 6 19 89 20 7 21 88 22 2 23
REMARK SMILES IDX 3 24 4 25 1 26 12 29 13 30 14 31 15 32 26 33 27 34 28 35
REMARK SMILES IDX 29 36 30 37 31 39 32 40 33 41 85 42 34 43 84 44 35 45 36 46
REMARK SMILES IDX 37 47 78 48 38 49 83 50 77 51 79 52 39 53 82 54 76 55 75 56
REMARK SMILES IDX 40 58 66 59 49 60 65 61 50 62 53 63 64 64 80 65 51 66 52 67
REMARK SMILES IDX 63 69 81 70 54 71 41 72 42 73 47 74 43 75 44 76 46 77 48 78
REMARK SMILES IDX 45 79 67 80 68 81 73 82 69 83 70 84 72 85 74 86 71 87 55 88
REMARK SMILES IDX 56 89 61 90 57 91 58 92 60 93 62 94 59 95
REMARK H PARENT 25 4 1 27 1 28 29 38 79 57 53 68
REMARK Flexibility Score: inf
ROOT
ATOM      1  C   UNL     1      -3.921  -4.809  -5.191  1.00  0.00     0.224 C 
ATOM      2  O   UNL     1      -4.774  -4.034  -4.755  1.00  0.00    -0.275 OA
ATOM      3  N   UNL     1      -3.357  -5.708  -4.330  1.00  0.00    -0.356 N 
ATOM      4  H   UNL     1      -3.692  -5.676  -3.405  1.00  0.00     0.163 HD
ENDROOT
BRANCH   1   5
ATOM      5  C   UNL     1      -3.521  -4.803  -6.657  1.00  0.00     0.135 C 
BRANCH   5   6
ATOM      6  C   UNL     1      -2.128  -4.276  -6.910  1.00  0.00    -0.039 A 
ATOM      7  C   UNL     1       0.504  -3.327  -7.290  1.00  0.00     0.000 A 
ATOM      8  C   UNL     1      -0.497  -2.490  -6.772  1.00  0.00     0.010 A 
ATOM      9  C   UNL     1       0.160  -4.628  -7.666  1.00  0.00     0.010 A 
ATOM     10  C   UNL     1      -1.796  -2.963  -6.567  1.00  0.00     0.005 A 
ATOM     11  C   UNL     1      -1.147  -5.093  -7.490  1.00  0.00     0.005 A 
BRANCH   7  12
ATOM     12  C   UNL     1       1.890  -2.858  -7.420  1.00  0.00     0.075 A 
ATOM     13  N   UNL     1       2.593  -2.155  -6.447  1.00  0.00    -0.233 N 
ATOM     14  N   UNL     1       3.742  -1.622  -6.921  1.00  0.00    -0.163 NA
ATOM     15  C   UNL     1       3.897  -2.176  -8.139  1.00  0.00     0.167 A 
ATOM     16  C   UNL     1       2.753  -2.935  -8.495  1.00  0.00     0.064 A 
BRANCH  13  17
ATOM     17  C   UNL     1       2.203  -1.943  -5.106  1.00  0.00     0.065 A 
ATOM     18  C   UNL     1       0.988  -1.442  -2.681  1.00  0.00     0.082 A 
ATOM     19  C   UNL     1       1.045  -2.752  -3.161  1.00  0.00     0.024 A 
ATOM     20  C   UNL     1       1.612  -0.392  -3.359  1.00  0.00     0.024 A 
ATOM     21  C   UNL     1       1.647  -3.006  -4.382  1.00  0.00     0.030 A 
ATOM     22  C   UNL     1       2.251  -0.648  -4.573  1.00  0.00     0.030 A 
BRANCH  18  23
ATOM     23  S   UNL     1       0.125  -1.163  -1.173  1.00  0.00     0.238 S 
ATOM     24  O   UNL     1       0.174  -2.388  -0.417  1.00  0.00    -0.207 OA
ATOM     25  O   UNL     1      -1.116  -0.488  -1.471  1.00  0.00    -0.207 OA
BRANCH  23  26
ATOM     26  N   UNL     1       1.094  -0.064  -0.361  1.00  0.00    -0.225 NA
ATOM     27  H   UNL     1       0.671   0.162   0.539  1.00  0.00     0.137 HD
ATOM     28  H   UNL     1       1.185   0.785  -0.918  1.00  0.00     0.137 HD
ENDBRANCH  23  26
ENDBRANCH  18  23
ENDBRANCH  13  17
BRANCH  15  29
ATOM     29  C   UNL     1       5.129  -1.970  -8.977  1.00  0.00     0.435 C 
ATOM     30  F   UNL     1       5.514  -0.669  -9.046  1.00  0.00    -0.164 F 
ATOM     31  F   UNL     1       6.190  -2.678  -8.504  1.00  0.00    -0.164 F 
ATOM     32  F   UNL     1       4.936  -2.385 -10.261  1.00  0.00    -0.164 F 
ENDBRANCH  15  29
ENDBRANCH   7  12
ENDBRANCH   5   6
ENDBRANCH   1   5
BRANCH   3  33
ATOM     33  C   UNL     1      -2.333  -6.707  -4.589  1.00  0.00     0.117 C 
BRANCH  33  34
ATOM     34  C   UNL     1      -0.940  -6.258  -4.137  1.00  0.00     0.042 C 
BRANCH  34  35
ATOM     35  C   UNL     1      -0.776  -6.300  -2.626  1.00  0.00     0.118 C 
BRANCH  35  36
ATOM     36  N   UNL     1      -0.795  -7.659  -2.086  1.00  0.00    -0.352 N 
ATOM     37  C   UNL     1      -0.639  -8.065  -0.775  1.00  0.00     0.251 C 
ATOM     38  H   UNL     1      -0.938  -8.379  -2.743  1.00  0.00     0.163 HD
ATOM     39  O   UNL     1      -0.320  -9.220  -0.517  1.00  0.00    -0.269 OA
BRANCH  37  40
ATOM     40  C   UNL     1      -0.863  -7.098   0.313  1.00  0.00     0.039 A 
ATOM     41  C   UNL     1      -0.100  -7.125   1.486  1.00  0.00     0.014 A 
ATOM     42  C   UNL     1      -1.867  -6.152   0.150  1.00  0.00     0.014 A 
ATOM     43  C   UNL     1      -0.323  -6.156   2.464  1.00  0.00     0.010 A 
ATOM     44  C   UNL     1      -1.947  -5.093   1.012  1.00  0.00     0.010 A 
ATOM     45  C   UNL     1      -1.242  -5.129   2.212  1.00  0.00    -0.014 A 
BRANCH  45  46
ATOM     46  C   UNL     1      -1.413  -3.993   3.122  1.00  0.00     0.031 A 
ATOM     47  C   UNL     1      -0.167  -3.189   3.388  1.00  0.00     0.074 A 
ATOM     48  C   UNL     1      -2.667  -3.561   3.421  1.00  0.00     0.049 A 
ATOM     49  N   UNL     1       0.174  -2.559   4.464  1.00  0.00    -0.248 NA
ATOM     50  C   UNL     1       0.862  -3.087   2.332  1.00  0.00     0.031 C 
ATOM     51  C   UNL     1      -3.954  -4.112   2.957  1.00  0.00     0.029 A 
ATOM     52  N   UNL     1      -3.074  -2.443   4.082  1.00  0.00    -0.354 N 
ATOM     53  C   UNL     1       1.349  -1.861   4.173  1.00  0.00     0.074 A 
ATOM     54  C   UNL     1       1.738  -2.223   2.842  1.00  0.00     0.031 C 
ATOM     55  C   UNL     1      -4.934  -3.197   3.117  1.00  0.00     0.029 A 
ATOM     56  C   UNL     1      -4.397  -2.065   3.844  1.00  0.00     0.049 A 
ATOM     57  H   UNL     1      -2.479  -1.939   4.683  1.00  0.00     0.167 HD
ATOM     58  C   UNL     1       1.853  -0.933   5.028  1.00  0.00     0.037 A 
ATOM     59  C   UNL     1      -4.985  -0.887   4.186  1.00  0.00     0.037 A 
ATOM     60  C   UNL     1       1.471  -1.240   6.378  1.00  0.00     0.049 A 
ATOM     61  C   UNL     1      -4.091  -0.234   5.175  1.00  0.00     0.074 A 
ATOM     62  C   UNL     1       1.663  -2.358   7.170  1.00  0.00     0.029 A 
ATOM     63  N   UNL     1       0.419  -0.559   6.938  1.00  0.00    -0.354 N 
ATOM     64  N   UNL     1      -3.907  -0.674   6.388  1.00  0.00    -0.248 NA
ATOM     65  C   UNL     1      -3.041   0.624   4.646  1.00  0.00     0.031 C 
ATOM     66  C   UNL     1       0.396  -2.578   7.780  1.00  0.00     0.029 A 
ATOM     67  C   UNL     1      -0.436  -1.515   7.428  1.00  0.00     0.049 A 
ATOM     68  H   UNL     1       0.302   0.417   6.979  1.00  0.00     0.167 HD
ATOM     69  C   UNL     1      -2.547  -0.529   6.603  1.00  0.00     0.074 A 
ATOM     70  C   UNL     1      -2.072   0.330   5.517  1.00  0.00     0.031 C 
ATOM     71  C   UNL     1      -1.868  -1.354   7.452  1.00  0.00     0.037 A 
BRANCH  58  72
ATOM     72  C   UNL     1       2.343   0.423   4.601  1.00  0.00     0.057 A 
ATOM     73  C   UNL     1       2.858   1.304   5.569  1.00  0.00     0.134 A 
ATOM     74  C   UNL     1       2.011   1.011   3.365  1.00  0.00     0.134 A 
ATOM     75  F   UNL     1       3.222   0.859   6.781  1.00  0.00    -0.206 F 
ATOM     76  C   UNL     1       2.928   2.687   5.362  1.00  0.00     0.040 A 
ATOM     77  C   UNL     1       2.108   2.387   3.136  1.00  0.00     0.040 A 
ATOM     78  F   UNL     1       1.491   0.298   2.357  1.00  0.00    -0.206 F 
ATOM     79  C   UNL     1       2.531   3.235   4.149  1.00  0.00     0.006 A 
ENDBRANCH  58  72
BRANCH  59  80
ATOM     80  C   UNL     1      -6.100  -0.135   3.554  1.00  0.00     0.057 A 
ATOM     81  C   UNL     1      -6.711   0.938   4.224  1.00  0.00     0.134 A 
ATOM     82  C   UNL     1      -6.397  -0.246   2.185  1.00  0.00     0.134 A 
ATOM     83  F   UNL     1      -6.478   1.149   5.528  1.00  0.00    -0.206 F 
ATOM     84  C   UNL     1      -7.524   1.873   3.566  1.00  0.00     0.040 A 
ATOM     85  C   UNL     1      -7.213   0.676   1.516  1.00  0.00     0.040 A 
ATOM     86  F   UNL     1      -5.836  -1.200   1.430  1.00  0.00    -0.206 F 
ATOM     87  C   UNL     1      -7.763   1.753   2.202  1.00  0.00     0.006 A 
ENDBRANCH  59  80
BRANCH  71  88
ATOM     88  C   UNL     1      -2.641  -2.317   8.311  1.00  0.00     0.057 A 
ATOM     89  C   UNL     1      -3.516  -3.303   7.826  1.00  0.00     0.134 A 
ATOM     90  C   UNL     1      -2.350  -2.357   9.679  1.00  0.00     0.134 A 
ATOM     91  F   UNL     1      -3.776  -3.427   6.519  1.00  0.00    -0.206 F 
ATOM     92  C   UNL     1      -4.106  -4.248   8.671  1.00  0.00     0.040 A 
ATOM     93  C   UNL     1      -2.900  -3.321  10.526  1.00  0.00     0.040 A 
ATOM     94  F   UNL     1      -1.477  -1.486  10.211  1.00  0.00    -0.206 F 
ATOM     95  C   UNL     1      -3.792  -4.263  10.026  1.00  0.00     0.006 A 
ENDBRANCH  71  88
ENDBRANCH  45  46
ENDBRANCH  37  40
ENDBRANCH  35  36
ENDBRANCH  34  35
ENDBRANCH  33  34
ENDBRANCH   3  33
TORSDOF 16
