REMARK SMILES Cc1cccc(C(=O)NCCCNC(=O)c2ccc(-c3c4nc(c(-c5c(F)cccc5F)c5ccc([nH]5)c(-c5c(F)cccc5F)c5nc(c(-c6c(F)cccc6F)c6ccc3[nH]6)C=C5)C=C4)cc2)c1OC[C@@H]1C[C@H]2CC[C@@H]1C2
REMARK SMILES IDX 10 1 9 2 7 3 8 4 6 6 1 7 2 8 3 9 70 10 4 11 5 12 71 13 72 14
REMARK SMILES IDX 73 15 74 16 78 17 75 18 77 19 79 20 76 21 11 22 12 23 13 24
REMARK SMILES IDX 14 25 15 27 16 28 17 29 69 30 18 31 68 32 19 33 20 34 21 35
REMARK SMILES IDX 62 36 22 37 67 38 61 39 63 40 23 41 66 42 60 43 59 44 24 46
REMARK SMILES IDX 50 47 33 48 49 49 34 50 37 51 48 52 64 53 35 54 36 55 47 57
REMARK SMILES IDX 65 58 38 59 25 60 26 61 31 62 27 63 28 64 30 65 32 66 29 67
REMARK SMILES IDX 51 68 52 69 57 70 53 71 54 72 56 73 58 74 55 75 39 76 40 77
REMARK SMILES IDX 45 78 41 79 42 80 44 81 46 82 43 83
REMARK H PARENT 9 5 13 26 63 45 37 56
REMARK Flexibility Score: inf
ROOT
ATOM      1  C   UNL     1       0.283   3.993   0.670  1.00  0.00     0.118 C 
ENDROOT
BRANCH   1   2
ATOM      2  N   UNL     1      -1.057   3.500   0.466  1.00  0.00    -0.352 N 
ATOM      3  C   UNL     1      -1.556   2.271   0.139  1.00  0.00     0.255 C 
ATOM      4  O   UNL     1      -2.763   2.268  -0.137  1.00  0.00    -0.269 OA
ATOM      5  H   UNL     1      -1.752   4.187   0.586  1.00  0.00     0.163 HD
BRANCH   3   6
ATOM      6  C   UNL     1      -0.837   0.950   0.132  1.00  0.00     0.082 A 
ATOM      7  C   UNL     1       1.913  -1.198  -1.463  1.00  0.00     0.048 C 
ATOM      8  C   UNL     1       0.772  -0.729  -0.600  1.00  0.00    -0.008 A 
ATOM      9  C   UNL     1      -0.121  -1.746  -0.209  1.00  0.00     0.007 A 
ATOM     10  C   UNL     1       0.469   0.626  -0.316  1.00  0.00     0.134 A 
ATOM     11  C   UNL     1      -1.348  -1.440   0.350  1.00  0.00     0.001 A 
ATOM     12  C   UNL     1      -1.712  -0.108   0.480  1.00  0.00     0.018 A 
BRANCH  10  13
ATOM     13  O   UNL     1       1.357   1.628  -0.573  1.00  0.00    -0.492 OA
BRANCH  13  14
ATOM     14  C   UNL     1       2.722   1.543  -0.104  1.00  0.00     0.233 C 
BRANCH  14  15
ATOM     15  C   UNL     1       2.944   1.129   1.364  1.00  0.00     0.030 C 
ATOM     16  C   UNL     1       3.820   2.147   2.155  1.00  0.00     0.011 C 
ATOM     17  C   UNL     1       3.829  -0.144   1.447  1.00  0.00    -0.004 C 
ATOM     18  C   UNL     1       5.036   1.316   2.605  1.00  0.00    -0.010 C 
ATOM     19  C   UNL     1       3.764  -0.705   2.874  1.00  0.00     0.004 C 
ATOM     20  C   UNL     1       5.252   0.417   1.395  1.00  0.00     0.007 C 
ATOM     21  C   UNL     1       4.592   0.306   3.676  1.00  0.00     0.004 C 
ENDBRANCH  14  15
ENDBRANCH  13  14
ENDBRANCH  10  13
ENDBRANCH   3   6
ENDBRANCH   1   2
BRANCH   1  22
ATOM     22  C   UNL     1       0.885   4.384  -0.674  1.00  0.00     0.042 C 
BRANCH  22  23
ATOM     23  C   UNL     1       1.003   5.873  -0.901  1.00  0.00     0.118 C 
BRANCH  23  24
ATOM     24  N   UNL     1       2.329   6.387  -0.540  1.00  0.00    -0.352 N 
ATOM     25  C   UNL     1       2.895   7.617  -0.837  1.00  0.00     0.251 C 
ATOM     26  H   UNL     1       2.893   5.775  -0.016  1.00  0.00     0.163 HD
ATOM     27  O   UNL     1       3.992   7.931  -0.414  1.00  0.00    -0.269 OA
BRANCH  25  28
ATOM     28  C   UNL     1       2.051   8.591  -1.562  1.00  0.00     0.039 A 
ATOM     29  C   UNL     1       1.639   9.711  -0.835  1.00  0.00     0.014 A 
ATOM     30  C   UNL     1       1.374   8.176  -2.703  1.00  0.00     0.014 A 
ATOM     31  C   UNL     1       0.374  10.227  -1.077  1.00  0.00     0.010 A 
ATOM     32  C   UNL     1       0.071   8.605  -2.857  1.00  0.00     0.010 A 
ATOM     33  C   UNL     1      -0.451   9.573  -1.990  1.00  0.00    -0.014 A 
BRANCH  33  34
ATOM     34  C   UNL     1      -1.897   9.765  -2.013  1.00  0.00     0.031 A 
ATOM     35  C   UNL     1      -2.514  10.486  -3.143  1.00  0.00     0.074 A 
ATOM     36  C   UNL     1      -2.667   9.256  -1.025  1.00  0.00     0.049 A 
ATOM     37  N   UNL     1      -3.661  11.073  -3.097  1.00  0.00    -0.248 NA
ATOM     38  C   UNL     1      -1.834  10.654  -4.421  1.00  0.00     0.031 C 
ATOM     39  C   UNL     1      -4.124   9.139  -1.007  1.00  0.00     0.029 A 
ATOM     40  N   UNL     1      -2.278   8.939   0.287  1.00  0.00    -0.354 N 
ATOM     41  C   UNL     1      -3.984  11.469  -4.376  1.00  0.00     0.074 A 
ATOM     42  C   UNL     1      -2.791  11.230  -5.151  1.00  0.00     0.031 C 
ATOM     43  C   UNL     1      -4.537   9.072   0.269  1.00  0.00     0.029 A 
ATOM     44  C   UNL     1      -3.373   9.291   1.109  1.00  0.00     0.049 A 
ATOM     45  H   UNL     1      -1.419   8.552   0.574  1.00  0.00     0.167 HD
ATOM     46  C   UNL     1      -5.266  11.841  -4.654  1.00  0.00     0.037 A 
ATOM     47  C   UNL     1      -3.272  10.253   2.070  1.00  0.00     0.037 A 
ATOM     48  C   UNL     1      -6.078  11.872  -3.440  1.00  0.00     0.049 A 
ATOM     49  C   UNL     1      -4.246  11.395   1.897  1.00  0.00     0.074 A 
ATOM     50  C   UNL     1      -6.936  10.950  -2.862  1.00  0.00     0.029 A 
ATOM     51  N   UNL     1      -5.822  12.834  -2.470  1.00  0.00    -0.354 N 
ATOM     52  N   UNL     1      -4.851  11.670   0.775  1.00  0.00    -0.248 NA
ATOM     53  C   UNL     1      -4.587  12.339   2.960  1.00  0.00     0.031 C 
ATOM     54  C   UNL     1      -7.148  11.332  -1.514  1.00  0.00     0.029 A 
ATOM     55  C   UNL     1      -6.439  12.498  -1.282  1.00  0.00     0.049 A 
ATOM     56  H   UNL     1      -5.277  13.641  -2.611  1.00  0.00     0.167 HD
ATOM     57  C   UNL     1      -5.610  12.801   0.929  1.00  0.00     0.074 A 
ATOM     58  C   UNL     1      -5.430  13.170   2.321  1.00  0.00     0.031 C 
ATOM     59  C   UNL     1      -6.307  13.348  -0.109  1.00  0.00     0.037 A 
BRANCH  46  60
ATOM     60  C   UNL     1      -5.841  11.871  -6.054  1.00  0.00     0.057 A 
ATOM     61  C   UNL     1      -7.200  11.573  -6.281  1.00  0.00     0.134 A 
ATOM     62  C   UNL     1      -5.104  12.109  -7.226  1.00  0.00     0.134 A 
ATOM     63  F   UNL     1      -8.072  11.442  -5.273  1.00  0.00    -0.206 F 
ATOM     64  C   UNL     1      -7.739  11.389  -7.562  1.00  0.00     0.040 A 
ATOM     65  C   UNL     1      -5.612  11.872  -8.512  1.00  0.00     0.040 A 
ATOM     66  F   UNL     1      -3.878  12.644  -7.186  1.00  0.00    -0.206 F 
ATOM     67  C   UNL     1      -6.933  11.493  -8.683  1.00  0.00     0.006 A 
ENDBRANCH  46  60
BRANCH  47  68
ATOM     68  C   UNL     1      -1.908  10.380   2.645  1.00  0.00     0.057 A 
ATOM     69  C   UNL     1      -1.361   9.285   3.337  1.00  0.00     0.134 A 
ATOM     70  C   UNL     1      -1.022  11.375   2.227  1.00  0.00     0.134 A 
ATOM     71  F   UNL     1      -2.158   8.294   3.770  1.00  0.00    -0.206 F 
ATOM     72  C   UNL     1       0.018   9.127   3.500  1.00  0.00     0.040 A 
ATOM     73  C   UNL     1       0.361  11.235   2.397  1.00  0.00     0.040 A 
ATOM     74  F   UNL     1      -1.464  12.440   1.544  1.00  0.00    -0.206 F 
ATOM     75  C   UNL     1       0.886  10.091   2.998  1.00  0.00     0.006 A 
ENDBRANCH  47  68
BRANCH  59  76
ATOM     76  C   UNL     1      -6.988  14.693  -0.111  1.00  0.00     0.057 A 
ATOM     77  C   UNL     1      -6.543  15.802   0.623  1.00  0.00     0.134 A 
ATOM     78  C   UNL     1      -8.051  14.952  -1.006  1.00  0.00     0.134 A 
ATOM     79  F   UNL     1      -5.478  15.725   1.433  1.00  0.00    -0.206 F 
ATOM     80  C   UNL     1      -7.140  17.065   0.510  1.00  0.00     0.040 A 
ATOM     81  C   UNL     1      -8.619  16.219  -1.165  1.00  0.00     0.040 A 
ATOM     82  F   UNL     1      -8.566  13.989  -1.784  1.00  0.00    -0.206 F 
ATOM     83  C   UNL     1      -8.172  17.281  -0.395  1.00  0.00     0.006 A 
ENDBRANCH  59  76
ENDBRANCH  33  34
ENDBRANCH  25  28
ENDBRANCH  23  24
ENDBRANCH  22  23
ENDBRANCH   1  22
TORSDOF 13
