REMARK SMILES Cc1nc(Nc2ccc(F)cc2)nc(OCC(=O)NCCCNC(=O)c2ccc(-c3c4nc(c(-c5c(F)cccc5F)c5ccc([nH]5)c(-c5c(F)cccc5F)c5nc(c(-c6c(F)cccc6F)c6ccc3[nH]6)C=C5)C=C4)cc2)c1CCO
REMARK SMILES IDX 17 1 18 2 19 3 16 5 15 6 14 7 1 8 2 9 3 10 80 11 4 12 13 13
REMARK SMILES IDX 81 14 82 15 83 16 5 18 6 20 7 21 12 22 8 23 11 24 9 25 10 26
REMARK SMILES IDX 20 27 21 28 22 29 23 30 24 31 25 33 26 34 27 35 79 36 28 37
REMARK SMILES IDX 78 38 29 39 30 40 31 41 72 42 32 43 77 44 71 45 73 46 33 47
REMARK SMILES IDX 76 48 70 49 69 50 34 52 60 53 43 54 59 55 44 56 47 57 58 58
REMARK SMILES IDX 74 59 45 60 46 61 57 63 75 64 48 65 35 66 36 67 41 68 37 69
REMARK SMILES IDX 38 70 40 71 42 72 39 73 61 74 62 75 67 76 63 77 64 78 66 79
REMARK SMILES IDX 68 80 65 81 49 82 50 83 55 84 51 85 52 86 54 87 56 88 53 89
REMARK H PARENT 19 4 83 17 5 19 23 32 73 51 47 62
REMARK Flexibility Score: inf
ROOT
ATOM      1  C   UNL     1       0.925  -4.107   1.568  1.00  0.00     0.258 C 
ATOM      2  O   UNL     1      -0.192  -4.616   1.673  1.00  0.00    -0.271 OA
ATOM      3  N   UNL     1       1.670  -3.996   2.698  1.00  0.00    -0.353 N 
ATOM      4  H   UNL     1       1.248  -4.336   3.521  1.00  0.00     0.163 HD
ENDROOT
BRANCH   1   5
ATOM      5  C   UNL     1       1.514  -3.676   0.218  1.00  0.00     0.331 C 
BRANCH   5   6
ATOM      6  O   UNL     1       1.791  -2.322  -0.062  1.00  0.00    -0.467 OA
BRANCH   6   7
ATOM      7  C   UNL     1       0.866  -1.327  -0.024  1.00  0.00     0.222 A 
ATOM      8  C   UNL     1      -2.679  -0.047  -0.065  1.00  0.00     0.067 C 
ATOM      9  C   UNL     1      -1.190  -0.213   0.002  1.00  0.00     0.050 A 
ATOM     10  N   UNL     1      -0.553   0.954   0.203  1.00  0.00    -0.218 NA
ATOM     11  C   UNL     1      -0.510  -1.411  -0.214  1.00  0.00     0.038 A 
ATOM     12  C   UNL     1       0.776   0.977   0.178  1.00  0.00     0.230 A 
ATOM     13  N   UNL     1       1.505  -0.139   0.115  1.00  0.00    -0.177 NA
BRANCH  11  14
ATOM     14  C   UNL     1      -1.249  -2.621  -0.724  1.00  0.00     0.071 C 
BRANCH  14  15
ATOM     15  C   UNL     1      -1.056  -2.915  -2.217  1.00  0.00     0.161 C 
BRANCH  15  16
ATOM     16  O   UNL     1       0.303  -3.069  -2.597  1.00  0.00    -0.396 OA
ATOM     17  H   UNL     1       0.782  -2.243  -2.429  1.00  0.00     0.210 HD
ENDBRANCH  15  16
ENDBRANCH  14  15
ENDBRANCH  11  14
BRANCH  12  18
ATOM     18  N   UNL     1       1.428   2.209   0.078  1.00  0.00    -0.324 N 
ATOM     19  H   UNL     1       2.410   2.181   0.012  1.00  0.00     0.170 HD
BRANCH  18  20
ATOM     20  C   UNL     1       0.836   3.481   0.060  1.00  0.00     0.041 A 
ATOM     21  C   UNL     1      -0.124   3.844   1.019  1.00  0.00     0.029 A 
ATOM     22  C   UNL     1       1.083   4.364  -1.001  1.00  0.00     0.029 A 
ATOM     23  C   UNL     1      -0.815   5.055   0.930  1.00  0.00     0.041 A 
ATOM     24  C   UNL     1       0.377   5.569  -1.105  1.00  0.00     0.041 A 
ATOM     25  C   UNL     1      -0.565   5.902  -0.139  1.00  0.00     0.123 A 
ATOM     26  F   UNL     1      -1.252   7.046  -0.249  1.00  0.00    -0.207 F 
ENDBRANCH  18  20
ENDBRANCH  12  18
ENDBRANCH   6   7
ENDBRANCH   5   6
ENDBRANCH   1   5
BRANCH   3  27
ATOM     27  C   UNL     1       2.998  -3.448   2.858  1.00  0.00     0.117 C 
BRANCH  27  28
ATOM     28  C   UNL     1       2.968  -2.088   3.540  1.00  0.00     0.042 C 
BRANCH  28  29
ATOM     29  C   UNL     1       2.192  -2.070   4.854  1.00  0.00     0.118 C 
BRANCH  29  30
ATOM     30  N   UNL     1       2.635  -3.096   5.791  1.00  0.00    -0.352 N 
ATOM     31  C   UNL     1       3.245  -2.983   7.012  1.00  0.00     0.251 C 
ATOM     32  H   UNL     1       2.469  -4.021   5.498  1.00  0.00     0.163 HD
ATOM     33  O   UNL     1       3.720  -3.983   7.551  1.00  0.00    -0.269 OA
BRANCH  31  34
ATOM     34  C   UNL     1       3.354  -1.671   7.674  1.00  0.00     0.039 A 
ATOM     35  C   UNL     1       4.548  -1.333   8.314  1.00  0.00     0.014 A 
ATOM     36  C   UNL     1       2.277  -0.780   7.680  1.00  0.00     0.014 A 
ATOM     37  C   UNL     1       4.683  -0.077   8.903  1.00  0.00     0.010 A 
ATOM     38  C   UNL     1       2.446   0.505   8.182  1.00  0.00     0.010 A 
ATOM     39  C   UNL     1       3.646   0.867   8.809  1.00  0.00    -0.014 A 
BRANCH  39  40
ATOM     40  C   UNL     1       3.801   2.232   9.367  1.00  0.00     0.031 A 
ATOM     41  C   UNL     1       2.905   2.703  10.478  1.00  0.00     0.074 A 
ATOM     42  C   UNL     1       4.723   3.062   8.841  1.00  0.00     0.049 A 
ATOM     43  N   UNL     1       2.873   3.867  11.075  1.00  0.00    -0.248 NA
ATOM     44  C   UNL     1       1.892   1.752  10.967  1.00  0.00     0.031 C 
ATOM     45  C   UNL     1       5.615   2.736   7.727  1.00  0.00     0.029 A 
ATOM     46  N   UNL     1       5.065   4.348   9.175  1.00  0.00    -0.354 N 
ATOM     47  C   UNL     1       1.839   3.790  11.998  1.00  0.00     0.074 A 
ATOM     48  C   UNL     1       1.226   2.491  11.842  1.00  0.00     0.031 C 
ATOM     49  C   UNL     1       6.430   3.777   7.497  1.00  0.00     0.029 A 
ATOM     50  C   UNL     1       6.092   4.858   8.418  1.00  0.00     0.049 A 
ATOM     51  H   UNL     1       4.617   4.856   9.889  1.00  0.00     0.167 HD
ATOM     52  C   UNL     1       1.457   4.708  12.916  1.00  0.00     0.037 A 
ATOM     53  C   UNL     1       6.697   6.060   8.464  1.00  0.00     0.037 A 
ATOM     54  C   UNL     1       2.088   5.991  13.083  1.00  0.00     0.049 A 
ATOM     55  C   UNL     1       6.253   7.064   9.490  1.00  0.00     0.074 A 
ATOM     56  C   UNL     1       1.805   6.973  14.016  1.00  0.00     0.029 A 
ATOM     57  N   UNL     1       3.129   6.468  12.301  1.00  0.00    -0.354 N 
ATOM     58  N   UNL     1       5.311   6.957  10.396  1.00  0.00    -0.248 NA
ATOM     59  C   UNL     1       6.960   8.351   9.509  1.00  0.00     0.031 C 
ATOM     60  C   UNL     1       2.640   8.064  13.766  1.00  0.00     0.029 A 
ATOM     61  C   UNL     1       3.487   7.739  12.719  1.00  0.00     0.049 A 
ATOM     62  H   UNL     1       3.550   5.977  11.559  1.00  0.00     0.167 HD
ATOM     63  C   UNL     1       5.331   8.147  11.110  1.00  0.00     0.074 A 
ATOM     64  C   UNL     1       6.387   8.958  10.539  1.00  0.00     0.031 C 
ATOM     65  C   UNL     1       4.546   8.532  12.146  1.00  0.00     0.037 A 
BRANCH  52  66
ATOM     66  C   UNL     1       0.314   4.356  13.823  1.00  0.00     0.057 A 
ATOM     67  C   UNL     1      -0.905   5.043  13.742  1.00  0.00     0.134 A 
ATOM     68  C   UNL     1       0.438   3.380  14.821  1.00  0.00     0.134 A 
ATOM     69  F   UNL     1      -1.091   5.992  12.813  1.00  0.00    -0.206 F 
ATOM     70  C   UNL     1      -1.951   4.781  14.627  1.00  0.00     0.040 A 
ATOM     71  C   UNL     1      -0.612   3.089  15.694  1.00  0.00     0.040 A 
ATOM     72  F   UNL     1       1.573   2.676  14.946  1.00  0.00    -0.206 F 
ATOM     73  C   UNL     1      -1.808   3.799  15.605  1.00  0.00     0.006 A 
ENDBRANCH  52  66
BRANCH  53  74
ATOM     74  C   UNL     1       7.819   6.352   7.537  1.00  0.00     0.057 A 
ATOM     75  C   UNL     1       7.612   6.509   6.161  1.00  0.00     0.134 A 
ATOM     76  C   UNL     1       9.135   6.444   8.005  1.00  0.00     0.134 A 
ATOM     77  F   UNL     1       6.377   6.421   5.647  1.00  0.00    -0.206 F 
ATOM     78  C   UNL     1       8.674   6.729   5.282  1.00  0.00     0.040 A 
ATOM     79  C   UNL     1      10.204   6.689   7.141  1.00  0.00     0.040 A 
ATOM     80  F   UNL     1       9.395   6.318   9.314  1.00  0.00    -0.206 F 
ATOM     81  C   UNL     1       9.975   6.824   5.773  1.00  0.00     0.006 A 
ENDBRANCH  53  74
BRANCH  65  82
ATOM     82  C   UNL     1       4.814   9.875  12.761  1.00  0.00     0.057 A 
ATOM     83  C   UNL     1       5.330   9.971  14.061  1.00  0.00     0.134 A 
ATOM     84  C   UNL     1       4.497  11.069  12.102  1.00  0.00     0.134 A 
ATOM     85  F   UNL     1       5.644   8.865  14.753  1.00  0.00    -0.206 F 
ATOM     86  C   UNL     1       5.508  11.204  14.687  1.00  0.00     0.040 A 
ATOM     87  C   UNL     1       4.699  12.310  12.707  1.00  0.00     0.040 A 
ATOM     88  F   UNL     1       4.008  11.047  10.853  1.00  0.00    -0.206 F 
ATOM     89  C   UNL     1       5.197  12.380  14.007  1.00  0.00     0.006 A 
ENDBRANCH  65  82
ENDBRANCH  39  40
ENDBRANCH  31  34
ENDBRANCH  29  30
ENDBRANCH  28  29
ENDBRANCH  27  28
ENDBRANCH   3  27
TORSDOF 17
