REMARK SMILES CC1=C(C)C[C@@H](C(=O)NCCCNC(=O)c2ccc(-c3c4nc(c(-c5c(F)cccc5F)c5ccc([nH]5)c(-c5c(F)cccc5F)c5nc(c(-c6c(F)cccc6F)c6ccc3[nH]6)C=C5)C=C4)cc2)[C@@H](C(=O)N2CCN(c3cccc(C(F)(F)F)c3)CC2)C1
REMARK SMILES IDX 10 1 9 2 7 3 8 4 6 6 1 7 2 8 3 9 89 10 4 11 5 12 70 13 71 14
REMARK SMILES IDX 72 15 73 16 74 17 88 18 75 19 87 20 76 21 77 22 78 23 86 24
REMARK SMILES IDX 79 25 81 26 80 27 82 28 83 29 84 30 85 31 11 32 12 33 13 34
REMARK SMILES IDX 14 35 15 37 16 38 17 39 69 40 18 41 68 42 19 43 20 44 21 45
REMARK SMILES IDX 62 46 22 47 67 48 61 49 63 50 23 51 66 52 60 53 59 54 24 56
REMARK SMILES IDX 50 57 33 58 49 59 34 60 37 61 48 62 64 63 35 64 36 65 47 67
REMARK SMILES IDX 65 68 38 69 25 70 26 71 31 72 27 73 28 74 30 75 32 76 29 77
REMARK SMILES IDX 51 78 52 79 57 80 53 81 54 82 56 83 58 84 55 85 39 86 40 87
REMARK SMILES IDX 45 88 41 89 42 90 44 91 46 92 43 93
REMARK H PARENT 9 5 13 36 63 55 37 66
REMARK Flexibility Score: inf
ROOT
ATOM      1  C   UNL     1      -2.709   0.878  -1.606  1.00  0.00     0.117 C 
ENDROOT
BRANCH   1   2
ATOM      2  N   UNL     1      -2.808   1.791  -2.730  1.00  0.00    -0.356 N 
ATOM      3  C   UNL     1      -1.915   2.294  -3.610  1.00  0.00     0.224 C 
ATOM      4  O   UNL     1      -2.361   3.085  -4.453  1.00  0.00    -0.275 OA
ATOM      5  H   UNL     1      -3.725   2.112  -2.886  1.00  0.00     0.163 HD
BRANCH   3   6
ATOM      6  C   UNL     1      -0.420   1.986  -3.620  1.00  0.00     0.095 C 
ATOM      7  C   UNL     1       1.434   0.139  -0.047  1.00  0.00     0.039 C 
ATOM      8  C   UNL     1       0.963   0.653  -1.387  1.00  0.00    -0.074 C 
ATOM      9  C   UNL     1       0.469  -0.110  -2.381  1.00  0.00    -0.074 C 
ATOM     10  C   UNL     1       1.096   2.153  -1.509  1.00  0.00     0.045 C 
ATOM     11  C   UNL     1       0.353  -1.615  -2.348  1.00  0.00     0.039 C 
ATOM     12  C   UNL     1      -0.057   0.499  -3.659  1.00  0.00     0.045 C 
ATOM     13  C   UNL     1       0.439   2.869  -2.711  1.00  0.00     0.095 C 
BRANCH  13  14
ATOM     14  C   UNL     1      -0.286   4.111  -2.174  1.00  0.00     0.226 C 
ATOM     15  O   UNL     1      -0.979   4.047  -1.156  1.00  0.00    -0.275 OA
ATOM     16  N   UNL     1      -0.050   5.327  -2.773  1.00  0.00    -0.339 N 
ATOM     17  C   UNL     1      -0.252   6.538  -1.974  1.00  0.00     0.141 C 
ATOM     18  C   UNL     1       0.190   5.578  -4.201  1.00  0.00     0.141 C 
ATOM     19  C   UNL     1       0.982   7.441  -2.092  1.00  0.00     0.138 C 
ATOM     20  C   UNL     1       1.275   6.652  -4.460  1.00  0.00     0.138 C 
ATOM     21  N   UNL     1       1.202   7.767  -3.505  1.00  0.00    -0.368 N 
BRANCH  21  22
ATOM     22  C   UNL     1       1.178   9.092  -3.872  1.00  0.00     0.037 A 
ATOM     23  C   UNL     1       2.080   9.999  -3.298  1.00  0.00     0.026 A 
ATOM     24  C   UNL     1       0.202   9.595  -4.739  1.00  0.00     0.039 A 
ATOM     25  C   UNL     1       2.011  11.366  -3.568  1.00  0.00     0.003 A 
ATOM     26  C   UNL     1       0.095  10.974  -4.996  1.00  0.00     0.058 A 
ATOM     27  C   UNL     1       1.016  11.854  -4.408  1.00  0.00     0.013 A 
BRANCH  26  28
ATOM     28  C   UNL     1      -1.013  11.522  -5.858  1.00  0.00     0.416 C 
ATOM     29  F   UNL     1      -1.780  12.435  -5.199  1.00  0.00    -0.166 F 
ATOM     30  F   UNL     1      -0.544  12.161  -6.966  1.00  0.00    -0.166 F 
ATOM     31  F   UNL     1      -1.877  10.572  -6.313  1.00  0.00    -0.166 F 
ENDBRANCH  26  28
ENDBRANCH  21  22
ENDBRANCH  13  14
ENDBRANCH   3   6
ENDBRANCH   1   2
BRANCH   1  32
ATOM     32  C   UNL     1      -2.618   1.566  -0.248  1.00  0.00     0.042 C 
BRANCH  32  33
ATOM     33  C   UNL     1      -3.747   2.557   0.014  1.00  0.00     0.118 C 
BRANCH  33  34
ATOM     34  N   UNL     1      -5.009   1.861   0.234  1.00  0.00    -0.352 N 
ATOM     35  C   UNL     1      -5.818   1.877   1.341  1.00  0.00     0.251 C 
ATOM     36  H   UNL     1      -5.323   1.303  -0.514  1.00  0.00     0.163 HD
ATOM     37  O   UNL     1      -6.674   1.011   1.489  1.00  0.00    -0.269 OA
BRANCH  35  38
ATOM     38  C   UNL     1      -5.671   2.947   2.349  1.00  0.00     0.039 A 
ATOM     39  C   UNL     1      -5.737   2.615   3.705  1.00  0.00     0.014 A 
ATOM     40  C   UNL     1      -5.542   4.284   1.957  1.00  0.00     0.014 A 
ATOM     41  C   UNL     1      -5.654   3.621   4.670  1.00  0.00     0.010 A 
ATOM     42  C   UNL     1      -5.410   5.281   2.921  1.00  0.00     0.010 A 
ATOM     43  C   UNL     1      -5.483   4.961   4.285  1.00  0.00    -0.014 A 
BRANCH  43  44
ATOM     44  C   UNL     1      -5.419   6.044   5.296  1.00  0.00     0.031 A 
ATOM     45  C   UNL     1      -6.535   7.047   5.394  1.00  0.00     0.074 A 
ATOM     46  C   UNL     1      -4.339   6.153   6.091  1.00  0.00     0.049 A 
ATOM     47  N   UNL     1      -6.640   8.095   6.173  1.00  0.00    -0.248 NA
ATOM     48  C   UNL     1      -7.674   6.861   4.482  1.00  0.00     0.031 C 
ATOM     49  C   UNL     1      -3.176   5.266   6.065  1.00  0.00     0.029 A 
ATOM     50  N   UNL     1      -4.042   7.066   7.072  1.00  0.00    -0.354 N 
ATOM     51  C   UNL     1      -7.843   8.699   5.833  1.00  0.00     0.074 A 
ATOM     52  C   UNL     1      -8.414   7.927   4.750  1.00  0.00     0.031 C 
ATOM     53  C   UNL     1      -2.298   5.668   6.998  1.00  0.00     0.029 A 
ATOM     54  C   UNL     1      -2.823   6.855   7.667  1.00  0.00     0.049 A 
ATOM     55  H   UNL     1      -4.645   7.802   7.324  1.00  0.00     0.167 HD
ATOM     56  C   UNL     1      -8.429   9.788   6.385  1.00  0.00     0.037 A 
ATOM     57  C   UNL     1      -2.200   7.544   8.641  1.00  0.00     0.037 A 
ATOM     58  C   UNL     1      -7.876  10.538   7.481  1.00  0.00     0.049 A 
ATOM     59  C   UNL     1      -2.876   8.743   9.245  1.00  0.00     0.074 A 
ATOM     60  C   UNL     1      -8.421  11.620   8.150  1.00  0.00     0.029 A 
ATOM     61  N   UNL     1      -6.648  10.280   8.072  1.00  0.00    -0.354 N 
ATOM     62  N   UNL     1      -4.040   9.269   8.953  1.00  0.00    -0.248 NA
ATOM     63  C   UNL     1      -2.152   9.440  10.318  1.00  0.00     0.031 C 
ATOM     64  C   UNL     1      -7.509  12.037   9.126  1.00  0.00     0.029 A 
ATOM     65  C   UNL     1      -6.412  11.191   9.087  1.00  0.00     0.049 A 
ATOM     66  H   UNL     1      -6.036   9.556   7.808  1.00  0.00     0.167 HD
ATOM     67  C   UNL     1      -4.200  10.342   9.820  1.00  0.00     0.074 A 
ATOM     68  C   UNL     1      -3.019  10.384  10.657  1.00  0.00     0.031 C 
ATOM     69  C   UNL     1      -5.233  11.214   9.914  1.00  0.00     0.037 A 
BRANCH  56  70
ATOM     70  C   UNL     1      -9.745  10.228   5.814  1.00  0.00     0.057 A 
ATOM     71  C   UNL     1     -10.922   9.502   6.034  1.00  0.00     0.134 A 
ATOM     72  C   UNL     1      -9.841  11.405   5.062  1.00  0.00     0.134 A 
ATOM     73  F   UNL     1     -10.895   8.359   6.736  1.00  0.00    -0.206 F 
ATOM     74  C   UNL     1     -12.146   9.918   5.505  1.00  0.00     0.040 A 
ATOM     75  C   UNL     1     -11.063  11.844   4.549  1.00  0.00     0.040 A 
ATOM     76  F   UNL     1      -8.753  12.151   4.820  1.00  0.00    -0.206 F 
ATOM     77  C   UNL     1     -12.219  11.096   4.765  1.00  0.00     0.006 A 
ENDBRANCH  56  70
BRANCH  57  78
ATOM     78  C   UNL     1      -0.872   7.098   9.129  1.00  0.00     0.057 A 
ATOM     79  C   UNL     1      -0.731   6.505  10.388  1.00  0.00     0.134 A 
ATOM     80  C   UNL     1       0.283   7.256   8.354  1.00  0.00     0.134 A 
ATOM     81  F   UNL     1      -1.800   6.345  11.182  1.00  0.00    -0.206 F 
ATOM     82  C   UNL     1       0.514   6.097  10.868  1.00  0.00     0.040 A 
ATOM     83  C   UNL     1       1.531   6.834   8.813  1.00  0.00     0.040 A 
ATOM     84  F   UNL     1       0.211   7.814   7.137  1.00  0.00    -0.206 F 
ATOM     85  C   UNL     1       1.650   6.258  10.076  1.00  0.00     0.006 A 
ENDBRANCH  57  78
BRANCH  69  86
ATOM     86  C   UNL     1      -5.144  12.267  10.977  1.00  0.00     0.057 A 
ATOM     87  C   UNL     1      -4.298  13.375  10.845  1.00  0.00     0.134 A 
ATOM     88  C   UNL     1      -5.939  12.190  12.127  1.00  0.00     0.134 A 
ATOM     89  F   UNL     1      -3.502  13.499   9.772  1.00  0.00    -0.206 F 
ATOM     90  C   UNL     1      -4.233  14.362  11.830  1.00  0.00     0.040 A 
ATOM     91  C   UNL     1      -5.898  13.181  13.108  1.00  0.00     0.040 A 
ATOM     92  F   UNL     1      -6.774  11.156  12.309  1.00  0.00    -0.206 F 
ATOM     93  C   UNL     1      -5.040  14.268  12.963  1.00  0.00     0.006 A 
ENDBRANCH  69  86
ENDBRANCH  43  44
ENDBRANCH  35  38
ENDBRANCH  33  34
ENDBRANCH  32  33
ENDBRANCH   1  32
TORSDOF 13
