REMARK SMILES O=C(NCCCNC(=O)c1ccc(-c2c3nc(c(-c4c(F)cccc4F)c4ccc([nH]4)c(-c4c(F)cccc4F)c4nc(c(-c5c(F)cccc5F)c5ccc2[nH]5)C=C4)C=C3)cc1)C1=C[C@H]2C=C[C@@H]1[C@@H]1C=C[C@H]21
REMARK SMILES IDX 6 1 5 2 4 3 3 4 1 5 2 6 64 8 65 9 69 10 66 11 68 12 70 13
REMARK SMILES IDX 67 14 73 15 71 16 72 17 7 18 8 19 9 21 10 22 11 23 63 24
REMARK SMILES IDX 12 25 62 26 13 27 14 28 15 29 56 30 16 31 61 32 55 33 57 34
REMARK SMILES IDX 17 35 60 36 54 37 53 38 18 40 44 41 27 42 43 43 28 44 31 45
REMARK SMILES IDX 42 46 58 47 29 48 30 49 41 51 59 52 32 53 19 54 20 55 25 56
REMARK SMILES IDX 21 57 22 58 24 59 26 60 23 61 45 62 46 63 51 64 47 65 48 66
REMARK SMILES IDX 50 67 52 68 49 69 33 70 34 71 39 72 35 73 36 74 38 75 40 76
REMARK SMILES IDX 37 77
REMARK H PARENT 3 7 7 20 57 39 31 50
REMARK Flexibility Score: inf
ROOT
ATOM      1  C   UNL     1       5.088   1.426   3.057  1.00  0.00     0.118 C 
ENDROOT
BRANCH   1   2
ATOM      2  C   UNL     1       5.378   1.058   1.603  1.00  0.00     0.042 C 
BRANCH   2   3
ATOM      3  C   UNL     1       4.459  -0.011   1.017  1.00  0.00     0.118 C 
BRANCH   3   4
ATOM      4  N   UNL     1       3.063   0.386   1.045  1.00  0.00    -0.352 N 
ATOM      5  O   UNL     1       1.001   0.750   0.226  1.00  0.00    -0.270 OA
ATOM      6  C   UNL     1       2.190   0.537   0.014  1.00  0.00     0.247 C 
ATOM      7  H   UNL     1       2.696   0.573   1.939  1.00  0.00     0.163 HD
BRANCH   6   8
ATOM      8  C   UNL     1       2.683   0.400  -1.360  1.00  0.00     0.021 C 
ATOM      9  C   UNL     1       3.448   1.310  -2.007  1.00  0.00    -0.009 C 
ATOM     10  C   UNL     1       2.177  -0.757  -2.220  1.00  0.00     0.054 C 
ATOM     11  C   UNL     1       3.654   0.981  -3.492  1.00  0.00     0.042 C 
ATOM     12  C   UNL     1       3.402  -1.358  -2.918  1.00  0.00    -0.022 C 
ATOM     13  C   UNL     1       1.310  -0.041  -3.304  1.00  0.00     0.031 C 
ATOM     14  C   UNL     1       4.167  -0.457  -3.571  1.00  0.00    -0.022 C 
ATOM     15  C   UNL     1       2.200   1.000  -4.078  1.00  0.00     0.030 C 
ATOM     16  C   UNL     1       1.081  -0.689  -4.660  1.00  0.00    -0.026 C 
ATOM     17  C   UNL     1       1.851   0.197  -5.325  1.00  0.00    -0.026 C 
ENDBRANCH   6   8
ENDBRANCH   3   4
ENDBRANCH   2   3
ENDBRANCH   1   2
BRANCH   1  18
ATOM     18  N   UNL     1       5.297   0.326   3.985  1.00  0.00    -0.352 N 
ATOM     19  C   UNL     1       5.779   0.350   5.271  1.00  0.00     0.251 C 
ATOM     20  H   UNL     1       5.059  -0.565   3.642  1.00  0.00     0.163 HD
ATOM     21  O   UNL     1       5.981  -0.708   5.861  1.00  0.00    -0.269 OA
BRANCH  19  22
ATOM     22  C   UNL     1       6.089   1.632   5.945  1.00  0.00     0.039 A 
ATOM     23  C   UNL     1       7.267   1.719   6.695  1.00  0.00     0.014 A 
ATOM     24  C   UNL     1       5.220   2.725   5.888  1.00  0.00     0.014 A 
ATOM     25  C   UNL     1       7.599   2.911   7.343  1.00  0.00     0.010 A 
ATOM     26  C   UNL     1       5.573   3.931   6.498  1.00  0.00     0.010 A 
ATOM     27  C   UNL     1       6.763   4.033   7.233  1.00  0.00    -0.014 A 
BRANCH  27  28
ATOM     28  C   UNL     1       7.121   5.313   7.893  1.00  0.00     0.031 A 
ATOM     29  C   UNL     1       6.327   5.812   9.066  1.00  0.00     0.074 A 
ATOM     30  C   UNL     1       8.138   6.051   7.409  1.00  0.00     0.049 A 
ATOM     31  N   UNL     1       6.464   6.924   9.744  1.00  0.00    -0.248 NA
ATOM     32  C   UNL     1       5.219   4.961   9.524  1.00  0.00     0.031 C 
ATOM     33  C   UNL     1       8.961   5.703   6.249  1.00  0.00     0.029 A 
ATOM     34  N   UNL     1       8.648   7.253   7.831  1.00  0.00    -0.354 N 
ATOM     35  C   UNL     1       5.449   6.918  10.691  1.00  0.00     0.074 A 
ATOM     36  C   UNL     1       4.688   5.704  10.485  1.00  0.00     0.031 C 
ATOM     37  C   UNL     1       9.884   6.661   6.064  1.00  0.00     0.029 A 
ATOM     38  C   UNL     1       9.707   7.696   7.079  1.00  0.00     0.049 A 
ATOM     39  H   UNL     1       8.288   7.750   8.601  1.00  0.00     0.167 HD
ATOM     40  C   UNL     1       5.182   7.832  11.653  1.00  0.00     0.037 A 
ATOM     41  C   UNL     1      10.454   8.809   7.197  1.00  0.00     0.037 A 
ATOM     42  C   UNL     1       5.955   9.023  11.888  1.00  0.00     0.049 A 
ATOM     43  C   UNL     1      10.175   9.778   8.309  1.00  0.00     0.074 A 
ATOM     44  C   UNL     1       5.785   9.985  12.868  1.00  0.00     0.029 A 
ATOM     45  N   UNL     1       7.054   9.407  11.137  1.00  0.00    -0.354 N 
ATOM     46  N   UNL     1       9.238   9.736   9.223  1.00  0.00    -0.248 NA
ATOM     47  C   UNL     1      11.065  10.943   8.411  1.00  0.00     0.031 C 
ATOM     48  C   UNL     1       6.775  10.961  12.702  1.00  0.00     0.029 A 
ATOM     49  C   UNL     1       7.573  10.592  11.632  1.00  0.00     0.049 A 
ATOM     50  H   UNL     1       7.413   8.912  10.366  1.00  0.00     0.167 HD
ATOM     51  C   UNL     1       9.438  10.854  10.021  1.00  0.00     0.074 A 
ATOM     52  C   UNL     1      10.590  11.551   9.489  1.00  0.00     0.031 C 
ATOM     53  C   UNL     1       8.728  11.266  11.099  1.00  0.00     0.037 A 
BRANCH  40  54
ATOM     54  C   UNL     1       3.996   7.573  12.531  1.00  0.00     0.057 A 
ATOM     55  C   UNL     1       4.034   6.615  13.552  1.00  0.00     0.134 A 
ATOM     56  C   UNL     1       2.811   8.300  12.366  1.00  0.00     0.134 A 
ATOM     57  F   UNL     1       5.137   5.877  13.749  1.00  0.00    -0.206 F 
ATOM     58  C   UNL     1       2.927   6.376  14.366  1.00  0.00     0.040 A 
ATOM     59  C   UNL     1       1.704   8.082  13.186  1.00  0.00     0.040 A 
ATOM     60  F   UNL     1       2.713   9.233  11.406  1.00  0.00    -0.206 F 
ATOM     61  C   UNL     1       1.758   7.114  14.187  1.00  0.00     0.006 A 
ENDBRANCH  40  54
BRANCH  41  62
ATOM     62  C   UNL     1      11.573   9.047   6.256  1.00  0.00     0.057 A 
ATOM     63  C   UNL     1      12.898   8.838   6.651  1.00  0.00     0.134 A 
ATOM     64  C   UNL     1      11.345   9.489   4.949  1.00  0.00     0.134 A 
ATOM     65  F   UNL     1      13.174   8.432   7.899  1.00  0.00    -0.206 F 
ATOM     66  C   UNL     1      13.963   9.073   5.781  1.00  0.00     0.040 A 
ATOM     67  C   UNL     1      12.400   9.713   4.063  1.00  0.00     0.040 A 
ATOM     68  F   UNL     1      10.095   9.702   4.514  1.00  0.00    -0.206 F 
ATOM     69  C   UNL     1      13.714   9.509   4.481  1.00  0.00     0.006 A 
ENDBRANCH  41  62
BRANCH  53  70
ATOM     70  C   UNL     1       9.199  12.508  11.789  1.00  0.00     0.057 A 
ATOM     71  C   UNL     1       8.941  13.781  11.266  1.00  0.00     0.134 A 
ATOM     72  C   UNL     1       9.898  12.430  12.999  1.00  0.00     0.134 A 
ATOM     73  F   UNL     1       8.287  13.918  10.102  1.00  0.00    -0.206 F 
ATOM     74  C   UNL     1       9.378  14.935  11.916  1.00  0.00     0.040 A 
ATOM     75  C   UNL     1      10.327  13.578  13.666  1.00  0.00     0.040 A 
ATOM     76  F   UNL     1      10.174  11.239  13.550  1.00  0.00    -0.206 F 
ATOM     77  C   UNL     1      10.070  14.835  13.122  1.00  0.00     0.006 A 
ENDBRANCH  53  70
ENDBRANCH  27  28
ENDBRANCH  19  22
ENDBRANCH   1  18
TORSDOF 10
