REMARK SMILES C[C@](NC(=O)CSCc1cccs1)(C(=O)NCCCNC(=O)c1ccc(-c2c3nc(c(-c4c(F)cccc4F)c4ccc([nH]4)c(-c4c(F)cccc4F)c4nc(c(-c5c(F)cccc5F)c5ccc2[nH]5)C=C4)C=C3)cc1)C(F)(F)F
REMARK SMILES IDX 14 1 15 2 16 3 2 5 1 6 77 7 78 8 79 9 80 10 3 11 4 12 5 14
REMARK SMILES IDX 6 15 7 16 8 17 9 18 10 19 13 20 11 21 12 22 17 23 18 24
REMARK SMILES IDX 19 25 20 26 21 27 22 29 23 30 24 31 76 32 25 33 75 34 26 35
REMARK SMILES IDX 27 36 28 37 69 38 29 39 74 40 68 41 70 42 30 43 73 44 67 45
REMARK SMILES IDX 66 46 31 48 57 49 40 50 56 51 41 52 44 53 55 54 71 55 42 56
REMARK SMILES IDX 43 57 54 59 72 60 45 61 32 62 33 63 38 64 34 65 35 66 37 67
REMARK SMILES IDX 39 68 36 69 58 70 59 71 64 72 60 73 61 74 63 75 65 76 62 77
REMARK SMILES IDX 46 78 47 79 52 80 48 81 49 82 51 83 53 84 50 85
REMARK H PARENT 16 4 3 13 20 28 70 47 44 58
REMARK Flexibility Score: inf
ROOT
ATOM      1  C   UNL     1      -0.999  -1.054  -0.915  1.00  0.00     0.254 C 
ATOM      2  O   UNL     1      -1.708  -0.911  -1.911  1.00  0.00    -0.272 OA
ATOM      3  N   UNL     1      -1.658  -1.127   0.289  1.00  0.00    -0.354 N 
ATOM      4  H   UNL     1      -2.620  -0.924   0.239  1.00  0.00     0.163 HD
ENDROOT
BRANCH   1   5
ATOM      5  C   UNL     1       0.526  -1.290  -0.994  1.00  0.00     0.212 C 
ATOM      6  C   UNL     1       0.749  -2.796  -0.817  1.00  0.00     0.056 C 
BRANCH   5   7
ATOM      7  C   UNL     1       0.991  -0.886  -2.406  1.00  0.00     0.420 C 
ATOM      8  F   UNL     1       0.716   0.409  -2.682  1.00  0.00    -0.168 F 
ATOM      9  F   UNL     1       2.342  -1.019  -2.499  1.00  0.00    -0.168 F 
ATOM     10  F   UNL     1       0.463  -1.655  -3.381  1.00  0.00    -0.168 F 
ENDBRANCH   5   7
BRANCH   5  11
ATOM     11  N   UNL     1       1.120  -0.414   0.070  1.00  0.00    -0.334 N 
ATOM     12  C   UNL     1       2.310  -0.328   0.710  1.00  0.00     0.231 C 
ATOM     13  H   UNL     1       0.485   0.271   0.381  1.00  0.00     0.164 HD
ATOM     14  O   UNL     1       2.445   0.639   1.466  1.00  0.00    -0.274 OA
BRANCH  12  15
ATOM     15  C   UNL     1       3.406  -1.360   0.580  1.00  0.00     0.169 C 
BRANCH  15  16
ATOM     16  S   UNL     1       3.091  -2.892   1.518  1.00  0.00    -0.146 SA
BRANCH  16  17
ATOM     17  C   UNL     1       2.486  -2.259   3.116  1.00  0.00     0.116 C 
BRANCH  17  18
ATOM     18  C   UNL     1       3.603  -1.864   4.020  1.00  0.00     0.014 A 
ATOM     19  C   UNL     1       4.159  -0.613   4.200  1.00  0.00     0.016 A 
ATOM     20  S   UNL     1       4.334  -3.031   5.043  1.00  0.00    -0.148 S 
ATOM     21  C   UNL     1       5.210  -0.623   5.160  1.00  0.00     0.012 A 
ATOM     22  C   UNL     1       5.411  -1.876   5.694  1.00  0.00     0.065 A 
ENDBRANCH  17  18
ENDBRANCH  16  17
ENDBRANCH  15  16
ENDBRANCH  12  15
ENDBRANCH   5  11
ENDBRANCH   1   5
BRANCH   3  23
ATOM     23  C   UNL     1      -1.179  -1.454   1.625  1.00  0.00     0.117 C 
BRANCH  23  24
ATOM     24  C   UNL     1      -1.385  -0.311   2.611  1.00  0.00     0.042 C 
BRANCH  24  25
ATOM     25  C   UNL     1      -2.842  -0.104   3.006  1.00  0.00     0.118 C 
BRANCH  25  26
ATOM     26  N   UNL     1      -3.399  -1.254   3.705  1.00  0.00    -0.352 N 
ATOM     27  C   UNL     1      -4.063  -1.330   4.903  1.00  0.00     0.251 C 
ATOM     28  H   UNL     1      -3.280  -2.115   3.244  1.00  0.00     0.163 HD
ATOM     29  O   UNL     1      -4.290  -2.432   5.393  1.00  0.00    -0.269 OA
BRANCH  27  30
ATOM     30  C   UNL     1      -4.486  -0.105   5.615  1.00  0.00     0.039 A 
ATOM     31  C   UNL     1      -4.398  -0.082   7.010  1.00  0.00     0.014 A 
ATOM     32  C   UNL     1      -4.990   1.003   4.930  1.00  0.00     0.014 A 
ATOM     33  C   UNL     1      -4.761   1.071   7.707  1.00  0.00     0.010 A 
ATOM     34  C   UNL     1      -5.265   2.182   5.618  1.00  0.00     0.010 A 
ATOM     35  C   UNL     1      -5.161   2.226   7.014  1.00  0.00    -0.014 A 
BRANCH  35  36
ATOM     36  C   UNL     1      -5.458   3.483   7.747  1.00  0.00     0.031 A 
ATOM     37  C   UNL     1      -6.835   4.087   7.714  1.00  0.00     0.074 A 
ATOM     38  C   UNL     1      -4.466   4.101   8.418  1.00  0.00     0.049 A 
ATOM     39  N   UNL     1      -7.277   5.166   8.309  1.00  0.00    -0.248 NA
ATOM     40  C   UNL     1      -7.841   3.408   6.883  1.00  0.00     0.031 C 
ATOM     41  C   UNL     1      -3.072   3.654   8.468  1.00  0.00     0.029 A 
ATOM     42  N   UNL     1      -4.478   5.234   9.191  1.00  0.00    -0.354 N 
ATOM     43  C   UNL     1      -8.604   5.298   7.920  1.00  0.00     0.074 A 
ATOM     44  C   UNL     1      -8.878   4.226   6.988  1.00  0.00     0.031 C 
ATOM     45  C   UNL     1      -2.374   4.478   9.264  1.00  0.00     0.029 A 
ATOM     46  C   UNL     1      -3.260   5.528   9.754  1.00  0.00     0.049 A 
ATOM     47  H   UNL     1      -5.283   5.785   9.328  1.00  0.00     0.167 HD
ATOM     48  C   UNL     1      -9.520   6.212   8.323  1.00  0.00     0.037 A 
ATOM     49  C   UNL     1      -2.900   6.527  10.581  1.00  0.00     0.037 A 
ATOM     50  C   UNL     1      -9.248   7.268   9.264  1.00  0.00     0.049 A 
ATOM     51  C   UNL     1      -3.940   7.515  11.029  1.00  0.00     0.074 A 
ATOM     52  C   UNL     1     -10.120   8.211   9.779  1.00  0.00     0.029 A 
ATOM     53  N   UNL     1      -8.007   7.522   9.828  1.00  0.00    -0.354 N 
ATOM     54  N   UNL     1      -5.211   7.580  10.716  1.00  0.00    -0.248 NA
ATOM     55  C   UNL     1      -3.496   8.561  11.960  1.00  0.00     0.031 C 
ATOM     56  C   UNL     1      -9.397   9.063  10.621  1.00  0.00     0.029 A 
ATOM     57  C   UNL     1      -8.086   8.617  10.673  1.00  0.00     0.049 A 
ATOM     58  H   UNL     1      -7.190   7.001   9.655  1.00  0.00     0.167 HD
ATOM     59  C   UNL     1      -5.725   8.653  11.431  1.00  0.00     0.074 A 
ATOM     60  C   UNL     1      -4.632   9.195  12.211  1.00  0.00     0.031 C 
ATOM     61  C   UNL     1      -6.988   9.147  11.442  1.00  0.00     0.037 A 
BRANCH  48  62
ATOM     62  C   UNL     1     -10.905   6.103   7.750  1.00  0.00     0.057 A 
ATOM     63  C   UNL     1     -11.762   5.045   8.085  1.00  0.00     0.134 A 
ATOM     64  C   UNL     1     -11.401   7.082   6.881  1.00  0.00     0.134 A 
ATOM     65  F   UNL     1     -11.346   4.065   8.902  1.00  0.00    -0.206 F 
ATOM     66  C   UNL     1     -13.050   4.950   7.554  1.00  0.00     0.040 A 
ATOM     67  C   UNL     1     -12.698   7.014   6.367  1.00  0.00     0.040 A 
ATOM     68  F   UNL     1     -10.638   8.125   6.522  1.00  0.00    -0.206 F 
ATOM     69  C   UNL     1     -13.524   5.942   6.698  1.00  0.00     0.006 A 
ENDBRANCH  48  62
BRANCH  49  70
ATOM     70  C   UNL     1      -1.502   6.617  11.073  1.00  0.00     0.057 A 
ATOM     71  C   UNL     1      -1.191   6.364  12.415  1.00  0.00     0.134 A 
ATOM     72  C   UNL     1      -0.448   6.964  10.221  1.00  0.00     0.134 A 
ATOM     73  F   UNL     1      -2.161   6.043  13.284  1.00  0.00    -0.206 F 
ATOM     74  C   UNL     1       0.114   6.476  12.896  1.00  0.00     0.040 A 
ATOM     75  C   UNL     1       0.866   7.052  10.683  1.00  0.00     0.040 A 
ATOM     76  F   UNL     1      -0.678   7.207   8.922  1.00  0.00    -0.206 F 
ATOM     77  C   UNL     1       1.148   6.816  12.027  1.00  0.00     0.006 A 
ENDBRANCH  49  70
BRANCH  61  78
ATOM     78  C   UNL     1      -7.255  10.309  12.355  1.00  0.00     0.057 A 
ATOM     79  C   UNL     1      -6.730  11.584  12.107  1.00  0.00     0.134 A 
ATOM     80  C   UNL     1      -8.049  10.148  13.498  1.00  0.00     0.134 A 
ATOM     81  F   UNL     1      -5.952  11.803  11.037  1.00  0.00    -0.206 F 
ATOM     82  C   UNL     1      -6.951  12.647  12.985  1.00  0.00     0.040 A 
ATOM     83  C   UNL     1      -8.303  11.211  14.365  1.00  0.00     0.040 A 
ATOM     84  F   UNL     1      -8.593   8.957  13.789  1.00  0.00    -0.206 F 
ATOM     85  C   UNL     1      -7.743  12.462  14.116  1.00  0.00     0.006 A 
ENDBRANCH  61  78
ENDBRANCH  35  36
ENDBRANCH  27  30
ENDBRANCH  25  26
ENDBRANCH  24  25
ENDBRANCH  23  24
ENDBRANCH   3  23
TORSDOF 16
