REMARK SMILES CC[NH2+][C@@]1(C(=O)NCCCNC(=O)c2ccc(-c3c4nc(c(-c5c(F)cccc5F)c5ccc([nH]5)c(-c5c(F)cccc5F)c5nc(c(-c6c(F)cccc6F)c6ccc3[nH]6)C=C5)C=C4)cc2)CC[C@@H]([N@@H+](C)Cc2nccn2C)C1
REMARK SMILES IDX 8 1 7 2 5 3 6 4 4 6 68 7 80 8 69 9 70 10 3 11 2 14 1 15
REMARK SMILES IDX 71 16 72 17 73 19 74 20 75 21 78 22 76 23 77 24 79 25 9 26
REMARK SMILES IDX 10 27 11 28 12 29 13 31 14 32 15 33 67 34 16 35 66 36 17 37
REMARK SMILES IDX 18 38 19 39 60 40 20 41 65 42 59 43 61 44 21 45 64 46 58 47
REMARK SMILES IDX 57 48 22 50 48 51 31 52 47 53 32 54 35 55 46 56 62 57 33 58
REMARK SMILES IDX 34 59 45 61 63 62 36 63 23 64 24 65 29 66 25 67 26 68 28 69
REMARK SMILES IDX 30 70 27 71 49 72 50 73 55 74 51 75 52 76 54 77 56 78 53 79
REMARK SMILES IDX 37 80 38 81 43 82 39 83 40 84 42 85 44 86 41 87
REMARK H PARENT 7 5 3 12 3 13 71 18 11 30 61 49 35 60
REMARK Flexibility Score: inf
ROOT
ATOM      1  C   UNL     1       0.626   3.596   5.450  1.00  0.00     0.118 C 
ENDROOT
BRANCH   1   2
ATOM      2  N   UNL     1       1.087   2.397   4.816  1.00  0.00    -0.351 N 
ATOM      3  C   UNL     1       1.261   2.133   3.502  1.00  0.00     0.281 C 
ATOM      4  O   UNL     1       2.058   1.212   3.271  1.00  0.00    -0.268 OA
ATOM      5  H   UNL     1       1.310   1.658   5.427  1.00  0.00     0.163 HD
BRANCH   3   6
ATOM      6  C   UNL     1       0.591   2.954   2.322  1.00  0.00     0.181 C 
ATOM      7  C   UNL     1       1.175   4.381   2.280  1.00  0.00     0.085 C 
ATOM      8  C   UNL     1      -0.939   3.146   2.338  1.00  0.00     0.144 C 
ATOM      9  C   UNL     1       0.071   5.371   2.664  1.00  0.00     0.072 C 
ATOM     10  C   UNL     1      -1.246   4.591   2.759  1.00  0.00     0.191 C 
BRANCH   6  11
ATOM     11  N   UNL     1       0.983   2.243   1.050  1.00  0.00    -0.334 N 
ATOM     12  H   UNL     1       0.713   2.825   0.257  1.00  0.00     0.347 HD
ATOM     13  H   UNL     1       1.990   2.089   1.087  1.00  0.00     0.347 HD
BRANCH  11  14
ATOM     14  C   UNL     1       0.341   0.920   0.902  1.00  0.00     0.257 C 
ATOM     15  C   UNL     1       0.994   0.150  -0.235  1.00  0.00     0.071 C 
ENDBRANCH  11  14
ENDBRANCH   6  11
BRANCH  10  16
ATOM     16  N   UNL     1      -2.466   5.173   2.172  1.00  0.00    -0.328 N 
ATOM     17  C   UNL     1      -2.929   6.341   2.926  1.00  0.00     0.333 C 
ATOM     18  H   UNL     1      -3.128   4.403   2.270  1.00  0.00     0.348 HD
BRANCH  16  19
ATOM     19  C   UNL     1      -2.492   5.428   0.711  1.00  0.00     0.338 C 
BRANCH  19  20
ATOM     20  C   UNL     1      -1.490   6.421   0.187  1.00  0.00     0.164 A 
ATOM     21  N   UNL     1      -1.483   7.716   0.468  1.00  0.00    -0.236 NA
ATOM     22  N   UNL     1      -0.379   6.099  -0.567  1.00  0.00    -0.333 N 
ATOM     23  C   UNL     1      -0.290   8.203   0.005  1.00  0.00     0.131 A 
ATOM     24  C   UNL     1       0.421   7.213  -0.624  1.00  0.00     0.107 A 
ATOM     25  C   UNL     1      -0.011   4.820  -1.123  1.00  0.00     0.151 C 
ENDBRANCH  19  20
ENDBRANCH  16  19
ENDBRANCH  10  16
ENDBRANCH   3   6
ENDBRANCH   1   2
BRANCH   1  26
ATOM     26  C   UNL     1      -0.684   3.407   6.175  1.00  0.00     0.042 C 
BRANCH  26  27
ATOM     27  C   UNL     1      -0.438   2.970   7.599  1.00  0.00     0.118 C 
BRANCH  27  28
ATOM     28  N   UNL     1       0.269   4.001   8.361  1.00  0.00    -0.352 N 
ATOM     29  C   UNL     1      -0.110   4.662   9.501  1.00  0.00     0.251 C 
ATOM     30  H   UNL     1       1.148   4.258   8.000  1.00  0.00     0.163 HD
ATOM     31  O   UNL     1       0.489   5.659   9.869  1.00  0.00    -0.269 OA
BRANCH  29  32
ATOM     32  C   UNL     1      -1.259   4.145  10.261  1.00  0.00     0.039 A 
ATOM     33  C   UNL     1      -2.171   5.037  10.822  1.00  0.00     0.014 A 
ATOM     34  C   UNL     1      -1.441   2.766  10.378  1.00  0.00     0.014 A 
ATOM     35  C   UNL     1      -3.300   4.533  11.461  1.00  0.00     0.010 A 
ATOM     36  C   UNL     1      -2.634   2.276  10.867  1.00  0.00     0.010 A 
ATOM     37  C   UNL     1      -3.551   3.151  11.458  1.00  0.00    -0.014 A 
BRANCH  37  38
ATOM     38  C   UNL     1      -4.728   2.570  12.136  1.00  0.00     0.031 A 
ATOM     39  C   UNL     1      -4.516   1.583  13.252  1.00  0.00     0.074 A 
ATOM     40  C   UNL     1      -5.964   2.874  11.703  1.00  0.00     0.049 A 
ATOM     41  N   UNL     1      -5.398   0.891  13.923  1.00  0.00    -0.248 NA
ATOM     42  C   UNL     1      -3.120   1.296  13.629  1.00  0.00     0.031 C 
ATOM     43  C   UNL     1      -6.279   3.771  10.588  1.00  0.00     0.029 A 
ATOM     44  N   UNL     1      -7.188   2.459  12.153  1.00  0.00    -0.354 N 
ATOM     45  C   UNL     1      -4.662   0.077  14.775  1.00  0.00     0.074 A 
ATOM     46  C   UNL     1      -3.267   0.289  14.473  1.00  0.00     0.031 C 
ATOM     47  C   UNL     1      -7.612   3.879  10.476  1.00  0.00     0.029 A 
ATOM     48  C   UNL     1      -8.241   3.028  11.480  1.00  0.00     0.049 A 
ATOM     49  H   UNL     1      -7.303   1.815  12.889  1.00  0.00     0.167 HD
ATOM     50  C   UNL     1      -5.108  -0.741  15.756  1.00  0.00     0.037 A 
ATOM     51  C   UNL     1      -9.564   2.879  11.666  1.00  0.00     0.037 A 
ATOM     52  C   UNL     1      -6.499  -0.911  16.072  1.00  0.00     0.049 A 
ATOM     53  C   UNL     1     -10.039   1.968  12.764  1.00  0.00     0.074 A 
ATOM     54  C   UNL     1      -7.072  -1.668  17.076  1.00  0.00     0.029 A 
ATOM     55  N   UNL     1      -7.538  -0.302  15.380  1.00  0.00    -0.354 N 
ATOM     56  N   UNL     1      -9.336   1.252  13.609  1.00  0.00    -0.248 NA
ATOM     57  C   UNL     1     -11.492   1.852  12.939  1.00  0.00     0.031 C 
ATOM     58  C   UNL     1      -8.462  -1.552  16.964  1.00  0.00     0.029 A 
ATOM     59  C   UNL     1      -8.752  -0.680  15.926  1.00  0.00     0.049 A 
ATOM     60  H   UNL     1      -7.428   0.308  14.616  1.00  0.00     0.167 HD
ATOM     61  C   UNL     1     -10.257   0.627  14.438  1.00  0.00     0.074 A 
ATOM     62  C   UNL     1     -11.569   1.060  13.998  1.00  0.00     0.031 C 
ATOM     63  C   UNL     1     -10.042  -0.225  15.471  1.00  0.00     0.037 A 
BRANCH  50  64
ATOM     64  C   UNL     1      -4.074  -1.490  16.547  1.00  0.00     0.057 A 
ATOM     65  C   UNL     1      -3.166  -0.834  17.392  1.00  0.00     0.134 A 
ATOM     66  C   UNL     1      -3.969  -2.883  16.451  1.00  0.00     0.134 A 
ATOM     67  F   UNL     1      -3.196   0.502  17.516  1.00  0.00    -0.206 F 
ATOM     68  C   UNL     1      -2.165  -1.528  18.074  1.00  0.00     0.040 A 
ATOM     69  C   UNL     1      -2.995  -3.592  17.156  1.00  0.00     0.040 A 
ATOM     70  F   UNL     1      -4.804  -3.577  15.664  1.00  0.00    -0.206 F 
ATOM     71  C   UNL     1      -2.082  -2.914  17.960  1.00  0.00     0.006 A 
ENDBRANCH  50  64
BRANCH  51  72
ATOM     72  C   UNL     1     -10.521   3.651  10.837  1.00  0.00     0.057 A 
ATOM     73  C   UNL     1     -11.269   4.697  11.393  1.00  0.00     0.134 A 
ATOM     74  C   UNL     1     -10.704   3.381   9.476  1.00  0.00     0.134 A 
ATOM     75  F   UNL     1     -11.145   4.997  12.694  1.00  0.00    -0.206 F 
ATOM     76  C   UNL     1     -12.177   5.432  10.631  1.00  0.00     0.040 A 
ATOM     77  C   UNL     1     -11.591   4.125   8.696  1.00  0.00     0.040 A 
ATOM     78  F   UNL     1     -10.007   2.401   8.881  1.00  0.00    -0.206 F 
ATOM     79  C   UNL     1     -12.336   5.150   9.276  1.00  0.00     0.006 A 
ENDBRANCH  51  72
BRANCH  63  80
ATOM     80  C   UNL     1     -11.249  -0.705  16.220  1.00  0.00     0.057 A 
ATOM     81  C   UNL     1     -12.153  -1.619  15.664  1.00  0.00     0.134 A 
ATOM     82  C   UNL     1     -11.486  -0.274  17.532  1.00  0.00     0.134 A 
ATOM     83  F   UNL     1     -11.988  -2.060  14.408  1.00  0.00    -0.206 F 
ATOM     84  C   UNL     1     -13.267  -2.065  16.377  1.00  0.00     0.040 A 
ATOM     85  C   UNL     1     -12.578  -0.737  18.265  1.00  0.00     0.040 A 
ATOM     86  F   UNL     1     -10.651   0.591  18.127  1.00  0.00    -0.206 F 
ATOM     87  C   UNL     1     -13.477  -1.629  17.684  1.00  0.00     0.006 A 
ENDBRANCH  63  80
ENDBRANCH  37  38
ENDBRANCH  29  32
ENDBRANCH  27  28
ENDBRANCH  26  27
ENDBRANCH   1  26
TORSDOF 15
