REMARK SMILES Cc1nc(NC(=O)[C@@H]2CCC[C@@H](C(=O)NCCCNC(=O)c3ccc(-c4c5nc(c(-c6c(F)cccc6F)c6ccc([nH]6)c(-c6c(F)cccc6F)c6nc(c(-c7c(F)cccc7F)c7ccc4[nH]7)C=C6)C=C5)cc3)C2)ccc1Br
REMARK SMILES IDX 17 1 16 2 15 3 13 4 14 5 12 7 8 8 9 9 76 10 10 11 11 12 6 13
REMARK SMILES IDX 5 14 7 16 4 17 1 18 2 19 3 20 79 21 78 22 80 23 77 24 18 25
REMARK SMILES IDX 19 26 20 27 21 29 22 30 23 31 75 32 24 33 74 34 25 35 26 36
REMARK SMILES IDX 27 37 68 38 28 39 73 40 67 41 69 42 29 43 72 44 66 45 65 46
REMARK SMILES IDX 30 48 56 49 39 50 55 51 40 52 43 53 54 54 70 55 41 56 42 57
REMARK SMILES IDX 53 59 71 60 44 61 31 62 32 63 37 64 33 65 34 66 36 67 38 68
REMARK SMILES IDX 35 69 57 70 58 71 63 72 59 73 60 74 62 75 64 76 61 77 45 78
REMARK SMILES IDX 46 79 51 80 47 81 48 82 50 83 52 84 49 85
REMARK H PARENT 15 6 5 15 19 28 69 47 43 58
REMARK Flexibility Score: inf
ROOT
ATOM      1  C   UNL     1      -4.030  -7.384   7.966  1.00  0.00     0.042 C 
ENDROOT
BRANCH   1   2
ATOM      2  C   UNL     1      -3.119  -6.836   6.878  1.00  0.00     0.117 C 
BRANCH   2   3
ATOM      3  N   UNL     1      -3.518  -5.496   6.481  1.00  0.00    -0.356 N 
ATOM      4  C   UNL     1      -2.920  -4.300   6.740  1.00  0.00     0.223 C 
ATOM      5  O   UNL     1      -3.509  -3.274   6.403  1.00  0.00    -0.275 OA
ATOM      6  H   UNL     1      -4.342  -5.445   5.945  1.00  0.00     0.163 HD
BRANCH   4   7
ATOM      7  C   UNL     1      -1.521  -4.294   7.354  1.00  0.00     0.079 C 
ATOM      8  C   UNL     1      -0.318  -3.775   5.194  1.00  0.00     0.079 C 
ATOM      9  C   UNL     1       0.292  -2.520   5.824  1.00  0.00     0.013 C 
ATOM     10  C   UNL     1      -0.505  -4.809   6.314  1.00  0.00     0.027 C 
ATOM     11  C   UNL     1      -0.699  -1.904   6.806  1.00  0.00     0.002 C 
ATOM     12  C   UNL     1      -1.132  -2.901   7.885  1.00  0.00     0.013 C 
BRANCH   8  13
ATOM     13  C   UNL     1       0.488  -4.303   4.019  1.00  0.00     0.228 C 
ATOM     14  N   UNL     1       0.621  -3.578   2.873  1.00  0.00    -0.310 N 
ATOM     15  H   UNL     1       1.199  -4.021   2.211  1.00  0.00     0.171 HD
ATOM     16  O   UNL     1       1.059  -5.396   4.086  1.00  0.00    -0.274 OA
BRANCH  14  17
ATOM     17  C   UNL     1       0.127  -2.354   2.421  1.00  0.00     0.132 A 
ATOM     18  C   UNL     1       1.514  -0.101  -0.112  1.00  0.00     0.068 C 
ATOM     19  C   UNL     1       0.607  -0.569   0.986  1.00  0.00     0.054 A 
ATOM     20  N   UNL     1       0.869  -1.834   1.423  1.00  0.00    -0.235 NA
ATOM     21  C   UNL     1      -0.427   0.196   1.519  1.00  0.00     0.039 A 
ATOM     22  C   UNL     1      -1.238  -0.386   2.485  1.00  0.00     0.021 A 
ATOM     23  Br  UNL     1      -0.795   1.983   1.022  1.00  0.00    -0.049 Br
ATOM     24  C   UNL     1      -0.974  -1.683   2.923  1.00  0.00     0.048 A 
ENDBRANCH  14  17
ENDBRANCH   8  13
ENDBRANCH   4   7
ENDBRANCH   2   3
ENDBRANCH   1   2
BRANCH   1  25
ATOM     25  C   UNL     1      -5.487  -7.477   7.533  1.00  0.00     0.118 C 
BRANCH  25  26
ATOM     26  N   UNL     1      -5.690  -8.451   6.469  1.00  0.00    -0.352 N 
ATOM     27  C   UNL     1      -6.272  -9.695   6.529  1.00  0.00     0.251 C 
ATOM     28  H   UNL     1      -5.363  -8.180   5.580  1.00  0.00     0.163 HD
ATOM     29  O   UNL     1      -6.193 -10.470   5.587  1.00  0.00    -0.269 OA
BRANCH  27  30
ATOM     30  C   UNL     1      -6.975 -10.092   7.763  1.00  0.00     0.039 A 
ATOM     31  C   UNL     1      -6.651 -11.307   8.369  1.00  0.00     0.014 A 
ATOM     32  C   UNL     1      -7.930  -9.243   8.329  1.00  0.00     0.014 A 
ATOM     33  C   UNL     1      -7.238 -11.639   9.590  1.00  0.00     0.010 A 
ATOM     34  C   UNL     1      -8.454  -9.538   9.581  1.00  0.00     0.010 A 
ATOM     35  C   UNL     1      -8.120 -10.742  10.216  1.00  0.00    -0.014 A 
BRANCH  35  36
ATOM     36  C   UNL     1      -8.731 -11.067  11.525  1.00  0.00     0.031 A 
ATOM     37  C   UNL     1     -10.206 -11.332  11.612  1.00  0.00     0.074 A 
ATOM     38  C   UNL     1      -7.970 -11.077  12.635  1.00  0.00     0.049 A 
ATOM     39  N   UNL     1     -10.930 -11.645  12.656  1.00  0.00    -0.248 NA
ATOM     40  C   UNL     1     -10.974 -11.202  10.364  1.00  0.00     0.031 C 
ATOM     41  C   UNL     1      -6.536 -10.785  12.685  1.00  0.00     0.029 A 
ATOM     42  N   UNL     1      -8.301 -11.347  13.937  1.00  0.00    -0.354 N 
ATOM     43  C   UNL     1     -12.234 -11.747  12.191  1.00  0.00     0.074 A 
ATOM     44  C   UNL     1     -12.213 -11.397  10.787  1.00  0.00     0.031 C 
ATOM     45  C   UNL     1      -6.104 -10.927  13.949  1.00  0.00     0.029 A 
ATOM     46  C   UNL     1      -7.231 -11.299  14.797  1.00  0.00     0.049 A 
ATOM     47  H   UNL     1      -9.218 -11.555  14.229  1.00  0.00     0.167 HD
ATOM     48  C   UNL     1     -13.346 -12.127  12.863  1.00  0.00     0.037 A 
ATOM     49  C   UNL     1      -7.172 -11.546  16.118  1.00  0.00     0.037 A 
ATOM     50  C   UNL     1     -13.363 -12.488  14.254  1.00  0.00     0.049 A 
ATOM     51  C   UNL     1      -8.424 -11.949  16.846  1.00  0.00     0.074 A 
ATOM     52  C   UNL     1     -14.421 -12.950  15.016  1.00  0.00     0.029 A 
ATOM     53  N   UNL     1     -12.263 -12.420  15.096  1.00  0.00    -0.354 N 
ATOM     54  N   UNL     1      -9.635 -12.130  16.377  1.00  0.00    -0.248 NA
ATOM     55  C   UNL     1      -8.294 -12.191  18.290  1.00  0.00     0.031 C 
ATOM     56  C   UNL     1     -13.969 -13.126  16.330  1.00  0.00     0.029 A 
ATOM     57  C   UNL     1     -12.620 -12.809  16.376  1.00  0.00     0.049 A 
ATOM     58  H   UNL     1     -11.360 -12.137  14.823  1.00  0.00     0.167 HD
ATOM     59  C   UNL     1     -10.403 -12.541  17.458  1.00  0.00     0.074 A 
ATOM     60  C   UNL     1      -9.517 -12.591  18.604  1.00  0.00     0.031 C 
ATOM     61  C   UNL     1     -11.722 -12.854  17.501  1.00  0.00     0.037 A 
BRANCH  48  62
ATOM     62  C   UNL     1     -14.626 -12.166  12.083  1.00  0.00     0.057 A 
ATOM     63  C   UNL     1     -15.628 -11.213  12.301  1.00  0.00     0.134 A 
ATOM     64  C   UNL     1     -14.857 -13.132  11.093  1.00  0.00     0.134 A 
ATOM     65  F   UNL     1     -15.472 -10.261  13.232  1.00  0.00    -0.206 F 
ATOM     66  C   UNL     1     -16.808 -11.212  11.554  1.00  0.00     0.040 A 
ATOM     67  C   UNL     1     -16.020 -13.126  10.322  1.00  0.00     0.040 A 
ATOM     68  F   UNL     1     -13.928 -14.062  10.822  1.00  0.00    -0.206 F 
ATOM     69  C   UNL     1     -17.001 -12.164  10.554  1.00  0.00     0.006 A 
ENDBRANCH  48  62
BRANCH  49  70
ATOM     70  C   UNL     1      -5.876 -11.481  16.836  1.00  0.00     0.057 A 
ATOM     71  C   UNL     1      -5.253 -10.263  17.125  1.00  0.00     0.134 A 
ATOM     72  C   UNL     1      -5.247 -12.652  17.278  1.00  0.00     0.134 A 
ATOM     73  F   UNL     1      -5.803  -9.108  16.724  1.00  0.00    -0.206 F 
ATOM     74  C   UNL     1      -4.050 -10.210  17.832  1.00  0.00     0.040 A 
ATOM     75  C   UNL     1      -4.056 -12.612  18.003  1.00  0.00     0.040 A 
ATOM     76  F   UNL     1      -5.809 -13.847  17.046  1.00  0.00    -0.206 F 
ATOM     77  C   UNL     1      -3.453 -11.387  18.281  1.00  0.00     0.006 A 
ENDBRANCH  49  70
BRANCH  61  78
ATOM     78  C   UNL     1     -12.264 -13.310  18.823  1.00  0.00     0.057 A 
ATOM     79  C   UNL     1     -12.595 -14.655  19.030  1.00  0.00     0.134 A 
ATOM     80  C   UNL     1     -12.455 -12.423  19.890  1.00  0.00     0.134 A 
ATOM     81  F   UNL     1     -12.440 -15.555  18.047  1.00  0.00    -0.206 F 
ATOM     82  C   UNL     1     -13.090 -15.103  20.255  1.00  0.00     0.040 A 
ATOM     83  C   UNL     1     -12.925 -12.864  21.127  1.00  0.00     0.040 A 
ATOM     84  F   UNL     1     -12.141 -11.126  19.759  1.00  0.00    -0.206 F 
ATOM     85  C   UNL     1     -13.248 -14.208  21.311  1.00  0.00     0.006 A 
ENDBRANCH  61  78
ENDBRANCH  35  36
ENDBRANCH  27  30
ENDBRANCH  25  26
ENDBRANCH   1  25
TORSDOF 12
