REMARK SMILES O=C(NCCCNC(=O)c1cc(N2C(=O)[C@H]3[C@@H]4C=C[C@@H]([C@@H]5C[C@H]45)[C@@H]3C2=O)ccc1Cl)c1ccc(-c2c3nc(c(-c4c(F)cccc4F)c4ccc([nH]4)c(-c4c(F)cccc4F)c4nc(c(-c5c(F)cccc5F)c5ccc2[nH]5)C=C4)C=C3)cc1
REMARK SMILES IDX 4 1 3 2 1 3 2 4 31 6 32 7 84 8 33 9 83 10 34 11 35 12 36 13
REMARK SMILES IDX 77 14 37 15 82 16 76 17 78 18 38 19 81 20 75 21 74 22 39 24
REMARK SMILES IDX 65 25 48 26 64 27 49 28 52 29 63 30 79 31 50 32 51 33 62 35
REMARK SMILES IDX 80 36 53 37 40 38 41 39 46 40 42 41 43 42 45 43 47 44 44 45
REMARK SMILES IDX 66 46 67 47 72 48 68 49 69 50 71 51 73 52 70 53 54 54 55 55
REMARK SMILES IDX 60 56 56 57 57 58 59 59 61 60 58 61 5 62 6 63 7 64 8 65 9 67
REMARK SMILES IDX 10 68 11 69 29 70 12 71 28 72 30 73 27 74 13 75 14 76 25 77
REMARK SMILES IDX 15 78 16 79 24 80 26 81 17 82 20 83 18 84 23 85 19 86 21 87
REMARK SMILES IDX 22 88
REMARK H PARENT 3 5 78 23 52 34 7 66
REMARK Flexibility Score: inf
ROOT
ATOM      1  C   UNL     1       4.559   1.262   0.307  1.00  0.00     0.118 C 
ENDROOT
BRANCH   1   2
ATOM      2  N   UNL     1       3.120   1.029   0.328  1.00  0.00    -0.352 N 
ATOM      3  O   UNL     1       1.173  -0.014  -0.134  1.00  0.00    -0.269 OA
ATOM      4  C   UNL     1       2.397  -0.073  -0.062  1.00  0.00     0.251 C 
ATOM      5  H   UNL     1       2.583   1.777   0.676  1.00  0.00     0.163 HD
BRANCH   4   6
ATOM      6  C   UNL     1       3.098  -1.324  -0.416  1.00  0.00     0.039 A 
ATOM      7  C   UNL     1       4.179  -1.764   0.348  1.00  0.00     0.014 A 
ATOM      8  C   UNL     1       2.670  -2.070  -1.517  1.00  0.00     0.014 A 
ATOM      9  C   UNL     1       4.943  -2.833  -0.090  1.00  0.00     0.010 A 
ATOM     10  C   UNL     1       3.365  -3.227  -1.883  1.00  0.00     0.010 A 
ATOM     11  C   UNL     1       4.523  -3.602  -1.187  1.00  0.00    -0.014 A 
BRANCH  11  12
ATOM     12  C   UNL     1       5.261  -4.851  -1.500  1.00  0.00     0.031 A 
ATOM     13  C   UNL     1       5.963  -5.043  -2.814  1.00  0.00     0.074 A 
ATOM     14  C   UNL     1       5.312  -5.807  -0.552  1.00  0.00     0.049 A 
ATOM     15  N   UNL     1       6.655  -6.074  -3.229  1.00  0.00    -0.248 NA
ATOM     16  C   UNL     1       5.875  -3.947  -3.792  1.00  0.00     0.031 C 
ATOM     17  C   UNL     1       4.655  -5.731   0.758  1.00  0.00     0.029 A 
ATOM     18  N   UNL     1       5.954  -7.018  -0.526  1.00  0.00    -0.354 N 
ATOM     19  C   UNL     1       7.069  -5.763  -4.518  1.00  0.00     0.074 A 
ATOM     20  C   UNL     1       6.533  -4.455  -4.827  1.00  0.00     0.031 C 
ATOM     21  C   UNL     1       4.970  -6.817   1.475  1.00  0.00     0.029 A 
ATOM     22  C   UNL     1       5.776  -7.705   0.650  1.00  0.00     0.049 A 
ATOM     23  H   UNL     1       6.490  -7.361  -1.277  1.00  0.00     0.167 HD
ATOM     24  C   UNL     1       7.828  -6.506  -5.358  1.00  0.00     0.037 A 
ATOM     25  C   UNL     1       6.188  -8.932   1.016  1.00  0.00     0.037 A 
ATOM     26  C   UNL     1       8.368  -7.802  -5.031  1.00  0.00     0.049 A 
ATOM     27  C   UNL     1       6.996  -9.740   0.045  1.00  0.00     0.074 A 
ATOM     28  C   UNL     1       9.186  -8.612  -5.800  1.00  0.00     0.029 A 
ATOM     29  N   UNL     1       8.139  -8.480  -3.843  1.00  0.00    -0.354 N 
ATOM     30  N   UNL     1       7.416  -9.414  -1.153  1.00  0.00    -0.248 NA
ATOM     31  C   UNL     1       7.382 -11.090   0.474  1.00  0.00     0.031 C 
ATOM     32  C   UNL     1       9.403  -9.805  -5.103  1.00  0.00     0.029 A 
ATOM     33  C   UNL     1       8.773  -9.713  -3.873  1.00  0.00     0.049 A 
ATOM     34  H   UNL     1       7.606  -8.137  -3.090  1.00  0.00     0.167 HD
ATOM     35  C   UNL     1       8.133 -10.508  -1.613  1.00  0.00     0.074 A 
ATOM     36  C   UNL     1       8.113 -11.496  -0.553  1.00  0.00     0.031 C 
ATOM     37  C   UNL     1       8.748 -10.682  -2.807  1.00  0.00     0.037 A 
BRANCH  24  38
ATOM     38  C   UNL     1       8.115  -5.956  -6.726  1.00  0.00     0.057 A 
ATOM     39  C   UNL     1       9.005  -4.895  -6.930  1.00  0.00     0.134 A 
ATOM     40  C   UNL     1       7.561  -6.559  -7.864  1.00  0.00     0.134 A 
ATOM     41  F   UNL     1       9.565  -4.267  -5.885  1.00  0.00    -0.206 F 
ATOM     42  C   UNL     1       9.328  -4.448  -8.213  1.00  0.00     0.040 A 
ATOM     43  C   UNL     1       7.894  -6.138  -9.152  1.00  0.00     0.040 A 
ATOM     44  F   UNL     1       6.707  -7.587  -7.742  1.00  0.00    -0.206 F 
ATOM     45  C   UNL     1       8.780  -5.078  -9.329  1.00  0.00     0.006 A 
ENDBRANCH  24  38
BRANCH  25  46
ATOM     46  C   UNL     1       5.812  -9.480   2.344  1.00  0.00     0.057 A 
ATOM     47  C   UNL     1       6.777  -9.746   3.322  1.00  0.00     0.134 A 
ATOM     48  C   UNL     1       4.478  -9.770   2.659  1.00  0.00     0.134 A 
ATOM     49  F   UNL     1       8.073  -9.502   3.076  1.00  0.00    -0.206 F 
ATOM     50  C   UNL     1       6.434 -10.309   4.552  1.00  0.00     0.040 A 
ATOM     51  C   UNL     1       4.117 -10.300   3.897  1.00  0.00     0.040 A 
ATOM     52  F   UNL     1       3.503  -9.528   1.770  1.00  0.00    -0.206 F 
ATOM     53  C   UNL     1       5.099 -10.584   4.843  1.00  0.00     0.006 A 
ENDBRANCH  25  46
BRANCH  37  54
ATOM     54  C   UNL     1       9.479 -11.977  -3.012  1.00  0.00     0.057 A 
ATOM     55  C   UNL     1       8.802 -13.193  -3.168  1.00  0.00     0.134 A 
ATOM     56  C   UNL     1      10.878 -12.002  -3.070  1.00  0.00     0.134 A 
ATOM     57  F   UNL     1       7.462 -13.239  -3.106  1.00  0.00    -0.206 F 
ATOM     58  C   UNL     1       9.492 -14.393  -3.345  1.00  0.00     0.040 A 
ATOM     59  C   UNL     1      11.577 -13.191  -3.278  1.00  0.00     0.040 A 
ATOM     60  F   UNL     1      11.587 -10.871  -2.935  1.00  0.00    -0.206 F 
ATOM     61  C   UNL     1      10.884 -14.393  -3.408  1.00  0.00     0.006 A 
ENDBRANCH  37  54
ENDBRANCH  11  12
ENDBRANCH   4   6
ENDBRANCH   1   2
BRANCH   1  62
ATOM     62  C   UNL     1       4.973   2.317  -0.704  1.00  0.00     0.042 C 
BRANCH  62  63
ATOM     63  C   UNL     1       4.425   3.697  -0.394  1.00  0.00     0.118 C 
BRANCH  63  64
ATOM     64  N   UNL     1       4.882   4.192   0.895  1.00  0.00    -0.352 N 
ATOM     65  C   UNL     1       5.635   5.299   1.178  1.00  0.00     0.252 C 
ATOM     66  H   UNL     1       4.612   3.654   1.674  1.00  0.00     0.163 HD
ATOM     67  O   UNL     1       6.029   5.510   2.321  1.00  0.00    -0.269 OA
BRANCH  65  68
ATOM     68  C   UNL     1       6.026   6.217   0.099  1.00  0.00     0.060 A 
ATOM     69  C   UNL     1       7.403   6.392  -0.112  1.00  0.00     0.042 A 
ATOM     70  C   UNL     1       5.089   6.928  -0.662  1.00  0.00     0.053 A 
ATOM     71  C   UNL     1       7.842   7.296  -1.078  1.00  0.00     0.053 A 
ATOM     72  C   UNL     1       5.532   7.762  -1.685  1.00  0.00     0.023 A 
ATOM     73  Cl  UNL     1       3.385   6.857  -0.385  1.00  0.00    -0.083 Cl
ATOM     74  C   UNL     1       6.899   7.961  -1.876  1.00  0.00     0.028 A 
BRANCH  71  75
ATOM     75  N   UNL     1       9.212   7.493  -1.330  1.00  0.00    -0.250 N 
ATOM     76  C   UNL     1      10.103   6.432  -1.567  1.00  0.00     0.238 C 
ATOM     77  C   UNL     1       9.743   8.737  -1.731  1.00  0.00     0.238 C 
ATOM     78  O   UNL     1       9.917   5.229  -1.517  1.00  0.00    -0.274 OA
ATOM     79  C   UNL     1      11.382   7.118  -1.927  1.00  0.00     0.100 C 
ATOM     80  C   UNL     1      10.802   8.317  -2.681  1.00  0.00     0.100 C 
ATOM     81  O   UNL     1       9.333   9.865  -1.540  1.00  0.00    -0.274 OA
ATOM     82  C   UNL     1      12.602   6.582  -2.695  1.00  0.00     0.028 C 
ATOM     83  C   UNL     1      11.897   8.984  -3.496  1.00  0.00     0.028 C 
ATOM     84  C   UNL     1      13.629   7.694  -2.371  1.00  0.00    -0.026 C 
ATOM     85  C   UNL     1      12.484   6.612  -4.231  1.00  0.00     0.001 C 
ATOM     86  C   UNL     1      13.230   8.936  -2.733  1.00  0.00    -0.026 C 
ATOM     87  C   UNL     1      12.085   8.014  -4.721  1.00  0.00     0.001 C 
ATOM     88  C   UNL     1      11.246   6.779  -5.062  1.00  0.00     0.009 C 
ENDBRANCH  71  75
ENDBRANCH  65  68
ENDBRANCH  63  64
ENDBRANCH  62  63
ENDBRANCH   1  62
TORSDOF 11
