REMARK SMILES CC(=O)Nc1ccc(N2CCCCCC2)c(C(=O)NCCCNC(=O)c2ccc(-c3c4nc(c(-c5c(F)cccc5F)c5ccc([nH]5)c(-c5c(F)cccc5F)c5nc(c(-c6c(F)cccc6F)c6ccc3[nH]6)C=C5)C=C4)cc2)c1
REMARK SMILES IDX 20 1 19 2 17 3 18 4 16 6 5 7 6 8 80 9 7 10 8 11 4 12 1 13
REMARK SMILES IDX 2 14 3 15 9 17 10 18 11 19 12 20 15 22 14 23 13 24 21 26
REMARK SMILES IDX 22 27 23 28 24 29 25 31 26 32 27 33 79 34 28 35 78 36 29 37
REMARK SMILES IDX 30 38 31 39 72 40 32 41 77 42 71 43 73 44 33 45 76 46 70 47
REMARK SMILES IDX 69 48 34 50 60 51 43 52 59 53 44 54 47 55 58 56 74 57 45 58
REMARK SMILES IDX 46 59 57 61 75 62 48 63 35 64 36 65 41 66 37 67 38 68 40 69
REMARK SMILES IDX 42 70 39 71 61 72 62 73 67 74 63 75 64 76 66 77 68 78 65 79
REMARK SMILES IDX 49 80 50 81 55 82 51 83 52 84 54 85 56 86 53 87
REMARK H PARENT 19 5 4 16 23 30 73 49 47 60
REMARK Flexibility Score: 90.00
ROOT
ATOM      1  C   UNL     1       4.326   0.443  -0.531  1.00  0.00     0.118 C 
ENDROOT
BRANCH   1   2
ATOM      2  N   UNL     1       4.975  -0.298  -1.594  1.00  0.00    -0.352 N 
ATOM      3  C   UNL     1       4.614  -1.334  -2.426  1.00  0.00     0.253 C 
ATOM      4  O   UNL     1       5.277  -1.352  -3.466  1.00  0.00    -0.269 OA
ATOM      5  H   UNL     1       5.894   0.013  -1.760  1.00  0.00     0.163 HD
BRANCH   3   6
ATOM      6  C   UNL     1       3.522  -2.350  -2.167  1.00  0.00     0.065 A 
ATOM      7  C   UNL     1       1.496  -3.002  -0.917  1.00  0.00     0.042 A 
ATOM      8  C   UNL     1       1.321  -4.096  -1.745  1.00  0.00     0.028 A 
ATOM      9  C   UNL     1       2.625  -2.194  -1.090  1.00  0.00     0.042 A 
ATOM     10  C   UNL     1       2.225  -4.322  -2.777  1.00  0.00     0.029 A 
ATOM     11  C   UNL     1       3.325  -3.469  -3.027  1.00  0.00     0.050 A 
BRANCH   7  12
ATOM     12  N   UNL     1       0.540  -2.791   0.088  1.00  0.00    -0.326 N 
ATOM     13  C   UNL     1       0.482  -0.298   0.127  1.00  0.00     0.114 C 
ATOM     14  C   UNL     1       0.121  -1.643   0.699  1.00  0.00     0.221 C 
ATOM     15  O   UNL     1      -0.610  -1.724   1.689  1.00  0.00    -0.275 OA
ATOM     16  H   UNL     1       0.095  -3.609   0.407  1.00  0.00     0.169 HD
ENDBRANCH   7  12
BRANCH  11  17
ATOM     17  N   UNL     1       4.129  -3.841  -4.105  1.00  0.00    -0.371 N 
BRANCH  17  18
ATOM     18  C   UNL     1       3.651  -3.531  -5.449  1.00  0.00     0.116 C 
BRANCH  18  19
ATOM     19  C   UNL     1       3.165  -4.795  -6.165  1.00  0.00     0.021 C 
BRANCH  19  20
ATOM     20  C   UNL     1       4.266  -5.758  -6.606  1.00  0.00     0.002 CG0
ATOM     21  G   UNL     1       5.236  -6.197  -5.509  1.00  0.00     0.000 G0
ENDBRANCH  19  20
ENDBRANCH  18  19
ENDBRANCH  17  18
BRANCH  17  22
ATOM     22  C   UNL     1       5.508  -4.255  -3.862  1.00  0.00     0.116 C 
BRANCH  22  23
ATOM     23  C   UNL     1       6.119  -5.055  -5.013  1.00  0.00     0.021 C 
BRANCH  23  24
ATOM     24  C   UNL     1       5.236  -6.197  -5.509  1.00  0.00     0.002 CG0
ATOM     25  G   UNL     1       4.266  -5.758  -6.606  1.00  0.00     0.000 G0
ENDBRANCH  23  24
ENDBRANCH  22  23
ENDBRANCH  17  22
ENDBRANCH  11  17
ENDBRANCH   3   6
ENDBRANCH   1   2
BRANCH   1  26
ATOM     26  C   UNL     1       4.836   0.068   0.858  1.00  0.00     0.042 C 
BRANCH  26  27
ATOM     27  C   UNL     1       6.195   0.691   1.191  1.00  0.00     0.118 C 
BRANCH  27  28
ATOM     28  N   UNL     1       6.139   2.149   1.200  1.00  0.00    -0.352 N 
ATOM     29  C   UNL     1       6.332   3.054   2.210  1.00  0.00     0.251 C 
ATOM     30  H   UNL     1       5.924   2.553   0.328  1.00  0.00     0.163 HD
ATOM     31  O   UNL     1       5.964   4.213   2.052  1.00  0.00    -0.269 OA
BRANCH  29  32
ATOM     32  C   UNL     1       6.992   2.663   3.474  1.00  0.00     0.039 A 
ATOM     33  C   UNL     1       6.570   3.264   4.665  1.00  0.00     0.014 A 
ATOM     34  C   UNL     1       8.080   1.787   3.483  1.00  0.00     0.014 A 
ATOM     35  C   UNL     1       7.214   2.960   5.865  1.00  0.00     0.010 A 
ATOM     36  C   UNL     1       8.676   1.429   4.690  1.00  0.00     0.010 A 
ATOM     37  C   UNL     1       8.259   2.024   5.890  1.00  0.00    -0.014 A 
BRANCH  37  38
ATOM     38  C   UNL     1       8.940   1.670   7.159  1.00  0.00     0.031 A 
ATOM     39  C   UNL     1      10.396   1.996   7.355  1.00  0.00     0.074 A 
ATOM     40  C   UNL     1       8.262   0.999   8.110  1.00  0.00     0.049 A 
ATOM     41  N   UNL     1      11.180   1.708   8.363  1.00  0.00    -0.248 NA
ATOM     42  C   UNL     1      11.068   2.713   6.260  1.00  0.00     0.031 C 
ATOM     43  C   UNL     1       6.862   0.579   8.012  1.00  0.00     0.029 A 
ATOM     44  N   UNL     1       8.660   0.544   9.340  1.00  0.00    -0.354 N 
ATOM     45  C   UNL     1      12.437   2.186   8.014  1.00  0.00     0.074 A 
ATOM     46  C   UNL     1      12.323   2.741   6.683  1.00  0.00     0.031 C 
ATOM     47  C   UNL     1       6.513  -0.052   9.144  1.00  0.00     0.029 A 
ATOM     48  C   UNL     1       7.670  -0.109  10.032  1.00  0.00     0.049 A 
ATOM     49  H   UNL     1       9.570   0.674   9.694  1.00  0.00     0.167 HD
ATOM     50  C   UNL     1      13.576   2.182   8.745  1.00  0.00     0.037 A 
ATOM     51  C   UNL     1       7.694  -0.690  11.245  1.00  0.00     0.037 A 
ATOM     52  C   UNL     1      13.674   1.665  10.084  1.00  0.00     0.049 A 
ATOM     53  C   UNL     1       8.962  -0.650  12.050  1.00  0.00     0.074 A 
ATOM     54  C   UNL     1      14.764   1.676  10.938  1.00  0.00     0.029 A 
ATOM     55  N   UNL     1      12.637   1.045  10.767  1.00  0.00    -0.354 N 
ATOM     56  N   UNL     1      10.125  -0.136  11.734  1.00  0.00    -0.248 NA
ATOM     57  C   UNL     1       8.917  -1.263  13.385  1.00  0.00     0.031 C 
ATOM     58  C   UNL     1      14.396   1.034  12.125  1.00  0.00     0.029 A 
ATOM     59  C   UNL     1      13.066   0.658  12.026  1.00  0.00     0.049 A 
ATOM     60  H   UNL     1      11.732   0.902  10.409  1.00  0.00     0.167 HD
ATOM     61  C   UNL     1      10.944  -0.340  12.837  1.00  0.00     0.074 A 
ATOM     62  C   UNL     1      10.138  -1.011  13.836  1.00  0.00     0.031 C 
ATOM     63  C   UNL     1      12.246  -0.004  13.007  1.00  0.00     0.037 A 
BRANCH  50  64
ATOM     64  C   UNL     1      14.808   2.764   8.113  1.00  0.00     0.057 A 
ATOM     65  C   UNL     1      14.947   4.141   7.896  1.00  0.00     0.134 A 
ATOM     66  C   UNL     1      15.881   1.942   7.746  1.00  0.00     0.134 A 
ATOM     67  F   UNL     1      13.952   4.983   8.214  1.00  0.00    -0.206 F 
ATOM     68  C   UNL     1      16.097   4.677   7.313  1.00  0.00     0.040 A 
ATOM     69  C   UNL     1      17.046   2.468   7.185  1.00  0.00     0.040 A 
ATOM     70  F   UNL     1      15.817   0.614   7.931  1.00  0.00    -0.206 F 
ATOM     71  C   UNL     1      17.153   3.839   6.961  1.00  0.00     0.006 A 
ENDBRANCH  50  64
BRANCH  51  72
ATOM     72  C   UNL     1       6.468  -1.328  11.785  1.00  0.00     0.057 A 
ATOM     73  C   UNL     1       5.756  -0.744  12.839  1.00  0.00     0.134 A 
ATOM     74  C   UNL     1       5.978  -2.531  11.263  1.00  0.00     0.134 A 
ATOM     75  F   UNL     1       6.187   0.400  13.391  1.00  0.00    -0.206 F 
ATOM     76  C   UNL     1       4.611  -1.340  13.367  1.00  0.00     0.040 A 
ATOM     77  C   UNL     1       4.820  -3.127  11.765  1.00  0.00     0.040 A 
ATOM     78  F   UNL     1       6.610  -3.135  10.246  1.00  0.00    -0.206 F 
ATOM     79  C   UNL     1       4.137  -2.534  12.826  1.00  0.00     0.006 A 
ENDBRANCH  51  72
BRANCH  63  80
ATOM     80  C   UNL     1      12.866  -0.333  14.332  1.00  0.00     0.057 A 
ATOM     81  C   UNL     1      13.193  -1.647  14.687  1.00  0.00     0.134 A 
ATOM     82  C   UNL     1      13.165   0.682  15.250  1.00  0.00     0.134 A 
ATOM     83  F   UNL     1      12.919  -2.664  13.856  1.00  0.00    -0.206 F 
ATOM     84  C   UNL     1      13.776  -1.944  15.920  1.00  0.00     0.040 A 
ATOM     85  C   UNL     1      13.769   0.400  16.475  1.00  0.00     0.040 A 
ATOM     86  F   UNL     1      12.883   1.962  14.966  1.00  0.00    -0.206 F 
ATOM     87  C   UNL     1      14.071  -0.917  16.815  1.00  0.00     0.006 A 
ENDBRANCH  63  80
ENDBRANCH  37  38
ENDBRANCH  29  32
ENDBRANCH  27  28
ENDBRANCH  26  27
ENDBRANCH   1  26
TORSDOF 12
