REMARK SMILES COc1cc(OC(F)(F)F)cc2c1O[C@@H](C(F)(F)F)C(C(=O)NCCCNC(=O)c1ccc(-c3c4nc(c(-c5c(F)cccc5F)c5ccc([nH]5)c(-c5c(F)cccc5F)c5nc(c(-c6c(F)cccc6F)c6ccc3[nH]6)C=C5)C=C4)cc1)=C2
REMARK SMILES IDX 25 1 24 2 23 3 21 4 22 5 20 7 3 8 4 9 13 10 5 11 12 12 14 13
REMARK SMILES IDX 11 14 84 15 15 16 2 17 1 18 6 19 7 20 8 21 9 22 10 23 16 24
REMARK SMILES IDX 17 25 18 26 19 27 26 28 27 29 28 30 29 32 30 33 31 34 83 35
REMARK SMILES IDX 32 36 82 37 33 38 34 39 35 40 76 41 36 42 81 43 75 44 77 45
REMARK SMILES IDX 37 46 80 47 74 48 73 49 38 51 64 52 47 53 63 54 48 55 51 56
REMARK SMILES IDX 62 57 78 58 49 59 50 60 61 62 79 63 52 64 39 65 40 66 45 67
REMARK SMILES IDX 41 68 42 69 44 70 46 71 43 72 65 73 66 74 71 75 67 76 68 77
REMARK SMILES IDX 70 78 72 79 69 80 53 81 54 82 59 83 55 84 56 85 58 86 60 87
REMARK SMILES IDX 57 88
REMARK H PARENT 23 6 27 31 77 50 51 61
REMARK Flexibility Score: inf
ROOT
ATOM      1  C   UNL     1       5.832   1.102   6.994  1.00  0.00     0.042 C 
ENDROOT
BRANCH   1   2
ATOM      2  C   UNL     1       6.144   1.726   5.630  1.00  0.00     0.118 C 
BRANCH   2   3
ATOM      3  N   UNL     1       6.581   0.709   4.687  1.00  0.00    -0.352 N 
ATOM      4  C   UNL     1       5.928  -0.024   3.748  1.00  0.00     0.251 C 
ATOM      5  O   UNL     1       6.544  -0.923   3.183  1.00  0.00    -0.270 OA
ATOM      6  H   UNL     1       7.544   0.511   4.740  1.00  0.00     0.163 HD
BRANCH   4   7
ATOM      7  C   UNL     1       4.531   0.260   3.333  1.00  0.00     0.067 C 
ATOM      8  C   UNL     1       0.688   1.176   1.889  1.00  0.00     0.165 A 
ATOM      9  C   UNL     1      -0.314   1.552   2.794  1.00  0.00     0.097 A 
ATOM     10  C   UNL     1       1.970   0.851   2.350  1.00  0.00     0.170 A 
ATOM     11  C   UNL     1      -0.059   1.565   4.164  1.00  0.00     0.134 A 
ATOM     12  C   UNL     1       2.227   0.856   3.720  1.00  0.00     0.025 A 
ATOM     13  O   UNL     1       2.962   0.640   1.437  1.00  0.00    -0.471 OA
ATOM     14  C   UNL     1       1.211   1.202   4.620  1.00  0.00     0.059 A 
ATOM     15  C   UNL     1       3.571   0.587   4.210  1.00  0.00     0.026 C 
ATOM     16  C   UNL     1       4.189  -0.010   1.874  1.00  0.00     0.314 C 
BRANCH   8  17
ATOM     17  O   UNL     1       0.318   1.235   0.569  1.00  0.00    -0.493 OA
ATOM     18  C   UNL     1       0.704   0.096  -0.197  1.00  0.00     0.278 C 
ENDBRANCH   8  17
BRANCH  11  19
ATOM     19  O   UNL     1      -0.931   1.917   5.153  1.00  0.00    -0.406 OA
BRANCH  19  20
ATOM     20  C   UNL     1      -2.236   2.324   4.774  1.00  0.00     0.573 C 
ATOM     21  F   UNL     1      -2.197   3.410   3.975  1.00  0.00    -0.132 F 
ATOM     22  F   UNL     1      -2.891   1.322   4.151  1.00  0.00    -0.132 F 
ATOM     23  F   UNL     1      -2.926   2.647   5.891  1.00  0.00    -0.132 F 
ENDBRANCH  19  20
ENDBRANCH  11  19
BRANCH  16  24
ATOM     24  C   UNL     1       5.279   0.345   0.836  1.00  0.00     0.429 C 
ATOM     25  F   UNL     1       6.203  -0.630   0.692  1.00  0.00    -0.167 F 
ATOM     26  F   UNL     1       4.734   0.513  -0.399  1.00  0.00    -0.167 F 
ATOM     27  F   UNL     1       5.923   1.496   1.140  1.00  0.00    -0.167 F 
ENDBRANCH  16  24
ENDBRANCH   4   7
ENDBRANCH   2   3
ENDBRANCH   1   2
BRANCH   1  28
ATOM     28  C   UNL     1       7.076   0.646   7.758  1.00  0.00     0.118 C 
BRANCH  28  29
ATOM     29  N   UNL     1       7.847   1.772   8.258  1.00  0.00    -0.352 N 
ATOM     30  C   UNL     1       8.231   2.081   9.539  1.00  0.00     0.251 C 
ATOM     31  H   UNL     1       8.139   2.413   7.571  1.00  0.00     0.163 HD
ATOM     32  O   UNL     1       8.684   3.198   9.773  1.00  0.00    -0.269 OA
BRANCH  30  33
ATOM     33  C   UNL     1       8.106   1.098  10.639  1.00  0.00     0.039 A 
ATOM     34  C   UNL     1       7.726   1.561  11.904  1.00  0.00     0.014 A 
ATOM     35  C   UNL     1       8.435  -0.250  10.465  1.00  0.00     0.014 A 
ATOM     36  C   UNL     1       7.644   0.674  12.979  1.00  0.00     0.010 A 
ATOM     37  C   UNL     1       8.296  -1.147  11.525  1.00  0.00     0.010 A 
ATOM     38  C   UNL     1       7.912  -0.692  12.795  1.00  0.00    -0.014 A 
BRANCH  38  39
ATOM     39  C   UNL     1       7.806  -1.646  13.929  1.00  0.00     0.031 A 
ATOM     40  C   UNL     1       9.034  -2.328  14.468  1.00  0.00     0.074 A 
ATOM     41  C   UNL     1       6.597  -1.929  14.449  1.00  0.00     0.049 A 
ATOM     42  N   UNL     1       9.133  -3.214  15.426  1.00  0.00    -0.248 NA
ATOM     43  C   UNL     1      10.315  -1.986  13.831  1.00  0.00     0.031 C 
ATOM     44  C   UNL     1       5.326  -1.366  13.989  1.00  0.00     0.029 A 
ATOM     45  N   UNL     1       6.239  -2.765  15.476  1.00  0.00    -0.354 N 
ATOM     46  C   UNL     1      10.481  -3.546  15.498  1.00  0.00     0.074 A 
ATOM     47  C   UNL     1      11.154  -2.799  14.457  1.00  0.00     0.031 C 
ATOM     48  C   UNL     1       4.330  -1.858  14.744  1.00  0.00     0.029 A 
ATOM     49  C   UNL     1       4.887  -2.789  15.720  1.00  0.00     0.049 A 
ATOM     50  H   UNL     1       6.888  -3.297  15.990  1.00  0.00     0.167 HD
ATOM     51  C   UNL     1      11.104  -4.381  16.364  1.00  0.00     0.037 A 
ATOM     52  C   UNL     1       4.176  -3.485  16.627  1.00  0.00     0.037 A 
ATOM     53  C   UNL     1      10.439  -5.102  17.418  1.00  0.00     0.049 A 
ATOM     54  C   UNL     1       4.892  -4.397  17.583  1.00  0.00     0.074 A 
ATOM     55  C   UNL     1      10.993  -5.922  18.386  1.00  0.00     0.029 A 
ATOM     56  N   UNL     1       9.071  -5.088  17.642  1.00  0.00    -0.354 N 
ATOM     57  N   UNL     1       6.174  -4.651  17.679  1.00  0.00    -0.248 NA
ATOM     58  C   UNL     1       4.061  -5.113  18.561  1.00  0.00     0.031 C 
ATOM     59  C   UNL     1       9.956  -6.432  19.174  1.00  0.00     0.029 A 
ATOM     60  C   UNL     1       8.760  -5.900  18.721  1.00  0.00     0.049 A 
ATOM     61  H   UNL     1       8.417  -4.577  17.112  1.00  0.00     0.167 HD
ATOM     62  C   UNL     1       6.307  -5.539  18.738  1.00  0.00     0.074 A 
ATOM     63  C   UNL     1       4.977  -5.766  19.264  1.00  0.00     0.031 C 
ATOM     64  C   UNL     1       7.430  -6.116  19.230  1.00  0.00     0.037 A 
BRANCH  51  65
ATOM     65  C   UNL     1      12.586  -4.556  16.209  1.00  0.00     0.057 A 
ATOM     66  C   UNL     1      13.489  -3.542  16.556  1.00  0.00     0.134 A 
ATOM     67  C   UNL     1      13.120  -5.763  15.740  1.00  0.00     0.134 A 
ATOM     68  F   UNL     1      13.042  -2.358  17.002  1.00  0.00    -0.206 F 
ATOM     69  C   UNL     1      14.867  -3.712  16.418  1.00  0.00     0.040 A 
ATOM     70  C   UNL     1      14.498  -5.954  15.620  1.00  0.00     0.040 A 
ATOM     71  F   UNL     1      12.312  -6.777  15.396  1.00  0.00    -0.206 F 
ATOM     72  C   UNL     1      15.375  -4.924  15.953  1.00  0.00     0.006 A 
ENDBRANCH  51  65
BRANCH  52  73
ATOM     73  C   UNL     1       2.703  -3.324  16.693  1.00  0.00     0.057 A 
ATOM     74  C   UNL     1       2.100  -2.640  17.754  1.00  0.00     0.134 A 
ATOM     75  C   UNL     1       1.866  -3.849  15.703  1.00  0.00     0.134 A 
ATOM     76  F   UNL     1       2.851  -2.131  18.742  1.00  0.00    -0.206 F 
ATOM     77  C   UNL     1       0.715  -2.495  17.837  1.00  0.00     0.040 A 
ATOM     78  C   UNL     1       0.480  -3.694  15.761  1.00  0.00     0.040 A 
ATOM     79  F   UNL     1       2.384  -4.510  14.657  1.00  0.00    -0.206 F 
ATOM     80  C   UNL     1      -0.099  -3.020  16.835  1.00  0.00     0.006 A 
ENDBRANCH  52  73
BRANCH  64  81
ATOM     81  C   UNL     1       7.268  -7.031  20.407  1.00  0.00     0.057 A 
ATOM     82  C   UNL     1       6.719  -8.312  20.272  1.00  0.00     0.134 A 
ATOM     83  C   UNL     1       7.689  -6.637  21.683  1.00  0.00     0.134 A 
ATOM     84  F   UNL     1       6.283  -8.743  19.078  1.00  0.00    -0.206 F 
ATOM     85  C   UNL     1       6.575  -9.162  21.370  1.00  0.00     0.040 A 
ATOM     86  C   UNL     1       7.572  -7.486  22.784  1.00  0.00     0.040 A 
ATOM     87  F   UNL     1       8.229  -5.424  21.878  1.00  0.00    -0.206 F 
ATOM     88  C   UNL     1       7.008  -8.751  22.629  1.00  0.00     0.006 A 
ENDBRANCH  64  81
ENDBRANCH  38  39
ENDBRANCH  30  33
ENDBRANCH  28  29
ENDBRANCH   1  28
TORSDOF 14
