REMARK SMILES O=C(NCCCNC(=O)[C@H]1[C@H]2CC[C@H](C2)[C@@H]1C(=O)Nc1sc2c(c1C(=O)NC1CCCCC1)CCCC2)c1ccc(-c2c3nc(c(-c4c(F)cccc4F)c4ccc([nH]4)c(-c4c(F)cccc4F)c4nc(c(-c5c(F)cccc5F)c5ccc2[nH]5)C=C4)C=C3)cc1
REMARK SMILES IDX 6 1 5 2 4 3 3 4 1 5 2 6 38 8 39 9 91 10 40 11 90 12 41 13
REMARK SMILES IDX 42 14 43 15 84 16 44 17 89 18 83 19 85 20 45 21 88 22 82 23
REMARK SMILES IDX 81 24 46 26 72 27 55 28 71 29 56 30 59 31 70 32 86 33 57 34
REMARK SMILES IDX 58 35 69 37 87 38 60 39 47 40 48 41 53 42 49 43 50 44 52 45
REMARK SMILES IDX 54 46 51 47 73 48 74 49 79 50 75 51 76 52 78 53 80 54 77 55
REMARK SMILES IDX 61 56 62 57 67 58 63 59 64 60 66 61 68 62 65 63 7 64 8 65
REMARK SMILES IDX 9 67 10 68 11 69 16 70 12 71 15 72 14 73 13 74 17 75 18 76
REMARK SMILES IDX 19 77 20 79 21 80 24 81 22 82 23 83 37 84 34 85 36 86 35 87
REMARK SMILES IDX 25 88 26 89 27 90 28 92 29 93 33 94 30 95 32 96 31 97
REMARK H PARENT 3 7 85 25 59 36 7 66 19 78 27 91
REMARK Flexibility Score: inf
ROOT
ATOM      1  C   UNL     1       3.521   1.643   7.025  1.00  0.00     0.117 C 
ENDROOT
BRANCH   1   2
ATOM      2  C   UNL     1       2.137   1.264   6.558  1.00  0.00     0.042 C 
BRANCH   2   3
ATOM      3  C   UNL     1       1.185   1.191   7.729  1.00  0.00     0.118 C 
BRANCH   3   4
ATOM      4  N   UNL     1       1.008   2.503   8.360  1.00  0.00    -0.352 N 
ATOM      5  O   UNL     1       0.162   4.583   8.595  1.00  0.00    -0.269 OA
ATOM      6  C   UNL     1      -0.004   3.417   8.230  1.00  0.00     0.251 C 
ATOM      7  H   UNL     1       1.730   2.768   8.974  1.00  0.00     0.163 HD
BRANCH   6   8
ATOM      8  C   UNL     1      -1.290   2.997   7.652  1.00  0.00     0.039 A 
ATOM      9  C   UNL     1      -1.772   1.719   7.929  1.00  0.00     0.014 A 
ATOM     10  C   UNL     1      -2.025   3.868   6.845  1.00  0.00     0.014 A 
ATOM     11  C   UNL     1      -2.857   1.229   7.235  1.00  0.00     0.010 A 
ATOM     12  C   UNL     1      -3.220   3.426   6.277  1.00  0.00     0.010 A 
ATOM     13  C   UNL     1      -3.628   2.094   6.448  1.00  0.00    -0.014 A 
BRANCH  13  14
ATOM     14  C   UNL     1      -4.915   1.590   5.924  1.00  0.00     0.031 A 
ATOM     15  C   UNL     1      -5.185   1.530   4.454  1.00  0.00     0.074 A 
ATOM     16  C   UNL     1      -5.827   1.157   6.816  1.00  0.00     0.049 A 
ATOM     17  N   UNL     1      -6.266   1.129   3.836  1.00  0.00    -0.248 NA
ATOM     18  C   UNL     1      -4.114   1.989   3.557  1.00  0.00     0.031 C 
ATOM     19  C   UNL     1      -5.657   1.182   8.274  1.00  0.00     0.029 A 
ATOM     20  N   UNL     1      -7.063   0.599   6.640  1.00  0.00    -0.354 N 
ATOM     21  C   UNL     1      -6.020   1.315   2.483  1.00  0.00     0.074 A 
ATOM     22  C   UNL     1      -4.694   1.885   2.369  1.00  0.00     0.031 C 
ATOM     23  C   UNL     1      -6.723   0.620   8.854  1.00  0.00     0.029 A 
ATOM     24  C   UNL     1      -7.691   0.286   7.820  1.00  0.00     0.049 A 
ATOM     25  H   UNL     1      -7.463   0.437   5.755  1.00  0.00     0.167 HD
ATOM     26  C   UNL     1      -6.835   1.033   1.439  1.00  0.00     0.037 A 
ATOM     27  C   UNL     1      -8.930  -0.177   8.053  1.00  0.00     0.037 A 
ATOM     28  C   UNL     1      -8.150   0.461   1.581  1.00  0.00     0.049 A 
ATOM     29  C   UNL     1      -9.821  -0.447   6.881  1.00  0.00     0.074 A 
ATOM     30  C   UNL     1      -9.044   0.099   0.589  1.00  0.00     0.029 A 
ATOM     31  N   UNL     1      -8.766   0.183   2.794  1.00  0.00    -0.354 N 
ATOM     32  N   UNL     1      -9.566  -0.300   5.604  1.00  0.00    -0.248 NA
ATOM     33  C   UNL     1     -11.169  -0.940   7.178  1.00  0.00     0.031 C 
ATOM     34  C   UNL     1     -10.222  -0.340   1.202  1.00  0.00     0.029 A 
ATOM     35  C   UNL     1     -10.041  -0.315   2.577  1.00  0.00     0.049 A 
ATOM     36  H   UNL     1      -8.357   0.319   3.679  1.00  0.00     0.167 HD
ATOM     37  C   UNL     1     -10.717  -0.695   4.940  1.00  0.00     0.074 A 
ATOM     38  C   UNL     1     -11.662  -1.107   5.959  1.00  0.00     0.031 C 
ATOM     39  C   UNL     1     -10.968  -0.713   3.608  1.00  0.00     0.037 A 
BRANCH  26  40
ATOM     40  C   UNL     1      -6.342   1.379   0.062  1.00  0.00     0.057 A 
ATOM     41  C   UNL     1      -5.280   0.698  -0.548  1.00  0.00     0.134 A 
ATOM     42  C   UNL     1      -6.954   2.404  -0.672  1.00  0.00     0.134 A 
ATOM     43  F   UNL     1      -4.639  -0.285   0.102  1.00  0.00    -0.206 F 
ATOM     44  C   UNL     1      -4.825   1.044  -1.823  1.00  0.00     0.040 A 
ATOM     45  C   UNL     1      -6.527   2.740  -1.958  1.00  0.00     0.040 A 
ATOM     46  F   UNL     1      -7.980   3.096  -0.153  1.00  0.00    -0.206 F 
ATOM     47  C   UNL     1      -5.454   2.065  -2.534  1.00  0.00     0.006 A 
ENDBRANCH  26  40
BRANCH  27  48
ATOM     48  C   UNL     1      -9.387  -0.366   9.451  1.00  0.00     0.057 A 
ATOM     49  C   UNL     1      -9.608  -1.641   9.979  1.00  0.00     0.134 A 
ATOM     50  C   UNL     1      -9.563   0.729  10.309  1.00  0.00     0.134 A 
ATOM     51  F   UNL     1      -9.462  -2.726   9.206  1.00  0.00    -0.206 F 
ATOM     52  C   UNL     1      -9.998  -1.821  11.307  1.00  0.00     0.040 A 
ATOM     53  C   UNL     1      -9.922   0.562  11.646  1.00  0.00     0.040 A 
ATOM     54  F   UNL     1      -9.348   1.978   9.867  1.00  0.00    -0.206 F 
ATOM     55  C   UNL     1     -10.147  -0.718  12.147  1.00  0.00     0.006 A 
ENDBRANCH  27  48
BRANCH  39  56
ATOM     56  C   UNL     1     -12.312  -1.223   3.181  1.00  0.00     0.057 A 
ATOM     57  C   UNL     1     -13.484  -0.485   3.388  1.00  0.00     0.134 A 
ATOM     58  C   UNL     1     -12.428  -2.455   2.524  1.00  0.00     0.134 A 
ATOM     59  F   UNL     1     -13.443   0.694   4.027  1.00  0.00    -0.206 F 
ATOM     60  C   UNL     1     -14.728  -0.964   2.974  1.00  0.00     0.040 A 
ATOM     61  C   UNL     1     -13.662  -2.929   2.079  1.00  0.00     0.040 A 
ATOM     62  F   UNL     1     -11.343  -3.208   2.291  1.00  0.00    -0.206 F 
ATOM     63  C   UNL     1     -14.817  -2.186   2.309  1.00  0.00     0.006 A 
ENDBRANCH  39  56
ENDBRANCH  13  14
ENDBRANCH   6   8
ENDBRANCH   3   4
ENDBRANCH   2   3
ENDBRANCH   1   2
BRANCH   1  64
ATOM     64  N   UNL     1       4.292   0.510   7.491  1.00  0.00    -0.356 N 
ATOM     65  C   UNL     1       5.499   0.008   7.114  1.00  0.00     0.224 C 
ATOM     66  H   UNL     1       3.861   0.006   8.219  1.00  0.00     0.163 HD
ATOM     67  O   UNL     1       5.946  -0.904   7.812  1.00  0.00    -0.275 OA
BRANCH  65  68
ATOM     68  C   UNL     1       6.215   0.456   5.837  1.00  0.00     0.094 C 
ATOM     69  C   UNL     1       6.125   1.969   5.503  1.00  0.00     0.002 C 
ATOM     70  C   UNL     1       7.761   0.251   5.933  1.00  0.00     0.094 C 
ATOM     71  C   UNL     1       6.580   2.857   6.663  1.00  0.00     0.005 C 
ATOM     72  C   UNL     1       7.274   2.155   4.556  1.00  0.00     0.009 C 
ATOM     73  C   UNL     1       8.319   1.627   5.518  1.00  0.00     0.002 C 
ATOM     74  C   UNL     1       8.100   2.625   6.682  1.00  0.00     0.005 C 
BRANCH  70  75
ATOM     75  C   UNL     1       8.369  -1.014   5.282  1.00  0.00     0.229 C 
ATOM     76  O   UNL     1       8.984  -1.796   6.027  1.00  0.00    -0.274 OA
ATOM     77  N   UNL     1       8.232  -1.436   3.995  1.00  0.00    -0.317 N 
ATOM     78  H   UNL     1       8.458  -2.385   3.860  1.00  0.00     0.170 HD
BRANCH  77  79
ATOM     79  C   UNL     1       7.839  -0.790   2.849  1.00  0.00     0.108 A 
ATOM     80  S   UNL     1       8.768   0.542   2.323  1.00  0.00    -0.122 S 
ATOM     81  C   UNL     1       7.003  -1.247   1.821  1.00  0.00     0.078 A 
ATOM     82  C   UNL     1       7.471   0.981   1.313  1.00  0.00     0.011 A 
ATOM     83  C   UNL     1       6.800  -0.152   0.872  1.00  0.00    -0.019 A 
ATOM     84  C   UNL     1       7.156   2.397   0.946  1.00  0.00     0.047 C 
ATOM     85  C   UNL     1       5.942  -0.046  -0.358  1.00  0.00     0.037 C 
ATOM     86  C   UNL     1       5.794   2.432   0.241  1.00  0.00     0.006 C 
ATOM     87  C   UNL     1       5.786   1.397  -0.888  1.00  0.00     0.005 C 
BRANCH  81  88
ATOM     88  C   UNL     1       6.509  -2.629   1.920  1.00  0.00     0.254 C 
ATOM     89  O   UNL     1       7.265  -3.514   2.337  1.00  0.00    -0.269 OA
ATOM     90  N   UNL     1       5.222  -3.037   1.697  1.00  0.00    -0.349 N 
ATOM     91  H   UNL     1       5.058  -3.950   2.028  1.00  0.00     0.164 HD
BRANCH  90  92
ATOM     92  C   UNL     1       4.041  -2.451   1.090  1.00  0.00     0.082 C 
ATOM     93  C   UNL     1       2.877  -3.463   1.063  1.00  0.00     0.025 C 
ATOM     94  C   UNL     1       3.529  -1.183   1.782  1.00  0.00     0.025 C 
ATOM     95  C   UNL     1       1.654  -2.905   0.328  1.00  0.00     0.002 C 
ATOM     96  C   UNL     1       2.432  -0.561   0.915  1.00  0.00     0.002 C 
ATOM     97  C   UNL     1       1.244  -1.507   0.794  1.00  0.00     0.000 C 
ENDBRANCH  90  92
ENDBRANCH  81  88
ENDBRANCH  77  79
ENDBRANCH  70  75
ENDBRANCH  65  68
ENDBRANCH   1  64
TORSDOF 14
