REMARK SMILES C[C@]1(C(=O)NCc2ccc(C(=O)NCCCNC(=O)c3ccc(-c4c5nc(c(-c6c(F)cccc6F)c6ccc([nH]6)c(-c6c(F)cccc6F)c6nc(c(-c7c(F)cccc7F)c7ccc4[nH]7)C=C6)C=C5)cc3)o2)CCC[NH2+]C1
REMARK SMILES IDX 14 1 13 2 11 3 12 4 10 6 7 7 8 8 74 9 9 10 6 11 5 12 3 13
REMARK SMILES IDX 4 14 2 16 1 17 75 18 79 19 76 20 78 21 77 22 15 25 16 26
REMARK SMILES IDX 17 27 18 28 19 30 20 31 21 32 73 33 22 34 72 35 23 36 24 37
REMARK SMILES IDX 25 38 66 39 26 40 71 41 65 42 67 43 27 44 70 45 64 46 63 47
REMARK SMILES IDX 28 49 54 50 37 51 53 52 38 53 41 54 52 55 68 56 39 57 40 58
REMARK SMILES IDX 51 60 69 61 42 62 29 63 30 64 35 65 31 66 32 67 34 68 36 69
REMARK SMILES IDX 33 70 55 71 56 72 61 73 57 74 58 75 60 76 62 77 59 78 43 79
REMARK SMILES IDX 44 80 49 81 45 82 46 83 48 84 50 85 47 86
REMARK H PARENT 13 5 5 15 78 23 78 24 17 29 67 48 41 59
REMARK Flexibility Score: inf
ROOT
ATOM      1  C   UNL     1       4.415  -6.951  -2.581  1.00  0.00     0.118 C 
ENDROOT
BRANCH   1   2
ATOM      2  N   UNL     1       3.633  -6.953  -1.363  1.00  0.00    -0.349 N 
ATOM      3  C   UNL     1       3.292  -5.940  -0.499  1.00  0.00     0.286 C 
ATOM      4  O   UNL     1       2.548  -6.270   0.428  1.00  0.00    -0.266 OA
ATOM      5  H   UNL     1       3.282  -7.837  -1.109  1.00  0.00     0.163 HD
BRANCH   3   6
ATOM      6  C   UNL     1       3.775  -4.582  -0.674  1.00  0.00     0.191 A 
ATOM      7  C   UNL     1       3.717  -2.418  -0.179  1.00  0.00     0.124 A 
ATOM      8  C   UNL     1       4.720  -2.571  -1.108  1.00  0.00     0.048 A 
ATOM      9  O   UNL     1       3.144  -3.623   0.080  1.00  0.00    -0.454 OA
ATOM     10  C   UNL     1       4.774  -3.959  -1.405  1.00  0.00     0.056 A 
BRANCH   7  11
ATOM     11  C   UNL     1       3.209  -1.281   0.620  1.00  0.00     0.191 C 
BRANCH  11  12
ATOM     12  N   UNL     1       2.276  -0.494  -0.153  1.00  0.00    -0.348 N 
ATOM     13  C   UNL     1       1.092   0.090   0.177  1.00  0.00     0.232 C 
ATOM     14  O   UNL     1       0.671   0.922  -0.636  1.00  0.00    -0.274 OA
ATOM     15  H   UNL     1       2.546  -0.355  -1.090  1.00  0.00     0.163 HD
BRANCH  13  16
ATOM     16  C   UNL     1       0.329  -0.216   1.492  1.00  0.00     0.095 C 
ATOM     17  C   UNL     1       1.178   0.222   2.704  1.00  0.00     0.028 C 
ATOM     18  C   UNL     1      -0.976   0.633   1.562  1.00  0.00     0.028 C 
ATOM     19  C   UNL     1      -0.057  -1.711   1.587  1.00  0.00     0.277 C 
ATOM     20  C   UNL     1      -2.079   0.132   0.631  1.00  0.00     0.063 C 
ATOM     21  N   UNL     1      -1.088  -2.116   0.625  1.00  0.00    -0.345 N 
ATOM     22  C   UNL     1      -2.323  -1.360   0.809  1.00  0.00     0.260 C 
ATOM     23  H   UNL     1      -0.741  -1.956  -0.320  1.00  0.00     0.346 HD
ATOM     24  H   UNL     1      -1.294  -3.104   0.777  1.00  0.00     0.346 HD
ENDBRANCH  13  16
ENDBRANCH  11  12
ENDBRANCH   7  11
ENDBRANCH   3   6
ENDBRANCH   1   2
BRANCH   1  25
ATOM     25  C   UNL     1       5.862  -7.364  -2.323  1.00  0.00     0.042 C 
BRANCH  25  26
ATOM     26  C   UNL     1       6.026  -8.859  -2.045  1.00  0.00     0.118 C 
BRANCH  26  27
ATOM     27  N   UNL     1       5.730  -9.665  -3.222  1.00  0.00    -0.352 N 
ATOM     28  C   UNL     1       6.524 -10.528  -3.933  1.00  0.00     0.251 C 
ATOM     29  H   UNL     1       4.810  -9.577  -3.561  1.00  0.00     0.163 HD
ATOM     30  O   UNL     1       6.148 -10.921  -5.035  1.00  0.00    -0.269 OA
BRANCH  28  31
ATOM     31  C   UNL     1       7.821 -10.993  -3.397  1.00  0.00     0.039 A 
ATOM     32  C   UNL     1       8.898 -11.139  -4.279  1.00  0.00     0.014 A 
ATOM     33  C   UNL     1       7.964 -11.361  -2.057  1.00  0.00     0.014 A 
ATOM     34  C   UNL     1      10.126 -11.610  -3.809  1.00  0.00     0.010 A 
ATOM     35  C   UNL     1       9.206 -11.775  -1.576  1.00  0.00     0.010 A 
ATOM     36  C   UNL     1      10.296 -11.912  -2.449  1.00  0.00    -0.014 A 
BRANCH  36  37
ATOM     37  C   UNL     1      11.602 -12.381  -1.923  1.00  0.00     0.031 A 
ATOM     38  C   UNL     1      11.741 -13.774  -1.373  1.00  0.00     0.074 A 
ATOM     39  C   UNL     1      12.645 -11.530  -1.878  1.00  0.00     0.049 A 
ATOM     40  N   UNL     1      12.772 -14.336  -0.794  1.00  0.00    -0.248 NA
ATOM     41  C   UNL     1      10.556 -14.643  -1.463  1.00  0.00     0.031 C 
ATOM     42  C   UNL     1      12.625 -10.141  -2.340  1.00  0.00     0.029 A 
ATOM     43  N   UNL     1      13.921 -11.704  -1.405  1.00  0.00    -0.354 N 
ATOM     44  C   UNL     1      12.352 -15.608  -0.424  1.00  0.00     0.074 A 
ATOM     45  C   UNL     1      10.965 -15.726  -0.817  1.00  0.00     0.031 C 
ATOM     46  C   UNL     1      13.836  -9.594  -2.141  1.00  0.00     0.029 A 
ATOM     47  C   UNL     1      14.705 -10.581  -1.509  1.00  0.00     0.049 A 
ATOM     48  H   UNL     1      14.245 -12.554  -1.028  1.00  0.00     0.167 HD
ATOM     49  C   UNL     1      13.064 -16.592   0.175  1.00  0.00     0.037 A 
ATOM     50  C   UNL     1      15.979 -10.369  -1.128  1.00  0.00     0.037 A 
ATOM     51  C   UNL     1      14.458 -16.489   0.519  1.00  0.00     0.049 A 
ATOM     52  C   UNL     1      16.752 -11.487  -0.488  1.00  0.00     0.074 A 
ATOM     53  C   UNL     1      15.289 -17.463   1.047  1.00  0.00     0.029 A 
ATOM     54  N   UNL     1      15.226 -15.346   0.368  1.00  0.00    -0.354 N 
ATOM     55  N   UNL     1      16.363 -12.708  -0.212  1.00  0.00    -0.248 NA
ATOM     56  C   UNL     1      18.143 -11.199  -0.110  1.00  0.00     0.031 C 
ATOM     57  C   UNL     1      16.553 -16.897   1.246  1.00  0.00     0.029 A 
ATOM     58  C   UNL     1      16.517 -15.583   0.810  1.00  0.00     0.049 A 
ATOM     59  H   UNL     1      14.902 -14.492   0.000  1.00  0.00     0.167 HD
ATOM     60  C   UNL     1      17.467 -13.342   0.343  1.00  0.00     0.074 A 
ATOM     61  C   UNL     1      18.544 -12.374   0.356  1.00  0.00     0.031 C 
ATOM     62  C   UNL     1      17.579 -14.612   0.801  1.00  0.00     0.037 A 
BRANCH  49  63
ATOM     63  C   UNL     1      12.351 -17.872   0.495  1.00  0.00     0.057 A 
ATOM     64  C   UNL     1      11.993 -18.788  -0.502  1.00  0.00     0.134 A 
ATOM     65  C   UNL     1      12.064 -18.215   1.822  1.00  0.00     0.134 A 
ATOM     66  F   UNL     1      12.231 -18.515  -1.794  1.00  0.00    -0.206 F 
ATOM     67  C   UNL     1      11.359 -19.992  -0.192  1.00  0.00     0.040 A 
ATOM     68  C   UNL     1      11.450 -19.426   2.147  1.00  0.00     0.040 A 
ATOM     69  F   UNL     1      12.386 -17.384   2.825  1.00  0.00    -0.206 F 
ATOM     70  C   UNL     1      11.092 -20.317   1.137  1.00  0.00     0.006 A 
ENDBRANCH  49  63
BRANCH  50  71
ATOM     71  C   UNL     1      16.616  -9.050  -1.361  1.00  0.00     0.057 A 
ATOM     72  C   UNL     1      17.616  -8.895  -2.328  1.00  0.00     0.134 A 
ATOM     73  C   UNL     1      16.259  -7.921  -0.614  1.00  0.00     0.134 A 
ATOM     74  F   UNL     1      18.013  -9.945  -3.061  1.00  0.00    -0.206 F 
ATOM     75  C   UNL     1      18.255  -7.671  -2.530  1.00  0.00     0.040 A 
ATOM     76  C   UNL     1      16.874  -6.685  -0.821  1.00  0.00     0.040 A 
ATOM     77  F   UNL     1      15.303  -8.003   0.323  1.00  0.00    -0.206 F 
ATOM     78  C   UNL     1      17.881  -6.560  -1.776  1.00  0.00     0.006 A 
ENDBRANCH  50  71
BRANCH  62  79
ATOM     79  C   UNL     1      18.921 -15.036   1.317  1.00  0.00     0.057 A 
ATOM     80  C   UNL     1      19.403 -14.606   2.558  1.00  0.00     0.134 A 
ATOM     81  C   UNL     1      19.723 -15.912   0.575  1.00  0.00     0.134 A 
ATOM     82  F   UNL     1      18.687 -13.755   3.308  1.00  0.00    -0.206 F 
ATOM     83  C   UNL     1      20.648 -15.018   3.037  1.00  0.00     0.040 A 
ATOM     84  C   UNL     1      20.959 -16.348   1.053  1.00  0.00     0.040 A 
ATOM     85  F   UNL     1      19.314 -16.366  -0.619  1.00  0.00    -0.206 F 
ATOM     86  C   UNL     1      21.427 -15.896   2.286  1.00  0.00     0.006 A 
ENDBRANCH  62  79
ENDBRANCH  36  37
ENDBRANCH  28  31
ENDBRANCH  26  27
ENDBRANCH  25  26
ENDBRANCH   1  25
TORSDOF 13
