REMARK SMILES CN(c1ccccc1)c1nc(OCC(=O)NCCCNC(=O)c2ccc(-c3c4nc(c(-c5c(F)cccc5F)c5ccc([nH]5)c(-c5c(F)cccc5F)c5nc(c(-c6c(F)cccc6F)c6ccc3[nH]6)C=C5)C=C4)cc2)cc(-c2ccncc2)n1
REMARK SMILES IDX 17 1 16 2 14 3 15 4 13 6 12 7 11 8 9 9 10 10 85 11 78 12
REMARK SMILES IDX 77 13 2 14 1 15 3 16 4 17 8 18 5 19 7 20 6 21 79 22 80 23
REMARK SMILES IDX 84 24 81 25 83 26 82 27 18 28 19 29 20 30 21 31 22 33 23 34
REMARK SMILES IDX 24 35 76 36 25 37 75 38 26 39 27 40 28 41 69 42 29 43 74 44
REMARK SMILES IDX 68 45 70 46 30 47 73 48 67 49 66 50 31 52 57 53 40 54 56 55
REMARK SMILES IDX 41 56 44 57 55 58 71 59 42 60 43 61 54 63 72 64 45 65 32 66
REMARK SMILES IDX 33 67 38 68 34 69 35 70 37 71 39 72 36 73 58 74 59 75 64 76
REMARK SMILES IDX 60 77 61 78 63 79 65 80 62 81 46 82 47 83 52 84 48 85 49 86
REMARK SMILES IDX 51 87 53 88 50 89
REMARK H PARENT 16 5 20 32 70 51 44 62
REMARK Flexibility Score: inf
ROOT
ATOM      1  C   UNL     1      -2.334   0.326   6.615  1.00  0.00     0.117 C 
ENDROOT
BRANCH   1   2
ATOM      2  N   UNL     1      -1.025   0.440   7.231  1.00  0.00    -0.353 N 
ATOM      3  C   UNL     1      -0.152   1.485   7.184  1.00  0.00     0.258 C 
ATOM      4  O   UNL     1       0.928   1.377   7.767  1.00  0.00    -0.271 OA
ATOM      5  H   UNL     1      -0.728  -0.341   7.751  1.00  0.00     0.163 HD
BRANCH   3   6
ATOM      6  C   UNL     1      -0.525   2.764   6.423  1.00  0.00     0.331 C 
BRANCH   6   7
ATOM      7  O   UNL     1      -0.746   2.634   5.031  1.00  0.00    -0.467 OA
BRANCH   7   8
ATOM      8  C   UNL     1       0.300   2.237   4.248  1.00  0.00     0.219 A 
ATOM      9  C   UNL     1       0.848   1.513   2.124  1.00  0.00     0.233 A 
ATOM     10  N   UNL     1      -0.068   1.991   2.985  1.00  0.00    -0.177 NA
ATOM     11  N   UNL     1       2.117   1.256   2.487  1.00  0.00    -0.212 NA
ATOM     12  C   UNL     1       2.475   1.569   3.747  1.00  0.00     0.080 A 
ATOM     13  C   UNL     1       1.592   2.084   4.669  1.00  0.00     0.097 A 
BRANCH   9  14
ATOM     14  N   UNL     1       0.449   1.295   0.798  1.00  0.00    -0.314 N 
ATOM     15  C   UNL     1       1.026   0.119   0.166  1.00  0.00     0.153 C 
BRANCH  14  16
ATOM     16  C   UNL     1      -0.373   2.148   0.047  1.00  0.00     0.043 A 
ATOM     17  C   UNL     1      -0.208   3.542   0.133  1.00  0.00     0.026 A 
ATOM     18  C   UNL     1      -1.375   1.667  -0.807  1.00  0.00     0.026 A 
ATOM     19  C   UNL     1      -0.994   4.420  -0.618  1.00  0.00     0.002 A 
ATOM     20  C   UNL     1      -2.178   2.543  -1.548  1.00  0.00     0.002 A 
ATOM     21  C   UNL     1      -1.982   3.919  -1.457  1.00  0.00     0.000 A 
ENDBRANCH  14  16
ENDBRANCH   9  14
BRANCH  12  22
ATOM     22  C   UNL     1       3.880   1.366   4.108  1.00  0.00     0.004 A 
ATOM     23  C   UNL     1       4.240   0.484   5.134  1.00  0.00     0.030 A 
ATOM     24  C   UNL     1       4.892   2.112   3.494  1.00  0.00     0.030 A 
ATOM     25  C   UNL     1       5.570   0.401   5.509  1.00  0.00     0.111 A 
ATOM     26  C   UNL     1       6.193   1.966   3.947  1.00  0.00     0.111 A 
ATOM     27  N   UNL     1       6.554   1.130   4.943  1.00  0.00    -0.265 NA
ENDBRANCH  12  22
ENDBRANCH   7   8
ENDBRANCH   6   7
ENDBRANCH   3   6
ENDBRANCH   1   2
BRANCH   1  28
ATOM     28  C   UNL     1      -2.341  -0.645   5.440  1.00  0.00     0.042 C 
BRANCH  28  29
ATOM     29  C   UNL     1      -1.937  -2.075   5.792  1.00  0.00     0.118 C 
BRANCH  29  30
ATOM     30  N   UNL     1      -2.812  -2.695   6.780  1.00  0.00    -0.352 N 
ATOM     31  C   UNL     1      -3.602  -3.814   6.697  1.00  0.00     0.251 C 
ATOM     32  H   UNL     1      -2.842  -2.235   7.650  1.00  0.00     0.163 HD
ATOM     33  O   UNL     1      -4.386  -4.072   7.611  1.00  0.00    -0.269 OA
BRANCH  31  34
ATOM     34  C   UNL     1      -3.543  -4.700   5.516  1.00  0.00     0.039 A 
ATOM     35  C   UNL     1      -4.739  -5.184   4.977  1.00  0.00     0.014 A 
ATOM     36  C   UNL     1      -2.322  -5.073   4.948  1.00  0.00     0.014 A 
ATOM     37  C   UNL     1      -4.715  -5.970   3.823  1.00  0.00     0.010 A 
ATOM     38  C   UNL     1      -2.303  -5.792   3.755  1.00  0.00     0.010 A 
ATOM     39  C   UNL     1      -3.500  -6.241   3.175  1.00  0.00    -0.014 A 
BRANCH  39  40
ATOM     40  C   UNL     1      -3.460  -6.967   1.879  1.00  0.00     0.031 A 
ATOM     41  C   UNL     1      -2.769  -8.297   1.770  1.00  0.00     0.074 A 
ATOM     42  C   UNL     1      -3.987  -6.392   0.781  1.00  0.00     0.049 A 
ATOM     43  N   UNL     1      -2.568  -9.041   0.711  1.00  0.00    -0.248 NA
ATOM     44  C   UNL     1      -2.212  -8.854   3.011  1.00  0.00     0.031 C 
ATOM     45  C   UNL     1      -4.657  -5.091   0.745  1.00  0.00     0.029 A 
ATOM     46  N   UNL     1      -4.036  -6.825  -0.521  1.00  0.00    -0.354 N 
ATOM     47  C   UNL     1      -1.856 -10.147   1.156  1.00  0.00     0.074 A 
ATOM     48  C   UNL     1      -1.609  -9.947   2.568  1.00  0.00     0.031 C 
ATOM     49  C   UNL     1      -5.077  -4.846  -0.506  1.00  0.00     0.029 A 
ATOM     50  C   UNL     1      -4.665  -5.947  -1.370  1.00  0.00     0.049 A 
ATOM     51  H   UNL     1      -3.655  -7.683  -0.818  1.00  0.00     0.167 HD
ATOM     52  C   UNL     1      -1.464 -11.241   0.459  1.00  0.00     0.037 A 
ATOM     53  C   UNL     1      -4.877  -6.017  -2.698  1.00  0.00     0.037 A 
ATOM     54  C   UNL     1      -1.713 -11.438  -0.946  1.00  0.00     0.049 A 
ATOM     55  C   UNL     1      -4.379  -7.212  -3.462  1.00  0.00     0.074 A 
ATOM     56  C   UNL     1      -1.395 -12.531  -1.734  1.00  0.00     0.029 A 
ATOM     57  N   UNL     1      -2.331 -10.515  -1.777  1.00  0.00    -0.354 N 
ATOM     58  N   UNL     1      -3.761  -8.279  -3.018  1.00  0.00    -0.248 NA
ATOM     59  C   UNL     1      -4.605  -7.208  -4.914  1.00  0.00     0.031 C 
ATOM     60  C   UNL     1      -1.771 -12.246  -3.051  1.00  0.00     0.029 A 
ATOM     61  C   UNL     1      -2.374 -10.998  -3.075  1.00  0.00     0.049 A 
ATOM     62  H   UNL     1      -2.687  -9.644  -1.486  1.00  0.00     0.167 HD
ATOM     63  C   UNL     1      -3.550  -9.087  -4.128  1.00  0.00     0.074 A 
ATOM     64  C   UNL     1      -4.118  -8.391  -5.264  1.00  0.00     0.031 C 
ATOM     65  C   UNL     1      -2.941 -10.296  -4.199  1.00  0.00     0.037 A 
BRANCH  52  66
ATOM     66  C   UNL     1      -0.717 -12.304   1.214  1.00  0.00     0.057 A 
ATOM     67  C   UNL     1      -1.337 -13.087   2.198  1.00  0.00     0.134 A 
ATOM     68  C   UNL     1       0.635 -12.556   0.951  1.00  0.00     0.134 A 
ATOM     69  F   UNL     1      -2.628 -12.893   2.507  1.00  0.00    -0.206 F 
ATOM     70  C   UNL     1      -0.630 -14.050   2.920  1.00  0.00     0.040 A 
ATOM     71  C   UNL     1       1.345 -13.539   1.644  1.00  0.00     0.040 A 
ATOM     72  F   UNL     1       1.291 -11.852   0.015  1.00  0.00    -0.206 F 
ATOM     73  C   UNL     1       0.715 -14.281   2.640  1.00  0.00     0.006 A 
ENDBRANCH  52  66
BRANCH  53  74
ATOM     74  C   UNL     1      -5.618  -4.932  -3.389  1.00  0.00     0.057 A 
ATOM     75  C   UNL     1      -6.900  -5.157  -3.904  1.00  0.00     0.134 A 
ATOM     76  C   UNL     1      -5.071  -3.654  -3.556  1.00  0.00     0.134 A 
ATOM     77  F   UNL     1      -7.469  -6.366  -3.792  1.00  0.00    -0.206 F 
ATOM     78  C   UNL     1      -7.607  -4.156  -4.572  1.00  0.00     0.040 A 
ATOM     79  C   UNL     1      -5.777  -2.635  -4.199  1.00  0.00     0.040 A 
ATOM     80  F   UNL     1      -3.849  -3.372  -3.081  1.00  0.00    -0.206 F 
ATOM     81  C   UNL     1      -7.047  -2.888  -4.715  1.00  0.00     0.006 A 
ENDBRANCH  53  74
BRANCH  65  82
ATOM     82  C   UNL     1      -2.880 -10.957  -5.546  1.00  0.00     0.057 A 
ATOM     83  C   UNL     1      -2.042 -10.485  -6.565  1.00  0.00     0.134 A 
ATOM     84  C   UNL     1      -3.641 -12.102  -5.814  1.00  0.00     0.134 A 
ATOM     85  F   UNL     1      -1.299  -9.384  -6.379  1.00  0.00    -0.206 F 
ATOM     86  C   UNL     1      -1.980 -11.116  -7.809  1.00  0.00     0.040 A 
ATOM     87  C   UNL     1      -3.566 -12.758  -7.044  1.00  0.00     0.040 A 
ATOM     88  F   UNL     1      -4.459 -12.611  -4.881  1.00  0.00    -0.206 F 
ATOM     89  C   UNL     1      -2.737 -12.261  -8.048  1.00  0.00     0.006 A 
ENDBRANCH  65  82
ENDBRANCH  39  40
ENDBRANCH  31  34
ENDBRANCH  29  30
ENDBRANCH  28  29
ENDBRANCH   1  28
TORSDOF 15
