REMARK SMILES [NH3+]CCOCC(=O)Nc1cc(C(=O)NCCCNC(=O)c2ccc(-c3c4nc(c(-c5c(F)cccc5F)c5ccc([nH]5)c(-c5c(F)cccc5F)c5nc(c(-c6c(F)cccc6F)c6ccc3[nH]6)C=C5)C=C4)cc2)ccc1Cl
REMARK SMILES IDX 12 1 13 2 14 3 11 5 9 6 10 7 77 8 76 9 78 10 75 11 8 12 6 13
REMARK SMILES IDX 7 14 5 16 4 17 3 18 2 19 1 20 15 24 16 25 17 26 18 27 19 28
REMARK SMILES IDX 20 30 21 31 22 32 74 33 23 34 73 35 24 36 25 37 26 38 67 39
REMARK SMILES IDX 27 40 72 41 66 42 68 43 28 44 71 45 65 46 64 47 29 49 55 50
REMARK SMILES IDX 38 51 54 52 39 53 42 54 53 55 69 56 40 57 41 58 52 60 70 61
REMARK SMILES IDX 43 62 30 63 31 64 36 65 32 66 33 67 35 68 37 69 34 70 56 71
REMARK SMILES IDX 57 72 62 73 58 74 59 75 61 76 63 77 60 78 44 79 45 80 50 81
REMARK SMILES IDX 46 82 47 83 49 84 51 85 48 86
REMARK H PARENT 14 4 8 15 1 21 1 22 1 23 18 29 68 48 42 59
REMARK Flexibility Score: inf
ROOT
ATOM      1  C   UNL     1       2.773   8.363   1.630  1.00  0.00     0.251 C 
ATOM      2  O   UNL     1       3.786   8.461   0.934  1.00  0.00    -0.269 OA
ATOM      3  N   UNL     1       2.144   9.532   1.964  1.00  0.00    -0.352 N 
ATOM      4  H   UNL     1       2.636  10.336   1.680  1.00  0.00     0.163 HD
ENDROOT
BRANCH   1   5
ATOM      5  C   UNL     1       2.333   7.000   2.056  1.00  0.00     0.041 A 
ATOM      6  C   UNL     1       2.671   4.590   1.778  1.00  0.00     0.060 A 
ATOM      7  C   UNL     1       2.949   5.911   1.408  1.00  0.00     0.041 A 
ATOM      8  C   UNL     1       1.858   4.358   2.894  1.00  0.00     0.064 A 
ATOM      9  C   UNL     1       1.197   5.418   3.507  1.00  0.00     0.023 A 
ATOM     10  Cl  UNL     1       1.867   2.864   3.756  1.00  0.00    -0.082 Cl
ATOM     11  C   UNL     1       1.428   6.728   3.084  1.00  0.00     0.015 A 
BRANCH   6  12
ATOM     12  N   UNL     1       3.296   3.571   1.040  1.00  0.00    -0.323 N 
ATOM     13  C   UNL     1       2.708   2.476   0.456  1.00  0.00     0.250 C 
ATOM     14  O   UNL     1       3.422   1.594  -0.031  1.00  0.00    -0.272 OA
ATOM     15  H   UNL     1       4.271   3.651   0.927  1.00  0.00     0.170 HD
BRANCH  13  16
ATOM     16  C   UNL     1       1.173   2.426   0.285  1.00  0.00     0.260 C 
BRANCH  16  17
ATOM     17  O   UNL     1       0.336   1.839   1.257  1.00  0.00    -0.366 OA
BRANCH  17  18
ATOM     18  C   UNL     1       0.770   0.577   1.764  1.00  0.00     0.222 C 
BRANCH  18  19
ATOM     19  C   UNL     1       0.302  -0.625   0.937  1.00  0.00     0.287 C 
BRANCH  19  20
ATOM     20  N   UNL     1       0.993  -0.788  -0.341  1.00  0.00    -0.356 N 
ATOM     21  H   UNL     1       0.624  -1.606  -0.826  1.00  0.00     0.344 HD
ATOM     22  H   UNL     1       1.992  -0.913  -0.175  1.00  0.00     0.344 HD
ATOM     23  H   UNL     1       0.846   0.043  -0.915  1.00  0.00     0.344 HD
ENDBRANCH  19  20
ENDBRANCH  18  19
ENDBRANCH  17  18
ENDBRANCH  16  17
ENDBRANCH  13  16
ENDBRANCH   6  12
ENDBRANCH   1   5
BRANCH   3  24
ATOM     24  C   UNL     1       0.903   9.829   2.650  1.00  0.00     0.118 C 
BRANCH  24  25
ATOM     25  C   UNL     1       1.113  10.060   4.148  1.00  0.00     0.042 C 
BRANCH  25  26
ATOM     26  C   UNL     1       1.729  11.415   4.484  1.00  0.00     0.118 C 
BRANCH  26  27
ATOM     27  N   UNL     1       0.839  12.514   4.141  1.00  0.00    -0.352 N 
ATOM     28  C   UNL     1       0.241  13.457   4.932  1.00  0.00     0.251 C 
ATOM     29  H   UNL     1       0.631  12.590   3.182  1.00  0.00     0.163 HD
ATOM     30  O   UNL     1      -0.685  14.123   4.467  1.00  0.00    -0.269 OA
BRANCH  28  31
ATOM     31  C   UNL     1       0.688  13.702   6.320  1.00  0.00     0.039 A 
ATOM     32  C   UNL     1      -0.269  14.058   7.277  1.00  0.00     0.014 A 
ATOM     33  C   UNL     1       2.042  13.680   6.668  1.00  0.00     0.014 A 
ATOM     34  C   UNL     1       0.125  14.363   8.581  1.00  0.00     0.010 A 
ATOM     35  C   UNL     1       2.428  13.919   7.985  1.00  0.00     0.010 A 
ATOM     36  C   UNL     1       1.477  14.281   8.950  1.00  0.00    -0.014 A 
BRANCH  36  37
ATOM     37  C   UNL     1       1.912  14.593  10.334  1.00  0.00     0.031 A 
ATOM     38  C   UNL     1       2.799  15.779  10.600  1.00  0.00     0.074 A 
ATOM     39  C   UNL     1       1.559  13.773  11.342  1.00  0.00     0.049 A 
ATOM     40  N   UNL     1       3.338  16.173  11.726  1.00  0.00    -0.248 NA
ATOM     41  C   UNL     1       3.152  16.616   9.443  1.00  0.00     0.031 C 
ATOM     42  C   UNL     1       0.748  12.561  11.201  1.00  0.00     0.029 A 
ATOM     43  N   UNL     1       1.848  13.825  12.681  1.00  0.00    -0.354 N 
ATOM     44  C   UNL     1       4.113  17.281  11.409  1.00  0.00     0.074 A 
ATOM     45  C   UNL     1       4.005  17.477   9.979  1.00  0.00     0.031 C 
ATOM     46  C   UNL     1       0.596  11.992  12.408  1.00  0.00     0.029 A 
ATOM     47  C   UNL     1       1.319  12.781  13.400  1.00  0.00     0.049 A 
ATOM     48  H   UNL     1       2.384  14.543  13.089  1.00  0.00     0.167 HD
ATOM     49  C   UNL     1       4.835  18.075  12.236  1.00  0.00     0.037 A 
ATOM     50  C   UNL     1       1.411  12.491  14.711  1.00  0.00     0.037 A 
ATOM     51  C   UNL     1       4.902  17.904  13.664  1.00  0.00     0.049 A 
ATOM     52  C   UNL     1       2.176  13.416  15.615  1.00  0.00     0.074 A 
ATOM     53  C   UNL     1       5.539  18.701  14.600  1.00  0.00     0.029 A 
ATOM     54  N   UNL     1       4.305  16.865  14.363  1.00  0.00    -0.354 N 
ATOM     55  N   UNL     1       2.843  14.503  15.310  1.00  0.00    -0.248 NA
ATOM     56  C   UNL     1       2.190  13.082  17.046  1.00  0.00     0.031 C 
ATOM     57  C   UNL     1       5.356  18.125  15.862  1.00  0.00     0.029 A 
ATOM     58  C   UNL     1       4.571  16.992  15.716  1.00  0.00     0.049 A 
ATOM     59  H   UNL     1       3.772  16.144  13.957  1.00  0.00     0.167 HD
ATOM     60  C   UNL     1       3.333  14.996  16.512  1.00  0.00     0.074 A 
ATOM     61  C   UNL     1       2.873  14.098  17.552  1.00  0.00     0.031 C 
ATOM     62  C   UNL     1       4.097  16.093  16.736  1.00  0.00     0.037 A 
BRANCH  49  63
ATOM     63  C   UNL     1       5.607  19.204  11.620  1.00  0.00     0.057 A 
ATOM     64  C   UNL     1       4.972  20.342  11.106  1.00  0.00     0.134 A 
ATOM     65  C   UNL     1       7.007  19.173  11.579  1.00  0.00     0.134 A 
ATOM     66  F   UNL     1       3.633  20.430  11.104  1.00  0.00    -0.206 F 
ATOM     67  C   UNL     1       5.699  21.397  10.552  1.00  0.00     0.040 A 
ATOM     68  C   UNL     1       7.747  20.233  11.051  1.00  0.00     0.040 A 
ATOM     69  F   UNL     1       7.679  18.116  12.060  1.00  0.00    -0.206 F 
ATOM     70  C   UNL     1       7.092  21.347  10.530  1.00  0.00     0.006 A 
ENDBRANCH  49  63
BRANCH  50  71
ATOM     71  C   UNL     1       0.740  11.283  15.252  1.00  0.00     0.057 A 
ATOM     72  C   UNL     1      -0.394  11.391  16.065  1.00  0.00     0.134 A 
ATOM     73  C   UNL     1       1.216   9.997  14.975  1.00  0.00     0.134 A 
ATOM     74  F   UNL     1      -0.887  12.598  16.379  1.00  0.00    -0.206 F 
ATOM     75  C   UNL     1      -1.018  10.264  16.603  1.00  0.00     0.040 A 
ATOM     76  C   UNL     1       0.589   8.860  15.486  1.00  0.00     0.040 A 
ATOM     77  F   UNL     1       2.292   9.827  14.192  1.00  0.00    -0.206 F 
ATOM     78  C   UNL     1      -0.528   8.992  16.309  1.00  0.00     0.006 A 
ENDBRANCH  50  71
BRANCH  62  79
ATOM     79  C   UNL     1       4.450  16.399  18.160  1.00  0.00     0.057 A 
ATOM     80  C   UNL     1       5.393  15.640  18.866  1.00  0.00     0.134 A 
ATOM     81  C   UNL     1       3.860  17.481  18.824  1.00  0.00     0.134 A 
ATOM     82  F   UNL     1       5.983  14.582  18.289  1.00  0.00    -0.206 F 
ATOM     83  C   UNL     1       5.717  15.933  20.191  1.00  0.00     0.040 A 
ATOM     84  C   UNL     1       4.194  17.799  20.141  1.00  0.00     0.040 A 
ATOM     85  F   UNL     1       2.956  18.252  18.201  1.00  0.00    -0.206 F 
ATOM     86  C   UNL     1       5.121  17.019  20.830  1.00  0.00     0.006 A 
ENDBRANCH  62  79
ENDBRANCH  36  37
ENDBRANCH  28  31
ENDBRANCH  26  27
ENDBRANCH  25  26
ENDBRANCH  24  25
ENDBRANCH   3  24
TORSDOF 16
