REMARK SMILES C[C@@H](C(=O)NCCCNC(=O)c1ccc(-c2c3nc(c(-c4c(F)cccc4F)c4ccc([nH]4)c(-c4c(F)cccc4F)c4nc(c(-c5c(F)cccc5F)c5ccc2[nH]5)C=C4)C=C3)cc1)c1ccc(C[C@H]2CCCC2=O)cc1[N+](=O)[O-]
REMARK SMILES IDX 6 1 5 2 3 3 4 4 2 6 1 7 66 8 67 9 78 10 68 11 77 12 69 13
REMARK SMILES IDX 79 14 80 15 81 16 70 17 71 18 72 19 75 20 73 21 74 22 76 23
REMARK SMILES IDX 7 24 8 25 9 26 10 27 11 29 12 30 13 31 65 32 14 33 64 34
REMARK SMILES IDX 15 35 16 36 17 37 58 38 18 39 63 40 57 41 59 42 19 43 62 44
REMARK SMILES IDX 56 45 55 46 20 48 46 49 29 50 45 51 30 52 33 53 44 54 60 55
REMARK SMILES IDX 31 56 32 57 43 59 61 60 34 61 21 62 22 63 27 64 23 65 24 66
REMARK SMILES IDX 26 67 28 68 25 69 47 70 48 71 53 72 49 73 50 74 52 75 54 76
REMARK SMILES IDX 51 77 35 78 36 79 41 80 37 81 38 82 40 83 42 84 39 85
REMARK H PARENT 5 5 9 28 59 47 33 58
REMARK Flexibility Score: inf
ROOT
ATOM      1  C   UNL     1       3.429  -0.455   1.978  1.00  0.00     0.117 C 
ENDROOT
BRANCH   1   2
ATOM      2  N   UNL     1       2.356   0.300   2.599  1.00  0.00    -0.356 N 
ATOM      3  C   UNL     1       1.033   0.382   2.282  1.00  0.00     0.227 C 
ATOM      4  O   UNL     1       0.352   1.145   2.969  1.00  0.00    -0.274 OA
ATOM      5  H   UNL     1       2.628   0.841   3.376  1.00  0.00     0.163 HD
BRANCH   3   6
ATOM      6  C   UNL     1       0.454  -0.485   1.146  1.00  0.00     0.112 C 
ATOM      7  C   UNL     1       0.905  -0.008  -0.236  1.00  0.00     0.023 C 
BRANCH   6   8
ATOM      8  C   UNL     1      -1.074  -0.555   1.175  1.00  0.00     0.042 A 
ATOM      9  C   UNL     1      -1.810   0.641   1.069  1.00  0.00     0.012 A 
ATOM     10  C   UNL     1      -1.814  -1.747   1.299  1.00  0.00     0.273 A 
ATOM     11  C   UNL     1      -3.204   0.652   1.141  1.00  0.00     0.004 A 
ATOM     12  C   UNL     1      -3.218  -1.737   1.409  1.00  0.00     0.089 A 
ATOM     13  C   UNL     1      -3.921  -0.529   1.355  1.00  0.00    -0.040 A 
BRANCH  10  14
ATOM     14  N   UNL     1      -1.173  -3.059   1.269  1.00  0.00     0.063 N 
ATOM     15  O   UNL     1      -1.526  -3.883   2.123  1.00  0.00    -0.258 OA
ATOM     16  O   UNL     1      -0.345  -3.272   0.372  1.00  0.00    -0.258 OA
ENDBRANCH  10  14
BRANCH  13  17
ATOM     17  C   UNL     1      -5.421  -0.494   1.521  1.00  0.00     0.047 C 
BRANCH  17  18
ATOM     18  C   UNL     1      -5.950   0.065   2.848  1.00  0.00     0.060 C 
ATOM     19  C   UNL     1      -5.426  -0.600   4.125  1.00  0.00     0.012 C 
ATOM     20  C   UNL     1      -5.575   1.513   3.070  1.00  0.00     0.136 C 
ATOM     21  C   UNL     1      -4.298   0.288   4.637  1.00  0.00     0.009 C 
ATOM     22  C   UNL     1      -4.708   1.711   4.285  1.00  0.00     0.076 C 
ATOM     23  O   UNL     1      -5.948   2.430   2.345  1.00  0.00    -0.299 OA
ENDBRANCH  17  18
ENDBRANCH  13  17
ENDBRANCH   6   8
ENDBRANCH   3   6
ENDBRANCH   1   2
BRANCH   1  24
ATOM     24  C   UNL     1       4.323   0.441   1.127  1.00  0.00     0.042 C 
BRANCH  24  25
ATOM     25  C   UNL     1       5.063   1.510   1.923  1.00  0.00     0.118 C 
BRANCH  25  26
ATOM     26  N   UNL     1       6.068   0.951   2.816  1.00  0.00    -0.352 N 
ATOM     27  C   UNL     1       7.419   1.196   2.864  1.00  0.00     0.251 C 
ATOM     28  H   UNL     1       5.732   0.306   3.480  1.00  0.00     0.163 HD
ATOM     29  O   UNL     1       8.149   0.508   3.571  1.00  0.00    -0.269 OA
BRANCH  27  30
ATOM     30  C   UNL     1       7.994   2.281   2.044  1.00  0.00     0.039 A 
ATOM     31  C   UNL     1       9.138   2.028   1.282  1.00  0.00     0.014 A 
ATOM     32  C   UNL     1       7.392   3.541   2.019  1.00  0.00     0.014 A 
ATOM     33  C   UNL     1       9.639   3.021   0.436  1.00  0.00     0.010 A 
ATOM     34  C   UNL     1       7.846   4.501   1.123  1.00  0.00     0.010 A 
ATOM     35  C   UNL     1       8.974   4.251   0.325  1.00  0.00    -0.014 A 
BRANCH  35  36
ATOM     36  C   UNL     1       9.431   5.317  -0.601  1.00  0.00     0.031 A 
ATOM     37  C   UNL     1       9.866   6.641  -0.042  1.00  0.00     0.074 A 
ATOM     38  C   UNL     1       9.335   5.142  -1.932  1.00  0.00     0.049 A 
ATOM     39  N   UNL     1      10.100   7.768  -0.663  1.00  0.00    -0.248 NA
ATOM     40  C   UNL     1      10.017   6.714   1.420  1.00  0.00     0.031 C 
ATOM     41  C   UNL     1       8.895   3.915  -2.596  1.00  0.00     0.029 A 
ATOM     42  N   UNL     1       9.570   6.016  -2.964  1.00  0.00    -0.354 N 
ATOM     43  C   UNL     1      10.389   8.691   0.334  1.00  0.00     0.074 A 
ATOM     44  C   UNL     1      10.259   8.003   1.600  1.00  0.00     0.031 C 
ATOM     45  C   UNL     1       8.885   4.116  -3.924  1.00  0.00     0.029 A 
ATOM     46  C   UNL     1       9.273   5.496  -4.200  1.00  0.00     0.049 A 
ATOM     47  H   UNL     1       9.918   6.927  -2.831  1.00  0.00     0.167 HD
ATOM     48  C   UNL     1      10.743   9.992   0.204  1.00  0.00     0.037 A 
ATOM     49  C   UNL     1       9.284   6.074  -5.416  1.00  0.00     0.037 A 
ATOM     50  C   UNL     1      10.899  10.661  -1.060  1.00  0.00     0.049 A 
ATOM     51  C   UNL     1       9.687   7.517  -5.543  1.00  0.00     0.074 A 
ATOM     52  C   UNL     1      11.317  11.956  -1.305  1.00  0.00     0.029 A 
ATOM     53  N   UNL     1      10.642  10.082  -2.295  1.00  0.00    -0.354 N 
ATOM     54  N   UNL     1      10.007   8.369  -4.599  1.00  0.00    -0.248 NA
ATOM     55  C   UNL     1       9.734   8.078  -6.900  1.00  0.00     0.031 C 
ATOM     56  C   UNL     1      11.274  12.174  -2.686  1.00  0.00     0.029 A 
ATOM     57  C   UNL     1      10.876  10.999  -3.305  1.00  0.00     0.049 A 
ATOM     58  H   UNL     1      10.338   9.155  -2.432  1.00  0.00     0.167 HD
ATOM     59  C   UNL     1      10.322   9.556  -5.247  1.00  0.00     0.074 A 
ATOM     60  C   UNL     1      10.154   9.315  -6.665  1.00  0.00     0.031 C 
ATOM     61  C   UNL     1      10.719  10.737  -4.713  1.00  0.00     0.037 A 
BRANCH  48  62
ATOM     62  C   UNL     1      10.970  10.770   1.467  1.00  0.00     0.057 A 
ATOM     63  C   UNL     1      12.059  10.514   2.311  1.00  0.00     0.134 A 
ATOM     64  C   UNL     1      10.082  11.784   1.849  1.00  0.00     0.134 A 
ATOM     65  F   UNL     1      12.939   9.547   2.011  1.00  0.00    -0.206 F 
ATOM     66  C   UNL     1      12.233  11.209   3.510  1.00  0.00     0.040 A 
ATOM     67  C   UNL     1      10.264  12.507   3.029  1.00  0.00     0.040 A 
ATOM     68  F   UNL     1       9.022  12.087   1.084  1.00  0.00    -0.206 F 
ATOM     69  C   UNL     1      11.335  12.211   3.869  1.00  0.00     0.006 A 
ENDBRANCH  48  62
BRANCH  49  70
ATOM     70  C   UNL     1       8.911   5.274  -6.609  1.00  0.00     0.057 A 
ATOM     71  C   UNL     1       9.882   4.847  -7.521  1.00  0.00     0.134 A 
ATOM     72  C   UNL     1       7.587   4.886  -6.844  1.00  0.00     0.134 A 
ATOM     73  F   UNL     1      11.165   5.201  -7.356  1.00  0.00    -0.206 F 
ATOM     74  C   UNL     1       9.549   4.066  -8.629  1.00  0.00     0.040 A 
ATOM     75  C   UNL     1       7.242   4.088  -7.936  1.00  0.00     0.040 A 
ATOM     76  F   UNL     1       6.613   5.256  -5.999  1.00  0.00    -0.206 F 
ATOM     77  C   UNL     1       8.226   3.678  -8.834  1.00  0.00     0.006 A 
ENDBRANCH  49  70
BRANCH  61  78
ATOM     78  C   UNL     1      11.050  11.850  -5.662  1.00  0.00     0.057 A 
ATOM     79  C   UNL     1      10.056  12.580  -6.323  1.00  0.00     0.134 A 
ATOM     80  C   UNL     1      12.381  12.245  -5.852  1.00  0.00     0.134 A 
ATOM     81  F   UNL     1       8.764  12.244  -6.191  1.00  0.00    -0.206 F 
ATOM     82  C   UNL     1      10.374  13.662  -7.146  1.00  0.00     0.040 A 
ATOM     83  C   UNL     1      12.710  13.338  -6.654  1.00  0.00     0.040 A 
ATOM     84  F   UNL     1      13.379  11.590  -5.240  1.00  0.00    -0.206 F 
ATOM     85  C   UNL     1      11.704  14.050  -7.304  1.00  0.00     0.006 A 
ENDBRANCH  61  78
ENDBRANCH  35  36
ENDBRANCH  27  30
ENDBRANCH  25  26
ENDBRANCH  24  25
ENDBRANCH   1  24
TORSDOF 14
