REMARK SMILES CC(C)(C)OC(=O)N1CCC(n2c(=S)[nH]c3cc(C(=O)NCCCNC(=O)c4ccc(-c5c6nc(c(-c7c(F)cccc7F)c7ccc([nH]7)c(-c7c(F)cccc7F)c7nc(c(-c8c(F)cccc8F)c8ccc5[nH]8)C=C7)C=C6)cc4)ccc3c2=O)CC1
REMARK SMILES IDX 22 1 21 2 19 3 20 4 18 6 12 7 13 8 85 9 14 10 15 11 84 12
REMARK SMILES IDX 86 13 16 14 83 16 17 17 82 18 11 19 6 20 7 21 8 22 9 23
REMARK SMILES IDX 88 24 10 25 87 26 5 27 2 28 1 29 3 30 4 31 23 32 24 33 25 34
REMARK SMILES IDX 26 35 27 37 28 38 29 39 81 40 30 41 80 42 31 43 32 44 33 45
REMARK SMILES IDX 74 46 34 47 79 48 73 49 75 50 35 51 78 52 72 53 71 54 36 56
REMARK SMILES IDX 62 57 45 58 61 59 46 60 49 61 60 62 76 63 47 64 48 65 59 67
REMARK SMILES IDX 77 68 50 69 37 70 38 71 43 72 39 73 40 74 42 75 44 76 41 77
REMARK SMILES IDX 63 78 64 79 69 80 65 81 66 82 68 83 70 84 67 85 51 86 52 87
REMARK SMILES IDX 57 88 53 89 54 90 56 91 58 92 55 93
REMARK H PARENT 21 5 15 15 25 36 75 55 49 66
REMARK Flexibility Score: inf
ROOT
ATOM      1  C   UNL     1       5.181  11.179  -9.557  1.00  0.00     0.118 C 
ENDROOT
BRANCH   1   2
ATOM      2  N   UNL     1       4.017  11.990  -9.238  1.00  0.00    -0.352 N 
ATOM      3  C   UNL     1       3.073  11.902  -8.246  1.00  0.00     0.251 C 
ATOM      4  O   UNL     1       2.219  12.786  -8.186  1.00  0.00    -0.269 OA
ATOM      5  H   UNL     1       3.881  12.748  -9.851  1.00  0.00     0.163 HD
BRANCH   3   6
ATOM      6  C   UNL     1       3.058  10.821  -7.221  1.00  0.00     0.041 A 
ATOM      7  N   UNL     1       2.156   8.174  -3.006  1.00  0.00    -0.282 N 
ATOM      8  C   UNL     1       1.611   9.450  -2.780  1.00  0.00     0.180 A 
ATOM      9  C   UNL     1       2.982   7.917  -4.106  1.00  0.00     0.262 A 
ATOM     10  S   UNL     1       0.726   9.960  -1.445  1.00  0.00    -0.040 S 
ATOM     11  N   UNL     1       1.789  10.393  -3.762  1.00  0.00    -0.332 N 
ATOM     12  C   UNL     1       2.997   8.906  -5.186  1.00  0.00     0.064 A 
ATOM     13  O   UNL     1       3.717   6.945  -4.248  1.00  0.00    -0.269 OA
ATOM     14  C   UNL     1       2.421  10.143  -4.976  1.00  0.00     0.054 A 
ATOM     15  H   UNL     1       1.449  11.301  -3.597  1.00  0.00     0.169 HD
ATOM     16  C   UNL     1       3.555   8.587  -6.421  1.00  0.00     0.017 A 
ATOM     17  C   UNL     1       2.460  11.113  -5.980  1.00  0.00     0.040 A 
ATOM     18  C   UNL     1       3.553   9.533  -7.442  1.00  0.00     0.015 A 
BRANCH   7  19
ATOM     19  C   UNL     1       1.736   7.017  -2.155  1.00  0.00     0.097 C 
ATOM     20  C   UNL     1       0.376   3.071  -1.947  1.00  0.00     0.410 C 
ATOM     21  O   UNL     1      -0.573   2.845  -2.682  1.00  0.00    -0.224 OA
ATOM     22  N   UNL     1       0.778   4.349  -1.610  1.00  0.00    -0.308 N 
ATOM     23  C   UNL     1      -0.170   5.437  -1.747  1.00  0.00     0.125 C 
ATOM     24  C   UNL     1       2.113   4.703  -1.140  1.00  0.00     0.125 C 
ATOM     25  C   UNL     1       0.371   6.513  -2.666  1.00  0.00     0.047 C 
ATOM     26  C   UNL     1       2.698   5.808  -2.030  1.00  0.00     0.047 C 
BRANCH  20  27
ATOM     27  O   UNL     1       1.088   2.118  -1.290  1.00  0.00    -0.444 OA
BRANCH  27  28
ATOM     28  C   UNL     1       0.644   0.734  -1.313  1.00  0.00     0.106 C 
ATOM     29  C   UNL     1       1.363   0.071  -0.129  1.00  0.00     0.056 C 
ATOM     30  C   UNL     1       1.090   0.069  -2.616  1.00  0.00     0.056 C 
ATOM     31  C   UNL     1      -0.870   0.570  -1.085  1.00  0.00     0.056 C 
ENDBRANCH  27  28
ENDBRANCH  20  27
ENDBRANCH   7  19
ENDBRANCH   3   6
ENDBRANCH   1   2
BRANCH   1  32
ATOM     32  C   UNL     1       4.861  10.155 -10.645  1.00  0.00     0.042 C 
BRANCH  32  33
ATOM     33  C   UNL     1       4.777  10.762 -12.038  1.00  0.00     0.118 C 
BRANCH  33  34
ATOM     34  N   UNL     1       6.088  11.072 -12.588  1.00  0.00    -0.352 N 
ATOM     35  C   UNL     1       6.638  10.689 -13.789  1.00  0.00     0.251 C 
ATOM     36  H   UNL     1       6.663  11.635 -12.020  1.00  0.00     0.163 HD
ATOM     37  O   UNL     1       7.826  10.896 -14.016  1.00  0.00    -0.269 OA
BRANCH  35  38
ATOM     38  C   UNL     1       5.803   9.990 -14.790  1.00  0.00     0.039 A 
ATOM     39  C   UNL     1       4.517  10.444 -15.090  1.00  0.00     0.014 A 
ATOM     40  C   UNL     1       6.307   8.844 -15.411  1.00  0.00     0.014 A 
ATOM     41  C   UNL     1       3.675   9.662 -15.875  1.00  0.00     0.010 A 
ATOM     42  C   UNL     1       5.486   8.101 -16.263  1.00  0.00     0.010 A 
ATOM     43  C   UNL     1       4.145   8.474 -16.455  1.00  0.00    -0.014 A 
BRANCH  43  44
ATOM     44  C   UNL     1       3.211   7.605 -17.216  1.00  0.00     0.031 A 
ATOM     45  C   UNL     1       2.852   6.239 -16.695  1.00  0.00     0.074 A 
ATOM     46  C   UNL     1       2.647   8.062 -18.349  1.00  0.00     0.049 A 
ATOM     47  N   UNL     1       2.070   5.330 -17.221  1.00  0.00    -0.248 NA
ATOM     48  C   UNL     1       3.455   5.838 -15.413  1.00  0.00     0.031 C 
ATOM     49  C   UNL     1       2.885   9.380 -18.940  1.00  0.00     0.029 A 
ATOM     50  N   UNL     1       1.739   7.477 -19.195  1.00  0.00    -0.354 N 
ATOM     51  C   UNL     1       2.112   4.243 -16.356  1.00  0.00     0.074 A 
ATOM     52  C   UNL     1       3.012   4.597 -15.279  1.00  0.00     0.031 C 
ATOM     53  C   UNL     1       2.106   9.522 -20.024  1.00  0.00     0.029 A 
ATOM     54  C   UNL     1       1.363   8.285 -20.239  1.00  0.00     0.049 A 
ATOM     55  H   UNL     1       1.391   6.565 -19.065  1.00  0.00     0.167 HD
ATOM     56  C   UNL     1       1.455   3.062 -16.445  1.00  0.00     0.037 A 
ATOM     57  C   UNL     1       0.523   8.049 -21.264  1.00  0.00     0.037 A 
ATOM     58  C   UNL     1       0.534   2.724 -17.498  1.00  0.00     0.049 A 
ATOM     59  C   UNL     1      -0.144   6.708 -21.372  1.00  0.00     0.074 A 
ATOM     60  C   UNL     1      -0.212   1.569 -17.656  1.00  0.00     0.029 A 
ATOM     61  N   UNL     1       0.233   3.544 -18.575  1.00  0.00    -0.354 N 
ATOM     62  N   UNL     1      -0.100   5.693 -20.543  1.00  0.00    -0.248 NA
ATOM     63  C   UNL     1      -0.964   6.475 -22.568  1.00  0.00     0.031 C 
ATOM     64  C   UNL     1      -0.932   1.673 -18.852  1.00  0.00     0.029 A 
ATOM     65  C   UNL     1      -0.666   2.910 -19.416  1.00  0.00     0.049 A 
ATOM     66  H   UNL     1       0.604   4.444 -18.720  1.00  0.00     0.167 HD
ATOM     67  C   UNL     1      -0.906   4.711 -21.104  1.00  0.00     0.074 A 
ATOM     68  C   UNL     1      -1.432   5.256 -22.339  1.00  0.00     0.031 C 
ATOM     69  C   UNL     1      -1.186   3.470 -20.637  1.00  0.00     0.037 A 
BRANCH  56  70
ATOM     70  C   UNL     1       1.734   2.035 -15.386  1.00  0.00     0.057 A 
ATOM     71  C   UNL     1       2.479   0.888 -15.689  1.00  0.00     0.134 A 
ATOM     72  C   UNL     1       1.258   2.168 -14.075  1.00  0.00     0.134 A 
ATOM     73  F   UNL     1       2.961   0.697 -16.926  1.00  0.00    -0.206 F 
ATOM     74  C   UNL     1       2.745  -0.087 -14.726  1.00  0.00     0.040 A 
ATOM     75  C   UNL     1       1.537   1.211 -13.097  1.00  0.00     0.040 A 
ATOM     76  F   UNL     1       0.551   3.250 -13.714  1.00  0.00    -0.206 F 
ATOM     77  C   UNL     1       2.279   0.077 -13.423  1.00  0.00     0.006 A 
ENDBRANCH  56  70
BRANCH  57  78
ATOM     78  C   UNL     1       0.266   9.105 -22.273  1.00  0.00     0.057 A 
ATOM     79  C   UNL     1       1.250   9.506 -23.183  1.00  0.00     0.134 A 
ATOM     80  C   UNL     1      -0.983   9.731 -22.354  1.00  0.00     0.134 A 
ATOM     81  F   UNL     1       2.468   8.944 -23.155  1.00  0.00    -0.206 F 
ATOM     82  C   UNL     1       1.007  10.502 -24.130  1.00  0.00     0.040 A 
ATOM     83  C   UNL     1      -1.248  10.711 -23.311  1.00  0.00     0.040 A 
ATOM     84  F   UNL     1      -1.973   9.373 -21.522  1.00  0.00    -0.206 F 
ATOM     85  C   UNL     1      -0.248  11.102 -24.200  1.00  0.00     0.006 A 
ENDBRANCH  57  78
BRANCH  69  86
ATOM     86  C   UNL     1      -2.133   2.636 -21.446  1.00  0.00     0.057 A 
ATOM     87  C   UNL     1      -3.441   2.411 -21.001  1.00  0.00     0.134 A 
ATOM     88  C   UNL     1      -1.745   2.038 -22.651  1.00  0.00     0.134 A 
ATOM     89  F   UNL     1      -3.872   2.952 -19.852  1.00  0.00    -0.206 F 
ATOM     90  C   UNL     1      -4.330   1.615 -21.724  1.00  0.00     0.040 A 
ATOM     91  C   UNL     1      -2.632   1.259 -23.395  1.00  0.00     0.040 A 
ATOM     92  F   UNL     1      -0.510   2.230 -23.139  1.00  0.00    -0.206 F 
ATOM     93  C   UNL     1      -3.928   1.041 -22.928  1.00  0.00     0.006 A 
ENDBRANCH  69  86
ENDBRANCH  43  44
ENDBRANCH  35  38
ENDBRANCH  33  34
ENDBRANCH  32  33
ENDBRANCH   1  32
TORSDOF 13
