REMARK SMILES O=C(C[C@]12CSc3[nH]c(=O)sc3[C@H]1c1cc(Cl)ccc1OC2=O)NCCCNC(=O)c1ccc(-c2c3nc(c(-c4c(F)cccc4F)c4ccc([nH]4)c(-c4c(F)cccc4F)c4nc(c(-c5c(F)cccc5F)c5ccc2[nH]5)C=C4)C=C3)cc1
REMARK SMILES IDX 26 1 25 2 24 3 1 4 2 5 3 7 4 8 5 9 13 10 22 11 6 12 12 13
REMARK SMILES IDX 14 14 21 15 23 16 7 17 11 18 15 19 20 20 8 21 9 22 16 23
REMARK SMILES IDX 19 24 10 26 17 27 18 28 27 29 28 30 29 31 30 33 31 34 32 35
REMARK SMILES IDX 84 36 33 37 83 38 34 39 35 40 36 41 77 42 37 43 82 44 76 45
REMARK SMILES IDX 78 46 38 47 81 48 75 49 74 50 39 52 65 53 48 54 64 55 49 56
REMARK SMILES IDX 52 57 63 58 79 59 50 60 51 61 62 63 80 64 53 65 40 66 41 67
REMARK SMILES IDX 46 68 42 69 43 70 45 71 47 72 44 73 66 74 67 75 72 76 68 77
REMARK SMILES IDX 69 78 71 79 73 80 70 81 54 82 55 83 60 84 56 85 57 86 59 87
REMARK SMILES IDX 61 88 58 89
REMARK H PARENT 24 6 8 25 28 32 78 51 52 62
REMARK Flexibility Score: inf
ROOT
ATOM      1  C   UNL     1       2.769   1.216   3.411  1.00  0.00     0.042 C 
ENDROOT
BRANCH   1   2
ATOM      2  C   UNL     1       2.460   1.176   1.920  1.00  0.00     0.117 C 
BRANCH   2   3
ATOM      3  N   UNL     1       3.227   0.148   1.202  1.00  0.00    -0.356 N 
ATOM      4  O   UNL     1       1.633  -1.478   1.149  1.00  0.00    -0.275 OA
ATOM      5  C   UNL     1       2.696  -1.036   0.725  1.00  0.00     0.221 C 
ATOM      6  H   UNL     1       4.185   0.313   1.052  1.00  0.00     0.163 HD
BRANCH   5   7
ATOM      7  C   UNL     1       3.477  -1.746  -0.447  1.00  0.00     0.120 C 
BRANCH   7   8
ATOM      8  C   UNL     1       4.097  -0.780  -1.540  1.00  0.00     0.098 C 
ATOM      9  C   UNL     1       5.572  -0.594  -1.094  1.00  0.00     0.097 C 
ATOM     10  C   UNL     1       3.046   0.367  -1.710  1.00  0.00     0.085 C 
ATOM     11  C   UNL     1       4.341  -1.002  -3.079  1.00  0.00     0.319 C 
ATOM     12  S   UNL     1       5.912   0.963  -0.315  1.00  0.00    -0.106 SA
ATOM     13  C   UNL     1       3.735   1.705  -1.867  1.00  0.00     0.049 A 
ATOM     14  C   UNL     1       1.844  -0.381  -2.432  1.00  0.00     0.006 A 
ATOM     15  O   UNL     1       3.413  -1.650  -3.816  1.00  0.00    -0.426 OA
ATOM     16  O   UNL     1       5.256  -0.452  -3.696  1.00  0.00    -0.251 OA
ATOM     17  C   UNL     1       4.911   1.981  -1.251  1.00  0.00     0.090 A 
ATOM     18  S   UNL     1       2.926   3.222  -2.222  1.00  0.00    -0.077 S 
ATOM     19  C   UNL     1       0.618  -0.551  -1.741  1.00  0.00     0.028 A 
ATOM     20  C   UNL     1       2.143  -1.444  -3.318  1.00  0.00     0.134 A 
ATOM     21  N   UNL     1       5.206   3.295  -1.096  1.00  0.00    -0.307 N 
ATOM     22  C   UNL     1       4.243   4.163  -1.480  1.00  0.00     0.305 A 
ATOM     23  C   UNL     1      -0.126  -1.756  -1.847  1.00  0.00     0.041 A 
ATOM     24  C   UNL     1       1.336  -2.569  -3.542  1.00  0.00     0.049 A 
ATOM     25  H   UNL     1       6.067   3.598  -0.727  1.00  0.00     0.171 HD
ATOM     26  O   UNL     1       4.243   5.381  -1.289  1.00  0.00    -0.257 OA
ATOM     27  Cl  UNL     1      -1.386  -2.098  -0.720  1.00  0.00    -0.084 Cl
ATOM     28  C   UNL     1       0.230  -2.762  -2.743  1.00  0.00     0.024 A 
ENDBRANCH   7   8
ENDBRANCH   5   7
ENDBRANCH   2   3
ENDBRANCH   1   2
BRANCH   1  29
ATOM     29  C   UNL     1       4.270   1.245   3.693  1.00  0.00     0.118 C 
BRANCH  29  30
ATOM     30  N   UNL     1       4.932   2.452   3.239  1.00  0.00    -0.352 N 
ATOM     31  C   UNL     1       5.311   3.615   3.845  1.00  0.00     0.251 C 
ATOM     32  H   UNL     1       5.159   2.427   2.281  1.00  0.00     0.163 HD
ATOM     33  O   UNL     1       6.083   4.332   3.203  1.00  0.00    -0.269 OA
BRANCH  31  34
ATOM     34  C   UNL     1       4.792   4.102   5.150  1.00  0.00     0.039 A 
ATOM     35  C   UNL     1       3.972   3.381   6.021  1.00  0.00     0.014 A 
ATOM     36  C   UNL     1       5.095   5.441   5.458  1.00  0.00     0.014 A 
ATOM     37  C   UNL     1       3.366   4.011   7.098  1.00  0.00     0.010 A 
ATOM     38  C   UNL     1       4.504   6.074   6.539  1.00  0.00     0.010 A 
ATOM     39  C   UNL     1       3.590   5.369   7.314  1.00  0.00    -0.014 A 
BRANCH  39  40
ATOM     40  C   UNL     1       2.916   6.004   8.436  1.00  0.00     0.031 A 
ATOM     41  C   UNL     1       3.341   5.491   9.768  1.00  0.00     0.074 A 
ATOM     42  C   UNL     1       2.086   7.051   8.255  1.00  0.00     0.049 A 
ATOM     43  N   UNL     1       2.619   4.926  10.681  1.00  0.00    -0.248 NA
ATOM     44  C   UNL     1       4.785   5.469  10.057  1.00  0.00     0.031 C 
ATOM     45  C   UNL     1       1.808   7.773   7.010  1.00  0.00     0.029 A 
ATOM     46  N   UNL     1       1.390   7.769   9.179  1.00  0.00    -0.354 N 
ATOM     47  C   UNL     1       3.483   4.667  11.745  1.00  0.00     0.074 A 
ATOM     48  C   UNL     1       4.814   4.851  11.237  1.00  0.00     0.031 C 
ATOM     49  C   UNL     1       1.210   8.951   7.297  1.00  0.00     0.029 A 
ATOM     50  C   UNL     1       0.945   9.006   8.723  1.00  0.00     0.049 A 
ATOM     51  H   UNL     1       1.216   7.442  10.091  1.00  0.00     0.167 HD
ATOM     52  C   UNL     1       3.020   4.583  13.024  1.00  0.00     0.037 A 
ATOM     53  C   UNL     1       0.470  10.022   9.488  1.00  0.00     0.037 A 
ATOM     54  C   UNL     1       1.606   4.298  13.038  1.00  0.00     0.049 A 
ATOM     55  C   UNL     1       0.095   9.449  10.805  1.00  0.00     0.074 A 
ATOM     56  C   UNL     1       0.809   3.264  12.587  1.00  0.00     0.029 A 
ATOM     57  N   UNL     1       0.750   5.342  13.288  1.00  0.00    -0.354 N 
ATOM     58  N   UNL     1      -0.915   8.643  10.979  1.00  0.00    -0.248 NA
ATOM     59  C   UNL     1       1.126   9.388  11.831  1.00  0.00     0.031 C 
ATOM     60  C   UNL     1      -0.389   3.892  12.132  1.00  0.00     0.029 A 
ATOM     61  C   UNL     1      -0.278   5.258  12.389  1.00  0.00     0.049 A 
ATOM     62  H   UNL     1       0.856   6.027  13.987  1.00  0.00     0.167 HD
ATOM     63  C   UNL     1      -0.451   7.682  11.866  1.00  0.00     0.074 A 
ATOM     64  C   UNL     1       0.787   8.235  12.414  1.00  0.00     0.031 C 
ATOM     65  C   UNL     1      -0.953   6.412  11.851  1.00  0.00     0.037 A 
BRANCH  52  66
ATOM     66  C   UNL     1       3.716   5.218  14.216  1.00  0.00     0.057 A 
ATOM     67  C   UNL     1       4.750   6.173  14.133  1.00  0.00     0.134 A 
ATOM     68  C   UNL     1       3.085   5.143  15.475  1.00  0.00     0.134 A 
ATOM     69  F   UNL     1       5.479   6.366  13.030  1.00  0.00    -0.206 F 
ATOM     70  C   UNL     1       5.044   7.063  15.169  1.00  0.00     0.040 A 
ATOM     71  C   UNL     1       3.343   6.058  16.502  1.00  0.00     0.040 A 
ATOM     72  F   UNL     1       2.116   4.245  15.709  1.00  0.00    -0.206 F 
ATOM     73  C   UNL     1       4.307   7.043  16.340  1.00  0.00     0.006 A 
ENDBRANCH  52  66
BRANCH  53  74
ATOM     74  C   UNL     1       0.611  11.480   9.273  1.00  0.00     0.057 A 
ATOM     75  C   UNL     1       1.722  12.018   8.600  1.00  0.00     0.134 A 
ATOM     76  C   UNL     1      -0.201  12.402   9.949  1.00  0.00     0.134 A 
ATOM     77  F   UNL     1       2.615  11.223   7.993  1.00  0.00    -0.206 F 
ATOM     78  C   UNL     1       2.013  13.387   8.601  1.00  0.00     0.040 A 
ATOM     79  C   UNL     1       0.082  13.776   9.964  1.00  0.00     0.040 A 
ATOM     80  F   UNL     1      -1.257  11.984  10.662  1.00  0.00    -0.206 F 
ATOM     81  C   UNL     1       1.197  14.271   9.295  1.00  0.00     0.006 A 
ENDBRANCH  53  74
BRANCH  65  82
ATOM     82  C   UNL     1      -2.171   6.155  11.011  1.00  0.00     0.057 A 
ATOM     83  C   UNL     1      -3.316   5.642  11.627  1.00  0.00     0.134 A 
ATOM     84  C   UNL     1      -2.196   6.265   9.612  1.00  0.00     0.134 A 
ATOM     85  F   UNL     1      -3.340   5.451  12.956  1.00  0.00    -0.206 F 
ATOM     86  C   UNL     1      -4.441   5.267  10.891  1.00  0.00     0.040 A 
ATOM     87  C   UNL     1      -3.328   5.926   8.866  1.00  0.00     0.040 A 
ATOM     88  F   UNL     1      -1.110   6.647   8.928  1.00  0.00    -0.206 F 
ATOM     89  C   UNL     1      -4.455   5.420   9.507  1.00  0.00     0.006 A 
ENDBRANCH  65  82
ENDBRANCH  39  40
ENDBRANCH  31  34
ENDBRANCH  29  30
ENDBRANCH   1  29
TORSDOF 11
