REMARK SMILES Cc1ccc(-c2cc(Cl)cc3c2O[C@H](C(F)(F)F)C(C(=O)NCCCNC(=O)c2ccc(-c4c5nc(c(-c6c(F)cccc6F)c6ccc([nH]6)c(-c6c(F)cccc6F)c6nc(c(-c7c(F)cccc7F)c7ccc4[nH]7)C=C6)C=C5)cc2)=C3)cc1F
REMARK SMILES IDX 24 1 23 2 22 3 20 4 21 5 19 7 6 8 7 9 12 10 8 11 11 12 13 13
REMARK SMILES IDX 9 14 10 15 83 16 14 17 5 18 1 19 2 20 3 21 85 22 4 23 84 24
REMARK SMILES IDX 86 25 15 26 16 27 17 28 18 29 25 30 26 31 27 32 28 34 29 35
REMARK SMILES IDX 30 36 82 37 31 38 81 39 32 40 33 41 34 42 75 43 35 44 80 45
REMARK SMILES IDX 74 46 76 47 36 48 79 49 73 50 72 51 37 53 63 54 46 55 62 56
REMARK SMILES IDX 47 57 50 58 61 59 77 60 48 61 49 62 60 64 78 65 51 66 38 67
REMARK SMILES IDX 39 68 44 69 40 70 41 71 43 72 45 73 42 74 64 75 65 76 70 77
REMARK SMILES IDX 66 78 67 79 69 80 71 81 68 82 52 83 53 84 58 85 54 86 55 87
REMARK SMILES IDX 57 88 59 89 56 90
REMARK H PARENT 22 6 26 33 76 52 50 63
REMARK Flexibility Score: inf
ROOT
ATOM      1  C   UNL     1      -2.534  -4.518   7.210  1.00  0.00     0.042 C 
ENDROOT
BRANCH   1   2
ATOM      2  C   UNL     1      -2.097  -5.253   5.942  1.00  0.00     0.118 C 
BRANCH   2   3
ATOM      3  N   UNL     1      -3.193  -5.882   5.237  1.00  0.00    -0.352 N 
ATOM      4  C   UNL     1      -3.877  -5.667   4.090  1.00  0.00     0.251 C 
ATOM      5  O   UNL     1      -4.791  -6.473   3.884  1.00  0.00    -0.270 OA
ATOM      6  H   UNL     1      -3.527  -6.674   5.718  1.00  0.00     0.163 HD
BRANCH   4   7
ATOM      7  C   UNL     1      -3.617  -4.585   3.087  1.00  0.00     0.067 C 
ATOM      8  C   UNL     1      -3.076  -1.761  -0.021  1.00  0.00     0.026 A 
ATOM      9  C   UNL     1      -3.997  -1.757  -1.083  1.00  0.00     0.033 A 
ATOM     10  C   UNL     1      -3.300  -2.653   1.050  1.00  0.00     0.135 A 
ATOM     11  C   UNL     1      -5.100  -2.610  -1.068  1.00  0.00     0.042 A 
ATOM     12  C   UNL     1      -4.406  -3.509   1.061  1.00  0.00     0.019 A 
ATOM     13  O   UNL     1      -2.438  -2.609   2.114  1.00  0.00    -0.475 OA
ATOM     14  Cl  UNL     1      -6.213  -2.586  -2.381  1.00  0.00    -0.084 Cl
ATOM     15  C   UNL     1      -5.310  -3.484  -0.004  1.00  0.00     0.032 A 
ATOM     16  C   UNL     1      -4.603  -4.418   2.184  1.00  0.00     0.025 C 
ATOM     17  C   UNL     1      -2.340  -3.799   2.947  1.00  0.00     0.314 C 
BRANCH   8  18
ATOM     18  C   UNL     1      -1.911  -0.861  -0.054  1.00  0.00    -0.012 A 
ATOM     19  C   UNL     1       1.536   1.760  -0.013  1.00  0.00     0.047 C 
ATOM     20  C   UNL     1       0.332   0.869  -0.049  1.00  0.00    -0.015 A 
ATOM     21  C   UNL     1      -0.965   1.391  -0.049  1.00  0.00     0.007 A 
ATOM     22  C   UNL     1       0.491  -0.517  -0.071  1.00  0.00     0.126 A 
ATOM     23  C   UNL     1      -2.072   0.535  -0.054  1.00  0.00     0.009 A 
ATOM     24  C   UNL     1      -0.606  -1.375  -0.077  1.00  0.00     0.048 A 
ATOM     25  F   UNL     1       1.724  -1.045  -0.079  1.00  0.00    -0.207 F 
ENDBRANCH   8  18
BRANCH  17  26
ATOM     26  C   UNL     1      -1.156  -4.649   2.458  1.00  0.00     0.429 C 
ATOM     27  F   UNL     1      -0.008  -3.927   2.471  1.00  0.00    -0.167 F 
ATOM     28  F   UNL     1      -0.938  -5.723   3.251  1.00  0.00    -0.167 F 
ATOM     29  F   UNL     1      -1.330  -5.103   1.198  1.00  0.00    -0.167 F 
ENDBRANCH  17  26
ENDBRANCH   4   7
ENDBRANCH   2   3
ENDBRANCH   1   2
BRANCH   1  30
ATOM     30  C   UNL     1      -2.636  -5.360   8.480  1.00  0.00     0.118 C 
BRANCH  30  31
ATOM     31  N   UNL     1      -1.530  -6.256   8.736  1.00  0.00    -0.352 N 
ATOM     32  C   UNL     1      -0.282  -6.183   9.312  1.00  0.00     0.251 C 
ATOM     33  H   UNL     1      -1.721  -7.165   8.409  1.00  0.00     0.163 HD
ATOM     34  O   UNL     1       0.312  -7.248   9.426  1.00  0.00    -0.269 OA
BRANCH  32  35
ATOM     35  C   UNL     1       0.423  -4.931   9.708  1.00  0.00     0.039 A 
ATOM     36  C   UNL     1      -0.158  -3.715  10.068  1.00  0.00     0.014 A 
ATOM     37  C   UNL     1       1.825  -5.024   9.711  1.00  0.00     0.014 A 
ATOM     38  C   UNL     1       0.648  -2.581  10.313  1.00  0.00     0.010 A 
ATOM     39  C   UNL     1       2.624  -3.910   9.960  1.00  0.00     0.010 A 
ATOM     40  C   UNL     1       2.042  -2.665  10.211  1.00  0.00    -0.014 A 
BRANCH  40  41
ATOM     41  C   UNL     1       2.946  -1.508  10.274  1.00  0.00     0.031 A 
ATOM     42  C   UNL     1       3.111  -0.652  11.477  1.00  0.00     0.074 A 
ATOM     43  C   UNL     1       3.614  -1.119   9.161  1.00  0.00     0.049 A 
ATOM     44  N   UNL     1       3.354   0.620  11.422  1.00  0.00    -0.248 NA
ATOM     45  C   UNL     1       3.009  -1.158  12.841  1.00  0.00     0.031 C 
ATOM     46  C   UNL     1       4.699  -0.147   9.068  1.00  0.00     0.029 A 
ATOM     47  N   UNL     1       3.285  -1.386   7.834  1.00  0.00    -0.354 N 
ATOM     48  C   UNL     1       3.723   1.032  12.681  1.00  0.00     0.074 A 
ATOM     49  C   UNL     1       3.399  -0.085  13.546  1.00  0.00     0.031 C 
ATOM     50  C   UNL     1       4.789   0.291   7.803  1.00  0.00     0.029 A 
ATOM     51  C   UNL     1       3.691  -0.285   7.052  1.00  0.00     0.049 A 
ATOM     52  H   UNL     1       2.846  -2.202   7.501  1.00  0.00     0.167 HD
ATOM     53  C   UNL     1       4.400   2.205  12.856  1.00  0.00     0.037 A 
ATOM     54  C   UNL     1       2.821   0.402   6.250  1.00  0.00     0.037 A 
ATOM     55  C   UNL     1       4.676   2.893  11.601  1.00  0.00     0.049 A 
ATOM     56  C   UNL     1       2.667   1.863   6.568  1.00  0.00     0.074 A 
ATOM     57  C   UNL     1       5.785   2.944  10.772  1.00  0.00     0.029 A 
ATOM     58  N   UNL     1       3.647   3.490  10.902  1.00  0.00    -0.354 N 
ATOM     59  N   UNL     1       3.283   2.457   7.544  1.00  0.00    -0.248 NA
ATOM     60  C   UNL     1       1.702   2.737   5.896  1.00  0.00     0.031 C 
ATOM     61  C   UNL     1       5.418   3.604   9.573  1.00  0.00     0.029 A 
ATOM     62  C   UNL     1       4.080   3.937   9.668  1.00  0.00     0.049 A 
ATOM     63  H   UNL     1       2.726   3.584  11.237  1.00  0.00     0.167 HD
ATOM     64  C   UNL     1       2.760   3.709   7.702  1.00  0.00     0.074 A 
ATOM     65  C   UNL     1       1.793   3.856   6.634  1.00  0.00     0.031 C 
ATOM     66  C   UNL     1       3.125   4.509   8.739  1.00  0.00     0.037 A 
BRANCH  53  67
ATOM     67  C   UNL     1       5.047   2.615  14.157  1.00  0.00     0.057 A 
ATOM     68  C   UNL     1       6.277   3.307  14.180  1.00  0.00     0.134 A 
ATOM     69  C   UNL     1       4.500   2.352  15.422  1.00  0.00     0.134 A 
ATOM     70  F   UNL     1       6.883   3.715  13.058  1.00  0.00    -0.206 F 
ATOM     71  C   UNL     1       6.959   3.612  15.362  1.00  0.00     0.040 A 
ATOM     72  C   UNL     1       5.191   2.616  16.615  1.00  0.00     0.040 A 
ATOM     73  F   UNL     1       3.261   1.856  15.552  1.00  0.00    -0.206 F 
ATOM     74  C   UNL     1       6.434   3.235  16.587  1.00  0.00     0.006 A 
ENDBRANCH  53  67
BRANCH  54  75
ATOM     75  C   UNL     1       1.692  -0.443   5.792  1.00  0.00     0.057 A 
ATOM     76  C   UNL     1       1.994  -1.488   4.907  1.00  0.00     0.134 A 
ATOM     77  C   UNL     1       0.601  -0.588   6.652  1.00  0.00     0.134 A 
ATOM     78  F   UNL     1       3.010  -1.370   4.040  1.00  0.00    -0.206 F 
ATOM     79  C   UNL     1       1.403  -2.735   5.060  1.00  0.00     0.040 A 
ATOM     80  C   UNL     1       0.019  -1.833   6.822  1.00  0.00     0.040 A 
ATOM     81  F   UNL     1       0.243   0.396   7.490  1.00  0.00    -0.206 F 
ATOM     82  C   UNL     1       0.484  -2.923   6.084  1.00  0.00     0.006 A 
ENDBRANCH  54  75
BRANCH  66  83
ATOM     83  C   UNL     1       2.620   5.899   8.930  1.00  0.00     0.057 A 
ATOM     84  C   UNL     1       2.617   6.838   7.890  1.00  0.00     0.134 A 
ATOM     85  C   UNL     1       2.264   6.379  10.202  1.00  0.00     0.134 A 
ATOM     86  F   UNL     1       2.979   6.490   6.646  1.00  0.00    -0.206 F 
ATOM     87  C   UNL     1       2.267   8.175   8.101  1.00  0.00     0.040 A 
ATOM     88  C   UNL     1       1.953   7.720  10.434  1.00  0.00     0.040 A 
ATOM     89  F   UNL     1       2.193   5.560  11.263  1.00  0.00    -0.206 F 
ATOM     90  C   UNL     1       1.950   8.623   9.380  1.00  0.00     0.006 A 
ENDBRANCH  66  83
ENDBRANCH  40  41
ENDBRANCH  32  35
ENDBRANCH  30  31
ENDBRANCH   1  30
TORSDOF 12
