REMARK SMILES NC(=O)c1c(NC(=O)[C@H]2[C@@H](C(=O)NCCCNC(=O)c3ccc(-c4c5nc(c(-c6c(F)cccc6F)c6ccc([nH]6)c(-c6c(F)cccc6F)c6nc(c(-c7c(F)cccc7F)c7ccc4[nH]7)C=C6)C=C5)cc3)[C@@H]3C=C[C@H]2C3)sc2c1CCCCCC2
REMARK SMILES IDX 11 1 12 2 13 3 10 5 9 6 77 7 74 8 76 9 78 10 75 11 7 12 6 13
REMARK SMILES IDX 8 15 5 16 4 17 81 18 79 19 80 20 2 21 1 22 3 25 82 26 83 27
REMARK SMILES IDX 87 29 86 30 85 31 84 32 14 34 15 35 16 36 17 37 18 38 19 40
REMARK SMILES IDX 20 41 21 42 73 43 22 44 72 45 23 46 24 47 25 48 66 49 26 50
REMARK SMILES IDX 71 51 65 52 67 53 27 54 70 55 64 56 63 57 28 59 54 60 37 61
REMARK SMILES IDX 53 62 38 63 41 64 52 65 68 66 39 67 40 68 51 70 69 71 42 72
REMARK SMILES IDX 29 73 30 74 35 75 31 76 32 77 34 78 36 79 33 80 55 81 56 82
REMARK SMILES IDX 61 83 57 84 58 85 60 86 62 87 59 88 43 89 44 90 49 91 45 92
REMARK SMILES IDX 46 93 48 94 50 95 47 96
REMARK H PARENT 13 4 6 14 1 23 1 24 17 39 67 58 41 69
REMARK Flexibility Score: 90.00
ROOT
ATOM      1  C   UNL     1       1.545  -0.962  -0.654  1.00  0.00     0.224 C 
ATOM      2  O   UNL     1       1.180  -1.391   0.434  1.00  0.00    -0.275 OA
ATOM      3  N   UNL     1       1.944  -1.876  -1.604  1.00  0.00    -0.356 N 
ATOM      4  H   UNL     1       1.810  -2.821  -1.363  1.00  0.00     0.163 HD
ENDROOT
BRANCH   1   5
ATOM      5  C   UNL     1       1.670   0.510  -1.007  1.00  0.00     0.098 C 
ATOM      6  C   UNL     1       1.378   1.666   0.020  1.00  0.00     0.099 C 
ATOM      7  C   UNL     1       0.391   2.557  -0.789  1.00  0.00     0.025 C 
ATOM      8  C   UNL     1       0.744   0.879  -2.207  1.00  0.00     0.025 C 
ATOM      9  C   UNL     1       1.125   3.124  -1.991  1.00  0.00    -0.027 C 
ATOM     10  C   UNL     1      -0.457   1.517  -1.521  1.00  0.00     0.017 C 
ATOM     11  C   UNL     1       1.335   2.113  -2.845  1.00  0.00    -0.027 C 
BRANCH   6  12
ATOM     12  C   UNL     1       0.759   1.371   1.372  1.00  0.00     0.229 C 
ATOM     13  N   UNL     1       1.223   1.934   2.527  1.00  0.00    -0.317 N 
ATOM     14  H   UNL     1       0.954   1.429   3.328  1.00  0.00     0.170 HD
ATOM     15  O   UNL     1      -0.241   0.656   1.481  1.00  0.00    -0.274 OA
BRANCH  13  16
ATOM     16  C   UNL     1       1.981   3.047   2.833  1.00  0.00     0.108 A 
ATOM     17  C   UNL     1       2.522   4.152   2.213  1.00  0.00     0.077 A 
ATOM     18  C   UNL     1       3.150   5.072   3.160  1.00  0.00    -0.019 A 
ATOM     19  S   UNL     1       2.222   3.118   4.528  1.00  0.00    -0.122 S 
ATOM     20  C   UNL     1       2.970   4.663   4.473  1.00  0.00     0.011 A 
BRANCH  17  21
ATOM     21  C   UNL     1       2.403   4.534   0.825  1.00  0.00     0.251 C 
ATOM     22  N   UNL     1       1.248   5.233   0.566  1.00  0.00    -0.365 N 
ATOM     23  H   UNL     1       1.057   5.547  -0.347  1.00  0.00     0.159 HD
ATOM     24  H   UNL     1       0.613   5.420   1.294  1.00  0.00     0.159 HD
ATOM     25  O   UNL     1       3.278   4.381  -0.009  1.00  0.00    -0.269 OA
ENDBRANCH  17  21
BRANCH  18  26
ATOM     26  C   UNL     1       3.771   6.372   2.712  1.00  0.00     0.037 C 
BRANCH  26  27
ATOM     27  C   UNL     1       2.807   7.553   2.803  1.00  0.00     0.005 CG0
ATOM     28  G   UNL     1       2.103   7.736   4.148  1.00  0.00     0.000 G0
ENDBRANCH  26  27
ENDBRANCH  18  26
BRANCH  20  29
ATOM     29  C   UNL     1       3.252   5.339   5.798  1.00  0.00     0.047 C 
BRANCH  29  30
ATOM     30  C   UNL     1       3.907   6.721   5.776  1.00  0.00     0.006 C 
BRANCH  30  31
ATOM     31  C   UNL     1       3.028   7.906   5.351  1.00  0.00     0.000 C 
BRANCH  31  32
ATOM     32  C   UNL     1       2.103   7.736   4.148  1.00  0.00     0.000 CG0
ATOM     33  G   UNL     1       2.807   7.553   2.803  1.00  0.00     0.000 G0
ENDBRANCH  31  32
ENDBRANCH  30  31
ENDBRANCH  29  30
ENDBRANCH  20  29
ENDBRANCH  13  16
ENDBRANCH   6  12
ENDBRANCH   1   5
BRANCH   3  34
ATOM     34  C   UNL     1       2.536  -1.644  -2.918  1.00  0.00     0.117 C 
BRANCH  34  35
ATOM     35  C   UNL     1       3.950  -2.205  -3.065  1.00  0.00     0.042 C 
BRANCH  35  36
ATOM     36  C   UNL     1       4.005  -3.708  -3.294  1.00  0.00     0.118 C 
BRANCH  36  37
ATOM     37  N   UNL     1       3.294  -4.129  -4.505  1.00  0.00    -0.352 N 
ATOM     38  C   UNL     1       2.745  -5.361  -4.804  1.00  0.00     0.251 C 
ATOM     39  H   UNL     1       3.194  -3.440  -5.201  1.00  0.00     0.163 HD
ATOM     40  O   UNL     1       2.434  -5.657  -5.951  1.00  0.00    -0.269 OA
BRANCH  38  41
ATOM     41  C   UNL     1       2.551  -6.321  -3.707  1.00  0.00     0.039 A 
ATOM     42  C   UNL     1       2.991  -7.645  -3.808  1.00  0.00     0.014 A 
ATOM     43  C   UNL     1       2.006  -5.835  -2.526  1.00  0.00     0.014 A 
ATOM     44  C   UNL     1       2.972  -8.456  -2.671  1.00  0.00     0.010 A 
ATOM     45  C   UNL     1       2.146  -6.576  -1.380  1.00  0.00     0.010 A 
ATOM     46  C   UNL     1       2.567  -7.909  -1.448  1.00  0.00    -0.014 A 
BRANCH  46  47
ATOM     47  C   UNL     1       2.572  -8.682  -0.203  1.00  0.00     0.031 A 
ATOM     48  C   UNL     1       3.878  -9.160   0.347  1.00  0.00     0.074 A 
ATOM     49  C   UNL     1       1.491  -8.650   0.609  1.00  0.00     0.049 A 
ATOM     50  N   UNL     1       4.184 -10.343   0.781  1.00  0.00    -0.248 NA
ATOM     51  C   UNL     1       4.983  -8.194   0.445  1.00  0.00     0.031 C 
ATOM     52  C   UNL     1       0.229  -7.923   0.397  1.00  0.00     0.029 A 
ATOM     53  N   UNL     1       1.366  -9.105   1.885  1.00  0.00    -0.354 N 
ATOM     54  C   UNL     1       5.455 -10.241   1.353  1.00  0.00     0.074 A 
ATOM     55  C   UNL     1       5.938  -8.923   1.028  1.00  0.00     0.031 C 
ATOM     56  C   UNL     1      -0.393  -7.756   1.580  1.00  0.00     0.029 A 
ATOM     57  C   UNL     1       0.314  -8.532   2.580  1.00  0.00     0.049 A 
ATOM     58  H   UNL     1       1.967  -9.779   2.277  1.00  0.00     0.167 HD
ATOM     59  C   UNL     1       5.956 -11.182   2.205  1.00  0.00     0.037 A 
ATOM     60  C   UNL     1       0.038  -8.653   3.896  1.00  0.00     0.037 A 
ATOM     61  C   UNL     1       5.217 -12.413   2.148  1.00  0.00     0.049 A 
ATOM     62  C   UNL     1       0.743  -9.852   4.396  1.00  0.00     0.074 A 
ATOM     63  C   UNL     1       4.919 -13.335   1.163  1.00  0.00     0.029 A 
ATOM     64  N   UNL     1       4.380 -12.716   3.192  1.00  0.00    -0.354 N 
ATOM     65  N   UNL     1       0.455 -11.073   4.041  1.00  0.00    -0.248 NA
ATOM     66  C   UNL     1       2.047  -9.675   5.014  1.00  0.00     0.031 C 
ATOM     67  C   UNL     1       3.601 -13.788   1.470  1.00  0.00     0.029 A 
ATOM     68  C   UNL     1       3.199 -13.132   2.634  1.00  0.00     0.049 A 
ATOM     69  H   UNL     1       4.586 -12.649   4.152  1.00  0.00     0.167 HD
ATOM     70  C   UNL     1       1.675 -11.728   4.001  1.00  0.00     0.074 A 
ATOM     71  C   UNL     1       2.591 -10.862   4.737  1.00  0.00     0.031 C 
ATOM     72  C   UNL     1       1.896 -12.764   3.138  1.00  0.00     0.037 A 
BRANCH  59  73
ATOM     73  C   UNL     1       6.945 -10.909   3.314  1.00  0.00     0.057 A 
ATOM     74  C   UNL     1       7.600 -11.980   3.954  1.00  0.00     0.134 A 
ATOM     75  C   UNL     1       7.070  -9.663   3.957  1.00  0.00     0.134 A 
ATOM     76  F   UNL     1       7.527 -13.226   3.461  1.00  0.00    -0.206 F 
ATOM     77  C   UNL     1       8.290 -11.827   5.164  1.00  0.00     0.040 A 
ATOM     78  C   UNL     1       7.801  -9.488   5.138  1.00  0.00     0.040 A 
ATOM     79  F   UNL     1       6.413  -8.577   3.529  1.00  0.00    -0.206 F 
ATOM     80  C   UNL     1       8.393 -10.577   5.760  1.00  0.00     0.006 A 
ENDBRANCH  59  73
BRANCH  60  81
ATOM     81  C   UNL     1      -0.646  -7.679   4.766  1.00  0.00     0.057 A 
ATOM     82  C   UNL     1      -1.310  -8.076   5.930  1.00  0.00     0.134 A 
ATOM     83  C   UNL     1      -0.485  -6.294   4.579  1.00  0.00     0.134 A 
ATOM     84  F   UNL     1      -1.469  -9.377   6.211  1.00  0.00    -0.206 F 
ATOM     85  C   UNL     1      -1.790  -7.146   6.860  1.00  0.00     0.040 A 
ATOM     86  C   UNL     1      -0.968  -5.354   5.493  1.00  0.00     0.040 A 
ATOM     87  F   UNL     1       0.213  -5.815   3.538  1.00  0.00    -0.206 F 
ATOM     88  C   UNL     1      -1.617  -5.781   6.644  1.00  0.00     0.006 A 
ENDBRANCH  60  81
BRANCH  72  89
ATOM     89  C   UNL     1       0.708 -13.357   2.431  1.00  0.00     0.057 A 
ATOM     90  C   UNL     1      -0.066 -12.659   1.492  1.00  0.00     0.134 A 
ATOM     91  C   UNL     1       0.433 -14.720   2.580  1.00  0.00     0.134 A 
ATOM     92  F   UNL     1       0.196 -11.383   1.193  1.00  0.00    -0.206 F 
ATOM     93  C   UNL     1      -1.097 -13.271   0.775  1.00  0.00     0.040 A 
ATOM     94  C   UNL     1      -0.574 -15.354   1.846  1.00  0.00     0.040 A 
ATOM     95  F   UNL     1       1.175 -15.472   3.408  1.00  0.00    -0.206 F 
ATOM     96  C   UNL     1      -1.351 -14.626   0.948  1.00  0.00     0.006 A 
ENDBRANCH  72  89
ENDBRANCH  46  47
ENDBRANCH  38  41
ENDBRANCH  36  37
ENDBRANCH  35  36
ENDBRANCH  34  35
ENDBRANCH   3  34
TORSDOF 13
