REMARK SMILES O=C(NCCCNC(=O)[C@@H]1[C@@H](C(=O)Nc2cccc(C(F)(F)F)c2)[C@@H]2C=C[C@H]1O2)c1ccc(-c2c3nc(c(-c4c(F)cccc4F)c4ccc([nH]4)c(-c4c(F)cccc4F)c4nc(c(-c5c(F)cccc5F)c5ccc2[nH]5)C=C4)C=C3)cc1
REMARK SMILES IDX 5 1 4 2 3 3 1 4 2 5 30 7 31 8 83 9 32 10 82 11 33 12 34 13
REMARK SMILES IDX 35 14 76 15 36 16 81 17 75 18 77 19 37 20 80 21 74 22 73 23
REMARK SMILES IDX 38 25 64 26 47 27 63 28 48 29 51 30 62 31 78 32 49 33 50 34
REMARK SMILES IDX 61 36 79 37 52 38 39 39 40 40 45 41 41 42 42 43 44 44 46 45
REMARK SMILES IDX 43 46 65 47 66 48 71 49 67 50 68 51 70 52 72 53 69 54 53 55
REMARK SMILES IDX 54 56 59 57 55 58 56 59 58 60 60 61 57 62 6 63 7 64 8 65
REMARK SMILES IDX 9 67 10 68 11 69 28 70 25 71 27 72 29 73 26 74 12 75 13 76
REMARK SMILES IDX 14 77 15 79 16 80 24 81 17 82 19 83 18 84 20 85 21 86 22 87
REMARK SMILES IDX 23 88
REMARK H PARENT 3 6 77 24 51 35 7 66 14 78
REMARK Flexibility Score: inf
ROOT
ATOM      1  C   UNL     1       4.652   1.936   1.438  1.00  0.00     0.042 C 
ENDROOT
BRANCH   1   2
ATOM      2  C   UNL     1       4.380   0.460   1.195  1.00  0.00     0.118 C 
BRANCH   2   3
ATOM      3  N   UNL     1       2.952   0.213   1.011  1.00  0.00    -0.352 N 
ATOM      4  O   UNL     1       1.065  -0.213  -0.138  1.00  0.00    -0.269 OA
ATOM      5  C   UNL     1       2.283  -0.315  -0.063  1.00  0.00     0.251 C 
ATOM      6  H   UNL     1       2.383   0.464   1.774  1.00  0.00     0.163 HD
BRANCH   5   7
ATOM      7  C   UNL     1       3.039  -1.014  -1.117  1.00  0.00     0.039 A 
ATOM      8  C   UNL     1       4.109  -1.845  -0.775  1.00  0.00     0.014 A 
ATOM      9  C   UNL     1       2.642  -0.883  -2.450  1.00  0.00     0.014 A 
ATOM     10  C   UNL     1       4.857  -2.452  -1.769  1.00  0.00     0.010 A 
ATOM     11  C   UNL     1       3.327  -1.584  -3.442  1.00  0.00     0.010 A 
ATOM     12  C   UNL     1       4.437  -2.373  -3.104  1.00  0.00    -0.014 A 
BRANCH  12  13
ATOM     13  C   UNL     1       5.080  -3.257  -4.099  1.00  0.00     0.031 A 
ATOM     14  C   UNL     1       5.848  -2.699  -5.255  1.00  0.00     0.074 A 
ATOM     15  C   UNL     1       4.940  -4.587  -3.929  1.00  0.00     0.049 A 
ATOM     16  N   UNL     1       6.429  -3.341  -6.234  1.00  0.00    -0.248 NA
ATOM     17  C   UNL     1       5.977  -1.235  -5.333  1.00  0.00     0.031 C 
ATOM     18  C   UNL     1       4.193  -5.223  -2.837  1.00  0.00     0.029 A 
ATOM     19  N   UNL     1       5.415  -5.644  -4.659  1.00  0.00    -0.354 N 
ATOM     20  C   UNL     1       6.969  -2.365  -7.060  1.00  0.00     0.074 A 
ATOM     21  C   UNL     1       6.642  -1.084  -6.473  1.00  0.00     0.031 C 
ATOM     22  C   UNL     1       4.286  -6.554  -2.952  1.00  0.00     0.029 A 
ATOM     23  C   UNL     1       5.021  -6.865  -4.169  1.00  0.00     0.049 A 
ATOM     24  H   UNL     1       5.983  -5.538  -5.456  1.00  0.00     0.167 HD
ATOM     25  C   UNL     1       7.669  -2.539  -8.204  1.00  0.00     0.037 A 
ATOM     26  C   UNL     1       5.189  -8.101  -4.671  1.00  0.00     0.037 A 
ATOM     27  C   UNL     1       7.999  -3.828  -8.757  1.00  0.00     0.049 A 
ATOM     28  C   UNL     1       5.935  -8.249  -5.963  1.00  0.00     0.074 A 
ATOM     29  C   UNL     1       8.771  -4.114  -9.869  1.00  0.00     0.029 A 
ATOM     30  N   UNL     1       7.562  -5.043  -8.248  1.00  0.00    -0.354 N 
ATOM     31  N   UNL     1       6.503  -7.323  -6.696  1.00  0.00    -0.248 NA
ATOM     32  C   UNL     1       6.054  -9.608  -6.505  1.00  0.00     0.031 C 
ATOM     33  C   UNL     1       8.746  -5.496 -10.072  1.00  0.00     0.029 A 
ATOM     34  C   UNL     1       8.007  -6.077  -9.054  1.00  0.00     0.049 A 
ATOM     35  H   UNL     1       7.017  -5.152  -7.436  1.00  0.00     0.167 HD
ATOM     36  C   UNL     1       7.053  -7.985  -7.783  1.00  0.00     0.074 A 
ATOM     37  C   UNL     1       6.778  -9.395  -7.595  1.00  0.00     0.031 C 
ATOM     38  C   UNL     1       7.716  -7.473  -8.847  1.00  0.00     0.037 A 
BRANCH  25  39
ATOM     39  C   UNL     1       8.108  -1.321  -8.962  1.00  0.00     0.057 A 
ATOM     40  C   UNL     1       9.157  -0.506  -8.521  1.00  0.00     0.134 A 
ATOM     41  C   UNL     1       7.530  -1.018 -10.203  1.00  0.00     0.134 A 
ATOM     42  F   UNL     1       9.746  -0.735  -7.338  1.00  0.00    -0.206 F 
ATOM     43  C   UNL     1       9.615   0.570  -9.286  1.00  0.00     0.040 A 
ATOM     44  C   UNL     1       7.994   0.040 -10.986  1.00  0.00     0.040 A 
ATOM     45  F   UNL     1       6.524  -1.762 -10.685  1.00  0.00    -0.206 F 
ATOM     46  C   UNL     1       9.040   0.837 -10.528  1.00  0.00     0.006 A 
ENDBRANCH  25  39
BRANCH  26  47
ATOM     47  C   UNL     1       4.587  -9.272  -3.987  1.00  0.00     0.057 A 
ATOM     48  C   UNL     1       5.381 -10.272  -3.417  1.00  0.00     0.134 A 
ATOM     49  C   UNL     1       3.196  -9.425  -3.897  1.00  0.00     0.134 A 
ATOM     50  F   UNL     1       6.719 -10.190  -3.481  1.00  0.00    -0.206 F 
ATOM     51  C   UNL     1       4.817 -11.394  -2.807  1.00  0.00     0.040 A 
ATOM     52  C   UNL     1       2.619 -10.523  -3.260  1.00  0.00     0.040 A 
ATOM     53  F   UNL     1       2.377  -8.496  -4.412  1.00  0.00    -0.206 F 
ATOM     54  C   UNL     1       3.432 -11.519  -2.724  1.00  0.00     0.006 A 
ENDBRANCH  26  47
BRANCH  38  55
ATOM     55  C   UNL     1       8.194  -8.447  -9.880  1.00  0.00     0.057 A 
ATOM     56  C   UNL     1       7.305  -9.079 -10.758  1.00  0.00     0.134 A 
ATOM     57  C   UNL     1       9.559  -8.724 -10.024  1.00  0.00     0.134 A 
ATOM     58  F   UNL     1       5.984  -8.869 -10.656  1.00  0.00    -0.206 F 
ATOM     59  C   UNL     1       7.756  -9.966 -11.735  1.00  0.00     0.040 A 
ATOM     60  C   UNL     1      10.024  -9.586 -11.016  1.00  0.00     0.040 A 
ATOM     61  F   UNL     1      10.461  -8.146  -9.217  1.00  0.00    -0.206 F 
ATOM     62  C   UNL     1       9.121 -10.214 -11.872  1.00  0.00     0.006 A 
ENDBRANCH  38  55
ENDBRANCH  12  13
ENDBRANCH   5   7
ENDBRANCH   2   3
ENDBRANCH   1   2
BRANCH   1  63
ATOM     63  C   UNL     1       4.078   2.383   2.778  1.00  0.00     0.117 C 
BRANCH  63  64
ATOM     64  N   UNL     1       5.078   2.425   3.816  1.00  0.00    -0.356 N 
ATOM     65  C   UNL     1       5.983   3.336   4.223  1.00  0.00     0.227 C 
ATOM     66  H   UNL     1       5.105   1.598   4.350  1.00  0.00     0.163 HD
ATOM     67  O   UNL     1       6.606   3.006   5.242  1.00  0.00    -0.275 OA
BRANCH  65  68
ATOM     68  C   UNL     1       6.292   4.691   3.607  1.00  0.00     0.127 C 
ATOM     69  C   UNL     1       5.720   5.850   4.480  1.00  0.00     0.127 C 
ATOM     70  C   UNL     1       5.906   5.122   2.181  1.00  0.00     0.155 C 
ATOM     71  C   UNL     1       5.106   6.736   3.415  1.00  0.00     0.155 C 
ATOM     72  C   UNL     1       4.455   5.238   1.857  1.00  0.00     0.004 C 
ATOM     73  O   UNL     1       6.083   6.553   2.345  1.00  0.00    -0.365 OA
ATOM     74  C   UNL     1       3.939   6.145   2.695  1.00  0.00     0.004 C 
BRANCH  69  75
ATOM     75  C   UNL     1       6.801   6.490   5.388  1.00  0.00     0.231 C 
ATOM     76  O   UNL     1       6.797   6.188   6.591  1.00  0.00    -0.274 OA
ATOM     77  N   UNL     1       7.879   7.228   4.970  1.00  0.00    -0.326 N 
ATOM     78  H   UNL     1       8.627   7.246   5.610  1.00  0.00     0.169 HD
BRANCH  77  79
ATOM     79  C   UNL     1       8.111   7.961   3.799  1.00  0.00     0.041 A 
ATOM     80  C   UNL     1       9.293   7.754   3.092  1.00  0.00     0.026 A 
ATOM     81  C   UNL     1       7.169   8.856   3.301  1.00  0.00     0.039 A 
ATOM     82  C   UNL     1       9.422   8.266   1.797  1.00  0.00     0.003 A 
ATOM     83  C   UNL     1       7.214   9.249   1.955  1.00  0.00     0.058 A 
ATOM     84  C   UNL     1       8.364   8.963   1.209  1.00  0.00     0.013 A 
BRANCH  83  85
ATOM     85  C   UNL     1       5.973   9.786   1.282  1.00  0.00     0.416 C 
ATOM     86  F   UNL     1       6.117  11.062   0.836  1.00  0.00    -0.166 F 
ATOM     87  F   UNL     1       5.610   9.050   0.192  1.00  0.00    -0.166 F 
ATOM     88  F   UNL     1       4.874   9.797   2.093  1.00  0.00    -0.166 F 
ENDBRANCH  83  85
ENDBRANCH  77  79
ENDBRANCH  69  75
ENDBRANCH  65  68
ENDBRANCH  63  64
ENDBRANCH   1  63
TORSDOF 13
