REMARK SMILES O=C(CCCC[C@@H]1CCSS1)NCCCNC(=O)c1ccc(-c2c3nc(c(-c4c(F)cccc4F)c4ccc([nH]4)c(-c4c(F)cccc4F)c4nc(c(-c5c(F)cccc5F)c5ccc2[nH]5)C=C4)C=C3)cc1
REMARK SMILES IDX 13 1 12 2 1 3 2 4 3 6 4 7 5 8 6 9 7 10 8 11 11 12 9 13 10 14
REMARK SMILES IDX 14 15 15 16 16 17 17 18 18 20 19 21 20 22 72 23 21 24 71 25
REMARK SMILES IDX 22 26 23 27 24 28 65 29 25 30 70 31 64 32 66 33 26 34 69 35
REMARK SMILES IDX 63 36 62 37 27 39 53 40 36 41 52 42 37 43 40 44 51 45 67 46
REMARK SMILES IDX 38 47 39 48 50 50 68 51 41 52 28 53 29 54 34 55 30 56 31 57
REMARK SMILES IDX 33 58 35 59 32 60 54 61 55 62 60 63 56 64 57 65 59 66 61 67
REMARK SMILES IDX 58 68 42 69 43 70 48 71 44 72 45 73 47 74 49 75 46 76
REMARK H PARENT 12 5 16 19 66 38 40 49
REMARK Flexibility Score: inf
ROOT
ATOM      1  C   UNL     1       1.850   1.357  -2.203  1.00  0.00     0.117 C 
ENDROOT
BRANCH   1   2
ATOM      2  N   UNL     1       2.435   0.822  -0.995  1.00  0.00    -0.356 N 
ATOM      3  O   UNL     1       0.566  -0.289  -0.251  1.00  0.00    -0.275 OA
ATOM      4  C   UNL     1       1.753  -0.009  -0.139  1.00  0.00     0.219 C 
ATOM      5  H   UNL     1       3.364   1.062  -0.775  1.00  0.00     0.163 HD
BRANCH   4   6
ATOM      6  C   UNL     1       2.631  -0.582   0.950  1.00  0.00     0.100 C 
BRANCH   6   7
ATOM      7  C   UNL     1       3.462  -1.761   0.442  1.00  0.00     0.010 C 
BRANCH   7   8
ATOM      8  C   UNL     1       4.693  -1.422  -0.411  1.00  0.00     0.002 C 
BRANCH   8   9
ATOM      9  C   UNL     1       5.795  -0.561   0.227  1.00  0.00     0.015 C 
BRANCH   9  10
ATOM     10  C   UNL     1       6.491  -1.081   1.500  1.00  0.00     0.059 C 
ATOM     11  C   UNL     1       6.684  -2.604   1.577  1.00  0.00     0.027 C 
ATOM     12  S   UNL     1       5.630  -0.521   3.010  1.00  0.00    -0.091 SA
ATOM     13  C   UNL     1       6.957  -3.057   3.008  1.00  0.00     0.083 C 
ATOM     14  S   UNL     1       5.675  -2.294   4.022  1.00  0.00    -0.094 SA
ENDBRANCH   9  10
ENDBRANCH   8   9
ENDBRANCH   7   8
ENDBRANCH   6   7
ENDBRANCH   4   6
ENDBRANCH   1   2
BRANCH   1  15
ATOM     15  C   UNL     1       2.237   2.812  -2.421  1.00  0.00     0.042 C 
BRANCH  15  16
ATOM     16  C   UNL     1       3.736   3.054  -2.563  1.00  0.00     0.118 C 
BRANCH  16  17
ATOM     17  N   UNL     1       4.306   2.474  -3.769  1.00  0.00    -0.352 N 
ATOM     18  C   UNL     1       5.031   3.078  -4.770  1.00  0.00     0.251 C 
ATOM     19  H   UNL     1       4.150   1.509  -3.886  1.00  0.00     0.163 HD
ATOM     20  O   UNL     1       5.318   2.452  -5.783  1.00  0.00    -0.269 OA
BRANCH  18  21
ATOM     21  C   UNL     1       5.442   4.494  -4.638  1.00  0.00     0.039 A 
ATOM     22  C   UNL     1       5.271   5.348  -5.731  1.00  0.00     0.014 A 
ATOM     23  C   UNL     1       5.990   4.981  -3.449  1.00  0.00     0.014 A 
ATOM     24  C   UNL     1       5.586   6.704  -5.608  1.00  0.00     0.010 A 
ATOM     25  C   UNL     1       6.225   6.346  -3.301  1.00  0.00     0.010 A 
ATOM     26  C   UNL     1       6.031   7.222  -4.380  1.00  0.00    -0.014 A 
BRANCH  26  27
ATOM     27  C   UNL     1       6.306   8.674  -4.211  1.00  0.00     0.031 A 
ATOM     28  C   UNL     1       7.696   9.147  -3.881  1.00  0.00     0.074 A 
ATOM     29  C   UNL     1       5.297   9.563  -4.297  1.00  0.00     0.049 A 
ATOM     30  N   UNL     1       8.120  10.361  -3.635  1.00  0.00    -0.248 NA
ATOM     31  C   UNL     1       8.742   8.117  -3.788  1.00  0.00     0.031 C 
ATOM     32  C   UNL     1       3.897   9.232  -4.567  1.00  0.00     0.029 A 
ATOM     33  N   UNL     1       5.294  10.929  -4.156  1.00  0.00    -0.354 N 
ATOM     34  C   UNL     1       9.474  10.238  -3.347  1.00  0.00     0.074 A 
ATOM     35  C   UNL     1       9.788   8.827  -3.390  1.00  0.00     0.031 C 
ATOM     36  C   UNL     1       3.176  10.364  -4.598  1.00  0.00     0.029 A 
ATOM     37  C   UNL     1       4.051  11.496  -4.309  1.00  0.00     0.049 A 
ATOM     38  H   UNL     1       6.105  11.452  -3.964  1.00  0.00     0.167 HD
ATOM     39  C   UNL     1      10.380  11.213  -3.094  1.00  0.00     0.037 A 
ATOM     40  C   UNL     1       3.660  12.781  -4.219  1.00  0.00     0.037 A 
ATOM     41  C   UNL     1      10.072  12.619  -3.072  1.00  0.00     0.049 A 
ATOM     42  C   UNL     1       4.682  13.844  -3.920  1.00  0.00     0.074 A 
ATOM     43  C   UNL     1      10.932  13.686  -2.881  1.00  0.00     0.029 A 
ATOM     44  N   UNL     1       8.804  13.153  -3.242  1.00  0.00    -0.354 N 
ATOM     45  N   UNL     1       5.971  13.719  -3.718  1.00  0.00    -0.248 NA
ATOM     46  C   UNL     1       4.195  15.229  -3.842  1.00  0.00     0.031 C 
ATOM     47  C   UNL     1      10.177  14.863  -2.885  1.00  0.00     0.029 A 
ATOM     48  C   UNL     1       8.855  14.534  -3.136  1.00  0.00     0.049 A 
ATOM     49  H   UNL     1       7.988  12.630  -3.413  1.00  0.00     0.167 HD
ATOM     50  C   UNL     1       6.453  15.007  -3.522  1.00  0.00     0.074 A 
ATOM     51  C   UNL     1       5.320  15.900  -3.643  1.00  0.00     0.031 C 
ATOM     52  C   UNL     1       7.721  15.413  -3.267  1.00  0.00     0.037 A 
BRANCH  39  53
ATOM     53  C   UNL     1      11.795  10.789  -2.822  1.00  0.00     0.057 A 
ATOM     54  C   UNL     1      12.611  10.247  -3.824  1.00  0.00     0.134 A 
ATOM     55  C   UNL     1      12.360  10.955  -1.551  1.00  0.00     0.134 A 
ATOM     56  F   UNL     1      12.130  10.050  -5.061  1.00  0.00    -0.206 F 
ATOM     57  C   UNL     1      13.927   9.859  -3.565  1.00  0.00     0.040 A 
ATOM     58  C   UNL     1      13.684  10.598  -1.288  1.00  0.00     0.040 A 
ATOM     59  F   UNL     1      11.639  11.474  -0.546  1.00  0.00    -0.206 F 
ATOM     60  C   UNL     1      14.469  10.041  -2.295  1.00  0.00     0.006 A 
ENDBRANCH  39  53
BRANCH  40  61
ATOM     61  C   UNL     1       2.235  13.143  -4.432  1.00  0.00     0.057 A 
ATOM     62  C   UNL     1       1.835  13.872  -5.558  1.00  0.00     0.134 A 
ATOM     63  C   UNL     1       1.243  12.787  -3.510  1.00  0.00     0.134 A 
ATOM     64  F   UNL     1       2.742  14.260  -6.467  1.00  0.00    -0.206 F 
ATOM     65  C   UNL     1       0.506  14.253  -5.750  1.00  0.00     0.040 A 
ATOM     66  C   UNL     1      -0.095  13.137  -3.704  1.00  0.00     0.040 A 
ATOM     67  F   UNL     1       1.558  12.083  -2.414  1.00  0.00    -0.206 F 
ATOM     68  C   UNL     1      -0.464  13.881  -4.823  1.00  0.00     0.006 A 
ENDBRANCH  40  61
BRANCH  52  69
ATOM     69  C   UNL     1       7.960  16.891  -3.142  1.00  0.00     0.057 A 
ATOM     70  C   UNL     1       7.511  17.625  -2.037  1.00  0.00     0.134 A 
ATOM     71  C   UNL     1       8.686  17.579  -4.123  1.00  0.00     0.134 A 
ATOM     72  F   UNL     1       6.800  17.029  -1.068  1.00  0.00    -0.206 F 
ATOM     73  C   UNL     1       7.754  18.995  -1.925  1.00  0.00     0.040 A 
ATOM     74  C   UNL     1       8.960  18.942  -4.008  1.00  0.00     0.040 A 
ATOM     75  F   UNL     1       9.154  16.934  -5.203  1.00  0.00    -0.206 F 
ATOM     76  C   UNL     1       8.488  19.656  -2.909  1.00  0.00     0.006 A 
ENDBRANCH  52  69
ENDBRANCH  26  27
ENDBRANCH  18  21
ENDBRANCH  16  17
ENDBRANCH  15  16
ENDBRANCH   1  15
TORSDOF 14
