REMARK SMILES Cc1ccccc1[C@@H](C)NS(=O)(=O)CC(=O)NCCCNC(=O)c1ccc(-c2c3nc(c(-c4c(F)cccc4F)c4ccc([nH]4)c(-c4c(F)cccc4F)c4nc(c(-c5c(F)cccc5F)c5ccc2[nH]5)C=C4)C=C3)cc1
REMARK SMILES IDX 18 1 17 2 15 3 16 4 14 6 11 7 12 8 13 9 10 10 8 12 9 13 7 14
REMARK SMILES IDX 1 15 2 16 3 17 4 18 6 19 5 20 19 21 20 22 21 23 22 24 23 26
REMARK SMILES IDX 24 27 25 28 77 29 26 30 76 31 27 32 28 33 29 34 70 35 30 36
REMARK SMILES IDX 75 37 69 38 71 39 31 40 74 41 68 42 67 43 32 45 58 46 41 47
REMARK SMILES IDX 57 48 42 49 45 50 56 51 72 52 43 53 44 54 55 56 73 57 46 58
REMARK SMILES IDX 33 59 34 60 39 61 35 62 36 63 38 64 40 65 37 66 59 67 60 68
REMARK SMILES IDX 65 69 61 70 62 71 64 72 66 73 63 74 47 75 48 76 53 77 49 78
REMARK SMILES IDX 50 79 52 80 54 81 51 82
REMARK H PARENT 17 5 10 11 21 25 71 44 45 55
REMARK Flexibility Score: inf
ROOT
ATOM      1  C   UNL     1       3.249   5.884   3.787  1.00  0.00     0.117 C 
ENDROOT
BRANCH   1   2
ATOM      2  N   UNL     1       3.556   4.511   3.412  1.00  0.00    -0.355 N 
ATOM      3  C   UNL     1       3.405   3.909   2.193  1.00  0.00     0.236 C 
ATOM      4  O   UNL     1       3.524   2.683   2.140  1.00  0.00    -0.274 OA
ATOM      5  H   UNL     1       3.920   3.942   4.129  1.00  0.00     0.163 HD
BRANCH   3   6
ATOM      6  C   UNL     1       3.239   4.723   0.951  1.00  0.00     0.253 C 
BRANCH   6   7
ATOM      7  S   UNL     1       1.555   5.025   0.487  1.00  0.00     0.221 S 
ATOM      8  O   UNL     1       1.556   5.510  -0.866  1.00  0.00    -0.212 OA
ATOM      9  O   UNL     1       0.914   5.835   1.510  1.00  0.00    -0.212 OA
BRANCH   7  10
ATOM     10  N   UNL     1       0.788   3.555   0.539  1.00  0.00    -0.208 NA
ATOM     11  H   UNL     1       1.030   3.139   1.438  1.00  0.00     0.141 HD
BRANCH  10  12
ATOM     12  C   UNL     1       1.028   2.516  -0.473  1.00  0.00     0.096 C 
ATOM     13  C   UNL     1       0.549   2.960  -1.859  1.00  0.00     0.031 C 
BRANCH  12  14
ATOM     14  C   UNL     1       0.327   1.202  -0.118  1.00  0.00    -0.027 A 
ATOM     15  C   UNL     1       2.515  -0.164   0.008  1.00  0.00     0.044 C 
ATOM     16  C   UNL     1       1.016  -0.023   0.030  1.00  0.00    -0.046 A 
ATOM     17  C   UNL     1       0.276  -1.217   0.144  1.00  0.00     0.004 A 
ATOM     18  C   UNL     1      -1.117  -1.210   0.165  1.00  0.00     0.000 A 
ATOM     19  C   UNL     1      -1.086   1.188  -0.044  1.00  0.00     0.005 A 
ATOM     20  C   UNL     1      -1.798  -0.004   0.093  1.00  0.00     0.000 A 
ENDBRANCH  12  14
ENDBRANCH  10  12
ENDBRANCH   7  10
ENDBRANCH   6   7
ENDBRANCH   3   6
ENDBRANCH   1   2
BRANCH   1  21
ATOM     21  C   UNL     1       1.804   6.002   4.244  1.00  0.00     0.042 C 
BRANCH  21  22
ATOM     22  C   UNL     1       1.579   5.666   5.698  1.00  0.00     0.118 C 
BRANCH  22  23
ATOM     23  N   UNL     1       1.676   6.802   6.600  1.00  0.00    -0.352 N 
ATOM     24  C   UNL     1       1.294   6.913   7.925  1.00  0.00     0.251 C 
ATOM     25  H   UNL     1       2.074   7.614   6.210  1.00  0.00     0.163 HD
ATOM     26  O   UNL     1       1.401   7.998   8.491  1.00  0.00    -0.269 OA
BRANCH  24  27
ATOM     27  C   UNL     1       0.964   5.697   8.718  1.00  0.00     0.039 A 
ATOM     28  C   UNL     1       1.555   5.622   9.985  1.00  0.00     0.014 A 
ATOM     29  C   UNL     1       0.518   4.542   8.094  1.00  0.00     0.014 A 
ATOM     30  C   UNL     1       2.042   4.402  10.425  1.00  0.00     0.010 A 
ATOM     31  C   UNL     1       1.147   3.371   8.417  1.00  0.00     0.010 A 
ATOM     32  C   UNL     1       1.961   3.330   9.547  1.00  0.00    -0.014 A 
BRANCH  32  33
ATOM     33  C   UNL     1       2.620   2.063   9.745  1.00  0.00     0.031 A 
ATOM     34  C   UNL     1       1.836   1.020  10.411  1.00  0.00     0.074 A 
ATOM     35  C   UNL     1       3.821   1.863   9.164  1.00  0.00     0.049 A 
ATOM     36  N   UNL     1       2.336   0.039  11.064  1.00  0.00    -0.248 NA
ATOM     37  C   UNL     1       0.376   1.050  10.443  1.00  0.00     0.031 C 
ATOM     38  C   UNL     1       4.544   0.614   8.976  1.00  0.00     0.029 A 
ATOM     39  N   UNL     1       4.733   2.850   8.772  1.00  0.00    -0.354 N 
ATOM     40  C   UNL     1       1.311  -0.854  11.297  1.00  0.00     0.074 A 
ATOM     41  C   UNL     1       0.104  -0.120  11.022  1.00  0.00     0.031 C 
ATOM     42  C   UNL     1       5.850   0.892   8.810  1.00  0.00     0.029 A 
ATOM     43  C   UNL     1       6.016   2.321   9.028  1.00  0.00     0.049 A 
ATOM     44  H   UNL     1       4.522   3.735   8.394  1.00  0.00     0.167 HD
ATOM     45  C   UNL     1       1.640  -2.159  11.512  1.00  0.00     0.037 A 
ATOM     46  C   UNL     1       6.793   2.880  10.005  1.00  0.00     0.037 A 
ATOM     47  C   UNL     1       3.100  -2.293  11.535  1.00  0.00     0.049 A 
ATOM     48  C   UNL     1       7.015   1.935  11.165  1.00  0.00     0.074 A 
ATOM     49  C   UNL     1       4.009  -2.648  10.550  1.00  0.00     0.029 A 
ATOM     50  N   UNL     1       3.829  -1.653  12.531  1.00  0.00    -0.354 N 
ATOM     51  N   UNL     1       6.215   0.947  11.464  1.00  0.00    -0.248 NA
ATOM     52  C   UNL     1       8.178   1.999  12.044  1.00  0.00     0.031 C 
ATOM     53  C   UNL     1       5.281  -2.147  10.930  1.00  0.00     0.029 A 
ATOM     54  C   UNL     1       5.150  -1.509  12.153  1.00  0.00     0.049 A 
ATOM     55  H   UNL     1       3.454  -1.344  13.388  1.00  0.00     0.167 HD
ATOM     56  C   UNL     1       6.730   0.242  12.522  1.00  0.00     0.074 A 
ATOM     57  C   UNL     1       7.962   0.940  12.844  1.00  0.00     0.031 C 
ATOM     58  C   UNL     1       6.112  -0.864  13.037  1.00  0.00     0.037 A 
BRANCH  45  59
ATOM     59  C   UNL     1       0.696  -3.336  11.373  1.00  0.00     0.057 A 
ATOM     60  C   UNL     1       1.210  -4.626  11.122  1.00  0.00     0.134 A 
ATOM     61  C   UNL     1      -0.709  -3.285  11.422  1.00  0.00     0.134 A 
ATOM     62  F   UNL     1       2.527  -4.873  11.124  1.00  0.00    -0.206 F 
ATOM     63  C   UNL     1       0.401  -5.739  10.856  1.00  0.00     0.040 A 
ATOM     64  C   UNL     1      -1.532  -4.383  11.123  1.00  0.00     0.040 A 
ATOM     65  F   UNL     1      -1.371  -2.195  11.815  1.00  0.00    -0.206 F 
ATOM     66  C   UNL     1      -0.977  -5.617  10.831  1.00  0.00     0.006 A 
ENDBRANCH  45  59
BRANCH  46  67
ATOM     67  C   UNL     1       6.596   4.359  10.087  1.00  0.00     0.057 A 
ATOM     68  C   UNL     1       6.951   5.121   8.956  1.00  0.00     0.134 A 
ATOM     69  C   UNL     1       5.665   4.926  10.963  1.00  0.00     0.134 A 
ATOM     70  F   UNL     1       7.859   4.649   8.086  1.00  0.00    -0.206 F 
ATOM     71  C   UNL     1       6.274   6.295   8.610  1.00  0.00     0.040 A 
ATOM     72  C   UNL     1       5.003   6.119  10.639  1.00  0.00     0.040 A 
ATOM     73  F   UNL     1       5.278   4.273  12.067  1.00  0.00    -0.206 F 
ATOM     74  C   UNL     1       5.258   6.769   9.431  1.00  0.00     0.006 A 
ENDBRANCH  46  67
BRANCH  58  75
ATOM     75  C   UNL     1       6.413  -1.515  14.372  1.00  0.00     0.057 A 
ATOM     76  C   UNL     1       7.038  -0.867  15.446  1.00  0.00     0.134 A 
ATOM     77  C   UNL     1       5.923  -2.811  14.670  1.00  0.00     0.134 A 
ATOM     78  F   UNL     1       7.436   0.409  15.368  1.00  0.00    -0.206 F 
ATOM     79  C   UNL     1       7.233  -1.483  16.689  1.00  0.00     0.040 A 
ATOM     80  C   UNL     1       6.044  -3.404  15.929  1.00  0.00     0.040 A 
ATOM     81  F   UNL     1       5.275  -3.556  13.763  1.00  0.00    -0.206 F 
ATOM     82  C   UNL     1       6.723  -2.750  16.940  1.00  0.00     0.006 A 
ENDBRANCH  58  75
ENDBRANCH  32  33
ENDBRANCH  24  27
ENDBRANCH  22  23
ENDBRANCH  21  22
ENDBRANCH   1  21
TORSDOF 14
