REMARK SMILES C[C@@H]1CCC[C@](O)([C@H](F)C(=O)NCCCNC(=O)c2ccc(-c3c4nc(c(-c5c(F)cccc5F)c5ccc([nH]5)c(-c5c(F)cccc5F)c5nc(c(-c6c(F)cccc6F)c6ccc3[nH]6)C=C5)C=C4)cc2)C1
REMARK SMILES IDX 14 1 13 2 12 3 10 4 11 5 8 7 9 8 6 9 1 10 2 11 3 12 73 13
REMARK SMILES IDX 4 14 5 15 7 16 15 18 16 19 17 20 18 22 19 23 20 24 72 25
REMARK SMILES IDX 21 26 71 27 22 28 23 29 24 30 65 31 25 32 70 33 64 34 66 35
REMARK SMILES IDX 26 36 69 37 63 38 62 39 27 41 53 42 36 43 52 44 37 45 40 46
REMARK SMILES IDX 51 47 67 48 38 49 39 50 50 52 68 53 41 54 28 55 29 56 34 57
REMARK SMILES IDX 30 58 31 59 33 60 35 61 32 62 54 63 55 64 60 65 56 66 57 67
REMARK SMILES IDX 59 68 61 69 58 70 42 71 43 72 48 73 44 74 45 75 47 76 49 77
REMARK SMILES IDX 46 78
REMARK H PARENT 12 6 7 17 16 21 66 40 40 51
REMARK Flexibility Score: inf
ROOT
ATOM      1  C   UNL     1       0.626   2.142   2.469  1.00  0.00     0.042 C 
ENDROOT
BRANCH   1   2
ATOM      2  C   UNL     1      -0.299   1.739   1.346  1.00  0.00     0.117 C 
BRANCH   2   3
ATOM      3  N   UNL     1      -0.398   2.632   0.231  1.00  0.00    -0.353 N 
ATOM      4  C   UNL     1      -0.460   2.280  -1.088  1.00  0.00     0.257 C 
ATOM      5  O   UNL     1      -0.755   3.181  -1.884  1.00  0.00    -0.272 OA
ATOM      6  H   UNL     1      -0.424   3.595   0.435  1.00  0.00     0.163 HD
BRANCH   4   7
ATOM      7  C   UNL     1      -0.091   0.869  -1.611  1.00  0.00     0.286 C 
ATOM      8  F   UNL     1       1.219   0.593  -1.382  1.00  0.00    -0.234 F 
BRANCH   7   9
ATOM      9  C   UNL     1      -1.000  -0.368  -1.312  1.00  0.00     0.105 C 
ATOM     10  C   UNL     1       1.776  -1.234   0.435  1.00  0.00     0.008 C 
ATOM     11  C   UNL     1       0.436  -1.958   0.246  1.00  0.00    -0.011 C 
ATOM     12  C   UNL     1       0.551  -2.971  -0.897  1.00  0.00     0.003 C 
ATOM     13  C   UNL     1      -0.850  -1.134   0.026  1.00  0.00     0.042 C 
ATOM     14  C   UNL     1       0.426  -2.312  -2.274  1.00  0.00     0.003 C 
ATOM     15  C   UNL     1      -0.832  -1.449  -2.416  1.00  0.00     0.039 C 
BRANCH   9  16
ATOM     16  O   UNL     1      -2.376   0.067  -1.363  1.00  0.00    -0.386 OA
ATOM     17  H   UNL     1      -2.960  -0.686  -1.180  1.00  0.00     0.211 HD
ENDBRANCH   9  16
ENDBRANCH   7   9
ENDBRANCH   4   7
ENDBRANCH   2   3
ENDBRANCH   1   2
BRANCH   1  18
ATOM     18  C   UNL     1       0.171   3.359   3.240  1.00  0.00     0.118 C 
BRANCH  18  19
ATOM     19  N   UNL     1      -1.102   3.164   3.925  1.00  0.00    -0.352 N 
ATOM     20  C   UNL     1      -1.409   3.235   5.265  1.00  0.00     0.251 C 
ATOM     21  H   UNL     1      -1.861   2.949   3.336  1.00  0.00     0.163 HD
ATOM     22  O   UNL     1      -2.514   2.890   5.659  1.00  0.00    -0.269 OA
BRANCH  20  23
ATOM     23  C   UNL     1      -0.389   3.697   6.232  1.00  0.00     0.039 A 
ATOM     24  C   UNL     1      -0.281   3.055   7.468  1.00  0.00     0.014 A 
ATOM     25  C   UNL     1       0.473   4.748   5.915  1.00  0.00     0.014 A 
ATOM     26  C   UNL     1       0.743   3.416   8.346  1.00  0.00     0.010 A 
ATOM     27  C   UNL     1       1.565   5.014   6.726  1.00  0.00     0.010 A 
ATOM     28  C   UNL     1       1.703   4.366   7.961  1.00  0.00    -0.014 A 
BRANCH  28  29
ATOM     29  C   UNL     1       2.847   4.722   8.836  1.00  0.00     0.031 A 
ATOM     30  C   UNL     1       3.018   6.144   9.301  1.00  0.00     0.074 A 
ATOM     31  C   UNL     1       3.768   3.790   9.147  1.00  0.00     0.049 A 
ATOM     32  N   UNL     1       3.988   6.675  10.001  1.00  0.00    -0.248 NA
ATOM     33  C   UNL     1       1.982   7.106   8.891  1.00  0.00     0.031 C 
ATOM     34  C   UNL     1       3.743   2.392   8.711  1.00  0.00     0.029 A 
ATOM     35  N   UNL     1       4.912   3.880   9.899  1.00  0.00    -0.354 N 
ATOM     36  C   UNL     1       3.690   8.029  10.090  1.00  0.00     0.074 A 
ATOM     37  C   UNL     1       2.488   8.252   9.320  1.00  0.00     0.031 C 
ATOM     38  C   UNL     1       4.797   1.747   9.237  1.00  0.00     0.029 A 
ATOM     39  C   UNL     1       5.598   2.694  10.005  1.00  0.00     0.049 A 
ATOM     40  H   UNL     1       5.214   4.716  10.322  1.00  0.00     0.167 HD
ATOM     41  C   UNL     1       4.344   8.996  10.775  1.00  0.00     0.037 A 
ATOM     42  C   UNL     1       6.744   2.406  10.649  1.00  0.00     0.037 A 
ATOM     43  C   UNL     1       5.519   8.760  11.569  1.00  0.00     0.049 A 
ATOM     44  C   UNL     1       7.454   3.499  11.399  1.00  0.00     0.074 A 
ATOM     45  C   UNL     1       6.213   9.651  12.367  1.00  0.00     0.029 A 
ATOM     46  N   UNL     1       6.177   7.542  11.661  1.00  0.00    -0.354 N 
ATOM     47  N   UNL     1       7.117   4.758  11.544  1.00  0.00    -0.248 NA
ATOM     48  C   UNL     1       8.704   3.130  12.077  1.00  0.00     0.031 C 
ATOM     49  C   UNL     1       7.325   8.988  12.896  1.00  0.00     0.029 A 
ATOM     50  C   UNL     1       7.289   7.667  12.477  1.00  0.00     0.049 A 
ATOM     51  H   UNL     1       5.895   6.712  11.212  1.00  0.00     0.167 HD
ATOM     52  C   UNL     1       8.091   5.322  12.357  1.00  0.00     0.074 A 
ATOM     53  C   UNL     1       9.026   4.264  12.683  1.00  0.00     0.031 C 
ATOM     54  C   UNL     1       8.203   6.600  12.797  1.00  0.00     0.037 A 
BRANCH  41  55
ATOM     55  C   UNL     1       3.802  10.395  10.690  1.00  0.00     0.057 A 
ATOM     56  C   UNL     1       2.574  10.755  11.261  1.00  0.00     0.134 A 
ATOM     57  C   UNL     1       4.531  11.403  10.044  1.00  0.00     0.134 A 
ATOM     58  F   UNL     1       1.818   9.837  11.883  1.00  0.00    -0.206 F 
ATOM     59  C   UNL     1       2.075  12.055  11.164  1.00  0.00     0.040 A 
ATOM     60  C   UNL     1       4.057  12.714   9.969  1.00  0.00     0.040 A 
ATOM     61  F   UNL     1       5.717  11.131   9.479  1.00  0.00    -0.206 F 
ATOM     62  C   UNL     1       2.821  13.041  10.523  1.00  0.00     0.006 A 
ENDBRANCH  41  55
BRANCH  42  63
ATOM     63  C   UNL     1       7.276   1.019  10.644  1.00  0.00     0.057 A 
ATOM     64  C   UNL     1       7.287   0.250  11.814  1.00  0.00     0.134 A 
ATOM     65  C   UNL     1       7.792   0.431   9.483  1.00  0.00     0.134 A 
ATOM     66  F   UNL     1       6.821   0.763  12.963  1.00  0.00    -0.206 F 
ATOM     67  C   UNL     1       7.812  -1.043  11.837  1.00  0.00     0.040 A 
ATOM     68  C   UNL     1       8.295  -0.872   9.485  1.00  0.00     0.040 A 
ATOM     69  F   UNL     1       7.803   1.109   8.327  1.00  0.00    -0.206 F 
ATOM     70  C   UNL     1       8.314  -1.609  10.667  1.00  0.00     0.006 A 
ENDBRANCH  42  63
BRANCH  54  71
ATOM     71  C   UNL     1       9.350   6.914  13.712  1.00  0.00     0.057 A 
ATOM     72  C   UNL     1      10.674   6.958  13.256  1.00  0.00     0.134 A 
ATOM     73  C   UNL     1       9.120   7.218  15.060  1.00  0.00     0.134 A 
ATOM     74  F   UNL     1      10.964   6.665  11.979  1.00  0.00    -0.206 F 
ATOM     75  C   UNL     1      11.730   7.267  14.115  1.00  0.00     0.040 A 
ATOM     76  C   UNL     1      10.164   7.559  15.921  1.00  0.00     0.040 A 
ATOM     77  F   UNL     1       7.874   7.205  15.559  1.00  0.00    -0.206 F 
ATOM     78  C   UNL     1      11.475   7.577  15.450  1.00  0.00     0.006 A 
ENDBRANCH  54  71
ENDBRANCH  28  29
ENDBRANCH  20  23
ENDBRANCH  18  19
ENDBRANCH   1  18
TORSDOF 12
