REMARK SMILES COc1ccc(F)c(NC(=O)N2CCCC[C@@H]2C(=O)NCCCNC(=O)c2ccc(-c3c4nc(c(-c5c(F)cccc5F)c5ccc([nH]5)c(-c5c(F)cccc5F)c5nc(c(-c6c(F)cccc6F)c6ccc3[nH]6)C=C5)C=C4)cc2)c1
REMARK SMILES IDX 21 1 20 2 18 3 19 4 17 6 12 7 13 8 14 9 16 10 15 11 10 12
REMARK SMILES IDX 9 13 11 15 8 16 3 17 4 18 81 19 5 20 6 21 7 22 2 23 1 24
REMARK SMILES IDX 22 25 23 26 24 27 25 28 26 30 27 31 28 32 80 33 29 34 79 35
REMARK SMILES IDX 30 36 31 37 32 38 73 39 33 40 78 41 72 42 74 43 34 44 77 45
REMARK SMILES IDX 71 46 70 47 35 49 61 50 44 51 60 52 45 53 48 54 59 55 75 56
REMARK SMILES IDX 46 57 47 58 58 60 76 61 49 62 36 63 37 64 42 65 38 66 39 67
REMARK SMILES IDX 41 68 43 69 40 70 62 71 63 72 68 73 64 74 65 75 67 76 69 77
REMARK SMILES IDX 66 78 50 79 51 80 56 81 52 82 53 83 55 84 57 85 54 86
REMARK H PARENT 20 5 9 14 24 29 74 48 48 59
REMARK Flexibility Score: inf
ROOT
ATOM      1  C   UNL     1      -3.284   5.154  -1.466  1.00  0.00     0.117 C 
ENDROOT
BRANCH   1   2
ATOM      2  N   UNL     1      -1.996   4.703  -0.973  1.00  0.00    -0.354 N 
ATOM      3  C   UNL     1      -1.489   3.441  -0.927  1.00  0.00     0.242 C 
ATOM      4  O   UNL     1      -0.585   3.222  -0.114  1.00  0.00    -0.273 OA
ATOM      5  H   UNL     1      -1.406   5.409  -0.623  1.00  0.00     0.163 HD
BRANCH   3   6
ATOM      6  C   UNL     1      -2.107   2.294  -1.756  1.00  0.00     0.176 C 
ATOM      7  N   UNL     1      -2.412   2.631  -3.175  1.00  0.00    -0.313 N 
ATOM      8  C   UNL     1      -3.306   1.729  -3.897  1.00  0.00     0.122 C 
ATOM      9  C   UNL     1      -4.531   1.310  -3.104  1.00  0.00     0.022 C 
ATOM     10  C   UNL     1      -3.338   1.778  -0.980  1.00  0.00     0.035 C 
ATOM     11  C   UNL     1      -4.122   0.734  -1.759  1.00  0.00     0.004 C 
BRANCH   7  12
ATOM     12  C   UNL     1      -1.757   3.551  -3.968  1.00  0.00     0.322 C 
ATOM     13  N   UNL     1      -0.467   3.906  -3.759  1.00  0.00    -0.305 N 
ATOM     14  H   UNL     1      -0.266   4.831  -4.029  1.00  0.00     0.171 HD
ATOM     15  O   UNL     1      -2.364   4.152  -4.860  1.00  0.00    -0.248 OA
BRANCH  13  16
ATOM     16  C   UNL     1       0.641   3.221  -3.234  1.00  0.00     0.082 A 
ATOM     17  C   UNL     1       1.679   1.291  -2.248  1.00  0.00     0.121 A 
ATOM     18  C   UNL     1       2.793   2.043  -1.880  1.00  0.00     0.049 A 
ATOM     19  C   UNL     1       0.661   1.849  -3.018  1.00  0.00     0.075 A 
ATOM     20  C   UNL     1       2.859   3.386  -2.244  1.00  0.00     0.045 A 
ATOM     21  C   UNL     1       1.778   3.967  -2.901  1.00  0.00     0.147 A 
ATOM     22  F   UNL     1       1.817   5.280  -3.179  1.00  0.00    -0.205 F 
BRANCH  17  23
ATOM     23  O   UNL     1       1.515  -0.004  -1.837  1.00  0.00    -0.497 OA
ATOM     24  C   UNL     1       1.350  -0.052  -0.414  1.00  0.00     0.278 C 
ENDBRANCH  17  23
ENDBRANCH  13  16
ENDBRANCH   7  12
ENDBRANCH   3   6
ENDBRANCH   1   2
BRANCH   1  25
ATOM     25  C   UNL     1      -4.221   5.438  -0.298  1.00  0.00     0.042 C 
BRANCH  25  26
ATOM     26  C   UNL     1      -3.737   6.571   0.594  1.00  0.00     0.118 C 
BRANCH  26  27
ATOM     27  N   UNL     1      -3.713   7.847  -0.104  1.00  0.00    -0.352 N 
ATOM     28  C   UNL     1      -4.391   9.004   0.185  1.00  0.00     0.251 C 
ATOM     29  H   UNL     1      -3.129   7.885  -0.896  1.00  0.00     0.163 HD
ATOM     30  O   UNL     1      -4.433   9.918  -0.630  1.00  0.00    -0.269 OA
BRANCH  28  31
ATOM     31  C   UNL     1      -5.085   9.132   1.481  1.00  0.00     0.039 A 
ATOM     32  C   UNL     1      -6.373   9.668   1.508  1.00  0.00     0.014 A 
ATOM     33  C   UNL     1      -4.466   8.714   2.663  1.00  0.00     0.014 A 
ATOM     34  C   UNL     1      -7.064   9.732   2.717  1.00  0.00     0.010 A 
ATOM     35  C   UNL     1      -5.190   8.691   3.848  1.00  0.00     0.010 A 
ATOM     36  C   UNL     1      -6.491   9.211   3.890  1.00  0.00    -0.014 A 
BRANCH  36  37
ATOM     37  C   UNL     1      -7.236   9.207   5.172  1.00  0.00     0.031 A 
ATOM     38  C   UNL     1      -6.713   9.980   6.349  1.00  0.00     0.074 A 
ATOM     39  C   UNL     1      -8.349   8.458   5.292  1.00  0.00     0.049 A 
ATOM     40  N   UNL     1      -7.189  10.052   7.566  1.00  0.00    -0.248 NA
ATOM     41  C   UNL     1      -5.476  10.752   6.144  1.00  0.00     0.031 C 
ATOM     42  C   UNL     1      -8.925   7.626   4.234  1.00  0.00     0.029 A 
ATOM     43  N   UNL     1      -9.192   8.271   6.357  1.00  0.00    -0.354 N 
ATOM     44  C   UNL     1      -6.306  10.861   8.269  1.00  0.00     0.074 A 
ATOM     45  C   UNL     1      -5.234  11.209   7.363  1.00  0.00     0.031 C 
ATOM     46  C   UNL     1     -10.043   7.043   4.693  1.00  0.00     0.029 A 
ATOM     47  C   UNL     1     -10.239   7.422   6.089  1.00  0.00     0.049 A 
ATOM     48  H   UNL     1      -9.060   8.704   7.232  1.00  0.00     0.167 HD
ATOM     49  C   UNL     1      -6.396  11.294   9.547  1.00  0.00     0.037 A 
ATOM     50  C   UNL     1     -11.241   6.992   6.879  1.00  0.00     0.037 A 
ATOM     51  C   UNL     1      -7.482  10.968  10.432  1.00  0.00     0.049 A 
ATOM     52  C   UNL     1     -11.319   7.484   8.297  1.00  0.00     0.074 A 
ATOM     53  C   UNL     1      -7.702  11.417  11.722  1.00  0.00     0.029 A 
ATOM     54  N   UNL     1      -8.527  10.111  10.121  1.00  0.00    -0.354 N 
ATOM     55  N   UNL     1     -10.514   8.304   8.929  1.00  0.00    -0.248 NA
ATOM     56  C   UNL     1     -12.443   6.999   9.110  1.00  0.00     0.031 C 
ATOM     57  C   UNL     1      -8.847  10.785  12.213  1.00  0.00     0.029 A 
ATOM     58  C   UNL     1      -9.378   9.992  11.207  1.00  0.00     0.049 A 
ATOM     59  H   UNL     1      -8.647   9.655   9.256  1.00  0.00     0.167 HD
ATOM     60  C   UNL     1     -11.043   8.450  10.205  1.00  0.00     0.074 A 
ATOM     61  C   UNL     1     -12.245   7.644  10.252  1.00  0.00     0.031 C 
ATOM     62  C   UNL     1     -10.572   9.186  11.241  1.00  0.00     0.037 A 
BRANCH  49  63
ATOM     63  C   UNL     1      -5.298  12.175  10.069  1.00  0.00     0.057 A 
ATOM     64  C   UNL     1      -4.444  11.725  11.084  1.00  0.00     0.134 A 
ATOM     65  C   UNL     1      -5.127  13.491   9.618  1.00  0.00     0.134 A 
ATOM     66  F   UNL     1      -4.556  10.478  11.566  1.00  0.00    -0.206 F 
ATOM     67  C   UNL     1      -3.469  12.555  11.641  1.00  0.00     0.040 A 
ATOM     68  C   UNL     1      -4.136  14.321  10.146  1.00  0.00     0.040 A 
ATOM     69  F   UNL     1      -5.903  13.981   8.640  1.00  0.00    -0.206 F 
ATOM     70  C   UNL     1      -3.311  13.856  11.168  1.00  0.00     0.006 A 
ENDBRANCH  49  63
BRANCH  50  71
ATOM     71  C   UNL     1     -12.261   6.067   6.324  1.00  0.00     0.057 A 
ATOM     72  C   UNL     1     -11.944   4.745   5.988  1.00  0.00     0.134 A 
ATOM     73  C   UNL     1     -13.566   6.502   6.067  1.00  0.00     0.134 A 
ATOM     74  F   UNL     1     -10.707   4.271   6.199  1.00  0.00    -0.206 F 
ATOM     75  C   UNL     1     -12.880   3.897   5.395  1.00  0.00     0.040 A 
ATOM     76  C   UNL     1     -14.520   5.657   5.498  1.00  0.00     0.040 A 
ATOM     77  F   UNL     1     -13.934   7.753   6.382  1.00  0.00    -0.206 F 
ATOM     78  C   UNL     1     -14.174   4.352   5.150  1.00  0.00     0.006 A 
ENDBRANCH  50  71
BRANCH  62  79
ATOM     79  C   UNL     1     -11.359   9.177  12.519  1.00  0.00     0.057 A 
ATOM     80  C   UNL     1     -12.027  10.330  12.953  1.00  0.00     0.134 A 
ATOM     81  C   UNL     1     -11.378   8.062  13.366  1.00  0.00     0.134 A 
ATOM     82  F   UNL     1     -12.037  11.437  12.195  1.00  0.00    -0.206 F 
ATOM     83  C   UNL     1     -12.666  10.381  14.192  1.00  0.00     0.040 A 
ATOM     84  C   UNL     1     -12.039   8.091  14.595  1.00  0.00     0.040 A 
ATOM     85  F   UNL     1     -10.766   6.923  13.005  1.00  0.00    -0.206 F 
ATOM     86  C   UNL     1     -12.674   9.258  15.016  1.00  0.00     0.006 A 
ENDBRANCH  62  79
ENDBRANCH  36  37
ENDBRANCH  28  31
ENDBRANCH  26  27
ENDBRANCH  25  26
ENDBRANCH   1  25
TORSDOF 13
