REMARK SMILES COc1ccc(NCc2ccc(C(=O)NCCCNC(=O)c3ccc(-c4c5nc(c(-c6c(F)cccc6F)c6ccc([nH]6)c(-c6c(F)cccc6F)c6nc(c(-c7c(F)cccc7F)c7ccc4[nH]7)C=C6)C=C5)cc3)cn2)cc1Br
REMARK SMILES IDX 16 1 15 2 13 3 14 4 12 6 9 7 10 8 77 9 11 10 76 11 8 12 7 13
REMARK SMILES IDX 6 15 3 16 4 17 79 18 5 19 78 20 80 21 2 22 1 23 17 24 18 25
REMARK SMILES IDX 19 26 20 27 21 29 22 30 23 31 75 32 24 33 74 34 25 35 26 36
REMARK SMILES IDX 27 37 68 38 28 39 73 40 67 41 69 42 29 43 72 44 66 45 65 46
REMARK SMILES IDX 30 48 56 49 39 50 55 51 40 52 43 53 54 54 70 55 41 56 42 57
REMARK SMILES IDX 53 59 71 60 44 61 31 62 32 63 37 64 33 65 34 66 36 67 38 68
REMARK SMILES IDX 35 69 57 70 58 71 63 72 59 73 60 74 62 75 64 76 61 77 45 78
REMARK SMILES IDX 46 79 51 80 47 81 48 82 50 83 52 84 49 85
REMARK H PARENT 15 5 7 14 19 28 69 47 43 58
REMARK Flexibility Score: inf
ROOT
ATOM      1  C   UNL     1       0.168   1.148  10.061  1.00  0.00     0.118 C 
ENDROOT
BRANCH   1   2
ATOM      2  N   UNL     1       0.406   2.405  10.746  1.00  0.00    -0.352 N 
ATOM      3  C   UNL     1       0.603   3.684  10.292  1.00  0.00     0.252 C 
ATOM      4  O   UNL     1       0.708   4.573  11.138  1.00  0.00    -0.269 OA
ATOM      5  H   UNL     1       0.431   2.324  11.727  1.00  0.00     0.163 HD
BRANCH   3   6
ATOM      6  C   UNL     1       0.663   4.053   8.858  1.00  0.00     0.058 A 
ATOM      7  C   UNL     1       0.719   5.027   6.254  1.00  0.00     0.059 A 
ATOM      8  C   UNL     1       1.042   3.695   6.501  1.00  0.00     0.026 A 
ATOM      9  N   UNL     1       0.373   5.869   7.259  1.00  0.00    -0.259 NA
ATOM     10  C   UNL     1       1.043   3.218   7.813  1.00  0.00     0.017 A 
ATOM     11  C   UNL     1       0.358   5.369   8.524  1.00  0.00     0.125 A 
BRANCH   7  12
ATOM     12  C   UNL     1       0.709   5.595   4.845  1.00  0.00     0.169 C 
BRANCH  12  13
ATOM     13  N   UNL     1       1.698   4.962   3.981  1.00  0.00    -0.379 N 
ATOM     14  H   UNL     1       2.640   5.192   4.150  1.00  0.00     0.160 HD
BRANCH  13  15
ATOM     15  C   UNL     1       1.458   4.074   2.954  1.00  0.00     0.036 A 
ATOM     16  C   UNL     1       1.109   2.255   0.811  1.00  0.00     0.133 A 
ATOM     17  C   UNL     1       0.006   2.853   1.418  1.00  0.00     0.050 A 
ATOM     18  C   UNL     1       2.390   2.568   1.260  1.00  0.00     0.062 A 
ATOM     19  C   UNL     1       0.182   3.743   2.486  1.00  0.00     0.029 A 
ATOM     20  C   UNL     1       2.555   3.461   2.328  1.00  0.00     0.045 A 
ATOM     21  Br  UNL     1       3.949   1.859   0.446  1.00  0.00    -0.047 Br
BRANCH  16  22
ATOM     22  O   UNL     1       0.875   1.467  -0.282  1.00  0.00    -0.496 OA
ATOM     23  C   UNL     1       0.854   0.083   0.067  1.00  0.00     0.278 C 
ENDBRANCH  16  22
ENDBRANCH  13  15
ENDBRANCH  12  13
ENDBRANCH   7  12
ENDBRANCH   3   6
ENDBRANCH   1   2
BRANCH   1  24
ATOM     24  C   UNL     1       1.450   0.322   9.954  1.00  0.00     0.042 C 
BRANCH  24  25
ATOM     25  C   UNL     1       1.863  -0.332  11.271  1.00  0.00     0.118 C 
BRANCH  25  26
ATOM     26  N   UNL     1       0.950  -1.397  11.658  1.00  0.00    -0.352 N 
ATOM     27  C   UNL     1       1.190  -2.726  11.902  1.00  0.00     0.251 C 
ATOM     28  H   UNL     1       0.010  -1.121  11.760  1.00  0.00     0.163 HD
ATOM     29  O   UNL     1       0.243  -3.501  11.992  1.00  0.00    -0.269 OA
BRANCH  27  30
ATOM     30  C   UNL     1       2.570  -3.236  12.054  1.00  0.00     0.039 A 
ATOM     31  C   UNL     1       2.885  -4.486  11.512  1.00  0.00     0.014 A 
ATOM     32  C   UNL     1       3.534  -2.528  12.778  1.00  0.00     0.014 A 
ATOM     33  C   UNL     1       4.174  -5.005  11.656  1.00  0.00     0.010 A 
ATOM     34  C   UNL     1       4.836  -3.016  12.867  1.00  0.00     0.010 A 
ATOM     35  C   UNL     1       5.167  -4.262  12.314  1.00  0.00    -0.014 A 
BRANCH  35  36
ATOM     36  C   UNL     1       6.554  -4.775  12.437  1.00  0.00     0.031 A 
ATOM     37  C   UNL     1       7.122  -5.109  13.789  1.00  0.00     0.074 A 
ATOM     38  C   UNL     1       7.324  -4.879  11.337  1.00  0.00     0.049 A 
ATOM     39  N   UNL     1       8.333  -5.493  14.106  1.00  0.00    -0.248 NA
ATOM     40  C   UNL     1       6.216  -4.967  14.940  1.00  0.00     0.031 C 
ATOM     41  C   UNL     1       6.902  -4.546   9.976  1.00  0.00     0.029 A 
ATOM     42  N   UNL     1       8.628  -5.282  11.193  1.00  0.00    -0.354 N 
ATOM     43  C   UNL     1       8.339  -5.619  15.489  1.00  0.00     0.074 A 
ATOM     44  C   UNL     1       7.026  -5.230  15.955  1.00  0.00     0.031 C 
ATOM     45  C   UNL     1       7.922  -4.774   9.133  1.00  0.00     0.029 A 
ATOM     46  C   UNL     1       9.077  -5.234   9.896  1.00  0.00     0.049 A 
ATOM     47  H   UNL     1       9.187  -5.577  11.947  1.00  0.00     0.167 HD
ATOM     48  C   UNL     1       9.343  -6.040  16.296  1.00  0.00     0.037 A 
ATOM     49  C   UNL     1      10.287  -5.521   9.382  1.00  0.00     0.037 A 
ATOM     50  C   UNL     1      10.639  -6.454  15.827  1.00  0.00     0.049 A 
ATOM     51  C   UNL     1      11.383  -5.991  10.296  1.00  0.00     0.074 A 
ATOM     52  C   UNL     1      11.702  -6.955  16.558  1.00  0.00     0.029 A 
ATOM     53  N   UNL     1      11.049  -6.413  14.503  1.00  0.00    -0.354 N 
ATOM     54  N   UNL     1      11.356  -6.164  11.595  1.00  0.00    -0.248 NA
ATOM     55  C   UNL     1      12.675  -6.311   9.673  1.00  0.00     0.031 C 
ATOM     56  C   UNL     1      12.768  -7.184  15.681  1.00  0.00     0.029 A 
ATOM     57  C   UNL     1      12.355  -6.863  14.398  1.00  0.00     0.049 A 
ATOM     58  H   UNL     1      10.494  -6.109  13.749  1.00  0.00     0.167 HD
ATOM     59  C   UNL     1      12.616  -6.636  11.942  1.00  0.00     0.074 A 
ATOM     60  C   UNL     1      13.378  -6.733  10.714  1.00  0.00     0.031 C 
ATOM     61  C   UNL     1      13.097  -6.959  13.167  1.00  0.00     0.037 A 
BRANCH  48  62
ATOM     62  C   UNL     1       9.074  -6.075  17.773  1.00  0.00     0.057 A 
ATOM     63  C   UNL     1       8.212  -7.020  18.345  1.00  0.00     0.134 A 
ATOM     64  C   UNL     1       9.704  -5.170  18.637  1.00  0.00     0.134 A 
ATOM     65  F   UNL     1       7.568  -7.907  17.572  1.00  0.00    -0.206 F 
ATOM     66  C   UNL     1       7.965  -7.046  19.718  1.00  0.00     0.040 A 
ATOM     67  C   UNL     1       9.485  -5.204  20.015  1.00  0.00     0.040 A 
ATOM     68  F   UNL     1      10.547  -4.243  18.157  1.00  0.00    -0.206 F 
ATOM     69  C   UNL     1       8.607  -6.139  20.559  1.00  0.00     0.006 A 
ENDBRANCH  48  62
BRANCH  49  70
ATOM     70  C   UNL     1      10.518  -5.396   7.921  1.00  0.00     0.057 A 
ATOM     71  C   UNL     1      10.666  -6.531   7.117  1.00  0.00     0.134 A 
ATOM     72  C   UNL     1      10.591  -4.146   7.296  1.00  0.00     0.134 A 
ATOM     73  F   UNL     1      10.622  -7.755   7.663  1.00  0.00    -0.206 F 
ATOM     74  C   UNL     1      10.892  -6.429   5.743  1.00  0.00     0.040 A 
ATOM     75  C   UNL     1      10.795  -4.029   5.920  1.00  0.00     0.040 A 
ATOM     76  F   UNL     1      10.449  -3.021   8.012  1.00  0.00    -0.206 F 
ATOM     77  C   UNL     1      10.952  -5.173   5.141  1.00  0.00     0.006 A 
ENDBRANCH  49  70
BRANCH  61  78
ATOM     78  C   UNL     1      14.503  -7.477  13.234  1.00  0.00     0.057 A 
ATOM     79  C   UNL     1      15.608  -6.634  13.069  1.00  0.00     0.134 A 
ATOM     80  C   UNL     1      14.752  -8.829  13.502  1.00  0.00     0.134 A 
ATOM     81  F   UNL     1      15.436  -5.332  12.796  1.00  0.00    -0.206 F 
ATOM     82  C   UNL     1      16.914  -7.121  13.150  1.00  0.00     0.040 A 
ATOM     83  C   UNL     1      16.052  -9.323  13.609  1.00  0.00     0.040 A 
ATOM     84  F   UNL     1      13.735  -9.687  13.677  1.00  0.00    -0.206 F 
ATOM     85  C   UNL     1      17.138  -8.469  13.427  1.00  0.00     0.006 A 
ENDBRANCH  61  78
ENDBRANCH  35  36
ENDBRANCH  27  30
ENDBRANCH  25  26
ENDBRANCH  24  25
ENDBRANCH   1  24
TORSDOF 14
