REMARK SMILES CCCN(C(=O)Cc1c(C(=O)NCCCNC(=O)c2ccc(-c3c4nc(c(-c5c(F)cccc5F)c5ccc([nH]5)c(-c5c(F)cccc5F)c5nc(c(-c6c(F)cccc6F)c6ccc3[nH]6)C=C5)C=C4)cc2)c(C)cn1CC)c1cccc(Cl)c1
REMARK SMILES IDX 10 1 11 2 12 3 9 5 8 6 76 7 73 8 75 9 74 10 7 11 5 12 6 13
REMARK SMILES IDX 4 14 3 15 2 16 1 17 79 18 80 19 85 20 81 21 83 22 82 23
REMARK SMILES IDX 84 24 77 25 78 26 13 27 14 28 15 29 16 30 17 31 18 33 19 34
REMARK SMILES IDX 20 35 72 36 21 37 71 38 22 39 23 40 24 41 65 42 25 43 70 44
REMARK SMILES IDX 64 45 66 46 26 47 69 48 63 49 62 50 27 52 53 53 36 54 52 55
REMARK SMILES IDX 37 56 40 57 51 58 67 59 38 60 39 61 50 63 68 64 41 65 28 66
REMARK SMILES IDX 29 67 34 68 30 69 31 70 33 71 35 72 32 73 54 74 55 75 60 76
REMARK SMILES IDX 56 77 57 78 59 79 61 80 58 81 42 82 43 83 48 84 44 85 45 86
REMARK SMILES IDX 47 87 49 88 46 89
REMARK H PARENT 12 4 16 32 66 51 40 62
REMARK Flexibility Score: inf
ROOT
ATOM      1  C   UNL     1      -3.501  -1.414  -3.683  1.00  0.00     0.253 C 
ATOM      2  O   UNL     1      -3.273  -2.502  -4.221  1.00  0.00    -0.269 OA
ATOM      3  N   UNL     1      -4.684  -1.385  -2.998  1.00  0.00    -0.352 N 
ATOM      4  H   UNL     1      -5.130  -2.262  -2.977  1.00  0.00     0.163 HD
ENDROOT
BRANCH   1   5
ATOM      5  C   UNL     1      -2.546  -0.290  -3.845  1.00  0.00     0.064 A 
ATOM      6  C   UNL     1      -1.190  -0.548  -4.172  1.00  0.00     0.040 A 
ATOM      7  N   UNL     1      -0.642   0.626  -4.640  1.00  0.00    -0.350 N 
ATOM      8  C   UNL     1      -2.650   1.157  -3.811  1.00  0.00    -0.020 A 
ATOM      9  C   UNL     1      -1.444   1.659  -4.263  1.00  0.00     0.090 A 
ATOM     10  C   UNL     1      -3.758   2.090  -3.491  1.00  0.00     0.047 C 
BRANCH   6  11
ATOM     11  C   UNL     1      -0.416  -1.847  -4.172  1.00  0.00     0.155 C 
BRANCH  11  12
ATOM     12  C   UNL     1      -0.376  -2.572  -2.810  1.00  0.00     0.232 C 
ATOM     13  O   UNL     1      -0.986  -3.645  -2.717  1.00  0.00    -0.274 OA
BRANCH  12  14
ATOM     14  N   UNL     1       0.405  -2.056  -1.746  1.00  0.00    -0.312 N 
BRANCH  14  15
ATOM     15  C   UNL     1       1.044  -0.729  -1.785  1.00  0.00     0.125 C 
BRANCH  15  16
ATOM     16  C   UNL     1       0.177   0.472  -1.371  1.00  0.00     0.019 C 
ATOM     17  C   UNL     1       0.468   1.063   0.002  1.00  0.00     0.006 C 
ENDBRANCH  15  16
ENDBRANCH  14  15
BRANCH  14  18
ATOM     18  C   UNL     1       0.673  -2.874  -0.578  1.00  0.00     0.045 A 
ATOM     19  C   UNL     1       0.738  -4.274  -0.647  1.00  0.00     0.026 A 
ATOM     20  C   UNL     1       0.915  -2.296   0.674  1.00  0.00     0.046 A 
ATOM     21  C   UNL     1       0.973  -5.058   0.491  1.00  0.00     0.004 A 
ATOM     22  C   UNL     1       1.118  -3.074   1.817  1.00  0.00     0.043 A 
ATOM     23  C   UNL     1       1.143  -4.457   1.733  1.00  0.00     0.020 A 
ATOM     24  Cl  UNL     1       1.322  -2.299   3.341  1.00  0.00    -0.084 Cl
ENDBRANCH  14  18
ENDBRANCH  12  14
ENDBRANCH  11  12
ENDBRANCH   6  11
BRANCH   7  25
ATOM     25  C   UNL     1       0.467   0.809  -5.567  1.00  0.00     0.118 C 
ATOM     26  C   UNL     1       1.861   0.774  -4.966  1.00  0.00     0.027 C 
ENDBRANCH   7  25
ENDBRANCH   1   5
BRANCH   3  27
ATOM     27  C   UNL     1      -5.428  -0.366  -2.299  1.00  0.00     0.118 C 
BRANCH  27  28
ATOM     28  C   UNL     1      -6.417   0.344  -3.233  1.00  0.00     0.042 C 
BRANCH  28  29
ATOM     29  C   UNL     1      -7.782  -0.320  -3.282  1.00  0.00     0.118 C 
BRANCH  29  30
ATOM     30  N   UNL     1      -8.526  -0.128  -2.038  1.00  0.00    -0.352 N 
ATOM     31  C   UNL     1      -9.730  -0.676  -1.662  1.00  0.00     0.251 C 
ATOM     32  H   UNL     1      -8.110   0.476  -1.382  1.00  0.00     0.163 HD
ATOM     33  O   UNL     1     -10.399  -0.156  -0.768  1.00  0.00    -0.269 OA
BRANCH  31  34
ATOM     34  C   UNL     1     -10.223  -1.878  -2.350  1.00  0.00     0.039 A 
ATOM     35  C   UNL     1     -11.576  -2.009  -2.668  1.00  0.00     0.014 A 
ATOM     36  C   UNL     1      -9.308  -2.864  -2.713  1.00  0.00     0.014 A 
ATOM     37  C   UNL     1     -11.980  -3.095  -3.439  1.00  0.00     0.010 A 
ATOM     38  C   UNL     1      -9.678  -3.847  -3.599  1.00  0.00     0.010 A 
ATOM     39  C   UNL     1     -11.017  -3.993  -3.934  1.00  0.00    -0.014 A 
BRANCH  39  40
ATOM     40  C   UNL     1     -11.398  -4.992  -4.928  1.00  0.00     0.031 A 
ATOM     41  C   UNL     1     -12.132  -4.425  -6.093  1.00  0.00     0.074 A 
ATOM     42  C   UNL     1     -10.973  -6.274  -4.923  1.00  0.00     0.049 A 
ATOM     43  N   UNL     1     -13.382  -4.577  -6.378  1.00  0.00    -0.248 NA
ATOM     44  C   UNL     1     -11.444  -3.442  -6.946  1.00  0.00     0.031 C 
ATOM     45  C   UNL     1      -9.984  -6.902  -4.043  1.00  0.00     0.029 A 
ATOM     46  N   UNL     1     -11.276  -7.280  -5.791  1.00  0.00    -0.354 N 
ATOM     47  C   UNL     1     -13.586  -3.899  -7.576  1.00  0.00     0.074 A 
ATOM     48  C   UNL     1     -12.431  -3.062  -7.760  1.00  0.00     0.031 C 
ATOM     49  C   UNL     1      -9.600  -8.088  -4.564  1.00  0.00     0.029 A 
ATOM     50  C   UNL     1     -10.434  -8.385  -5.713  1.00  0.00     0.049 A 
ATOM     51  H   UNL     1     -12.030  -7.230  -6.421  1.00  0.00     0.167 HD
ATOM     52  C   UNL     1     -14.560  -4.305  -8.439  1.00  0.00     0.037 A 
ATOM     53  C   UNL     1     -10.410  -9.454  -6.549  1.00  0.00     0.037 A 
ATOM     54  C   UNL     1     -15.507  -5.166  -7.767  1.00  0.00     0.049 A 
ATOM     55  C   UNL     1     -11.705  -9.481  -7.271  1.00  0.00     0.074 A 
ATOM     56  C   UNL     1     -16.315  -5.047  -6.651  1.00  0.00     0.029 A 
ATOM     57  N   UNL     1     -15.430  -6.514  -8.023  1.00  0.00    -0.354 N 
ATOM     58  N   UNL     1     -12.846  -9.766  -6.710  1.00  0.00    -0.248 NA
ATOM     59  C   UNL     1     -11.791  -8.750  -8.525  1.00  0.00     0.031 C 
ATOM     60  C   UNL     1     -16.259  -6.325  -6.018  1.00  0.00     0.029 A 
ATOM     61  C   UNL     1     -15.497  -7.170  -6.824  1.00  0.00     0.049 A 
ATOM     62  H   UNL     1     -15.342  -6.932  -8.910  1.00  0.00     0.167 HD
ATOM     63  C   UNL     1     -13.740  -8.866  -7.269  1.00  0.00     0.074 A 
ATOM     64  C   UNL     1     -13.059  -8.338  -8.449  1.00  0.00     0.031 C 
ATOM     65  C   UNL     1     -14.819  -8.418  -6.561  1.00  0.00     0.037 A 
BRANCH  52  66
ATOM     66  C   UNL     1     -14.421  -4.303  -9.949  1.00  0.00     0.057 A 
ATOM     67  C   UNL     1     -15.504  -4.764 -10.724  1.00  0.00     0.134 A 
ATOM     68  C   UNL     1     -13.203  -4.189 -10.649  1.00  0.00     0.134 A 
ATOM     69  F   UNL     1     -16.726  -4.905 -10.187  1.00  0.00    -0.206 F 
ATOM     70  C   UNL     1     -15.355  -5.200 -12.046  1.00  0.00     0.040 A 
ATOM     71  C   UNL     1     -13.056  -4.574 -11.985  1.00  0.00     0.040 A 
ATOM     72  F   UNL     1     -12.065  -3.793 -10.071  1.00  0.00    -0.206 F 
ATOM     73  C   UNL     1     -14.122  -5.122 -12.676  1.00  0.00     0.006 A 
ENDBRANCH  52  66
BRANCH  53  74
ATOM     74  C   UNL     1      -9.271 -10.305  -6.966  1.00  0.00     0.057 A 
ATOM     75  C   UNL     1      -9.486 -11.528  -7.620  1.00  0.00     0.134 A 
ATOM     76  C   UNL     1      -7.956  -9.811  -7.002  1.00  0.00     0.134 A 
ATOM     77  F   UNL     1     -10.713 -12.067  -7.673  1.00  0.00    -0.206 F 
ATOM     78  C   UNL     1      -8.463 -12.200  -8.304  1.00  0.00     0.040 A 
ATOM     79  C   UNL     1      -6.924 -10.476  -7.675  1.00  0.00     0.040 A 
ATOM     80  F   UNL     1      -7.648  -8.621  -6.467  1.00  0.00    -0.206 F 
ATOM     81  C   UNL     1      -7.180 -11.666  -8.345  1.00  0.00     0.006 A 
ENDBRANCH  53  74
BRANCH  65  82
ATOM     82  C   UNL     1     -15.195  -9.143  -5.299  1.00  0.00     0.057 A 
ATOM     83  C   UNL     1     -14.368  -9.276  -4.173  1.00  0.00     0.134 A 
ATOM     84  C   UNL     1     -16.509  -9.611  -5.175  1.00  0.00     0.134 A 
ATOM     85  F   UNL     1     -13.127  -8.772  -4.154  1.00  0.00    -0.206 F 
ATOM     86  C   UNL     1     -14.817  -9.891  -2.999  1.00  0.00     0.040 A 
ATOM     87  C   UNL     1     -16.980 -10.191  -3.996  1.00  0.00     0.040 A 
ATOM     88  F   UNL     1     -17.374  -9.473  -6.192  1.00  0.00    -0.206 F 
ATOM     89  C   UNL     1     -16.129 -10.345  -2.906  1.00  0.00     0.006 A 
ENDBRANCH  65  82
ENDBRANCH  39  40
ENDBRANCH  31  34
ENDBRANCH  29  30
ENDBRANCH  28  29
ENDBRANCH  27  28
ENDBRANCH   3  27
TORSDOF 17
