REMARK SMILES CN(C(=O)N[C@@](C)(C(=O)NCCCNC(=O)c1ccc(-c2c3nc(c(-c4c(F)cccc4F)c4ccc([nH]4)c(-c4c(F)cccc4F)c4nc(c(-c5c(F)cccc5F)c5ccc2[nH]5)C=C4)C=C3)cc1)C(F)(F)F)c1ccc(F)cc1
REMARK SMILES IDX 11 1 10 2 8 3 9 4 6 6 7 7 5 8 3 9 4 10 2 12 1 13 75 14 76 15
REMARK SMILES IDX 81 16 77 17 80 18 78 19 79 20 71 21 72 22 73 23 74 24 12 25
REMARK SMILES IDX 13 26 14 27 15 28 16 30 17 31 18 32 70 33 19 34 69 35 20 36
REMARK SMILES IDX 21 37 22 38 63 39 23 40 68 41 62 42 64 43 24 44 67 45 61 46
REMARK SMILES IDX 60 47 25 49 51 50 34 51 50 52 35 53 38 54 49 55 65 56 36 57
REMARK SMILES IDX 37 58 48 60 66 61 39 62 26 63 27 64 32 65 28 66 29 67 31 68
REMARK SMILES IDX 33 69 30 70 52 71 53 72 58 73 54 74 55 75 57 76 59 77 56 78
REMARK SMILES IDX 40 79 41 80 46 81 42 82 43 83 45 84 47 85 44 86
REMARK H PARENT 10 5 5 11 14 29 64 48 38 59
REMARK Flexibility Score: inf
ROOT
ATOM      1  C   UNL     1      -1.556   4.532  -1.969  1.00  0.00     0.117 C 
ENDROOT
BRANCH   1   2
ATOM      2  N   UNL     1      -0.207   4.125  -2.311  1.00  0.00    -0.354 N 
ATOM      3  C   UNL     1       0.506   2.977  -2.195  1.00  0.00     0.255 C 
ATOM      4  O   UNL     1       1.711   3.124  -2.427  1.00  0.00    -0.272 OA
ATOM      5  H   UNL     1       0.313   4.852  -2.725  1.00  0.00     0.163 HD
BRANCH   3   6
ATOM      6  C   UNL     1      -0.089   1.623  -1.732  1.00  0.00     0.213 C 
ATOM      7  C   UNL     1      -1.415   1.280  -2.441  1.00  0.00     0.056 C 
BRANCH   6   8
ATOM      8  N   UNL     1      -0.389   1.800  -0.261  1.00  0.00    -0.316 N 
ATOM      9  C   UNL     1      -0.036   1.466   0.990  1.00  0.00     0.322 C 
ATOM     10  O   UNL     1      -0.458   2.287   1.816  1.00  0.00    -0.248 OA
ATOM     11  H   UNL     1      -1.158   2.410  -0.193  1.00  0.00     0.166 HD
BRANCH   9  12
ATOM     12  N   UNL     1       0.685   0.361   1.341  1.00  0.00    -0.298 N 
ATOM     13  C   UNL     1       0.945  -0.783   0.488  1.00  0.00     0.155 C 
BRANCH  12  14
ATOM     14  C   UNL     1       1.038   0.116   2.715  1.00  0.00     0.045 A 
ATOM     15  C   UNL     1       0.092   0.228   3.746  1.00  0.00     0.029 A 
ATOM     16  C   UNL     1       2.313  -0.392   3.019  1.00  0.00     0.029 A 
ATOM     17  C   UNL     1       0.403  -0.202   5.040  1.00  0.00     0.041 A 
ATOM     18  C   UNL     1       2.629  -0.798   4.317  1.00  0.00     0.041 A 
ATOM     19  C   UNL     1       1.665  -0.715   5.312  1.00  0.00     0.123 A 
ATOM     20  F   UNL     1       1.952  -1.150   6.546  1.00  0.00    -0.207 F 
ENDBRANCH  12  14
ENDBRANCH   9  12
ENDBRANCH   6   8
BRANCH   6  21
ATOM     21  C   UNL     1       0.951   0.613  -2.279  1.00  0.00     0.420 C 
ATOM     22  F   UNL     1       2.145   0.659  -1.660  1.00  0.00    -0.168 F 
ATOM     23  F   UNL     1       0.497  -0.664  -2.198  1.00  0.00    -0.168 F 
ATOM     24  F   UNL     1       1.169   0.804  -3.609  1.00  0.00    -0.168 F 
ENDBRANCH   6  21
ENDBRANCH   3   6
ENDBRANCH   1   2
BRANCH   1  25
ATOM     25  C   UNL     1      -1.561   5.798  -1.123  1.00  0.00     0.042 C 
BRANCH  25  26
ATOM     26  C   UNL     1      -0.862   6.996  -1.756  1.00  0.00     0.118 C 
BRANCH  26  27
ATOM     27  N   UNL     1      -1.464   7.411  -3.015  1.00  0.00    -0.352 N 
ATOM     28  C   UNL     1      -2.070   8.595  -3.352  1.00  0.00     0.251 C 
ATOM     29  H   UNL     1      -1.431   6.739  -3.734  1.00  0.00     0.163 HD
ATOM     30  O   UNL     1      -2.673   8.689  -4.419  1.00  0.00    -0.269 OA
BRANCH  28  31
ATOM     31  C   UNL     1      -2.028   9.747  -2.425  1.00  0.00     0.039 A 
ATOM     32  C   UNL     1      -3.189  10.500  -2.232  1.00  0.00     0.014 A 
ATOM     33  C   UNL     1      -0.855  10.085  -1.747  1.00  0.00     0.014 A 
ATOM     34  C   UNL     1      -3.190  11.543  -1.304  1.00  0.00     0.010 A 
ATOM     35  C   UNL     1      -0.885  11.057  -0.752  1.00  0.00     0.010 A 
ATOM     36  C   UNL     1      -2.051  11.802  -0.524  1.00  0.00    -0.014 A 
BRANCH  36  37
ATOM     37  C   UNL     1      -2.064  12.849   0.531  1.00  0.00     0.031 A 
ATOM     38  C   UNL     1      -1.131  14.026   0.444  1.00  0.00     0.074 A 
ATOM     39  C   UNL     1      -2.878  12.710   1.596  1.00  0.00     0.049 A 
ATOM     40  N   UNL     1      -0.968  15.015   1.287  1.00  0.00    -0.248 NA
ATOM     41  C   UNL     1      -0.244  14.089  -0.729  1.00  0.00     0.031 C 
ATOM     42  C   UNL     1      -3.787  11.585   1.828  1.00  0.00     0.029 A 
ATOM     43  N   UNL     1      -3.068  13.517   2.691  1.00  0.00    -0.354 N 
ATOM     44  C   UNL     1       0.046  15.802   0.755  1.00  0.00     0.074 A 
ATOM     45  C   UNL     1       0.499  15.150  -0.453  1.00  0.00     0.031 C 
ATOM     46  C   UNL     1      -4.455  11.786   2.975  1.00  0.00     0.029 A 
ATOM     47  C   UNL     1      -3.994  13.030   3.582  1.00  0.00     0.049 A 
ATOM     48  H   UNL     1      -2.586  14.365   2.825  1.00  0.00     0.167 HD
ATOM     49  C   UNL     1       0.537  16.976   1.218  1.00  0.00     0.037 A 
ATOM     50  C   UNL     1      -4.416  13.524   4.762  1.00  0.00     0.037 A 
ATOM     51  C   UNL     1       0.064  17.637   2.406  1.00  0.00     0.049 A 
ATOM     52  C   UNL     1      -3.853  14.831   5.252  1.00  0.00     0.074 A 
ATOM     53  C   UNL     1       0.447  18.864   2.917  1.00  0.00     0.029 A 
ATOM     54  N   UNL     1      -0.889  17.122   3.271  1.00  0.00    -0.354 N 
ATOM     55  N   UNL     1      -2.958  15.608   4.692  1.00  0.00    -0.248 NA
ATOM     56  C   UNL     1      -4.365  15.333   6.535  1.00  0.00     0.031 C 
ATOM     57  C   UNL     1      -0.233  19.066   4.122  1.00  0.00     0.029 A 
ATOM     58  C   UNL     1      -1.086  17.994   4.329  1.00  0.00     0.049 A 
ATOM     59  H   UNL     1      -1.357  16.264   3.150  1.00  0.00     0.167 HD
ATOM     60  C   UNL     1      -2.822  16.702   5.537  1.00  0.00     0.074 A 
ATOM     61  C   UNL     1      -3.740  16.497   6.638  1.00  0.00     0.031 C 
ATOM     62  C   UNL     1      -2.010  17.780   5.413  1.00  0.00     0.037 A 
BRANCH  49  63
ATOM     63  C   UNL     1       1.643  17.628   0.438  1.00  0.00     0.057 A 
ATOM     64  C   UNL     1       1.426  18.197  -0.824  1.00  0.00     0.134 A 
ATOM     65  C   UNL     1       2.930  17.736   0.981  1.00  0.00     0.134 A 
ATOM     66  F   UNL     1       0.220  18.119  -1.407  1.00  0.00    -0.206 F 
ATOM     67  C   UNL     1       2.452  18.831  -1.526  1.00  0.00     0.040 A 
ATOM     68  C   UNL     1       3.957  18.394   0.301  1.00  0.00     0.040 A 
ATOM     69  F   UNL     1       3.207  17.219   2.188  1.00  0.00    -0.206 F 
ATOM     70  C   UNL     1       3.720  18.939  -0.959  1.00  0.00     0.006 A 
ENDBRANCH  49  63
BRANCH  50  71
ATOM     71  C   UNL     1      -5.432  12.790   5.560  1.00  0.00     0.057 A 
ATOM     72  C   UNL     1      -6.719  13.307   5.752  1.00  0.00     0.134 A 
ATOM     73  C   UNL     1      -5.134  11.566   6.171  1.00  0.00     0.134 A 
ATOM     74  F   UNL     1      -7.061  14.484   5.207  1.00  0.00    -0.206 F 
ATOM     75  C   UNL     1      -7.662  12.650   6.544  1.00  0.00     0.040 A 
ATOM     76  C   UNL     1      -6.077  10.883   6.941  1.00  0.00     0.040 A 
ATOM     77  F   UNL     1      -3.923  11.010   6.020  1.00  0.00    -0.206 F 
ATOM     78  C   UNL     1      -7.343  11.431   7.138  1.00  0.00     0.006 A 
ENDBRANCH  50  71
BRANCH  62  79
ATOM     79  C   UNL     1      -2.105  18.841   6.471  1.00  0.00     0.057 A 
ATOM     80  C   UNL     1      -1.635  18.635   7.774  1.00  0.00     0.134 A 
ATOM     81  C   UNL     1      -2.638  20.101   6.168  1.00  0.00     0.134 A 
ATOM     82  F   UNL     1      -1.123  17.448   8.133  1.00  0.00    -0.206 F 
ATOM     83  C   UNL     1      -1.715  19.635   8.745  1.00  0.00     0.040 A 
ATOM     84  C   UNL     1      -2.694  21.119   7.121  1.00  0.00     0.040 A 
ATOM     85  F   UNL     1      -3.096  20.369   4.936  1.00  0.00    -0.206 F 
ATOM     86  C   UNL     1      -2.239  20.884   8.416  1.00  0.00     0.006 A 
ENDBRANCH  62  79
ENDBRANCH  36  37
ENDBRANCH  28  31
ENDBRANCH  26  27
ENDBRANCH  25  26
ENDBRANCH   1  25
TORSDOF 14
