REMARK SMILES COc1ccc(CCNC(=O)c2cccnc2C(=O)NCCCNC(=O)c2ccc(-c3c4nc(c(-c5c(F)cccc5F)c5ccc([nH]5)c(-c5c(F)cccc5F)c5nc(c(-c6c(F)cccc6F)c6ccc3[nH]6)C=C5)C=C4)cc2)cc1OC
REMARK SMILES IDX 18 1 19 2 20 3 17 5 12 6 13 7 14 8 16 9 15 10 10 11 9 12
REMARK SMILES IDX 11 14 8 15 7 16 6 17 3 18 4 19 82 20 5 21 81 22 2 23 1 24
REMARK SMILES IDX 83 25 84 26 21 27 22 28 23 29 24 30 25 31 26 33 27 34 28 35
REMARK SMILES IDX 80 36 29 37 79 38 30 39 31 40 32 41 73 42 33 43 78 44 72 45
REMARK SMILES IDX 74 46 34 47 77 48 71 49 70 50 35 52 61 53 44 54 60 55 45 56
REMARK SMILES IDX 48 57 59 58 75 59 46 60 47 61 58 63 76 64 49 65 36 66 37 67
REMARK SMILES IDX 42 68 38 69 39 70 41 71 43 72 40 73 62 74 63 75 68 76 64 77
REMARK SMILES IDX 65 78 67 79 69 80 66 81 50 82 51 83 56 84 52 85 53 86 55 87
REMARK SMILES IDX 57 88 54 89
REMARK H PARENT 20 4 9 13 24 32 74 51 48 62
REMARK Flexibility Score: inf
ROOT
ATOM      1  C   UNL     1      -1.594 -10.027   3.078  1.00  0.00     0.270 C 
ATOM      2  O   UNL     1      -2.071 -11.077   2.614  1.00  0.00    -0.267 OA
ATOM      3  N   UNL     1      -2.450  -8.980   2.895  1.00  0.00    -0.351 N 
ATOM      4  H   UNL     1      -3.218  -9.234   2.334  1.00  0.00     0.163 HD
ENDROOT
BRANCH   1   5
ATOM      5  C   UNL     1      -0.207 -10.092   3.707  1.00  0.00     0.140 A 
ATOM      6  C   UNL     1       0.609  -9.154   4.340  1.00  0.00     0.071 A 
ATOM      7  C   UNL     1       1.838  -9.587   4.889  1.00  0.00     0.018 A 
ATOM      8  C   UNL     1       2.260 -10.902   4.759  1.00  0.00     0.021 A 
ATOM      9  N   UNL     1       0.254 -11.384   3.564  1.00  0.00    -0.250 NA
ATOM     10  C   UNL     1       1.436 -11.764   4.082  1.00  0.00     0.112 A 
BRANCH   6  11
ATOM     11  C   UNL     1       0.290  -7.777   4.712  1.00  0.00     0.253 C 
ATOM     12  N   UNL     1       0.876  -6.699   4.082  1.00  0.00    -0.352 N 
ATOM     13  H   UNL     1       0.451  -5.830   4.266  1.00  0.00     0.163 HD
ATOM     14  O   UNL     1      -0.434  -7.599   5.689  1.00  0.00    -0.269 OA
BRANCH  12  15
ATOM     15  C   UNL     1       2.029  -6.644   3.185  1.00  0.00     0.121 C 
BRANCH  15  16
ATOM     16  C   UNL     1       1.777  -5.955   1.831  1.00  0.00     0.057 C 
BRANCH  16  17
ATOM     17  C   UNL     1       1.644  -4.443   1.840  1.00  0.00    -0.042 A 
ATOM     18  C   UNL     1       1.407  -1.612   1.827  1.00  0.00     0.160 A 
ATOM     19  C   UNL     1       0.356  -2.418   2.271  1.00  0.00     0.051 A 
ATOM     20  C   UNL     1       2.585  -2.213   1.367  1.00  0.00     0.160 A 
ATOM     21  C   UNL     1       0.478  -3.813   2.278  1.00  0.00     0.008 A 
ATOM     22  C   UNL     1       2.683  -3.621   1.373  1.00  0.00     0.054 A 
BRANCH  18  23
ATOM     23  O   UNL     1       1.317  -0.265   2.057  1.00  0.00    -0.493 OA
ATOM     24  C   UNL     1       0.544   0.438   1.087  1.00  0.00     0.278 C 
ENDBRANCH  18  23
BRANCH  20  25
ATOM     25  O   UNL     1       3.726  -1.605   0.911  1.00  0.00    -0.493 OA
ATOM     26  C   UNL     1       3.705  -0.204   0.684  1.00  0.00     0.278 C 
ENDBRANCH  20  25
ENDBRANCH  16  17
ENDBRANCH  15  16
ENDBRANCH  12  15
ENDBRANCH   6  11
ENDBRANCH   1   5
BRANCH   3  27
ATOM     27  C   UNL     1      -2.526  -7.607   3.303  1.00  0.00     0.118 C 
BRANCH  27  28
ATOM     28  C   UNL     1      -2.267  -6.661   2.150  1.00  0.00     0.042 C 
BRANCH  28  29
ATOM     29  C   UNL     1      -3.555  -6.132   1.544  1.00  0.00     0.118 C 
BRANCH  29  30
ATOM     30  N   UNL     1      -4.241  -5.209   2.450  1.00  0.00    -0.352 N 
ATOM     31  C   UNL     1      -4.367  -3.838   2.416  1.00  0.00     0.251 C 
ATOM     32  H   UNL     1      -4.687  -5.642   3.213  1.00  0.00     0.163 HD
ATOM     33  O   UNL     1      -4.774  -3.236   3.399  1.00  0.00    -0.269 OA
BRANCH  31  34
ATOM     34  C   UNL     1      -3.975  -3.091   1.202  1.00  0.00     0.039 A 
ATOM     35  C   UNL     1      -3.322  -1.862   1.331  1.00  0.00     0.014 A 
ATOM     36  C   UNL     1      -4.243  -3.609  -0.065  1.00  0.00     0.014 A 
ATOM     37  C   UNL     1      -2.832  -1.221   0.192  1.00  0.00     0.010 A 
ATOM     38  C   UNL     1      -3.665  -3.031  -1.183  1.00  0.00     0.010 A 
ATOM     39  C   UNL     1      -2.950  -1.834  -1.064  1.00  0.00    -0.014 A 
BRANCH  39  40
ATOM     40  C   UNL     1      -2.389  -1.220  -2.287  1.00  0.00     0.031 A 
ATOM     41  C   UNL     1      -3.322  -0.715  -3.342  1.00  0.00     0.074 A 
ATOM     42  C   UNL     1      -1.061  -1.231  -2.501  1.00  0.00     0.049 A 
ATOM     43  N   UNL     1      -3.042  -0.262  -4.534  1.00  0.00    -0.248 NA
ATOM     44  C   UNL     1      -4.761  -0.814  -3.051  1.00  0.00     0.031 C 
ATOM     45  C   UNL     1      -0.076  -1.843  -1.614  1.00  0.00     0.029 A 
ATOM     46  N   UNL     1      -0.307  -0.707  -3.520  1.00  0.00    -0.354 N 
ATOM     47  C   UNL     1      -4.266  -0.116  -5.169  1.00  0.00     0.074 A 
ATOM     48  C   UNL     1      -5.287  -0.524  -4.230  1.00  0.00     0.031 C 
ATOM     49  C   UNL     1       1.156  -1.555  -2.064  1.00  0.00     0.029 A 
ATOM     50  C   UNL     1       1.048  -0.783  -3.296  1.00  0.00     0.049 A 
ATOM     51  H   UNL     1      -0.698  -0.314  -4.334  1.00  0.00     0.167 HD
ATOM     52  C   UNL     1      -4.505   0.297  -6.434  1.00  0.00     0.037 A 
ATOM     53  C   UNL     1       2.072  -0.262  -4.000  1.00  0.00     0.037 A 
ATOM     54  C   UNL     1      -3.475   0.728  -7.340  1.00  0.00     0.049 A 
ATOM     55  C   UNL     1       1.767   0.372  -5.332  1.00  0.00     0.074 A 
ATOM     56  C   UNL     1      -3.607   1.202  -8.632  1.00  0.00     0.029 A 
ATOM     57  N   UNL     1      -2.119   0.745  -7.041  1.00  0.00    -0.354 N 
ATOM     58  N   UNL     1       0.604   0.550  -5.912  1.00  0.00    -0.248 NA
ATOM     59  C   UNL     1       2.913   0.826  -6.133  1.00  0.00     0.031 C 
ATOM     60  C   UNL     1      -2.328   1.470  -9.129  1.00  0.00     0.029 A 
ATOM     61  C   UNL     1      -1.403   1.218  -8.127  1.00  0.00     0.049 A 
ATOM     62  H   UNL     1      -1.726   0.463  -6.184  1.00  0.00     0.167 HD
ATOM     63  C   UNL     1       0.879   1.111  -7.152  1.00  0.00     0.074 A 
ATOM     64  C   UNL     1       2.313   1.302  -7.216  1.00  0.00     0.031 C 
ATOM     65  C   UNL     1       0.025   1.406  -8.162  1.00  0.00     0.037 A 
BRANCH  52  66
ATOM     66  C   UNL     1      -5.925   0.256  -6.913  1.00  0.00     0.057 A 
ATOM     67  C   UNL     1      -6.911   1.109  -6.402  1.00  0.00     0.134 A 
ATOM     68  C   UNL     1      -6.313  -0.662  -7.897  1.00  0.00     0.134 A 
ATOM     69  F   UNL     1      -6.612   1.995  -5.440  1.00  0.00    -0.206 F 
ATOM     70  C   UNL     1      -8.238   1.028  -6.828  1.00  0.00     0.040 A 
ATOM     71  C   UNL     1      -7.628  -0.729  -8.356  1.00  0.00     0.040 A 
ATOM     72  F   UNL     1      -5.420  -1.511  -8.428  1.00  0.00    -0.206 F 
ATOM     73  C   UNL     1      -8.597   0.111  -7.814  1.00  0.00     0.006 A 
ENDBRANCH  52  66
BRANCH  53  74
ATOM     74  C   UNL     1       3.461  -0.265  -3.463  1.00  0.00     0.057 A 
ATOM     75  C   UNL     1       4.101   0.948  -3.165  1.00  0.00     0.134 A 
ATOM     76  C   UNL     1       4.191  -1.438  -3.244  1.00  0.00     0.134 A 
ATOM     77  F   UNL     1       3.463   2.112  -3.359  1.00  0.00    -0.206 F 
ATOM     78  C   UNL     1       5.415   0.996  -2.696  1.00  0.00     0.040 A 
ATOM     79  C   UNL     1       5.494  -1.407  -2.738  1.00  0.00     0.040 A 
ATOM     80  F   UNL     1       3.648  -2.635  -3.508  1.00  0.00    -0.206 F 
ATOM     81  C   UNL     1       6.114  -0.187  -2.474  1.00  0.00     0.006 A 
ENDBRANCH  53  74
BRANCH  65  82
ATOM     82  C   UNL     1       0.614   1.967  -9.421  1.00  0.00     0.057 A 
ATOM     83  C   UNL     1       1.341   1.167 -10.312  1.00  0.00     0.134 A 
ATOM     84  C   UNL     1       0.378   3.298  -9.787  1.00  0.00     0.134 A 
ATOM     85  F   UNL     1       1.608  -0.114 -10.014  1.00  0.00    -0.206 F 
ATOM     86  C   UNL     1       1.821   1.674 -11.520  1.00  0.00     0.040 A 
ATOM     87  C   UNL     1       0.830   3.809 -11.004  1.00  0.00     0.040 A 
ATOM     88  F   UNL     1      -0.320   4.112  -8.982  1.00  0.00    -0.206 F 
ATOM     89  C   UNL     1       1.556   2.996 -11.873  1.00  0.00     0.006 A 
ENDBRANCH  65  82
ENDBRANCH  39  40
ENDBRANCH  31  34
ENDBRANCH  29  30
ENDBRANCH  28  29
ENDBRANCH  27  28
ENDBRANCH   3  27
TORSDOF 16
