REMARK SMILES O=C(Cc1ccc(NC(=O)Cc2ccc(Br)cc2)cc1)NCCCNC(=O)c1ccc(-c2c3nc(c(-c4c(F)cccc4F)c4ccc([nH]4)c(-c4c(F)cccc4F)c4nc(c(-c5c(F)cccc5F)c5ccc2[nH]5)C=C4)C=C3)cc1
REMARK SMILES IDX 22 1 21 2 1 3 2 4 3 6 4 7 5 8 20 9 6 10 19 11 7 12 8 13 9 14
REMARK SMILES IDX 10 16 11 17 12 18 13 19 18 20 14 21 17 22 15 23 16 24 23 25
REMARK SMILES IDX 24 26 25 27 26 28 27 30 28 31 29 32 81 33 30 34 80 35 31 36
REMARK SMILES IDX 32 37 33 38 74 39 34 40 79 41 73 42 75 43 35 44 78 45 72 46
REMARK SMILES IDX 71 47 36 49 62 50 45 51 61 52 46 53 49 54 60 55 76 56 47 57
REMARK SMILES IDX 48 58 59 60 77 61 50 62 37 63 38 64 43 65 39 66 40 67 42 68
REMARK SMILES IDX 44 69 41 70 63 71 64 72 69 73 65 74 66 75 68 76 70 77 67 78
REMARK SMILES IDX 51 79 52 80 57 81 53 82 54 83 56 84 58 85 55 86
REMARK H PARENT 21 5 8 15 25 29 75 48 49 59
REMARK Flexibility Score: inf
ROOT
ATOM      1  C   UNL     1       2.058   0.724   2.316  1.00  0.00     0.117 C 
ENDROOT
BRANCH   1   2
ATOM      2  N   UNL     1       2.636   0.432   1.020  1.00  0.00    -0.356 N 
ATOM      3  O   UNL     1       0.666  -0.192   0.021  1.00  0.00    -0.275 OA
ATOM      4  C   UNL     1       1.869   0.044  -0.060  1.00  0.00     0.224 C 
ATOM      5  H   UNL     1       3.610   0.513   0.905  1.00  0.00     0.163 HD
BRANCH   4   6
ATOM      6  C   UNL     1       2.633  -0.139  -1.363  1.00  0.00     0.135 C 
BRANCH   6   7
ATOM      7  C   UNL     1       3.562   0.996  -1.734  1.00  0.00    -0.039 A 
ATOM      8  C   UNL     1       4.791   0.717  -2.338  1.00  0.00     0.006 A 
ATOM      9  C   UNL     1       3.208   2.336  -1.541  1.00  0.00     0.006 A 
ATOM     10  C   UNL     1       5.685   1.747  -2.654  1.00  0.00     0.026 A 
ATOM     11  C   UNL     1       4.115   3.359  -1.838  1.00  0.00     0.026 A 
ATOM     12  C   UNL     1       5.388   3.069  -2.345  1.00  0.00     0.041 A 
BRANCH  12  13
ATOM     13  N   UNL     1       6.260   4.154  -2.520  1.00  0.00    -0.326 N 
ATOM     14  C   UNL     1       7.615   4.269  -2.631  1.00  0.00     0.228 C 
ATOM     15  H   UNL     1       5.793   5.019  -2.575  1.00  0.00     0.169 HD
ATOM     16  O   UNL     1       8.065   5.405  -2.831  1.00  0.00    -0.274 OA
BRANCH  14  17
ATOM     17  C   UNL     1       8.575   3.102  -2.478  1.00  0.00     0.135 C 
BRANCH  17  18
ATOM     18  C   UNL     1       8.561   2.436  -1.119  1.00  0.00    -0.039 A 
ATOM     19  C   UNL     1       8.659   3.195   0.057  1.00  0.00     0.005 A 
ATOM     20  C   UNL     1       8.489   1.038  -1.015  1.00  0.00     0.005 A 
ATOM     21  C   UNL     1       8.629   2.574   1.308  1.00  0.00     0.016 A 
ATOM     22  C   UNL     1       8.445   0.416   0.234  1.00  0.00     0.016 A 
ATOM     23  C   UNL     1       8.511   1.188   1.391  1.00  0.00     0.017 A 
ATOM     24  Br  UNL     1       8.446   0.347   3.081  1.00  0.00    -0.051 Br
ENDBRANCH  17  18
ENDBRANCH  14  17
ENDBRANCH  12  13
ENDBRANCH   6   7
ENDBRANCH   4   6
ENDBRANCH   1   2
BRANCH   1  25
ATOM     25  C   UNL     1       2.380  -0.336   3.362  1.00  0.00     0.042 C 
BRANCH  25  26
ATOM     26  C   UNL     1       3.862  -0.473   3.701  1.00  0.00     0.118 C 
BRANCH  26  27
ATOM     27  N   UNL     1       4.436   0.735   4.275  1.00  0.00    -0.352 N 
ATOM     28  C   UNL     1       5.166   0.932   5.419  1.00  0.00     0.251 C 
ATOM     29  H   UNL     1       4.273   1.553   3.751  1.00  0.00     0.163 HD
ATOM     30  O   UNL     1       5.435   2.086   5.759  1.00  0.00    -0.269 OA
BRANCH  28  31
ATOM     31  C   UNL     1       5.612  -0.197   6.270  1.00  0.00     0.039 A 
ATOM     32  C   UNL     1       5.621  -0.014   7.658  1.00  0.00     0.014 A 
ATOM     33  C   UNL     1       6.067  -1.405   5.736  1.00  0.00     0.014 A 
ATOM     34  C   UNL     1       6.024  -1.052   8.502  1.00  0.00     0.010 A 
ATOM     35  C   UNL     1       6.403  -2.466   6.580  1.00  0.00     0.010 A 
ATOM     36  C   UNL     1       6.387  -2.301   7.972  1.00  0.00    -0.014 A 
BRANCH  36  37
ATOM     37  C   UNL     1       6.718  -3.436   8.873  1.00  0.00     0.031 A 
ATOM     38  C   UNL     1       8.100  -4.029   8.900  1.00  0.00     0.074 A 
ATOM     39  C   UNL     1       5.750  -3.963   9.649  1.00  0.00     0.049 A 
ATOM     40  N   UNL     1       8.565  -5.006   9.638  1.00  0.00    -0.248 NA
ATOM     41  C   UNL     1       9.083  -3.469   7.959  1.00  0.00     0.031 C 
ATOM     42  C   UNL     1       4.353  -3.526   9.669  1.00  0.00     0.029 A 
ATOM     43  N   UNL     1       5.793  -4.978  10.571  1.00  0.00    -0.354 N 
ATOM     44  C   UNL     1       9.887  -5.181   9.250  1.00  0.00     0.074 A 
ATOM     45  C   UNL     1      10.135  -4.247   8.173  1.00  0.00     0.031 C 
ATOM     46  C   UNL     1       3.681  -4.243  10.583  1.00  0.00     0.029 A 
ATOM     47  C   UNL     1       4.590  -5.207  11.194  1.00  0.00     0.049 A 
ATOM     48  H   UNL     1       6.609  -5.493  10.768  1.00  0.00     0.167 HD
ATOM     49  C   UNL     1      10.817  -6.027   9.758  1.00  0.00     0.037 A 
ATOM     50  C   UNL     1       4.258  -6.086  12.157  1.00  0.00     0.037 A 
ATOM     51  C   UNL     1      10.576  -6.947  10.841  1.00  0.00     0.049 A 
ATOM     52  C   UNL     1       5.314  -6.993  12.723  1.00  0.00     0.074 A 
ATOM     53  C   UNL     1      11.469  -7.804  11.461  1.00  0.00     0.029 A 
ATOM     54  N   UNL     1       9.350  -7.131  11.463  1.00  0.00    -0.354 N 
ATOM     55  N   UNL     1       6.580  -7.092  12.399  1.00  0.00    -0.248 NA
ATOM     56  C   UNL     1       4.896  -7.899  13.801  1.00  0.00     0.031 C 
ATOM     57  C   UNL     1      10.775  -8.534  12.434  1.00  0.00     0.029 A 
ATOM     58  C   UNL     1       9.461  -8.098  12.451  1.00  0.00     0.049 A 
ATOM     59  H   UNL     1       8.524  -6.646  11.238  1.00  0.00     0.167 HD
ATOM     60  C   UNL     1       7.116  -8.049  13.250  1.00  0.00     0.074 A 
ATOM     61  C   UNL     1       6.041  -8.486  14.117  1.00  0.00     0.031 C 
ATOM     62  C   UNL     1       8.384  -8.525  13.308  1.00  0.00     0.037 A 
BRANCH  49  63
ATOM     63  C   UNL     1      12.190  -5.990   9.150  1.00  0.00     0.057 A 
ATOM     64  C   UNL     1      13.053  -4.903   9.343  1.00  0.00     0.134 A 
ATOM     65  C   UNL     1      12.672  -7.069   8.398  1.00  0.00     0.134 A 
ATOM     66  F   UNL     1      12.652  -3.833  10.046  1.00  0.00    -0.206 F 
ATOM     67  C   UNL     1      14.334  -4.878   8.788  1.00  0.00     0.040 A 
ATOM     68  C   UNL     1      13.960  -7.067   7.860  1.00  0.00     0.040 A 
ATOM     69  F   UNL     1      11.902  -8.146   8.180  1.00  0.00    -0.206 F 
ATOM     70  C   UNL     1      14.793  -5.966   8.049  1.00  0.00     0.006 A 
ENDBRANCH  49  63
BRANCH  50  71
ATOM     71  C   UNL     1       2.870  -6.120  12.682  1.00  0.00     0.057 A 
ATOM     72  C   UNL     1       2.576  -5.659  13.971  1.00  0.00     0.134 A 
ATOM     73  C   UNL     1       1.810  -6.615  11.916  1.00  0.00     0.134 A 
ATOM     74  F   UNL     1       3.555  -5.190  14.759  1.00  0.00    -0.206 F 
ATOM     75  C   UNL     1       1.281  -5.709  14.488  1.00  0.00     0.040 A 
ATOM     76  C   UNL     1       0.505  -6.648  12.410  1.00  0.00     0.040 A 
ATOM     77  F   UNL     1       2.025  -7.063  10.670  1.00  0.00    -0.206 F 
ATOM     78  C   UNL     1       0.240  -6.201  13.704  1.00  0.00     0.006 A 
ENDBRANCH  50  71
BRANCH  62  79
ATOM     79  C   UNL     1       8.679  -9.547  14.367  1.00  0.00     0.057 A 
ATOM     80  C   UNL     1       8.182 -10.855  14.294  1.00  0.00     0.134 A 
ATOM     81  C   UNL     1       9.469  -9.216  15.475  1.00  0.00     0.134 A 
ATOM     82  F   UNL     1       7.407 -11.232  13.266  1.00  0.00    -0.206 F 
ATOM     83  C   UNL     1       8.430 -11.787  15.304  1.00  0.00     0.040 A 
ATOM     84  C   UNL     1       9.748 -10.147  16.477  1.00  0.00     0.040 A 
ATOM     85  F   UNL     1       9.984  -7.984  15.603  1.00  0.00    -0.206 F 
ATOM     86  C   UNL     1       9.218 -11.434  16.398  1.00  0.00     0.006 A 
ENDBRANCH  62  79
ENDBRANCH  36  37
ENDBRANCH  28  31
ENDBRANCH  26  27
ENDBRANCH  25  26
ENDBRANCH   1  25
TORSDOF 14
