REMARK SMILES CC(C)[N@@H+]1CCC[C@H]1CC(=O)NCCCNC(=O)c1ccc(-c2c3nc(c(-c4c(F)cccc4F)c4ccc([nH]4)c(-c4c(F)cccc4F)c4nc(c(-c5c(F)cccc5F)c5ccc2[nH]5)C=C4)C=C3)cc1
REMARK SMILES IDX 14 1 13 2 12 3 10 4 11 5 9 7 8 8 4 9 5 10 6 12 7 13 2 14
REMARK SMILES IDX 1 15 3 16 15 17 16 18 17 19 18 21 19 22 20 23 72 24 21 25
REMARK SMILES IDX 71 26 22 27 23 28 24 29 65 30 25 31 70 32 64 33 66 34 26 35
REMARK SMILES IDX 69 36 63 37 62 38 27 40 53 41 36 42 52 43 37 44 40 45 51 46
REMARK SMILES IDX 67 47 38 48 39 49 50 51 68 52 41 53 28 54 29 55 34 56 30 57
REMARK SMILES IDX 31 58 33 59 35 60 32 61 54 62 55 63 60 64 56 65 57 66 59 67
REMARK SMILES IDX 61 68 58 69 42 70 43 71 48 72 44 73 45 74 47 75 49 76 46 77
REMARK H PARENT 12 6 4 11 16 20 66 39 40 50
REMARK Flexibility Score: inf
ROOT
ATOM      1  C   UNL     1      -1.295  -0.948   3.651  1.00  0.00     0.042 C 
ENDROOT
BRANCH   1   2
ATOM      2  C   UNL     1      -2.085  -2.084   3.002  1.00  0.00     0.117 C 
BRANCH   2   3
ATOM      3  N   UNL     1      -3.321  -1.645   2.387  1.00  0.00    -0.356 N 
ATOM      4  C   UNL     1      -3.636  -1.427   1.084  1.00  0.00     0.225 C 
ATOM      5  O   UNL     1      -4.801  -1.116   0.826  1.00  0.00    -0.275 OA
ATOM      6  H   UNL     1      -4.056  -1.476   3.020  1.00  0.00     0.163 HD
BRANCH   4   7
ATOM      7  C   UNL     1      -2.601  -1.552  -0.015  1.00  0.00     0.164 C 
BRANCH   7   8
ATOM      8  C   UNL     1      -1.530  -0.453   0.002  1.00  0.00     0.193 C 
ATOM      9  N   UNL     1      -0.825  -0.402  -1.300  1.00  0.00    -0.330 N 
ATOM     10  C   UNL     1      -1.236   0.843  -1.962  1.00  0.00     0.262 C 
ATOM     11  H   UNL     1      -1.111  -1.223  -1.833  1.00  0.00     0.348 HD
ATOM     12  C   UNL     1      -1.511   1.826  -0.848  1.00  0.00     0.067 C 
ATOM     13  C   UNL     1      -2.102   0.954   0.239  1.00  0.00     0.071 C 
BRANCH   9  14
ATOM     14  C   UNL     1       0.635  -0.604  -1.282  1.00  0.00     0.177 C 
ATOM     15  C   UNL     1       1.437   0.091  -0.174  1.00  0.00     0.075 C 
ATOM     16  C   UNL     1       0.924  -2.110  -1.263  1.00  0.00     0.075 C 
ENDBRANCH   9  14
ENDBRANCH   7   8
ENDBRANCH   4   7
ENDBRANCH   2   3
ENDBRANCH   1   2
BRANCH   1  17
ATOM     17  C   UNL     1      -2.075  -0.087   4.640  1.00  0.00     0.118 C 
BRANCH  17  18
ATOM     18  N   UNL     1      -2.452  -0.805   5.846  1.00  0.00    -0.352 N 
ATOM     19  C   UNL     1      -2.153  -0.547   7.161  1.00  0.00     0.251 C 
ATOM     20  H   UNL     1      -3.010  -1.602   5.697  1.00  0.00     0.163 HD
ATOM     21  O   UNL     1      -2.448  -1.378   8.018  1.00  0.00    -0.269 OA
BRANCH  19  22
ATOM     22  C   UNL     1      -1.461   0.699   7.566  1.00  0.00     0.039 A 
ATOM     23  C   UNL     1      -0.457   0.618   8.537  1.00  0.00     0.014 A 
ATOM     24  C   UNL     1      -1.820   1.946   7.045  1.00  0.00     0.014 A 
ATOM     25  C   UNL     1       0.223   1.770   8.942  1.00  0.00     0.010 A 
ATOM     26  C   UNL     1      -1.100   3.087   7.404  1.00  0.00     0.010 A 
ATOM     27  C   UNL     1      -0.073   3.011   8.358  1.00  0.00    -0.014 A 
BRANCH  27  28
ATOM     28  C   UNL     1       0.685   4.234   8.731  1.00  0.00     0.031 A 
ATOM     29  C   UNL     1       0.004   5.369   9.444  1.00  0.00     0.074 A 
ATOM     30  C   UNL     1       1.977   4.352   8.372  1.00  0.00     0.049 A 
ATOM     31  N   UNL     1       0.486   6.536   9.791  1.00  0.00    -0.248 NA
ATOM     32  C   UNL     1      -1.412   5.176   9.790  1.00  0.00     0.031 C 
ATOM     33  C   UNL     1       2.746   3.346   7.638  1.00  0.00     0.029 A 
ATOM     34  N   UNL     1       2.869   5.378   8.563  1.00  0.00    -0.354 N 
ATOM     35  C   UNL     1      -0.569   7.223  10.377  1.00  0.00     0.074 A 
ATOM     36  C   UNL     1      -1.727   6.356  10.303  1.00  0.00     0.031 C 
ATOM     37  C   UNL     1       3.996   3.800   7.451  1.00  0.00     0.029 A 
ATOM     38  C   UNL     1       4.108   5.138   8.024  1.00  0.00     0.049 A 
ATOM     39  H   UNL     1       2.640   6.208   9.042  1.00  0.00     0.167 HD
ATOM     40  C   UNL     1      -0.572   8.455  10.940  1.00  0.00     0.037 A 
ATOM     41  C   UNL     1       5.211   5.910   7.987  1.00  0.00     0.037 A 
ATOM     42  C   UNL     1       0.584   9.308  11.041  1.00  0.00     0.049 A 
ATOM     43  C   UNL     1       5.190   7.267   8.629  1.00  0.00     0.074 A 
ATOM     44  C   UNL     1       0.696  10.540  11.662  1.00  0.00     0.029 A 
ATOM     45  N   UNL     1       1.828   9.018  10.502  1.00  0.00    -0.354 N 
ATOM     46  N   UNL     1       4.203   7.875   9.240  1.00  0.00    -0.248 NA
ATOM     47  C   UNL     1       6.438   8.042   8.582  1.00  0.00     0.031 C 
ATOM     48  C   UNL     1       1.999  11.013  11.467  1.00  0.00     0.029 A 
ATOM     49  C   UNL     1       2.708  10.058  10.757  1.00  0.00     0.049 A 
ATOM     50  H   UNL     1       2.053   8.195  10.011  1.00  0.00     0.167 HD
ATOM     51  C   UNL     1       4.713   9.095   9.665  1.00  0.00     0.074 A 
ATOM     52  C   UNL     1       6.101   9.135   9.253  1.00  0.00     0.031 C 
ATOM     53  C   UNL     1       4.086  10.090  10.337  1.00  0.00     0.037 A 
BRANCH  40  54
ATOM     54  C   UNL     1      -1.875   8.955  11.490  1.00  0.00     0.057 A 
ATOM     55  C   UNL     1      -2.435   8.426  12.661  1.00  0.00     0.134 A 
ATOM     56  C   UNL     1      -2.571   9.989  10.851  1.00  0.00     0.134 A 
ATOM     57  F   UNL     1      -1.823   7.426  13.314  1.00  0.00    -0.206 F 
ATOM     58  C   UNL     1      -3.655   8.885  13.158  1.00  0.00     0.040 A 
ATOM     59  C   UNL     1      -3.780  10.473  11.353  1.00  0.00     0.040 A 
ATOM     60  F   UNL     1      -2.087  10.545   9.730  1.00  0.00    -0.206 F 
ATOM     61  C   UNL     1      -4.329   9.915  12.505  1.00  0.00     0.006 A 
ENDBRANCH  40  54
BRANCH  41  62
ATOM     62  C   UNL     1       6.438   5.397   7.332  1.00  0.00     0.057 A 
ATOM     63  C   UNL     1       7.535   4.973   8.091  1.00  0.00     0.134 A 
ATOM     64  C   UNL     1       6.534   5.295   5.940  1.00  0.00     0.134 A 
ATOM     65  F   UNL     1       7.506   5.065   9.428  1.00  0.00    -0.206 F 
ATOM     66  C   UNL     1       8.689   4.471   7.487  1.00  0.00     0.040 A 
ATOM     67  C   UNL     1       7.674   4.778   5.324  1.00  0.00     0.040 A 
ATOM     68  F   UNL     1       5.513   5.679   5.161  1.00  0.00    -0.206 F 
ATOM     69  C   UNL     1       8.757   4.366   6.099  1.00  0.00     0.006 A 
ENDBRANCH  41  62
BRANCH  53  70
ATOM     70  C   UNL     1       4.900  11.301  10.685  1.00  0.00     0.057 A 
ATOM     71  C   UNL     1       5.250  12.253   9.720  1.00  0.00     0.134 A 
ATOM     72  C   UNL     1       5.307  11.534  12.004  1.00  0.00     0.134 A 
ATOM     73  F   UNL     1       4.903  12.080   8.436  1.00  0.00    -0.206 F 
ATOM     74  C   UNL     1       5.992  13.388  10.053  1.00  0.00     0.040 A 
ATOM     75  C   UNL     1       6.030  12.675  12.353  1.00  0.00     0.040 A 
ATOM     76  F   UNL     1       4.998  10.662  12.976  1.00  0.00    -0.206 F 
ATOM     77  C   UNL     1       6.379  13.604  11.374  1.00  0.00     0.006 A 
ENDBRANCH  53  70
ENDBRANCH  27  28
ENDBRANCH  19  22
ENDBRANCH  17  18
ENDBRANCH   1  17
TORSDOF 12
