REMARK SMILES CC[C@H](CNC(=O)[C@H]1CSc2ccccc21)C(=O)NCCCNC(=O)c1ccc(-c2c3nc(c(-c4c(F)cccc4F)c4ccc([nH]4)c(-c4c(F)cccc4F)c4nc(c(-c5c(F)cccc5F)c5ccc2[nH]5)C=C4)C=C3)cc1
REMARK SMILES IDX 20 1 19 2 17 3 18 4 3 6 2 7 1 8 4 9 5 10 6 11 7 13 8 14 9 15
REMARK SMILES IDX 16 16 10 17 11 18 15 19 12 20 14 21 13 22 21 23 22 24 23 25
REMARK SMILES IDX 24 26 25 28 26 29 27 30 79 31 28 32 78 33 29 34 30 35 31 36
REMARK SMILES IDX 72 37 32 38 77 39 71 40 73 41 33 42 76 43 70 44 69 45 34 47
REMARK SMILES IDX 60 48 43 49 59 50 44 51 47 52 58 53 74 54 45 55 46 56 57 58
REMARK SMILES IDX 75 59 48 60 35 61 36 62 41 63 37 64 38 65 40 66 42 67 39 68
REMARK SMILES IDX 61 69 62 70 67 71 63 72 64 73 66 74 68 75 65 76 49 77 50 78
REMARK SMILES IDX 55 79 51 80 52 81 54 82 56 83 53 84
REMARK H PARENT 19 5 5 12 23 27 73 46 47 57
REMARK Flexibility Score: inf
ROOT
ATOM      1  C   UNL     1      -2.219   2.103  -3.285  1.00  0.00     0.117 C 
ENDROOT
BRANCH   1   2
ATOM      2  N   UNL     1      -1.128   3.040  -3.125  1.00  0.00    -0.356 N 
ATOM      3  C   UNL     1       0.185   2.831  -2.850  1.00  0.00     0.224 C 
ATOM      4  O   UNL     1       0.947   3.775  -3.092  1.00  0.00    -0.275 OA
ATOM      5  H   UNL     1      -1.379   3.986  -3.233  1.00  0.00     0.163 HD
BRANCH   3   6
ATOM      6  C   UNL     1       0.749   1.552  -2.229  1.00  0.00     0.097 C 
BRANCH   6   7
ATOM      7  C   UNL     1       0.769   0.319  -3.153  1.00  0.00     0.012 C 
ATOM      8  C   UNL     1      -0.342  -0.714  -3.023  1.00  0.00     0.005 C 
ENDBRANCH   6   7
BRANCH   6   9
ATOM      9  C   UNL     1       0.247   1.327  -0.799  1.00  0.00     0.129 C 
BRANCH   9  10
ATOM     10  N   UNL     1       0.560   2.456   0.071  1.00  0.00    -0.355 N 
ATOM     11  C   UNL     1      -0.091   2.985   1.141  1.00  0.00     0.228 C 
ATOM     12  H   UNL     1       1.397   2.921  -0.160  1.00  0.00     0.163 HD
ATOM     13  O   UNL     1       0.462   3.922   1.726  1.00  0.00    -0.274 OA
BRANCH  11  14
ATOM     14  C   UNL     1      -1.442   2.480   1.631  1.00  0.00     0.120 C 
ATOM     15  C   UNL     1      -2.553   2.614   0.584  1.00  0.00     0.093 C 
ATOM     16  C   UNL     1      -1.423   1.071   2.159  1.00  0.00    -0.021 A 
ATOM     17  S   UNL     1      -3.396   1.002   0.402  1.00  0.00    -0.125 SA
ATOM     18  C   UNL     1      -2.366   0.213   1.597  1.00  0.00     0.011 A 
ATOM     19  C   UNL     1      -0.592   0.623   3.184  1.00  0.00     0.006 A 
ATOM     20  C   UNL     1      -2.461  -1.110   2.001  1.00  0.00     0.015 A 
ATOM     21  C   UNL     1      -0.697  -0.701   3.613  1.00  0.00     0.000 A 
ATOM     22  C   UNL     1      -1.619  -1.567   3.016  1.00  0.00     0.001 A 
ENDBRANCH  11  14
ENDBRANCH   9  10
ENDBRANCH   6   9
ENDBRANCH   3   6
ENDBRANCH   1   2
BRANCH   1  23
ATOM     23  C   UNL     1      -3.624   2.668  -3.045  1.00  0.00     0.042 C 
BRANCH  23  24
ATOM     24  C   UNL     1      -3.898   4.033  -3.663  1.00  0.00     0.118 C 
BRANCH  24  25
ATOM     25  N   UNL     1      -5.256   4.143  -4.165  1.00  0.00    -0.352 N 
ATOM     26  C   UNL     1      -6.490   4.223  -3.583  1.00  0.00     0.251 C 
ATOM     27  H   UNL     1      -5.298   4.163  -5.149  1.00  0.00     0.163 HD
ATOM     28  O   UNL     1      -7.463   4.068  -4.331  1.00  0.00    -0.269 OA
BRANCH  26  29
ATOM     29  C   UNL     1      -6.748   4.487  -2.142  1.00  0.00     0.039 A 
ATOM     30  C   UNL     1      -5.950   5.300  -1.336  1.00  0.00     0.014 A 
ATOM     31  C   UNL     1      -7.978   4.038  -1.627  1.00  0.00     0.014 A 
ATOM     32  C   UNL     1      -6.375   5.652  -0.042  1.00  0.00     0.010 A 
ATOM     33  C   UNL     1      -8.424   4.428  -0.357  1.00  0.00     0.010 A 
ATOM     34  C   UNL     1      -7.631   5.253   0.449  1.00  0.00    -0.014 A 
BRANCH  34  35
ATOM     35  C   UNL     1      -8.154   5.786   1.741  1.00  0.00     0.031 A 
ATOM     36  C   UNL     1      -8.406   4.889   2.923  1.00  0.00     0.074 A 
ATOM     37  C   UNL     1      -8.447   7.099   1.845  1.00  0.00     0.049 A 
ATOM     38  N   UNL     1      -8.832   5.204   4.123  1.00  0.00    -0.248 NA
ATOM     39  C   UNL     1      -8.166   3.452   2.731  1.00  0.00     0.031 C 
ATOM     40  C   UNL     1      -8.324   8.080   0.766  1.00  0.00     0.029 A 
ATOM     41  N   UNL     1      -8.901   7.836   2.913  1.00  0.00    -0.354 N 
ATOM     42  C   UNL     1      -8.917   4.009   4.826  1.00  0.00     0.074 A 
ATOM     43  C   UNL     1      -8.531   2.957   3.906  1.00  0.00     0.031 C 
ATOM     44  C   UNL     1      -8.645   9.296   1.238  1.00  0.00     0.029 A 
ATOM     45  C   UNL     1      -9.025   9.178   2.643  1.00  0.00     0.049 A 
ATOM     46  H   UNL     1      -9.117   7.441   3.788  1.00  0.00     0.167 HD
ATOM     47  C   UNL     1      -9.268   3.802   6.120  1.00  0.00     0.037 A 
ATOM     48  C   UNL     1      -9.392  10.204   3.434  1.00  0.00     0.037 A 
ATOM     49  C   UNL     1      -9.645   4.836   7.051  1.00  0.00     0.049 A 
ATOM     50  C   UNL     1      -9.753   9.951   4.870  1.00  0.00     0.074 A 
ATOM     51  C   UNL     1      -9.971   4.714   8.392  1.00  0.00     0.029 A 
ATOM     52  N   UNL     1      -9.749   6.182   6.739  1.00  0.00    -0.354 N 
ATOM     53  N   UNL     1      -9.765   8.822   5.533  1.00  0.00    -0.248 NA
ATOM     54  C   UNL     1     -10.150  11.122   5.667  1.00  0.00     0.031 C 
ATOM     55  C   UNL     1     -10.296   5.984   8.885  1.00  0.00     0.029 A 
ATOM     56  C   UNL     1     -10.144   6.899   7.858  1.00  0.00     0.049 A 
ATOM     57  H   UNL     1      -9.569   6.572   5.853  1.00  0.00     0.167 HD
ATOM     58  C   UNL     1     -10.156   9.146   6.825  1.00  0.00     0.074 A 
ATOM     59  C   UNL     1     -10.351  10.580   6.859  1.00  0.00     0.031 C 
ATOM     60  C   UNL     1     -10.341   8.325   7.886  1.00  0.00     0.037 A 
BRANCH  47  61
ATOM     61  C   UNL     1      -9.252   2.386   6.615  1.00  0.00     0.057 A 
ATOM     62  C   UNL     1     -10.445   1.697   6.864  1.00  0.00     0.134 A 
ATOM     63  C   UNL     1      -8.050   1.717   6.880  1.00  0.00     0.134 A 
ATOM     64  F   UNL     1     -11.631   2.284   6.640  1.00  0.00    -0.206 F 
ATOM     65  C   UNL     1     -10.443   0.391   7.357  1.00  0.00     0.040 A 
ATOM     66  C   UNL     1      -8.035   0.404   7.354  1.00  0.00     0.040 A 
ATOM     67  F   UNL     1      -6.873   2.321   6.654  1.00  0.00    -0.206 F 
ATOM     68  C   UNL     1      -9.235  -0.261   7.598  1.00  0.00     0.006 A 
ENDBRANCH  47  61
BRANCH  48  69
ATOM     69  C   UNL     1      -9.400  11.587   2.899  1.00  0.00     0.057 A 
ATOM     70  C   UNL     1     -10.395  12.027   2.020  1.00  0.00     0.134 A 
ATOM     71  C   UNL     1      -8.415  12.506   3.278  1.00  0.00     0.134 A 
ATOM     72  F   UNL     1     -11.365  11.190   1.622  1.00  0.00    -0.206 F 
ATOM     73  C   UNL     1     -10.409  13.334   1.532  1.00  0.00     0.040 A 
ATOM     74  C   UNL     1      -8.428  13.822   2.814  1.00  0.00     0.040 A 
ATOM     75  F   UNL     1      -7.451  12.146   4.138  1.00  0.00    -0.206 F 
ATOM     76  C   UNL     1      -9.426  14.237   1.934  1.00  0.00     0.006 A 
ENDBRANCH  48  69
BRANCH  60  77
ATOM     77  C   UNL     1     -10.761   8.967   9.175  1.00  0.00     0.057 A 
ATOM     78  C   UNL     1      -9.850   9.125  10.226  1.00  0.00     0.134 A 
ATOM     79  C   UNL     1     -12.066   9.437   9.371  1.00  0.00     0.134 A 
ATOM     80  F   UNL     1      -8.585   8.696  10.103  1.00  0.00    -0.206 F 
ATOM     81  C   UNL     1     -10.221   9.735  11.426  1.00  0.00     0.040 A 
ATOM     82  C   UNL     1     -12.443  10.065  10.559  1.00  0.00     0.040 A 
ATOM     83  F   UNL     1     -12.980   9.330   8.395  1.00  0.00    -0.206 F 
ATOM     84  C   UNL     1     -11.519  10.214  11.592  1.00  0.00     0.006 A 
ENDBRANCH  60  77
ENDBRANCH  34  35
ENDBRANCH  26  29
ENDBRANCH  24  25
ENDBRANCH  23  24
ENDBRANCH   1  23
TORSDOF 14
