REMARK SMILES O=C(COc1nc(-c2cccnc2)nc2c1CCCC2)NCCCNC(=O)c1ccc(-c2c3nc(c(-c4c(F)cccc4F)c4ccc([nH]4)c(-c4c(F)cccc4F)c4nc(c(-c5c(F)cccc5F)c5ccc2[nH]5)C=C4)C=C3)cc1
REMARK SMILES IDX 22 1 21 2 1 3 2 4 3 6 4 7 5 8 6 9 16 10 7 11 15 12 17 13
REMARK SMILES IDX 14 14 20 15 18 16 19 17 8 18 9 19 13 20 10 21 12 22 11 23
REMARK SMILES IDX 23 24 24 25 25 26 26 27 27 29 28 30 29 31 81 32 30 33 80 34
REMARK SMILES IDX 31 35 32 36 33 37 74 38 34 39 79 40 73 41 75 42 35 43 78 44
REMARK SMILES IDX 72 45 71 46 36 48 62 49 45 50 61 51 46 52 49 53 60 54 76 55
REMARK SMILES IDX 47 56 48 57 59 59 77 60 50 61 37 62 38 63 43 64 39 65 40 66
REMARK SMILES IDX 42 67 44 68 41 69 63 70 64 71 69 72 65 73 66 74 68 75 70 76
REMARK SMILES IDX 67 77 51 78 52 79 57 80 53 81 54 82 56 83 58 84 55 85
REMARK H PARENT 21 5 25 28 75 47 49 58
REMARK Flexibility Score: inf
ROOT
ATOM      1  C   UNL     1       2.077   1.562  -1.919  1.00  0.00     0.117 C 
ENDROOT
BRANCH   1   2
ATOM      2  N   UNL     1       2.725   0.638  -1.016  1.00  0.00    -0.353 N 
ATOM      3  O   UNL     1       1.117   0.718   0.621  1.00  0.00    -0.271 OA
ATOM      4  C   UNL     1       2.132   0.209   0.151  1.00  0.00     0.258 C 
ATOM      5  H   UNL     1       3.623   0.304  -1.243  1.00  0.00     0.163 HD
BRANCH   4   6
ATOM      6  C   UNL     1       2.886  -0.924   0.869  1.00  0.00     0.331 C 
BRANCH   6   7
ATOM      7  O   UNL     1       3.772  -1.742   0.106  1.00  0.00    -0.467 OA
BRANCH   7   8
ATOM      8  C   UNL     1       3.068  -2.654  -0.650  1.00  0.00     0.220 A 
ATOM      9  N   UNL     1       2.183  -2.145  -1.516  1.00  0.00    -0.193 NA
ATOM     10  C   UNL     1       3.375  -3.995  -0.551  1.00  0.00     0.036 A 
ATOM     11  C   UNL     1       1.508  -3.026  -2.264  1.00  0.00     0.164 A 
ATOM     12  C   UNL     1       2.650  -4.821  -1.398  1.00  0.00     0.051 A 
ATOM     13  C   UNL     1       4.450  -4.511   0.358  1.00  0.00     0.043 C 
ATOM     14  N   UNL     1       1.691  -4.355  -2.229  1.00  0.00    -0.232 NA
ATOM     15  C   UNL     1       2.859  -6.313  -1.403  1.00  0.00     0.057 C 
ATOM     16  C   UNL     1       4.390  -6.026   0.555  1.00  0.00     0.005 C 
ATOM     17  C   UNL     1       4.188  -6.734  -0.780  1.00  0.00     0.007 C 
BRANCH  11  18
ATOM     18  C   UNL     1       0.511  -2.487  -3.179  1.00  0.00     0.038 A 
ATOM     19  C   UNL     1       0.792  -1.420  -4.043  1.00  0.00     0.015 A 
ATOM     20  C   UNL     1      -0.786  -2.990  -3.218  1.00  0.00     0.123 A 
ATOM     21  C   UNL     1      -0.198  -0.910  -4.881  1.00  0.00     0.021 A 
ATOM     22  N   UNL     1      -1.777  -2.512  -4.014  1.00  0.00    -0.264 NA
ATOM     23  C   UNL     1      -1.457  -1.481  -4.825  1.00  0.00     0.111 A 
ENDBRANCH  11  18
ENDBRANCH   7   8
ENDBRANCH   6   7
ENDBRANCH   4   6
ENDBRANCH   1   2
BRANCH   1  24
ATOM     24  C   UNL     1       2.418   3.017  -1.636  1.00  0.00     0.042 C 
BRANCH  24  25
ATOM     25  C   UNL     1       3.910   3.328  -1.692  1.00  0.00     0.118 C 
BRANCH  25  26
ATOM     26  N   UNL     1       4.496   3.106  -3.008  1.00  0.00    -0.352 N 
ATOM     27  C   UNL     1       5.069   3.984  -3.892  1.00  0.00     0.251 C 
ATOM     28  H   UNL     1       4.478   2.170  -3.313  1.00  0.00     0.163 HD
ATOM     29  O   UNL     1       5.375   3.600  -5.019  1.00  0.00    -0.269 OA
BRANCH  27  30
ATOM     30  C   UNL     1       5.297   5.396  -3.516  1.00  0.00     0.039 A 
ATOM     31  C   UNL     1       4.976   6.395  -4.441  1.00  0.00     0.014 A 
ATOM     32  C   UNL     1       5.838   5.743  -2.276  1.00  0.00     0.014 A 
ATOM     33  C   UNL     1       5.123   7.739  -4.091  1.00  0.00     0.010 A 
ATOM     34  C   UNL     1       5.915   7.083  -1.900  1.00  0.00     0.010 A 
ATOM     35  C   UNL     1       5.555   8.094  -2.803  1.00  0.00    -0.014 A 
BRANCH  35  36
ATOM     36  C   UNL     1       5.621   9.518  -2.388  1.00  0.00     0.031 A 
ATOM     37  C   UNL     1       6.942  10.161  -2.075  1.00  0.00     0.074 A 
ATOM     38  C   UNL     1       4.481  10.225  -2.259  1.00  0.00     0.049 A 
ATOM     39  N   UNL     1       7.191  11.386  -1.687  1.00  0.00    -0.248 NA
ATOM     40  C   UNL     1       8.140   9.315  -2.197  1.00  0.00     0.031 C 
ATOM     41  C   UNL     1       3.133   9.704  -2.493  1.00  0.00     0.029 A 
ATOM     42  N   UNL     1       4.273  11.534  -1.902  1.00  0.00    -0.354 N 
ATOM     43  C   UNL     1       8.567  11.457  -1.519  1.00  0.00     0.074 A 
ATOM     44  C   UNL     1       9.096  10.138  -1.790  1.00  0.00     0.031 C 
ATOM     45  C   UNL     1       2.242  10.691  -2.311  1.00  0.00     0.029 A 
ATOM     46  C   UNL     1       2.950  11.905  -1.914  1.00  0.00     0.049 A 
ATOM     47  H   UNL     1       5.003  12.149  -1.660  1.00  0.00     0.167 HD
ATOM     48  C   UNL     1       9.325  12.531  -1.197  1.00  0.00     0.037 A 
ATOM     49  C   UNL     1       2.372  13.091  -1.641  1.00  0.00     0.037 A 
ATOM     50  C   UNL     1       8.803  13.848  -0.948  1.00  0.00     0.049 A 
ATOM     51  C   UNL     1       3.234  14.260  -1.256  1.00  0.00     0.074 A 
ATOM     52  C   UNL     1       9.499  15.011  -0.668  1.00  0.00     0.029 A 
ATOM     53  N   UNL     1       7.456  14.177  -0.949  1.00  0.00    -0.354 N 
ATOM     54  N   UNL     1       4.539  14.327  -1.162  1.00  0.00    -0.248 NA
ATOM     55  C   UNL     1       2.543  15.518  -0.937  1.00  0.00     0.031 C 
ATOM     56  C   UNL     1       8.572  16.036  -0.459  1.00  0.00     0.029 A 
ATOM     57  C   UNL     1       7.300  15.520  -0.649  1.00  0.00     0.049 A 
ATOM     58  H   UNL     1       6.721  13.550  -1.134  1.00  0.00     0.167 HD
ATOM     59  C   UNL     1       4.828  15.634  -0.791  1.00  0.00     0.074 A 
ATOM     60  C   UNL     1       3.562  16.331  -0.692  1.00  0.00     0.031 C 
ATOM     61  C   UNL     1       6.034  16.202  -0.554  1.00  0.00     0.037 A 
BRANCH  48  62
ATOM     62  C   UNL     1      10.810  12.334  -1.118  1.00  0.00     0.057 A 
ATOM     63  C   UNL     1      11.586  12.149  -2.269  1.00  0.00     0.134 A 
ATOM     64  C   UNL     1      11.478  12.387   0.112  1.00  0.00     0.134 A 
ATOM     65  F   UNL     1      11.004  12.079  -3.477  1.00  0.00    -0.206 F 
ATOM     66  C   UNL     1      12.972  12.007  -2.200  1.00  0.00     0.040 A 
ATOM     67  C   UNL     1      12.867  12.270   0.191  1.00  0.00     0.040 A 
ATOM     68  F   UNL     1      10.795  12.569   1.252  1.00  0.00    -0.206 F 
ATOM     69  C   UNL     1      13.617  12.076  -0.967  1.00  0.00     0.006 A 
ENDBRANCH  48  62
BRANCH  49  70
ATOM     70  C   UNL     1       0.901  13.238  -1.760  1.00  0.00     0.057 A 
ATOM     71  C   UNL     1       0.337  13.975  -2.808  1.00  0.00     0.134 A 
ATOM     72  C   UNL     1       0.025  12.639  -0.847  1.00  0.00     0.134 A 
ATOM     73  F   UNL     1       1.125  14.586  -3.703  1.00  0.00    -0.206 F 
ATOM     74  C   UNL     1      -1.046  14.117  -2.940  1.00  0.00     0.040 A 
ATOM     75  C   UNL     1      -1.359  12.755  -0.979  1.00  0.00     0.040 A 
ATOM     76  F   UNL     1       0.504  11.916   0.176  1.00  0.00    -0.206 F 
ATOM     77  C   UNL     1      -1.898  13.500  -2.027  1.00  0.00     0.006 A 
ENDBRANCH  49  70
BRANCH  61  78
ATOM     78  C   UNL     1       6.057  17.650  -0.168  1.00  0.00     0.057 A 
ATOM     79  C   UNL     1       5.686  18.071   1.114  1.00  0.00     0.134 A 
ATOM     80  C   UNL     1       6.534  18.621  -1.058  1.00  0.00     0.134 A 
ATOM     81  F   UNL     1       5.211  17.191   2.008  1.00  0.00    -0.206 F 
ATOM     82  C   UNL     1       5.786  19.410   1.498  1.00  0.00     0.040 A 
ATOM     83  C   UNL     1       6.660  19.958  -0.679  1.00  0.00     0.040 A 
ATOM     84  F   UNL     1       6.914  18.280  -2.299  1.00  0.00    -0.206 F 
ATOM     85  C   UNL     1       6.284  20.355   0.603  1.00  0.00     0.006 A 
ENDBRANCH  61  78
ENDBRANCH  35  36
ENDBRANCH  27  30
ENDBRANCH  25  26
ENDBRANCH  24  25
ENDBRANCH   1  24
TORSDOF 13
