REMARK SMILES C/C(=C/C[N@H+]1C[C@H]2CCC[N@H+]2C[C@@H]1C)C(=O)NCCCNC(=O)c1ccc(-c2c3nc(c(-c4c(F)cccc4F)c4ccc([nH]4)c(-c4c(F)cccc4F)c4nc(c(-c5c(F)cccc5F)c5ccc2[nH]5)C=C4)C=C3)cc1
REMARK SMILES IDX 19 1 18 2 17 3 15 4 16 5 2 7 1 8 3 9 4 10 5 11 6 12 13 13
REMARK SMILES IDX 7 15 12 16 14 17 8 18 11 19 9 20 10 21 20 23 21 24 22 25
REMARK SMILES IDX 23 27 24 28 25 29 77 30 26 31 76 32 27 33 28 34 29 35 70 36
REMARK SMILES IDX 30 37 75 38 69 39 71 40 31 41 74 42 68 43 67 44 32 46 58 47
REMARK SMILES IDX 41 48 57 49 42 50 45 51 56 52 72 53 43 54 44 55 55 57 73 58
REMARK SMILES IDX 46 59 33 60 34 61 39 62 35 63 36 64 38 65 40 66 37 67 59 68
REMARK SMILES IDX 60 69 65 70 61 71 62 72 64 73 66 74 63 75 47 76 48 77 53 78
REMARK SMILES IDX 49 79 50 80 52 81 54 82 51 83
REMARK H PARENT 17 6 5 14 11 22 21 26 71 45 45 56
REMARK Flexibility Score: inf
ROOT
ATOM      1  C   UNL     1      -1.208  -0.744   5.000  1.00  0.00     0.042 C 
ENDROOT
BRANCH   1   2
ATOM      2  C   UNL     1       0.241  -0.577   4.549  1.00  0.00     0.118 C 
BRANCH   2   3
ATOM      3  N   UNL     1       0.544  -1.456   3.455  1.00  0.00    -0.352 N 
ATOM      4  C   UNL     1       0.649  -1.261   2.124  1.00  0.00     0.246 C 
ATOM      5  O   UNL     1       1.024  -2.256   1.491  1.00  0.00    -0.270 OA
ATOM      6  H   UNL     1       0.708  -2.387   3.731  1.00  0.00     0.163 HD
BRANCH   4   7
ATOM      7  C   UNL     1       0.435   0.041   1.377  1.00  0.00     0.015 C 
ATOM      8  C   UNL     1       1.117  -0.060   0.015  1.00  0.00     0.050 C 
ATOM      9  C   UNL     1      -0.234   1.195   1.608  1.00  0.00     0.042 C 
BRANCH   9  10
ATOM     10  C   UNL     1      -1.120   1.738   2.692  1.00  0.00     0.292 C 
BRANCH  10  11
ATOM     11  N   UNL     1      -0.469   2.827   3.451  1.00  0.00    -0.320 N 
ATOM     12  C   UNL     1      -0.499   4.079   2.665  1.00  0.00     0.328 C 
ATOM     13  C   UNL     1      -1.044   3.038   4.815  1.00  0.00     0.237 C 
ATOM     14  H   UNL     1       0.498   2.539   3.603  1.00  0.00     0.348 HD
ATOM     15  C   UNL     1       0.022   5.310   3.435  1.00  0.00     0.240 C 
ATOM     16  C   UNL     1      -1.539   4.487   5.121  1.00  0.00     0.328 C 
ATOM     17  C   UNL     1      -0.006   2.652   5.889  1.00  0.00     0.081 C 
ATOM     18  C   UNL     1      -0.267   6.605   2.681  1.00  0.00     0.077 C 
ATOM     19  N   UNL     1      -0.539   5.506   4.786  1.00  0.00    -0.323 N 
ATOM     20  C   UNL     1      -0.358   7.637   3.785  1.00  0.00     0.068 C 
ATOM     21  C   UNL     1      -1.048   6.873   4.901  1.00  0.00     0.263 C 
ATOM     22  H   UNL     1       0.200   5.385   5.479  1.00  0.00     0.348 HD
ENDBRANCH  10  11
ENDBRANCH   9  10
ENDBRANCH   4   7
ENDBRANCH   2   3
ENDBRANCH   1   2
BRANCH   1  23
ATOM     23  C   UNL     1      -1.363  -1.557   6.267  1.00  0.00     0.118 C 
BRANCH  23  24
ATOM     24  N   UNL     1      -0.877  -0.827   7.434  1.00  0.00    -0.352 N 
ATOM     25  C   UNL     1      -1.525  -0.475   8.591  1.00  0.00     0.251 C 
ATOM     26  H   UNL     1       0.064  -0.543   7.383  1.00  0.00     0.163 HD
ATOM     27  O   UNL     1      -1.003   0.332   9.359  1.00  0.00    -0.269 OA
BRANCH  25  28
ATOM     28  C   UNL     1      -2.855  -1.038   8.910  1.00  0.00     0.039 A 
ATOM     29  C   UNL     1      -3.793  -0.243   9.576  1.00  0.00     0.014 A 
ATOM     30  C   UNL     1      -3.179  -2.350   8.562  1.00  0.00     0.014 A 
ATOM     31  C   UNL     1      -5.069  -0.746   9.835  1.00  0.00     0.010 A 
ATOM     32  C   UNL     1      -4.481  -2.804   8.706  1.00  0.00     0.010 A 
ATOM     33  C   UNL     1      -5.434  -2.018   9.367  1.00  0.00    -0.014 A 
BRANCH  33  34
ATOM     34  C   UNL     1      -6.788  -2.578   9.589  1.00  0.00     0.031 A 
ATOM     35  C   UNL     1      -6.947  -3.852  10.374  1.00  0.00     0.074 A 
ATOM     36  C   UNL     1      -7.856  -1.990   9.019  1.00  0.00     0.049 A 
ATOM     37  N   UNL     1      -8.025  -4.557  10.602  1.00  0.00    -0.248 NA
ATOM     38  C   UNL     1      -5.720  -4.433  10.943  1.00  0.00     0.031 C 
ATOM     39  C   UNL     1      -7.820  -0.779   8.198  1.00  0.00     0.029 A 
ATOM     40  N   UNL     1      -9.182  -2.338   9.040  1.00  0.00    -0.354 N 
ATOM     41  C   UNL     1      -7.601  -5.669  11.319  1.00  0.00     0.074 A 
ATOM     42  C   UNL     1      -6.162  -5.587  11.416  1.00  0.00     0.031 C 
ATOM     43  C   UNL     1      -9.071  -0.459   7.832  1.00  0.00     0.029 A 
ATOM     44  C   UNL     1      -9.990  -1.467   8.351  1.00  0.00     0.049 A 
ATOM     45  H   UNL     1      -9.523  -3.136   9.505  1.00  0.00     0.167 HD
ATOM     46  C   UNL     1      -8.346  -6.653  11.877  1.00  0.00     0.037 A 
ATOM     47  C   UNL     1     -11.322  -1.482   8.164  1.00  0.00     0.037 A 
ATOM     48  C   UNL     1      -9.780  -6.715  11.790  1.00  0.00     0.049 A 
ATOM     49  C   UNL     1     -12.128  -2.599   8.768  1.00  0.00     0.074 A 
ATOM     50  C   UNL     1     -10.643  -7.636  12.356  1.00  0.00     0.029 A 
ATOM     51  N   UNL     1     -10.563  -5.814  11.081  1.00  0.00    -0.354 N 
ATOM     52  N   UNL     1     -11.725  -3.610   9.498  1.00  0.00    -0.248 NA
ATOM     53  C   UNL     1     -13.576  -2.573   8.521  1.00  0.00     0.031 C 
ATOM     54  C   UNL     1     -11.944  -7.321  11.947  1.00  0.00     0.029 A 
ATOM     55  C   UNL     1     -11.898  -6.171  11.175  1.00  0.00     0.049 A 
ATOM     56  H   UNL     1     -10.221  -5.036  10.585  1.00  0.00     0.167 HD
ATOM     57  C   UNL     1     -12.871  -4.322   9.829  1.00  0.00     0.074 A 
ATOM     58  C   UNL     1     -13.985  -3.619   9.224  1.00  0.00     0.031 C 
ATOM     59  C   UNL     1     -12.992  -5.453  10.568  1.00  0.00     0.037 A 
BRANCH  46  60
ATOM     60  C   UNL     1      -7.607  -7.732  12.621  1.00  0.00     0.057 A 
ATOM     61  C   UNL     1      -6.900  -7.468  13.804  1.00  0.00     0.134 A 
ATOM     62  C   UNL     1      -7.581  -9.047  12.139  1.00  0.00     0.134 A 
ATOM     63  F   UNL     1      -6.871  -6.229  14.316  1.00  0.00    -0.206 F 
ATOM     64  C   UNL     1      -6.153  -8.457  14.448  1.00  0.00     0.040 A 
ATOM     65  C   UNL     1      -6.867 -10.052  12.794  1.00  0.00     0.040 A 
ATOM     66  F   UNL     1      -8.240  -9.376  11.018  1.00  0.00    -0.206 F 
ATOM     67  C   UNL     1      -6.139  -9.755  13.944  1.00  0.00     0.006 A 
ENDBRANCH  46  60
BRANCH  47  68
ATOM     68  C   UNL     1     -11.979  -0.378   7.421  1.00  0.00     0.057 A 
ATOM     69  C   UNL     1     -12.788   0.549   8.089  1.00  0.00     0.134 A 
ATOM     70  C   UNL     1     -11.808  -0.207   6.043  1.00  0.00     0.134 A 
ATOM     71  F   UNL     1     -13.002   0.430   9.408  1.00  0.00    -0.206 F 
ATOM     72  C   UNL     1     -13.415   1.597   7.413  1.00  0.00     0.040 A 
ATOM     73  C   UNL     1     -12.409   0.851   5.357  1.00  0.00     0.040 A 
ATOM     74  F   UNL     1     -11.037  -1.054   5.345  1.00  0.00    -0.206 F 
ATOM     75  C   UNL     1     -13.220   1.753   6.043  1.00  0.00     0.006 A 
ENDBRANCH  47  68
BRANCH  59  76
ATOM     76  C   UNL     1     -14.381  -5.975  10.797  1.00  0.00     0.057 A 
ATOM     77  C   UNL     1     -15.131  -6.567   9.774  1.00  0.00     0.134 A 
ATOM     78  C   UNL     1     -14.958  -5.916  12.072  1.00  0.00     0.134 A 
ATOM     79  F   UNL     1     -14.641  -6.641   8.527  1.00  0.00    -0.206 F 
ATOM     80  C   UNL     1     -16.417  -7.059  10.004  1.00  0.00     0.040 A 
ATOM     81  C   UNL     1     -16.230  -6.433  12.322  1.00  0.00     0.040 A 
ATOM     82  F   UNL     1     -14.290  -5.370  13.100  1.00  0.00    -0.206 F 
ATOM     83  C   UNL     1     -16.966  -7.000  11.284  1.00  0.00     0.006 A 
ENDBRANCH  59  76
ENDBRANCH  33  34
ENDBRANCH  25  28
ENDBRANCH  23  24
ENDBRANCH   1  23
TORSDOF 12
