REMARK SMILES O=C(NCCCNC(=O)[C@H]1[C@@H](C(=O)n2cc(Cl)cn2)[C@H]2CC[C@@H]1O2)c1ccc(-c2c3nc(c(-c4c(F)cccc4F)c4ccc([nH]4)c(-c4c(F)cccc4F)c4nc(c(-c5c(F)cccc5F)c5ccc2[nH]5)C=C4)C=C3)cc1
REMARK SMILES IDX 5 1 4 2 3 3 1 4 2 5 25 7 26 8 78 9 27 10 77 11 28 12 29 13
REMARK SMILES IDX 30 14 71 15 31 16 76 17 70 18 72 19 32 20 75 21 69 22 68 23
REMARK SMILES IDX 33 25 59 26 42 27 58 28 43 29 46 30 57 31 73 32 44 33 45 34
REMARK SMILES IDX 56 36 74 37 47 38 34 39 35 40 40 41 36 42 37 43 39 44 41 45
REMARK SMILES IDX 38 46 60 47 61 48 66 49 62 50 63 51 65 52 67 53 64 54 48 55
REMARK SMILES IDX 49 56 54 57 50 58 51 59 53 60 55 61 52 62 6 63 7 64 8 65
REMARK SMILES IDX 9 67 10 68 11 69 23 70 20 71 22 72 24 73 21 74 12 75 13 76
REMARK SMILES IDX 14 77 15 78 19 79 16 80 18 81 17 82
REMARK H PARENT 3 6 72 24 46 35 7 66
REMARK Flexibility Score: inf
ROOT
ATOM      1  C   UNL     1       8.594  -0.098  -2.453  1.00  0.00     0.042 C 
ENDROOT
BRANCH   1   2
ATOM      2  C   UNL     1      10.107  -0.120  -2.706  1.00  0.00     0.118 C 
BRANCH   2   3
ATOM      3  N   UNL     1      10.722   1.160  -3.002  1.00  0.00    -0.352 N 
ATOM      4  O   UNL     1      11.847   3.061  -2.768  1.00  0.00    -0.269 OA
ATOM      5  C   UNL     1      11.166   2.192  -2.221  1.00  0.00     0.251 C 
ATOM      6  H   UNL     1      10.844   1.319  -3.966  1.00  0.00     0.163 HD
BRANCH   5   7
ATOM      7  C   UNL     1      10.771   2.375  -0.805  1.00  0.00     0.039 A 
ATOM      8  C   UNL     1      10.295   1.363   0.031  1.00  0.00     0.014 A 
ATOM      9  C   UNL     1      10.820   3.693  -0.327  1.00  0.00     0.014 A 
ATOM     10  C   UNL     1       9.696   1.677   1.238  1.00  0.00     0.010 A 
ATOM     11  C   UNL     1      10.275   4.008   0.904  1.00  0.00     0.010 A 
ATOM     12  C   UNL     1       9.646   3.006   1.644  1.00  0.00    -0.014 A 
BRANCH  12  13
ATOM     13  C   UNL     1       9.017   3.314   2.920  1.00  0.00     0.031 A 
ATOM     14  C   UNL     1       9.735   2.786   4.123  1.00  0.00     0.074 A 
ATOM     15  C   UNL     1       7.989   4.186   2.963  1.00  0.00     0.049 A 
ATOM     16  N   UNL     1       9.262   2.157   5.152  1.00  0.00    -0.248 NA
ATOM     17  C   UNL     1      11.208   2.902   4.128  1.00  0.00     0.031 C 
ATOM     18  C   UNL     1       7.411   4.949   1.849  1.00  0.00     0.029 A 
ATOM     19  N   UNL     1       7.333   4.690   4.039  1.00  0.00    -0.354 N 
ATOM     20  C   UNL     1      10.345   1.966   6.015  1.00  0.00     0.074 A 
ATOM     21  C   UNL     1      11.529   2.321   5.282  1.00  0.00     0.031 C 
ATOM     22  C   UNL     1       6.700   5.987   2.341  1.00  0.00     0.029 A 
ATOM     23  C   UNL     1       6.673   5.885   3.788  1.00  0.00     0.049 A 
ATOM     24  H   UNL     1       7.325   4.247   4.918  1.00  0.00     0.167 HD
ATOM     25  C   UNL     1      10.189   1.735   7.346  1.00  0.00     0.037 A 
ATOM     26  C   UNL     1       6.252   6.775   4.720  1.00  0.00     0.037 A 
ATOM     27  C   UNL     1       8.890   1.208   7.653  1.00  0.00     0.049 A 
ATOM     28  C   UNL     1       6.224   6.071   6.027  1.00  0.00     0.074 A 
ATOM     29  C   UNL     1       8.208   0.054   7.322  1.00  0.00     0.029 A 
ATOM     30  N   UNL     1       7.943   2.062   8.159  1.00  0.00    -0.354 N 
ATOM     31  N   UNL     1       5.406   5.094   6.307  1.00  0.00    -0.248 NA
ATOM     32  C   UNL     1       7.426   6.135   6.847  1.00  0.00     0.031 C 
ATOM     33  C   UNL     1       6.853   0.465   7.162  1.00  0.00     0.029 A 
ATOM     34  C   UNL     1       6.791   1.827   7.454  1.00  0.00     0.049 A 
ATOM     35  H   UNL     1       8.066   2.714   8.886  1.00  0.00     0.167 HD
ATOM     36  C   UNL     1       6.160   4.196   7.050  1.00  0.00     0.074 A 
ATOM     37  C   UNL     1       7.379   4.921   7.403  1.00  0.00     0.031 C 
ATOM     38  C   UNL     1       5.864   2.863   7.070  1.00  0.00     0.037 A 
BRANCH  25  39
ATOM     39  C   UNL     1      11.094   2.321   8.400  1.00  0.00     0.057 A 
ATOM     40  C   UNL     1      10.985   1.890   9.734  1.00  0.00     0.134 A 
ATOM     41  C   UNL     1      11.851   3.496   8.208  1.00  0.00     0.134 A 
ATOM     42  F   UNL     1      10.275   0.796  10.047  1.00  0.00    -0.206 F 
ATOM     43  C   UNL     1      11.531   2.615  10.802  1.00  0.00     0.040 A 
ATOM     44  C   UNL     1      12.441   4.199   9.261  1.00  0.00     0.040 A 
ATOM     45  F   UNL     1      11.973   4.080   7.010  1.00  0.00    -0.206 F 
ATOM     46  C   UNL     1      12.254   3.778  10.567  1.00  0.00     0.006 A 
ENDBRANCH  25  39
BRANCH  26  47
ATOM     47  C   UNL     1       6.279   8.252   4.601  1.00  0.00     0.057 A 
ATOM     48  C   UNL     1       5.510   9.069   5.438  1.00  0.00     0.134 A 
ATOM     49  C   UNL     1       7.248   8.910   3.819  1.00  0.00     0.134 A 
ATOM     50  F   UNL     1       4.600   8.530   6.263  1.00  0.00    -0.206 F 
ATOM     51  C   UNL     1       5.690  10.459   5.491  1.00  0.00     0.040 A 
ATOM     52  C   UNL     1       7.431  10.296   3.854  1.00  0.00     0.040 A 
ATOM     53  F   UNL     1       8.108   8.222   3.055  1.00  0.00    -0.206 F 
ATOM     54  C   UNL     1       6.656  11.076   4.700  1.00  0.00     0.006 A 
ENDBRANCH  26  47
BRANCH  38  55
ATOM     55  C   UNL     1       4.597   2.414   6.396  1.00  0.00     0.057 A 
ATOM     56  C   UNL     1       4.393   2.489   5.009  1.00  0.00     0.134 A 
ATOM     57  C   UNL     1       3.635   1.724   7.136  1.00  0.00     0.134 A 
ATOM     58  F   UNL     1       5.315   3.027   4.204  1.00  0.00    -0.206 F 
ATOM     59  C   UNL     1       3.264   1.943   4.393  1.00  0.00     0.040 A 
ATOM     60  C   UNL     1       2.517   1.144   6.530  1.00  0.00     0.040 A 
ATOM     61  F   UNL     1       3.796   1.550   8.457  1.00  0.00    -0.206 F 
ATOM     62  C   UNL     1       2.323   1.260   5.155  1.00  0.00     0.006 A 
ENDBRANCH  38  55
ENDBRANCH  12  13
ENDBRANCH   5   7
ENDBRANCH   2   3
ENDBRANCH   1   2
BRANCH   1  63
ATOM     63  C   UNL     1       7.754   0.374  -3.633  1.00  0.00     0.117 C 
BRANCH  63  64
ATOM     64  N   UNL     1       8.218  -0.170  -4.892  1.00  0.00    -0.356 N 
ATOM     65  C   UNL     1       7.478  -0.292  -6.013  1.00  0.00     0.226 C 
ATOM     66  H   UNL     1       9.152  -0.478  -4.933  1.00  0.00     0.163 HD
ATOM     67  O   UNL     1       7.927   0.251  -7.021  1.00  0.00    -0.275 OA
BRANCH  65  68
ATOM     68  C   UNL     1       6.125  -0.941  -6.018  1.00  0.00     0.122 C 
ATOM     69  C   UNL     1       5.615  -1.486  -7.372  1.00  0.00     0.125 C 
ATOM     70  C   UNL     1       5.759  -2.084  -5.068  1.00  0.00     0.132 C 
ATOM     71  C   UNL     1       4.836  -2.736  -6.939  1.00  0.00     0.132 C 
ATOM     72  C   UNL     1       6.420  -3.437  -5.324  1.00  0.00     0.035 C 
ATOM     73  O   UNL     1       4.428  -2.373  -5.587  1.00  0.00    -0.373 OA
ATOM     74  C   UNL     1       5.737  -3.916  -6.611  1.00  0.00     0.035 C 
BRANCH  69  75
ATOM     75  C   UNL     1       6.365  -1.663  -8.693  1.00  0.00     0.253 C 
ATOM     76  O   UNL     1       5.746  -1.713  -9.762  1.00  0.00    -0.272 OA
BRANCH  75  77
ATOM     77  N   UNL     1       7.771  -1.776  -8.735  1.00  0.00    -0.206 N 
ATOM     78  C   UNL     1       8.654  -2.439  -7.905  1.00  0.00     0.138 A 
ATOM     79  N   UNL     1       8.457  -1.159  -9.748  1.00  0.00    -0.172 NA
ATOM     80  C   UNL     1       9.909  -1.979  -8.209  1.00  0.00     0.079 A 
ATOM     81  C   UNL     1       9.728  -1.169  -9.335  1.00  0.00     0.156 A 
ATOM     82  Cl  UNL     1      11.360  -2.320  -7.413  1.00  0.00    -0.081 Cl
ENDBRANCH  75  77
ENDBRANCH  69  75
ENDBRANCH  65  68
ENDBRANCH  63  64
ENDBRANCH   1  63
TORSDOF 12
