REMARK SMILES CS(=O)(=O)c1ccc(/C=C(/C(=O)NCCCNC(=O)c2ccc(-c3c4nc(c(-c5c(F)cccc5F)c5ccc([nH]5)c(-c5c(F)cccc5F)c5nc(c(-c6c(F)cccc6F)c6ccc3[nH]6)C=C5)C=C4)cc2)c2cccc(Br)c2)cc1
REMARK SMILES IDX 15 1 14 2 13 3 11 4 12 5 10 7 9 8 8 9 5 10 6 11 82 12 7 13
REMARK SMILES IDX 81 14 2 15 1 16 3 17 4 18 74 19 75 20 80 21 76 22 78 23
REMARK SMILES IDX 77 24 79 25 16 26 17 27 18 28 19 30 20 31 21 32 73 33 22 34
REMARK SMILES IDX 72 35 23 36 24 37 25 38 66 39 26 40 71 41 65 42 67 43 27 44
REMARK SMILES IDX 70 45 64 46 63 47 28 49 54 50 37 51 53 52 38 53 41 54 52 55
REMARK SMILES IDX 68 56 39 57 40 58 51 60 69 61 42 62 29 63 30 64 35 65 31 66
REMARK SMILES IDX 32 67 34 68 36 69 33 70 55 71 56 72 61 73 57 74 58 75 60 76
REMARK SMILES IDX 62 77 59 78 43 79 44 80 49 81 45 82 46 83 48 84 50 85 47 86
REMARK H PARENT 13 6 17 29 67 48 41 59
REMARK Flexibility Score: inf
ROOT
ATOM      1  C   UNL     1       2.326   5.403  -7.465  1.00  0.00     0.042 C 
ENDROOT
BRANCH   1   2
ATOM      2  C   UNL     1       1.616   4.197  -8.082  1.00  0.00     0.118 C 
BRANCH   2   3
ATOM      3  N   UNL     1       2.562   3.372  -8.808  1.00  0.00    -0.352 N 
ATOM      4  C   UNL     1       3.207   2.208  -8.537  1.00  0.00     0.251 C 
ATOM      5  O   UNL     1       4.001   1.824  -9.400  1.00  0.00    -0.269 OA
ATOM      6  H   UNL     1       2.788   3.737  -9.694  1.00  0.00     0.163 HD
BRANCH   4   7
ATOM      7  C   UNL     1       2.932   1.360  -7.314  1.00  0.00     0.047 C 
ATOM      8  C   UNL     1       2.619   1.908  -6.117  1.00  0.00     0.022 C 
BRANCH   8   9
ATOM      9  C   UNL     1       2.180   1.258  -4.859  1.00  0.00    -0.025 A 
ATOM     10  C   UNL     1       1.072   0.034  -2.588  1.00  0.00     0.067 A 
ATOM     11  C   UNL     1       2.153  -0.559  -3.237  1.00  0.00     0.021 A 
ATOM     12  C   UNL     1       0.559   1.252  -3.032  1.00  0.00     0.021 A 
ATOM     13  C   UNL     1       2.727   0.077  -4.343  1.00  0.00     0.009 A 
ATOM     14  C   UNL     1       1.116   1.859  -4.162  1.00  0.00     0.009 A 
BRANCH  10  15
ATOM     15  S   UNL     1       0.300  -0.791  -1.217  1.00  0.00     0.175 S 
ATOM     16  C   UNL     1       0.984   0.041   0.191  1.00  0.00     0.163 C 
ATOM     17  O   UNL     1       0.772  -2.161  -1.200  1.00  0.00    -0.224 OA
ATOM     18  O   UNL     1      -1.119  -0.491  -1.276  1.00  0.00    -0.224 OA
ENDBRANCH  10  15
ENDBRANCH   8   9
BRANCH   7  19
ATOM     19  C   UNL     1       3.199  -0.096  -7.442  1.00  0.00    -0.012 A 
ATOM     20  C   UNL     1       4.527  -0.514  -7.646  1.00  0.00     0.009 A 
ATOM     21  C   UNL     1       2.205  -1.065  -7.257  1.00  0.00     0.024 A 
ATOM     22  C   UNL     1       4.867  -1.866  -7.625  1.00  0.00     0.002 A 
ATOM     23  C   UNL     1       2.559  -2.416  -7.203  1.00  0.00     0.018 A 
ATOM     24  C   UNL     1       3.883  -2.819  -7.383  1.00  0.00     0.016 A 
ATOM     25  Br  UNL     1       1.241  -3.712  -6.806  1.00  0.00    -0.051 Br
ENDBRANCH   7  19
ENDBRANCH   4   7
ENDBRANCH   2   3
ENDBRANCH   1   2
BRANCH   1  26
ATOM     26  C   UNL     1       2.799   6.420  -8.504  1.00  0.00     0.118 C 
BRANCH  26  27
ATOM     27  N   UNL     1       1.684   7.067  -9.180  1.00  0.00    -0.352 N 
ATOM     28  C   UNL     1       1.331   8.391  -9.232  1.00  0.00     0.251 C 
ATOM     29  H   UNL     1       1.091   6.459  -9.678  1.00  0.00     0.163 HD
ATOM     30  O   UNL     1       0.218   8.705  -9.645  1.00  0.00    -0.269 OA
BRANCH  28  31
ATOM     31  C   UNL     1       2.276   9.440  -8.795  1.00  0.00     0.039 A 
ATOM     32  C   UNL     1       1.780  10.547  -8.099  1.00  0.00     0.014 A 
ATOM     33  C   UNL     1       3.634   9.366  -9.114  1.00  0.00     0.014 A 
ATOM     34  C   UNL     1       2.654  11.555  -7.688  1.00  0.00     0.010 A 
ATOM     35  C   UNL     1       4.515  10.330  -8.633  1.00  0.00     0.010 A 
ATOM     36  C   UNL     1       4.032  11.443  -7.928  1.00  0.00    -0.014 A 
BRANCH  36  37
ATOM     37  C   UNL     1       4.982  12.491  -7.475  1.00  0.00     0.031 A 
ATOM     38  C   UNL     1       5.783  13.269  -8.484  1.00  0.00     0.074 A 
ATOM     39  C   UNL     1       5.164  12.702  -6.157  1.00  0.00     0.049 A 
ATOM     40  N   UNL     1       6.715  14.167  -8.286  1.00  0.00    -0.248 NA
ATOM     41  C   UNL     1       5.523  12.981  -9.904  1.00  0.00     0.031 C 
ATOM     42  C   UNL     1       4.477  11.985  -5.081  1.00  0.00     0.029 A 
ATOM     43  N   UNL     1       5.992  13.575  -5.496  1.00  0.00    -0.354 N 
ATOM     44  C   UNL     1       7.160  14.536  -9.549  1.00  0.00     0.074 A 
ATOM     45  C   UNL     1       6.438  13.727 -10.505  1.00  0.00     0.031 C 
ATOM     46  C   UNL     1       4.894  12.462  -3.897  1.00  0.00     0.029 A 
ATOM     47  C   UNL     1       5.908  13.485  -4.127  1.00  0.00     0.049 A 
ATOM     48  H   UNL     1       6.588  14.207  -5.959  1.00  0.00     0.167 HD
ATOM     49  C   UNL     1       8.071  15.481  -9.883  1.00  0.00     0.037 A 
ATOM     50  C   UNL     1       6.583  14.145  -3.167  1.00  0.00     0.037 A 
ATOM     51  C   UNL     1       8.768  16.302  -8.929  1.00  0.00     0.049 A 
ATOM     52  C   UNL     1       7.600  15.180  -3.567  1.00  0.00     0.074 A 
ATOM     53  C   UNL     1       9.669  17.325  -9.168  1.00  0.00     0.029 A 
ATOM     54  N   UNL     1       8.642  16.193  -7.552  1.00  0.00    -0.354 N 
ATOM     55  N   UNL     1       7.963  15.564  -4.767  1.00  0.00    -0.248 NA
ATOM     56  C   UNL     1       8.295  15.881  -2.478  1.00  0.00     0.031 C 
ATOM     57  C   UNL     1      10.129  17.799  -7.936  1.00  0.00     0.029 A 
ATOM     58  C   UNL     1       9.466  17.115  -6.929  1.00  0.00     0.049 A 
ATOM     59  H   UNL     1       8.054  15.555  -7.087  1.00  0.00     0.167 HD
ATOM     60  C   UNL     1       8.896  16.575  -4.578  1.00  0.00     0.074 A 
ATOM     61  C   UNL     1       9.034  16.753  -3.148  1.00  0.00     0.031 C 
ATOM     62  C   UNL     1       9.578  17.293  -5.504  1.00  0.00     0.037 A 
BRANCH  49  63
ATOM     63  C   UNL     1       8.367  15.682 -11.342  1.00  0.00     0.057 A 
ATOM     64  C   UNL     1       7.429  16.247 -12.218  1.00  0.00     0.134 A 
ATOM     65  C   UNL     1       9.624  15.357 -11.868  1.00  0.00     0.134 A 
ATOM     66  F   UNL     1       6.202  16.571 -11.783  1.00  0.00    -0.206 F 
ATOM     67  C   UNL     1       7.722  16.459 -13.566  1.00  0.00     0.040 A 
ATOM     68  C   UNL     1       9.939  15.593 -13.208  1.00  0.00     0.040 A 
ATOM     69  F   UNL     1      10.572  14.820 -11.086  1.00  0.00    -0.206 F 
ATOM     70  C   UNL     1       8.985  16.141 -14.062  1.00  0.00     0.006 A 
ENDBRANCH  49  63
BRANCH  50  71
ATOM     71  C   UNL     1       6.318  13.862  -1.732  1.00  0.00     0.057 A 
ATOM     72  C   UNL     1       5.730  14.824  -0.901  1.00  0.00     0.134 A 
ATOM     73  C   UNL     1       6.673  12.640  -1.149  1.00  0.00     0.134 A 
ATOM     74  F   UNL     1       5.381  16.021  -1.396  1.00  0.00    -0.206 F 
ATOM     75  C   UNL     1       5.536  14.595   0.462  1.00  0.00     0.040 A 
ATOM     76  C   UNL     1       6.457  12.386   0.207  1.00  0.00     0.040 A 
ATOM     77  F   UNL     1       7.230  11.671  -1.890  1.00  0.00    -0.206 F 
ATOM     78  C   UNL     1       5.898  13.370   1.019  1.00  0.00     0.006 A 
ENDBRANCH  50  71
BRANCH  62  79
ATOM     79  C   UNL     1      10.489  18.377  -5.004  1.00  0.00     0.057 A 
ATOM     80  C   UNL     1      11.689  18.095  -4.339  1.00  0.00     0.134 A 
ATOM     81  C   UNL     1      10.176  19.724  -5.229  1.00  0.00     0.134 A 
ATOM     82  F   UNL     1      12.043  16.826  -4.082  1.00  0.00    -0.206 F 
ATOM     83  C   UNL     1      12.531  19.114  -3.892  1.00  0.00     0.040 A 
ATOM     84  C   UNL     1      11.025  20.750  -4.815  1.00  0.00     0.040 A 
ATOM     85  F   UNL     1       9.047  20.064  -5.869  1.00  0.00    -0.206 F 
ATOM     86  C   UNL     1      12.203  20.447  -4.137  1.00  0.00     0.006 A 
ENDBRANCH  62  79
ENDBRANCH  36  37
ENDBRANCH  28  31
ENDBRANCH  26  27
ENDBRANCH   1  26
TORSDOF 13
