REMARK SMILES COc1cc(-c2nnc(S)n2-c2ccc(C(=O)NCCCNC(=O)c3ccc(-c4c5nc(c(-c6c(F)cccc6F)c6ccc([nH]6)c(-c6c(F)cccc6F)c6nc(c(-c7c(F)cccc7F)c7ccc4[nH]7)C=C6)C=C5)cc3)cc2)cc(OC)c1OC
REMARK SMILES IDX 19 1 18 2 16 3 17 4 15 6 12 7 13 8 80 9 14 10 79 11 11 12
REMARK SMILES IDX 6 13 7 14 8 15 9 16 5 17 3 18 4 19 85 20 82 21 81 22 2 23
REMARK SMILES IDX 1 24 86 25 87 26 83 27 84 28 10 29 20 31 21 32 22 33 23 34
REMARK SMILES IDX 24 36 25 37 26 38 78 39 27 40 77 41 28 42 29 43 30 44 71 45
REMARK SMILES IDX 31 46 76 47 70 48 72 49 32 50 75 51 69 52 68 53 33 55 59 56
REMARK SMILES IDX 42 57 58 58 43 59 46 60 57 61 73 62 44 63 45 64 56 66 74 67
REMARK SMILES IDX 47 68 34 69 35 70 40 71 36 72 37 73 39 74 41 75 38 76 60 77
REMARK SMILES IDX 61 78 66 79 62 80 63 81 65 82 67 83 64 84 48 85 49 86 54 87
REMARK SMILES IDX 50 88 51 89 53 90 55 91 52 92
REMARK H PARENT 18 5 10 30 22 35 72 54 46 65
REMARK Flexibility Score: inf
ROOT
ATOM      1  C   UNL     1       4.040  -5.316  -4.831  1.00  0.00     0.118 C 
ENDROOT
BRANCH   1   2
ATOM      2  N   UNL     1       4.353  -5.378  -6.253  1.00  0.00    -0.352 N 
ATOM      3  C   UNL     1       3.813  -4.726  -7.338  1.00  0.00     0.251 C 
ATOM      4  O   UNL     1       4.337  -4.898  -8.438  1.00  0.00    -0.269 OA
ATOM      5  H   UNL     1       5.082  -6.000  -6.479  1.00  0.00     0.163 HD
BRANCH   3   6
ATOM      6  C   UNL     1       2.654  -3.795  -7.225  1.00  0.00     0.039 A 
ATOM      7  C   UNL     1       0.588  -1.923  -7.026  1.00  0.00     0.050 A 
ATOM      8  C   UNL     1       1.483  -1.839  -8.095  1.00  0.00     0.027 A 
ATOM      9  C   UNL     1       0.673  -2.959  -6.101  1.00  0.00     0.027 A 
ATOM     10  C   UNL     1       2.527  -2.770  -8.178  1.00  0.00     0.016 A 
ATOM     11  C   UNL     1       1.676  -3.909  -6.236  1.00  0.00     0.016 A 
BRANCH   7  12
ATOM     12  N   UNL     1      -0.441  -0.975  -6.851  1.00  0.00    -0.270 N 
ATOM     13  C   UNL     1      -0.674  -0.212  -5.707  1.00  0.00     0.169 A 
ATOM     14  N   UNL     1      -1.848   0.378  -5.827  1.00  0.00    -0.129 NA
ATOM     15  N   UNL     1      -2.381   0.042  -7.054  1.00  0.00    -0.123 NA
ATOM     16  C   UNL     1      -1.540  -0.771  -7.652  1.00  0.00     0.193 A 
BRANCH  13  17
ATOM     17  C   UNL     1       0.267  -0.080  -4.588  1.00  0.00     0.027 A 
ATOM     18  C   UNL     1       0.878  -0.483  -2.267  1.00  0.00     0.165 A 
ATOM     19  C   UNL     1      -0.096  -0.420  -3.282  1.00  0.00     0.062 A 
ATOM     20  C   UNL     1       2.235  -0.211  -2.541  1.00  0.00     0.203 A 
ATOM     21  C   UNL     1       2.576   0.224  -3.836  1.00  0.00     0.165 A 
ATOM     22  C   UNL     1       1.591   0.296  -4.832  1.00  0.00     0.062 A 
BRANCH  18  23
ATOM     23  O   UNL     1       0.478  -1.010  -1.064  1.00  0.00    -0.493 OA
ATOM     24  C   UNL     1      -0.083  -0.016  -0.202  1.00  0.00     0.278 C 
ENDBRANCH  18  23
BRANCH  20  25
ATOM     25  O   UNL     1       3.277  -0.456  -1.689  1.00  0.00    -0.490 OA
ATOM     26  C   UNL     1       3.086  -0.364  -0.289  1.00  0.00     0.278 C 
ENDBRANCH  20  25
BRANCH  21  27
ATOM     27  O   UNL     1       3.810   0.569  -4.329  1.00  0.00    -0.493 OA
ATOM     28  C   UNL     1       4.925   0.609  -3.453  1.00  0.00     0.278 C 
ENDBRANCH  21  27
ENDBRANCH  13  17
BRANCH  16  29
ATOM     29  S   UNL     1      -1.863  -1.612  -9.135  1.00  0.00    -0.103 SA
ATOM     30  H   UNL     1      -3.031  -1.162  -9.666  1.00  0.00     0.111 HD
ENDBRANCH  16  29
ENDBRANCH   7  12
ENDBRANCH   3   6
ENDBRANCH   1   2
BRANCH   1  31
ATOM     31  C   UNL     1       3.076  -6.434  -4.403  1.00  0.00     0.042 C 
BRANCH  31  32
ATOM     32  C   UNL     1       3.791  -7.736  -4.105  1.00  0.00     0.118 C 
BRANCH  32  33
ATOM     33  N   UNL     1       4.583  -7.663  -2.876  1.00  0.00    -0.352 N 
ATOM     34  C   UNL     1       5.451  -8.604  -2.351  1.00  0.00     0.251 C 
ATOM     35  H   UNL     1       4.485  -6.835  -2.354  1.00  0.00     0.163 HD
ATOM     36  O   UNL     1       5.774  -8.577  -1.178  1.00  0.00    -0.269 OA
BRANCH  34  37
ATOM     37  C   UNL     1       5.972  -9.648  -3.249  1.00  0.00     0.039 A 
ATOM     38  C   UNL     1       6.108 -10.974  -2.830  1.00  0.00     0.014 A 
ATOM     39  C   UNL     1       6.278  -9.277  -4.552  1.00  0.00     0.014 A 
ATOM     40  C   UNL     1       6.478 -11.935  -3.768  1.00  0.00     0.010 A 
ATOM     41  C   UNL     1       6.425 -10.242  -5.507  1.00  0.00     0.010 A 
ATOM     42  C   UNL     1       6.615 -11.559  -5.113  1.00  0.00    -0.014 A 
BRANCH  42  43
ATOM     43  C   UNL     1       6.877 -12.540  -6.156  1.00  0.00     0.031 A 
ATOM     44  C   UNL     1       5.904 -13.665  -6.218  1.00  0.00     0.074 A 
ATOM     45  C   UNL     1       7.773 -12.314  -7.142  1.00  0.00     0.049 A 
ATOM     46  N   UNL     1       6.132 -14.919  -6.012  1.00  0.00    -0.248 NA
ATOM     47  C   UNL     1       4.480 -13.342  -6.412  1.00  0.00     0.031 C 
ATOM     48  C   UNL     1       8.572 -11.109  -7.404  1.00  0.00     0.029 A 
ATOM     49  N   UNL     1       8.073 -13.097  -8.210  1.00  0.00    -0.354 N 
ATOM     50  C   UNL     1       4.926 -15.572  -6.250  1.00  0.00     0.074 A 
ATOM     51  C   UNL     1       3.916 -14.548  -6.313  1.00  0.00     0.031 C 
ATOM     52  C   UNL     1       9.056 -11.148  -8.665  1.00  0.00     0.029 A 
ATOM     53  C   UNL     1       8.762 -12.450  -9.229  1.00  0.00     0.049 A 
ATOM     54  H   UNL     1       7.824 -14.048  -8.258  1.00  0.00     0.167 HD
ATOM     55  C   UNL     1       4.890 -16.884  -6.613  1.00  0.00     0.037 A 
ATOM     56  C   UNL     1       9.032 -12.952 -10.459  1.00  0.00     0.037 A 
ATOM     57  C   UNL     1       6.142 -17.541  -6.333  1.00  0.00     0.049 A 
ATOM     58  C   UNL     1       8.889 -14.428 -10.364  1.00  0.00     0.074 A 
ATOM     59  C   UNL     1       6.894 -17.731  -5.189  1.00  0.00     0.029 A 
ATOM     60  N   UNL     1       7.005 -17.763  -7.380  1.00  0.00    -0.354 N 
ATOM     61  N   UNL     1       9.694 -15.190  -9.675  1.00  0.00    -0.248 NA
ATOM     62  C   UNL     1       7.575 -14.991 -10.637  1.00  0.00     0.031 C 
ATOM     63  C   UNL     1       8.244 -17.527  -5.603  1.00  0.00     0.029 A 
ATOM     64  C   UNL     1       8.239 -17.313  -6.981  1.00  0.00     0.049 A 
ATOM     65  H   UNL     1       6.780 -18.168  -8.248  1.00  0.00     0.167 HD
ATOM     66  C   UNL     1       8.865 -16.121  -9.067  1.00  0.00     0.074 A 
ATOM     67  C   UNL     1       7.581 -15.997  -9.757  1.00  0.00     0.031 C 
ATOM     68  C   UNL     1       9.194 -16.694  -7.872  1.00  0.00     0.037 A 
BRANCH  55  69
ATOM     69  C   UNL     1       3.858 -17.476  -7.538  1.00  0.00     0.057 A 
ATOM     70  C   UNL     1       3.777 -18.871  -7.687  1.00  0.00     0.134 A 
ATOM     71  C   UNL     1       3.131 -16.728  -8.488  1.00  0.00     0.134 A 
ATOM     72  F   UNL     1       4.448 -19.691  -6.864  1.00  0.00    -0.206 F 
ATOM     73  C   UNL     1       3.069 -19.473  -8.735  1.00  0.00     0.040 A 
ATOM     74  C   UNL     1       2.377 -17.320  -9.504  1.00  0.00     0.040 A 
ATOM     75  F   UNL     1       3.194 -15.393  -8.548  1.00  0.00    -0.206 F 
ATOM     76  C   UNL     1       2.368 -18.697  -9.649  1.00  0.00     0.006 A 
ENDBRANCH  55  69
BRANCH  56  77
ATOM     77  C   UNL     1       9.108 -12.242 -11.756  1.00  0.00     0.057 A 
ATOM     78  C   UNL     1       9.650 -12.868 -12.888  1.00  0.00     0.134 A 
ATOM     79  C   UNL     1       8.403 -11.049 -11.992  1.00  0.00     0.134 A 
ATOM     80  F   UNL     1      10.312 -14.028 -12.772  1.00  0.00    -0.206 F 
ATOM     81  C   UNL     1       9.469 -12.360 -14.181  1.00  0.00     0.040 A 
ATOM     82  C   UNL     1       8.221 -10.526 -13.277  1.00  0.00     0.040 A 
ATOM     83  F   UNL     1       7.788 -10.396 -10.995  1.00  0.00    -0.206 F 
ATOM     84  C   UNL     1       8.740 -11.192 -14.380  1.00  0.00     0.006 A 
ENDBRANCH  56  77
BRANCH  68  85
ATOM     85  C   UNL     1      10.577 -16.456  -7.322  1.00  0.00     0.057 A 
ATOM     86  C   UNL     1      11.082 -15.193  -6.971  1.00  0.00     0.134 A 
ATOM     87  C   UNL     1      11.366 -17.559  -6.980  1.00  0.00     0.134 A 
ATOM     88  F   UNL     1      10.363 -14.081  -7.159  1.00  0.00    -0.206 F 
ATOM     89  C   UNL     1      12.325 -15.035  -6.349  1.00  0.00     0.040 A 
ATOM     90  C   UNL     1      12.594 -17.418  -6.328  1.00  0.00     0.040 A 
ATOM     91  F   UNL     1      10.929 -18.804  -7.229  1.00  0.00    -0.206 F 
ATOM     92  C   UNL     1      13.083 -16.152  -6.019  1.00  0.00     0.006 A 
ENDBRANCH  68  85
ENDBRANCH  42  43
ENDBRANCH  34  37
ENDBRANCH  32  33
ENDBRANCH  31  32
ENDBRANCH   1  31
TORSDOF 16
