REMARK SMILES C[C@@H]([NH2+]C1(CO)CCCCC1)[C@@H](C)C(=O)NCCCNC(=O)c1ccc(-c2c3nc(c(-c4c(F)cccc4F)c4ccc([nH]4)c(-c4c(F)cccc4F)c4nc(c(-c5c(F)cccc5F)c5ccc2[nH]5)C=C4)C=C3)cc1
REMARK SMILES IDX 14 1 15 2 16 3 12 5 13 6 2 7 1 8 3 9 4 12 7 13 11 14 8 15
REMARK SMILES IDX 10 16 9 17 5 18 6 19 17 21 18 22 19 23 20 24 21 25 22 27
REMARK SMILES IDX 23 28 24 29 76 30 25 31 75 32 26 33 27 34 28 35 69 36 29 37
REMARK SMILES IDX 74 38 68 39 70 40 30 41 73 42 67 43 66 44 31 46 57 47 40 48
REMARK SMILES IDX 56 49 41 50 44 51 55 52 71 53 42 54 43 55 54 57 72 58 45 59
REMARK SMILES IDX 32 60 33 61 38 62 34 63 35 64 37 65 39 66 36 67 58 68 59 69
REMARK SMILES IDX 64 70 60 71 61 72 63 73 65 74 62 75 46 76 47 77 52 78 48 79
REMARK SMILES IDX 49 80 51 81 53 82 50 83
REMARK H PARENT 16 4 3 10 3 11 6 20 20 26 70 45 44 56
REMARK Flexibility Score: inf
ROOT
ATOM      1  C   UNL     1      -1.905  -1.596   2.132  1.00  0.00     0.228 C 
ATOM      2  O   UNL     1      -2.957  -1.273   2.697  1.00  0.00    -0.275 OA
ATOM      3  N   UNL     1      -1.496  -2.864   2.383  1.00  0.00    -0.356 N 
ATOM      4  H   UNL     1      -1.979  -3.285   3.130  1.00  0.00     0.163 HD
ENDROOT
BRANCH   1   5
ATOM      5  C   UNL     1      -1.213  -0.625   1.169  1.00  0.00     0.133 C 
ATOM      6  C   UNL     1      -1.580  -1.098  -0.248  1.00  0.00     0.024 C 
BRANCH   5   7
ATOM      7  C   UNL     1       0.304  -0.335   1.428  1.00  0.00     0.192 C 
ATOM      8  C   UNL     1       1.003   0.118   0.124  1.00  0.00     0.076 C 
BRANCH   7   9
ATOM      9  N   UNL     1       0.639   0.741   2.406  1.00  0.00    -0.337 N 
ATOM     10  H   UNL     1       0.108   1.564   2.121  1.00  0.00     0.347 HD
ATOM     11  H   UNL     1       1.658   0.772   2.355  1.00  0.00     0.347 HD
BRANCH   9  12
ATOM     12  C   UNL     1       0.399   0.573   3.867  1.00  0.00     0.120 C 
ATOM     13  C   UNL     1       0.742  -0.858   4.328  1.00  0.00     0.071 C 
ATOM     14  C   UNL     1       1.388   1.512   4.630  1.00  0.00     0.071 C 
ATOM     15  C   UNL     1       0.694  -1.083   5.837  1.00  0.00     0.007 C 
ATOM     16  C   UNL     1       1.285   1.358   6.155  1.00  0.00     0.007 C 
ATOM     17  C   UNL     1       1.542  -0.077   6.600  1.00  0.00     0.001 C 
BRANCH  12  18
ATOM     18  C   UNL     1      -1.064   0.995   4.220  1.00  0.00     0.224 C 
BRANCH  18  19
ATOM     19  O   UNL     1      -1.317   2.386   4.013  1.00  0.00    -0.390 OA
ATOM     20  H   UNL     1      -0.741   2.909   4.593  1.00  0.00     0.210 HD
ENDBRANCH  18  19
ENDBRANCH  12  18
ENDBRANCH   9  12
ENDBRANCH   7   9
ENDBRANCH   5   7
ENDBRANCH   1   5
BRANCH   3  21
ATOM     21  C   UNL     1      -0.500  -3.733   1.787  1.00  0.00     0.117 C 
BRANCH  21  22
ATOM     22  C   UNL     1       0.691  -4.051   2.691  1.00  0.00     0.042 C 
BRANCH  22  23
ATOM     23  C   UNL     1       0.363  -4.405   4.140  1.00  0.00     0.118 C 
BRANCH  23  24
ATOM     24  N   UNL     1      -0.244  -5.714   4.294  1.00  0.00    -0.352 N 
ATOM     25  C   UNL     1       0.224  -6.829   4.939  1.00  0.00     0.251 C 
ATOM     26  H   UNL     1      -1.127  -5.816   3.871  1.00  0.00     0.163 HD
ATOM     27  O   UNL     1      -0.397  -7.890   4.842  1.00  0.00    -0.269 OA
BRANCH  25  28
ATOM     28  C   UNL     1       1.480  -6.795   5.723  1.00  0.00     0.039 A 
ATOM     29  C   UNL     1       2.392  -7.842   5.556  1.00  0.00     0.014 A 
ATOM     30  C   UNL     1       1.751  -5.781   6.648  1.00  0.00     0.014 A 
ATOM     31  C   UNL     1       3.591  -7.846   6.272  1.00  0.00     0.010 A 
ATOM     32  C   UNL     1       2.980  -5.751   7.313  1.00  0.00     0.010 A 
ATOM     33  C   UNL     1       3.911  -6.787   7.137  1.00  0.00    -0.014 A 
BRANCH  33  34
ATOM     34  C   UNL     1       5.212  -6.767   7.859  1.00  0.00     0.031 A 
ATOM     35  C   UNL     1       5.258  -6.873   9.360  1.00  0.00     0.074 A 
ATOM     36  C   UNL     1       6.359  -6.630   7.165  1.00  0.00     0.049 A 
ATOM     37  N   UNL     1       6.298  -6.867  10.158  1.00  0.00    -0.248 NA
ATOM     38  C   UNL     1       3.969  -6.983  10.057  1.00  0.00     0.031 C 
ATOM     39  C   UNL     1       6.455  -6.483   5.712  1.00  0.00     0.029 A 
ATOM     40  N   UNL     1       7.665  -6.593   7.589  1.00  0.00    -0.354 N 
ATOM     41  C   UNL     1       5.788  -6.965  11.447  1.00  0.00     0.074 A 
ATOM     42  C   UNL     1       4.345  -6.976  11.328  1.00  0.00     0.031 C 
ATOM     43  C   UNL     1       7.748  -6.397   5.363  1.00  0.00     0.029 A 
ATOM     44  C   UNL     1       8.573  -6.447   6.567  1.00  0.00     0.049 A 
ATOM     45  H   UNL     1       7.927  -6.665   8.535  1.00  0.00     0.167 HD
ATOM     46  C   UNL     1       6.458  -7.061  12.621  1.00  0.00     0.037 A 
ATOM     47  C   UNL     1       9.917  -6.359   6.594  1.00  0.00     0.037 A 
ATOM     48  C   UNL     1       7.893  -7.066  12.740  1.00  0.00     0.049 A 
ATOM     49  C   UNL     1      10.636  -6.445   7.912  1.00  0.00     0.074 A 
ATOM     50  C   UNL     1       8.662  -7.212  13.882  1.00  0.00     0.029 A 
ATOM     51  N   UNL     1       8.776  -6.911  11.682  1.00  0.00    -0.354 N 
ATOM     52  N   UNL     1      10.142  -6.607   9.116  1.00  0.00    -0.248 NA
ATOM     53  C   UNL     1      12.102  -6.342   7.875  1.00  0.00     0.031 C 
ATOM     54  C   UNL     1      10.009  -7.094  13.522  1.00  0.00     0.029 A 
ATOM     55  C   UNL     1      10.081  -6.930  12.148  1.00  0.00     0.049 A 
ATOM     56  H   UNL     1       8.514  -6.803  10.739  1.00  0.00     0.167 HD
ATOM     57  C   UNL     1      11.234  -6.654   9.973  1.00  0.00     0.074 A 
ATOM     58  C   UNL     1      12.418  -6.519   9.150  1.00  0.00     0.031 C 
ATOM     59  C   UNL     1      11.253  -6.799  11.320  1.00  0.00     0.037 A 
BRANCH  46  60
ATOM     60  C   UNL     1       5.642  -7.166  13.878  1.00  0.00     0.057 A 
ATOM     61  C   UNL     1       4.901  -8.315  14.185  1.00  0.00     0.134 A 
ATOM     62  C   UNL     1       5.627  -6.122  14.812  1.00  0.00     0.134 A 
ATOM     63  F   UNL     1       4.864  -9.349  13.331  1.00  0.00    -0.206 F 
ATOM     64  C   UNL     1       4.152  -8.410  15.360  1.00  0.00     0.040 A 
ATOM     65  C   UNL     1       4.906  -6.217  16.003  1.00  0.00     0.040 A 
ATOM     66  F   UNL     1       6.321  -4.996  14.586  1.00  0.00    -0.206 F 
ATOM     67  C   UNL     1       4.160  -7.361  16.277  1.00  0.00     0.006 A 
ENDBRANCH  46  60
BRANCH  47  68
ATOM     68  C   UNL     1      10.676  -6.194   5.328  1.00  0.00     0.057 A 
ATOM     69  C   UNL     1      11.490  -7.220   4.834  1.00  0.00     0.134 A 
ATOM     70  C   UNL     1      10.618  -5.006   4.590  1.00  0.00     0.134 A 
ATOM     71  F   UNL     1      11.603  -8.375   5.506  1.00  0.00    -0.206 F 
ATOM     72  C   UNL     1      12.233  -7.065   3.662  1.00  0.00     0.040 A 
ATOM     73  C   UNL     1      11.334  -4.846   3.403  1.00  0.00     0.040 A 
ATOM     74  F   UNL     1       9.852  -3.987   5.007  1.00  0.00    -0.206 F 
ATOM     75  C   UNL     1      12.152  -5.875   2.941  1.00  0.00     0.006 A 
ENDBRANCH  47  68
BRANCH  59  76
ATOM     76  C   UNL     1      12.597  -6.853  11.989  1.00  0.00     0.057 A 
ATOM     77  C   UNL     1      13.413  -5.720  12.108  1.00  0.00     0.134 A 
ATOM     78  C   UNL     1      13.064  -8.047  12.554  1.00  0.00     0.134 A 
ATOM     79  F   UNL     1      13.031  -4.548  11.578  1.00  0.00    -0.206 F 
ATOM     80  C   UNL     1      14.655  -5.779  12.744  1.00  0.00     0.040 A 
ATOM     81  C   UNL     1      14.290  -8.111  13.217  1.00  0.00     0.040 A 
ATOM     82  F   UNL     1      12.329  -9.167  12.484  1.00  0.00    -0.206 F 
ATOM     83  C   UNL     1      15.093  -6.976  13.307  1.00  0.00     0.006 A 
ENDBRANCH  59  76
ENDBRANCH  33  34
ENDBRANCH  25  28
ENDBRANCH  23  24
ENDBRANCH  22  23
ENDBRANCH  21  22
ENDBRANCH   3  21
TORSDOF 15
