REMARK SMILES C[C@H](c1ccc(Br)s1)[NH+]1CCC(CC(=O)NCCCNC(=O)c2ccc(-c3c4nc(c(-c5c(F)cccc5F)c5ccc([nH]5)c(-c5c(F)cccc5F)c5nc(c(-c6c(F)cccc6F)c6ccc3[nH]6)C=C5)C=C4)cc2)CC1
REMARK SMILES IDX 17 1 16 2 14 3 15 4 13 6 12 7 9 8 10 9 78 10 11 12 77 13
REMARK SMILES IDX 2 14 1 15 3 16 4 17 8 18 5 19 6 20 7 21 18 22 19 23 20 24
REMARK SMILES IDX 21 25 22 27 23 28 24 29 76 30 25 31 75 32 26 33 27 34 28 35
REMARK SMILES IDX 69 36 29 37 74 38 68 39 70 40 30 41 73 42 67 43 66 44 31 46
REMARK SMILES IDX 57 47 40 48 56 49 41 50 44 51 55 52 71 53 42 54 43 55 54 57
REMARK SMILES IDX 72 58 45 59 32 60 33 61 38 62 34 63 35 64 37 65 39 66 36 67
REMARK SMILES IDX 58 68 59 69 64 70 60 71 61 72 63 73 65 74 62 75 46 76 47 77
REMARK SMILES IDX 52 78 48 79 49 80 51 81 53 82 50 83
REMARK H PARENT 16 5 9 11 20 26 70 45 44 56
REMARK Flexibility Score: inf
ROOT
ATOM      1  C   UNL     1      -5.247   3.318   1.343  1.00  0.00     0.117 C 
ENDROOT
BRANCH   1   2
ATOM      2  N   UNL     1      -5.694   2.687   0.105  1.00  0.00    -0.356 N 
ATOM      3  C   UNL     1      -5.711   1.379  -0.289  1.00  0.00     0.220 C 
ATOM      4  O   UNL     1      -6.216   1.116  -1.383  1.00  0.00    -0.275 OA
ATOM      5  H   UNL     1      -6.046   3.317  -0.565  1.00  0.00     0.163 HD
BRANCH   3   6
ATOM      6  C   UNL     1      -5.078   0.282   0.556  1.00  0.00     0.104 C 
BRANCH   6   7
ATOM      7  C   UNL     1      -3.623  -0.004   0.138  1.00  0.00     0.009 C 
ATOM      8  N   UNL     1      -0.806  -0.004   1.000  1.00  0.00    -0.328 N 
ATOM      9  C   UNL     1      -1.298   1.035   0.100  1.00  0.00     0.263 C 
ATOM     10  C   UNL     1      -1.484  -1.279   0.716  1.00  0.00     0.263 C 
ATOM     11  H   UNL     1      -1.047   0.276   1.950  1.00  0.00     0.348 HD
ATOM     12  C   UNL     1      -2.779   1.250   0.315  1.00  0.00     0.066 C 
ATOM     13  C   UNL     1      -3.003  -1.158   0.942  1.00  0.00     0.066 C 
BRANCH   8  14
ATOM     14  C   UNL     1       0.672  -0.118   1.030  1.00  0.00     0.222 C 
ATOM     15  C   UNL     1       1.289   1.090   1.759  1.00  0.00     0.082 C 
BRANCH  14  16
ATOM     16  C   UNL     1       1.309  -0.320  -0.333  1.00  0.00     0.063 A 
ATOM     17  C   UNL     1       1.505   0.595  -1.358  1.00  0.00     0.023 A 
ATOM     18  S   UNL     1       1.901  -1.872  -0.783  1.00  0.00    -0.127 S 
ATOM     19  C   UNL     1       2.044  -0.001  -2.534  1.00  0.00     0.028 A 
ATOM     20  C   UNL     1       2.298  -1.333  -2.337  1.00  0.00     0.070 A 
ATOM     21  Br  UNL     1       3.013  -2.453  -3.657  1.00  0.00    -0.039 Br
ENDBRANCH  14  16
ENDBRANCH   8  14
ENDBRANCH   6   7
ENDBRANCH   3   6
ENDBRANCH   1   2
BRANCH   1  22
ATOM     22  C   UNL     1      -4.030   4.238   1.173  1.00  0.00     0.042 C 
BRANCH  22  23
ATOM     23  C   UNL     1      -4.276   5.489   0.336  1.00  0.00     0.118 C 
BRANCH  23  24
ATOM     24  N   UNL     1      -4.564   6.638   1.176  1.00  0.00    -0.352 N 
ATOM     25  C   UNL     1      -3.775   7.709   1.522  1.00  0.00     0.251 C 
ATOM     26  H   UNL     1      -5.470   6.652   1.559  1.00  0.00     0.163 HD
ATOM     27  O   UNL     1      -4.118   8.411   2.471  1.00  0.00    -0.269 OA
BRANCH  25  28
ATOM     28  C   UNL     1      -2.526   8.045   0.788  1.00  0.00     0.039 A 
ATOM     29  C   UNL     1      -1.459   8.599   1.507  1.00  0.00     0.014 A 
ATOM     30  C   UNL     1      -2.425   7.936  -0.602  1.00  0.00     0.014 A 
ATOM     31  C   UNL     1      -0.296   9.014   0.846  1.00  0.00     0.010 A 
ATOM     32  C   UNL     1      -1.239   8.288  -1.254  1.00  0.00     0.010 A 
ATOM     33  C   UNL     1      -0.168   8.851  -0.541  1.00  0.00    -0.014 A 
BRANCH  33  34
ATOM     34  C   UNL     1       1.047   9.312  -1.269  1.00  0.00     0.031 A 
ATOM     35  C   UNL     1       0.948  10.431  -2.274  1.00  0.00     0.074 A 
ATOM     36  C   UNL     1       2.235   8.710  -1.063  1.00  0.00     0.049 A 
ATOM     37  N   UNL     1       1.864  10.908  -3.079  1.00  0.00    -0.248 NA
ATOM     38  C   UNL     1      -0.363  11.089  -2.402  1.00  0.00     0.031 C 
ATOM     39  C   UNL     1       2.477   7.609  -0.130  1.00  0.00     0.029 A 
ATOM     40  N   UNL     1       3.463   8.937  -1.635  1.00  0.00    -0.354 N 
ATOM     41  C   UNL     1       1.238  11.904  -3.820  1.00  0.00     0.074 A 
ATOM     42  C   UNL     1      -0.146  11.935  -3.399  1.00  0.00     0.031 C 
ATOM     43  C   UNL     1       3.776   7.269  -0.180  1.00  0.00     0.029 A 
ATOM     44  C   UNL     1       4.451   8.099  -1.173  1.00  0.00     0.049 A 
ATOM     45  H   UNL     1       3.622   9.634  -2.311  1.00  0.00     0.167 HD
ATOM     46  C   UNL     1       1.768  12.733  -4.751  1.00  0.00     0.037 A 
ATOM     47  C   UNL     1       5.749   8.004  -1.518  1.00  0.00     0.037 A 
ATOM     48  C   UNL     1       3.151  12.734  -5.152  1.00  0.00     0.049 A 
ATOM     49  C   UNL     1       6.310   8.924  -2.568  1.00  0.00     0.074 A 
ATOM     50  C   UNL     1       3.784  13.556  -6.069  1.00  0.00     0.029 A 
ATOM     51  N   UNL     1       4.117  11.877  -4.650  1.00  0.00    -0.354 N 
ATOM     52  N   UNL     1       5.708   9.873  -3.243  1.00  0.00    -0.248 NA
ATOM     53  C   UNL     1       7.733   8.761  -2.902  1.00  0.00     0.031 C 
ATOM     54  C   UNL     1       5.130  13.180  -6.139  1.00  0.00     0.029 A 
ATOM     55  C   UNL     1       5.340  12.146  -5.242  1.00  0.00     0.049 A 
ATOM     56  H   UNL     1       3.958  11.180  -3.973  1.00  0.00     0.167 HD
ATOM     57  C   UNL     1       6.683  10.438  -4.055  1.00  0.00     0.074 A 
ATOM     58  C   UNL     1       7.918   9.732  -3.784  1.00  0.00     0.031 C 
ATOM     59  C   UNL     1       6.565  11.452  -4.946  1.00  0.00     0.037 A 
BRANCH  46  60
ATOM     60  C   UNL     1       0.847  13.725  -5.399  1.00  0.00     0.057 A 
ATOM     61  C   UNL     1       0.375  14.848  -4.707  1.00  0.00     0.134 A 
ATOM     62  C   UNL     1       0.461  13.580  -6.737  1.00  0.00     0.134 A 
ATOM     63  F   UNL     1       0.700  15.039  -3.419  1.00  0.00    -0.206 F 
ATOM     64  C   UNL     1      -0.466  15.781  -5.316  1.00  0.00     0.040 A 
ATOM     65  C   UNL     1      -0.361  14.518  -7.364  1.00  0.00     0.040 A 
ATOM     66  F   UNL     1       0.883  12.531  -7.458  1.00  0.00    -0.206 F 
ATOM     67  C   UNL     1      -0.831  15.620  -6.652  1.00  0.00     0.006 A 
ENDBRANCH  46  60
BRANCH  47  68
ATOM     68  C   UNL     1       6.626   7.007  -0.855  1.00  0.00     0.057 A 
ATOM     69  C   UNL     1       7.627   7.412   0.037  1.00  0.00     0.134 A 
ATOM     70  C   UNL     1       6.508   5.637  -1.115  1.00  0.00     0.134 A 
ATOM     71  F   UNL     1       7.802   8.713   0.308  1.00  0.00    -0.206 F 
ATOM     72  C   UNL     1       8.492   6.492   0.631  1.00  0.00     0.040 A 
ATOM     73  C   UNL     1       7.352   4.704  -0.511  1.00  0.00     0.040 A 
ATOM     74  F   UNL     1       5.567   5.187  -1.958  1.00  0.00    -0.206 F 
ATOM     75  C   UNL     1       8.353   5.132   0.360  1.00  0.00     0.006 A 
ENDBRANCH  47  68
BRANCH  59  76
ATOM     76  C   UNL     1       7.809  11.892  -5.656  1.00  0.00     0.057 A 
ATOM     77  C   UNL     1       8.371  11.141  -6.696  1.00  0.00     0.134 A 
ATOM     78  C   UNL     1       8.428  13.104  -5.322  1.00  0.00     0.134 A 
ATOM     79  F   UNL     1       7.832   9.966  -7.053  1.00  0.00    -0.206 F 
ATOM     80  C   UNL     1       9.516  11.572  -7.368  1.00  0.00     0.040 A 
ATOM     81  C   UNL     1       9.561  13.555  -6.001  1.00  0.00     0.040 A 
ATOM     82  F   UNL     1       7.935  13.872  -4.340  1.00  0.00    -0.206 F 
ATOM     83  C   UNL     1      10.110  12.785  -7.025  1.00  0.00     0.006 A 
ENDBRANCH  59  76
ENDBRANCH  33  34
ENDBRANCH  25  28
ENDBRANCH  23  24
ENDBRANCH  22  23
ENDBRANCH   1  22
TORSDOF 13
