REMARK SMILES Cc1nc(-c2ccccc2)sc1C(=O)N[C@@H](CC1=c2ccccc2=NC1)C(=O)NCCCNC(=O)c1ccc(-c2c3nc(c(-c4c(F)cccc4F)c4ccc([nH]4)c(-c4c(F)cccc4F)c4nc(c(-c5c(F)cccc5F)c5ccc2[nH]5)C=C4)C=C3)cc1
REMARK SMILES IDX 30 1 29 2 27 3 28 4 16 6 15 7 13 8 14 9 12 11 1 12 2 13 3 14
REMARK SMILES IDX 4 15 11 16 5 17 6 18 10 19 7 20 9 21 8 22 17 23 18 24 19 25
REMARK SMILES IDX 26 26 20 27 24 28 25 29 21 30 23 31 22 32 31 33 32 34 33 35
REMARK SMILES IDX 34 36 35 38 36 39 37 40 89 41 38 42 88 43 39 44 40 45 41 46
REMARK SMILES IDX 82 47 42 48 87 49 81 50 83 51 43 52 86 53 80 54 79 55 44 57
REMARK SMILES IDX 70 58 53 59 69 60 54 61 57 62 68 63 84 64 55 65 56 66 67 68
REMARK SMILES IDX 85 69 58 70 45 71 46 72 51 73 47 74 48 75 50 76 52 77 49 78
REMARK SMILES IDX 71 79 72 80 77 81 73 82 74 83 76 84 78 85 75 86 59 87 60 88
REMARK SMILES IDX 65 89 61 90 62 91 64 92 66 93 63 94
REMARK H PARENT 29 5 15 10 33 37 83 56 57 67
REMARK Flexibility Score: inf
ROOT
ATOM      1  C   UNL     1      -3.865  -5.111   1.164  1.00  0.00     0.117 C 
ENDROOT
BRANCH   1   2
ATOM      2  N   UNL     1      -4.153  -3.889   1.863  1.00  0.00    -0.354 N 
ATOM      3  C   UNL     1      -4.000  -2.616   1.420  1.00  0.00     0.242 C 
ATOM      4  O   UNL     1      -4.587  -1.730   2.051  1.00  0.00    -0.273 OA
ATOM      5  H   UNL     1      -4.506  -3.988   2.777  1.00  0.00     0.163 HD
BRANCH   3   6
ATOM      6  C   UNL     1      -3.163  -2.255   0.175  1.00  0.00     0.175 C 
BRANCH   6   7
ATOM      7  N   UNL     1      -1.777  -2.678   0.230  1.00  0.00    -0.339 N 
ATOM      8  C   UNL     1      -0.588  -2.012   0.094  1.00  0.00     0.263 C 
ATOM      9  O   UNL     1       0.376  -2.791   0.115  1.00  0.00    -0.268 OA
ATOM     10  H   UNL     1      -1.669  -3.641   0.401  1.00  0.00     0.164 HD
BRANCH   8  11
ATOM     11  C   UNL     1      -0.424  -0.563  -0.041  1.00  0.00     0.115 A 
ATOM     12  C   UNL     1      -2.641   0.823  -0.541  1.00  0.00     0.068 C 
ATOM     13  C   UNL     1      -1.202   0.578  -0.263  1.00  0.00     0.062 A 
ATOM     14  N   UNL     1      -0.510   1.773  -0.215  1.00  0.00    -0.241 NA
ATOM     15  C   UNL     1       0.772   1.590  -0.059  1.00  0.00     0.124 A 
ATOM     16  S   UNL     1       1.255  -0.025   0.086  1.00  0.00    -0.108 S 
BRANCH  15  17
ATOM     17  C   UNL     1       1.692   2.714  -0.003  1.00  0.00     0.010 A 
ATOM     18  C   UNL     1       1.496   3.683   0.993  1.00  0.00     0.011 A 
ATOM     19  C   UNL     1       2.617   2.952  -1.025  1.00  0.00     0.011 A 
ATOM     20  C   UNL     1       2.195   4.886   0.955  1.00  0.00     0.001 A 
ATOM     21  C   UNL     1       3.312   4.162  -1.065  1.00  0.00     0.001 A 
ATOM     22  C   UNL     1       3.093   5.129  -0.082  1.00  0.00     0.000 A 
ENDBRANCH  15  17
ENDBRANCH   8  11
ENDBRANCH   6   7
BRANCH   6  23
ATOM     23  C   UNL     1      -3.817  -2.460  -1.220  1.00  0.00     0.068 C 
BRANCH  23  24
ATOM     24  C   UNL     1      -4.024  -3.855  -1.732  1.00  0.00    -0.037 C 
ATOM     25  C   UNL     1      -3.123  -4.787  -2.049  1.00  0.00     0.001 A 
ATOM     26  C   UNL     1      -5.413  -4.416  -1.848  1.00  0.00     0.174 C 
ATOM     27  C   UNL     1      -1.698  -4.846  -2.108  1.00  0.00     0.010 A 
ATOM     28  C   UNL     1      -3.945  -6.012  -2.092  1.00  0.00     0.065 A 
ATOM     29  N   UNL     1      -5.232  -5.876  -2.009  1.00  0.00    -0.280 NA
ATOM     30  C   UNL     1      -1.098  -6.047  -2.099  1.00  0.00     0.001 A 
ATOM     31  C   UNL     1      -3.212  -7.298  -2.086  1.00  0.00     0.028 A 
ATOM     32  C   UNL     1      -1.868  -7.278  -2.050  1.00  0.00     0.002 A 
ENDBRANCH  23  24
ENDBRANCH   6  23
ENDBRANCH   3   6
ENDBRANCH   1   2
BRANCH   1  33
ATOM     33  C   UNL     1      -3.333  -6.224   2.024  1.00  0.00     0.042 C 
BRANCH  33  34
ATOM     34  C   UNL     1      -4.312  -6.674   3.085  1.00  0.00     0.118 C 
BRANCH  34  35
ATOM     35  N   UNL     1      -5.591  -7.127   2.545  1.00  0.00    -0.352 N 
ATOM     36  C   UNL     1      -6.177  -8.374   2.541  1.00  0.00     0.251 C 
ATOM     37  H   UNL     1      -6.124  -6.423   2.111  1.00  0.00     0.163 HD
ATOM     38  O   UNL     1      -7.201  -8.570   1.911  1.00  0.00    -0.269 OA
BRANCH  36  39
ATOM     39  C   UNL     1      -5.532  -9.482   3.273  1.00  0.00     0.039 A 
ATOM     40  C   UNL     1      -5.494 -10.751   2.693  1.00  0.00     0.014 A 
ATOM     41  C   UNL     1      -4.924  -9.258   4.507  1.00  0.00     0.014 A 
ATOM     42  C   UNL     1      -4.760 -11.763   3.312  1.00  0.00     0.010 A 
ATOM     43  C   UNL     1      -4.064 -10.208   5.030  1.00  0.00     0.010 A 
ATOM     44  C   UNL     1      -3.991 -11.481   4.455  1.00  0.00    -0.014 A 
BRANCH  44  45
ATOM     45  C   UNL     1      -3.122 -12.509   5.074  1.00  0.00     0.031 A 
ATOM     46  C   UNL     1      -3.326 -12.901   6.513  1.00  0.00     0.074 A 
ATOM     47  C   UNL     1      -2.113 -13.041   4.357  1.00  0.00     0.049 A 
ATOM     48  N   UNL     1      -2.659 -13.763   7.237  1.00  0.00    -0.248 NA
ATOM     49  C   UNL     1      -4.392 -12.203   7.254  1.00  0.00     0.031 C 
ATOM     50  C   UNL     1      -1.758 -12.672   2.984  1.00  0.00     0.029 A 
ATOM     51  N   UNL     1      -1.202 -14.013   4.682  1.00  0.00    -0.354 N 
ATOM     52  C   UNL     1      -3.211 -13.693   8.510  1.00  0.00     0.074 A 
ATOM     53  C   UNL     1      -4.207 -12.648   8.486  1.00  0.00     0.031 C 
ATOM     54  C   UNL     1      -0.747 -13.448   2.566  1.00  0.00     0.029 A 
ATOM     55  C   UNL     1      -0.356 -14.341   3.650  1.00  0.00     0.049 A 
ATOM     56  H   UNL     1      -1.158 -14.435   5.570  1.00  0.00     0.167 HD
ATOM     57  C   UNL     1      -2.943 -14.459   9.592  1.00  0.00     0.037 A 
ATOM     58  C   UNL     1       0.616 -15.268   3.586  1.00  0.00     0.037 A 
ATOM     59  C   UNL     1      -1.979 -15.525   9.596  1.00  0.00     0.049 A 
ATOM     60  C   UNL     1       0.871 -16.132   4.789  1.00  0.00     0.074 A 
ATOM     61  C   UNL     1      -1.678 -16.414  10.611  1.00  0.00     0.029 A 
ATOM     62  N   UNL     1      -1.159 -15.845   8.523  1.00  0.00    -0.354 N 
ATOM     63  N   UNL     1       0.279 -16.116   5.960  1.00  0.00    -0.248 NA
ATOM     64  C   UNL     1       1.921 -17.149   4.659  1.00  0.00     0.031 C 
ATOM     65  C   UNL     1      -0.644 -17.245  10.167  1.00  0.00     0.029 A 
ATOM     66  C   UNL     1      -0.336 -16.906   8.859  1.00  0.00     0.049 A 
ATOM     67  H   UNL     1      -1.162 -15.386   7.653  1.00  0.00     0.167 HD
ATOM     68  C   UNL     1       0.871 -17.130   6.699  1.00  0.00     0.074 A 
ATOM     69  C   UNL     1       1.848 -17.759   5.833  1.00  0.00     0.031 C 
ATOM     70  C   UNL     1       0.635 -17.507   7.980  1.00  0.00     0.037 A 
BRANCH  57  71
ATOM     71  C   UNL     1      -3.718 -14.176  10.848  1.00  0.00     0.057 A 
ATOM     72  C   UNL     1      -5.095 -14.429  10.941  1.00  0.00     0.134 A 
ATOM     73  C   UNL     1      -3.082 -13.653  11.980  1.00  0.00     0.134 A 
ATOM     74  F   UNL     1      -5.771 -14.912   9.888  1.00  0.00    -0.206 F 
ATOM     75  C   UNL     1      -5.815 -14.143  12.102  1.00  0.00     0.040 A 
ATOM     76  C   UNL     1      -3.786 -13.392  13.158  1.00  0.00     0.040 A 
ATOM     77  F   UNL     1      -1.768 -13.388  11.962  1.00  0.00    -0.206 F 
ATOM     78  C   UNL     1      -5.158 -13.629  13.218  1.00  0.00     0.006 A 
ENDBRANCH  57  71
BRANCH  58  79
ATOM     79  C   UNL     1       1.382 -15.460   2.329  1.00  0.00     0.057 A 
ATOM     80  C   UNL     1       1.218 -16.613   1.552  1.00  0.00     0.134 A 
ATOM     81  C   UNL     1       2.292 -14.500   1.870  1.00  0.00     0.134 A 
ATOM     82  F   UNL     1       0.371 -17.576   1.946  1.00  0.00    -0.206 F 
ATOM     83  C   UNL     1       1.945 -16.816   0.378  1.00  0.00     0.040 A 
ATOM     84  C   UNL     1       3.007 -14.678   0.684  1.00  0.00     0.040 A 
ATOM     85  F   UNL     1       2.486 -13.367   2.560  1.00  0.00    -0.206 F 
ATOM     86  C   UNL     1       2.840 -15.843  -0.061  1.00  0.00     0.006 A 
ENDBRANCH  58  79
BRANCH  70  87
ATOM     87  C   UNL     1       1.440 -18.659   8.506  1.00  0.00     0.057 A 
ATOM     88  C   UNL     1       2.809 -18.539   8.776  1.00  0.00     0.134 A 
ATOM     89  C   UNL     1       0.835 -19.896   8.758  1.00  0.00     0.134 A 
ATOM     90  F   UNL     1       3.449 -17.383   8.544  1.00  0.00    -0.206 F 
ATOM     91  C   UNL     1       3.556 -19.620   9.245  1.00  0.00     0.040 A 
ATOM     92  C   UNL     1       1.565 -20.975   9.256  1.00  0.00     0.040 A 
ATOM     93  F   UNL     1      -0.475 -20.074   8.531  1.00  0.00    -0.206 F 
ATOM     94  C   UNL     1       2.932 -20.841   9.492  1.00  0.00     0.006 A 
ENDBRANCH  70  87
ENDBRANCH  44  45
ENDBRANCH  36  39
ENDBRANCH  34  35
ENDBRANCH  33  34
ENDBRANCH   1  33
TORSDOF 15
