REMARK SMILES O=C(NCCCNC(=O)c1ccc(-c2c3nc(c(-c4c(F)cccc4F)c4ccc([nH]4)c(-c4c(F)cccc4F)c4nc(c(-c5c(F)cccc5F)c5ccc2[nH]5)C=C4)C=C3)cc1)C1=Cc2cc(S(F)(F)(F)(F)F)ccc2O[C@@H]1C(F)(F)F
REMARK SMILES IDX 5 1 4 2 3 3 1 4 2 5 64 7 65 8 79 9 66 10 78 11 67 12 77 13
REMARK SMILES IDX 68 14 76 15 75 16 80 17 81 18 82 19 83 20 69 21 70 22 71 23
REMARK SMILES IDX 72 24 73 25 74 26 6 27 7 28 8 29 9 31 10 32 11 33 63 34
REMARK SMILES IDX 12 35 62 36 13 37 14 38 15 39 56 40 16 41 61 42 55 43 57 44
REMARK SMILES IDX 17 45 60 46 54 47 53 48 18 50 44 51 27 52 43 53 28 54 31 55
REMARK SMILES IDX 42 56 58 57 29 58 30 59 41 61 59 62 32 63 19 64 20 65 25 66
REMARK SMILES IDX 21 67 22 68 24 69 26 70 23 71 45 72 46 73 51 74 47 75 48 76
REMARK SMILES IDX 50 77 52 78 49 79 33 80 34 81 39 82 35 83 36 84 38 85 40 86
REMARK SMILES IDX 37 87
REMARK H PARENT 3 6 7 30 57 49 31 60
REMARK Flexibility Score: inf
ROOT
ATOM      1  C   UNL     1       4.896   0.506  -2.260  1.00  0.00     0.042 C 
ENDROOT
BRANCH   1   2
ATOM      2  C   UNL     1       4.389   0.911  -0.886  1.00  0.00     0.118 C 
BRANCH   2   3
ATOM      3  N   UNL     1       2.919   0.911  -0.886  1.00  0.00    -0.352 N 
ATOM      4  O   UNL     1       0.913   0.034   0.036  1.00  0.00    -0.270 OA
ATOM      5  C   UNL     1       2.184   0.034   0.036  1.00  0.00     0.251 C 
ATOM      6  H   UNL     1       2.427   1.499  -1.504  1.00  0.00     0.163 HD
BRANCH   5   7
ATOM      7  C   UNL     1       2.944  -0.873   0.990  1.00  0.00     0.067 C 
ATOM      8  C   UNL     1       4.305  -0.873   0.990  1.00  0.00     0.025 C 
ATOM      9  C   UNL     1       2.184  -1.780   1.944  1.00  0.00     0.314 C 
ATOM     10  C   UNL     1       5.065   0.034   0.036  1.00  0.00     0.019 A 
ATOM     11  O   UNL     1       3.471   1.668   0.699  1.00  0.00    -0.475 OA
ATOM     12  C   UNL     1       6.081  -0.420  -0.788  1.00  0.00     0.036 A 
ATOM     13  C   UNL     1       4.617   1.282  -0.046  1.00  0.00     0.128 A 
ATOM     14  C   UNL     1       6.764   0.610  -1.477  1.00  0.00     0.107 A 
ATOM     15  C   UNL     1       5.253   2.202  -0.844  1.00  0.00     0.048 A 
ATOM     16  C   UNL     1       6.301   1.836  -1.641  1.00  0.00     0.028 A 
BRANCH   9  17
ATOM     17  C   UNL     1       2.551  -1.430   3.377  1.00  0.00     0.429 C 
ATOM     18  F   UNL     1       2.230  -0.163   3.620  1.00  0.00    -0.167 F 
ATOM     19  F   UNL     1       1.887  -2.224   4.212  1.00  0.00    -0.167 F 
ATOM     20  F   UNL     1       3.859  -1.598   3.553  1.00  0.00    -0.167 F 
ENDBRANCH   9  17
BRANCH  14  21
ATOM     21  S   UNL     1       8.385   0.220  -2.182  1.00  0.00     0.310 S 
ATOM     22  F   UNL     1       9.075   0.163  -0.755  1.00  0.00    -0.094 F 
ATOM     23  F   UNL     1       8.720   1.759  -2.207  1.00  0.00    -0.094 F 
ATOM     24  F   UNL     1       9.771  -0.121  -2.798  1.00  0.00    -0.094 F 
ATOM     25  F   UNL     1       8.087  -1.323  -2.019  1.00  0.00    -0.094 F 
ATOM     26  F   UNL     1       7.021   0.545  -1.452  1.00  0.00    -0.094 F 
ENDBRANCH  14  21
ENDBRANCH   5   7
ENDBRANCH   2   3
ENDBRANCH   1   2
BRANCH   1  27
ATOM     27  C   UNL     1       4.389   1.494  -3.299  1.00  0.00     0.118 C 
BRANCH  27  28
ATOM     28  N   UNL     1       4.879   2.841  -2.974  1.00  0.00    -0.352 N 
ATOM     29  C   UNL     1       5.724   3.567  -3.933  1.00  0.00     0.251 C 
ATOM     30  H   UNL     1       4.641   3.257  -2.114  1.00  0.00     0.163 HD
ATOM     31  O   UNL     1       6.148   4.732  -3.652  1.00  0.00    -0.269 OA
BRANCH  29  32
ATOM     32  C   UNL     1       6.092   2.924  -5.261  1.00  0.00     0.039 A 
ATOM     33  C   UNL     1       7.437   2.909  -5.589  1.00  0.00     0.014 A 
ATOM     34  C   UNL     1       5.193   2.296  -6.009  1.00  0.00     0.014 A 
ATOM     35  C   UNL     1       7.703   2.439  -6.897  1.00  0.00     0.010 A 
ATOM     36  C   UNL     1       5.551   1.741  -7.214  1.00  0.00     0.010 A 
ATOM     37  C   UNL     1       6.853   1.742  -7.629  1.00  0.00    -0.014 A 
BRANCH  37  38
ATOM     38  C   UNL     1       7.300   0.981  -8.867  1.00  0.00     0.031 A 
ATOM     39  C   UNL     1       6.747   1.292 -10.110  1.00  0.00     0.074 A 
ATOM     40  C   UNL     1       8.134  -0.101  -8.639  1.00  0.00     0.049 A 
ATOM     41  N   UNL     1       6.938   0.656 -11.267  1.00  0.00    -0.248 NA
ATOM     42  C   UNL     1       5.833   2.420 -10.347  1.00  0.00     0.031 C 
ATOM     43  C   UNL     1       8.702  -0.416  -7.390  1.00  0.00     0.029 A 
ATOM     44  N   UNL     1       8.559  -1.046  -9.547  1.00  0.00    -0.354 N 
ATOM     45  C   UNL     1       6.256   1.261 -12.243  1.00  0.00     0.074 A 
ATOM     46  C   UNL     1       5.531   2.400 -11.664  1.00  0.00     0.031 C 
ATOM     47  C   UNL     1       9.449  -1.542  -7.539  1.00  0.00     0.029 A 
ATOM     48  C   UNL     1       9.362  -1.948  -8.884  1.00  0.00     0.049 A 
ATOM     49  H   UNL     1       8.329  -1.072 -10.504  1.00  0.00     0.167 HD
ATOM     50  C   UNL     1       6.212   0.908 -13.592  1.00  0.00     0.037 A 
ATOM     51  C   UNL     1       9.989  -3.068  -9.405  1.00  0.00     0.037 A 
ATOM     52  C   UNL     1       6.874  -0.189 -14.122  1.00  0.00     0.049 A 
ATOM     53  C   UNL     1       9.898  -3.455 -10.744  1.00  0.00     0.074 A 
ATOM     54  C   UNL     1       6.847  -0.554 -15.482  1.00  0.00     0.029 A 
ATOM     55  N   UNL     1       7.657  -1.105 -13.455  1.00  0.00    -0.354 N 
ATOM     56  N   UNL     1       9.248  -2.829 -11.727  1.00  0.00    -0.248 NA
ATOM     57  C   UNL     1      10.531  -4.658 -11.300  1.00  0.00     0.031 C 
ATOM     58  C   UNL     1       7.594  -1.680 -15.631  1.00  0.00     0.029 A 
ATOM     59  C   UNL     1       8.101  -2.037 -14.366  1.00  0.00     0.049 A 
ATOM     60  H   UNL     1       7.863  -1.095 -12.492  1.00  0.00     0.167 HD
ATOM     61  C   UNL     1       9.406  -3.489 -12.876  1.00  0.00     0.074 A 
ATOM     62  C   UNL     1      10.227  -4.679 -12.617  1.00  0.00     0.031 C 
ATOM     63  C   UNL     1       8.900  -3.144 -14.131  1.00  0.00     0.037 A 
BRANCH  50  64
ATOM     64  C   UNL     1       5.392   1.774 -14.534  1.00  0.00     0.057 A 
ATOM     65  C   UNL     1       5.841   3.074 -14.698  1.00  0.00     0.134 A 
ATOM     66  C   UNL     1       4.369   1.305 -15.239  1.00  0.00     0.134 A 
ATOM     67  F   UNL     1       7.001   3.507 -14.212  1.00  0.00    -0.206 F 
ATOM     68  C   UNL     1       4.955   3.900 -15.428  1.00  0.00     0.040 A 
ATOM     69  C   UNL     1       3.628   2.142 -16.039  1.00  0.00     0.040 A 
ATOM     70  F   UNL     1       4.057   0.014 -15.170  1.00  0.00    -0.206 F 
ATOM     71  C   UNL     1       3.980   3.454 -16.200  1.00  0.00     0.006 A 
ENDBRANCH  50  64
BRANCH  51  72
ATOM     72  C   UNL     1      10.822  -3.925  -8.466  1.00  0.00     0.057 A 
ATOM     73  C   UNL     1      12.134  -4.170  -8.837  1.00  0.00     0.134 A 
ATOM     74  C   UNL     1      10.288  -4.508  -7.399  1.00  0.00     0.134 A 
ATOM     75  F   UNL     1      12.785  -3.431  -9.731  1.00  0.00    -0.206 F 
ATOM     76  C   UNL     1      12.719  -5.277  -8.178  1.00  0.00     0.040 A 
ATOM     77  C   UNL     1      10.972  -5.488  -6.721  1.00  0.00     0.040 A 
ATOM     78  F   UNL     1       9.079  -4.140  -6.984  1.00  0.00    -0.206 F 
ATOM     79  C   UNL     1      12.251  -5.822  -7.070  1.00  0.00     0.006 A 
ENDBRANCH  51  72
BRANCH  63  80
ATOM     80  C   UNL     1       9.249  -4.037 -15.310  1.00  0.00     0.057 A 
ATOM     81  C   UNL     1       8.710  -5.313 -15.269  1.00  0.00     0.134 A 
ATOM     82  C   UNL     1       9.905  -3.601 -16.379  1.00  0.00     0.134 A 
ATOM     83  F   UNL     1       7.840  -5.703 -14.342  1.00  0.00    -0.206 F 
ATOM     84  C   UNL     1       9.169  -6.162 -16.304  1.00  0.00     0.040 A 
ATOM     85  C   UNL     1      10.201  -4.454 -17.415  1.00  0.00     0.040 A 
ATOM     86  F   UNL     1      10.278  -2.326 -16.448  1.00  0.00    -0.206 F 
ATOM     87  C   UNL     1       9.751  -5.745 -17.413  1.00  0.00     0.006 A 
ENDBRANCH  63  80
ENDBRANCH  37  38
ENDBRANCH  29  32
ENDBRANCH  27  28
ENDBRANCH   1  27
TORSDOF 12
