REMARK SMILES O=C(NCCCNC(=O)c1ccc([C@@H]2CC(O)=Nc3c2ncn3-c2cccc(Cl)c2)cc1)c1ccc(-c2c3nc(c(-c4c(F)cccc4F)c4ccc([nH]4)c(-c4c(F)cccc4F)c4nc(c(-c5c(F)cccc5F)c5ccc2[nH]5)C=C4)C=C3)cc1
REMARK SMILES IDX 5 1 4 2 3 3 1 4 2 5 33 7 34 8 86 9 35 10 85 11 36 12 37 13
REMARK SMILES IDX 38 14 79 15 39 16 84 17 78 18 80 19 40 20 83 21 77 22 76 23
REMARK SMILES IDX 41 25 67 26 50 27 66 28 51 29 54 30 65 31 81 32 52 33 53 34
REMARK SMILES IDX 64 36 82 37 55 38 42 39 43 40 48 41 44 42 45 43 47 44 49 45
REMARK SMILES IDX 46 46 68 47 69 48 74 49 70 50 71 51 73 52 75 53 72 54 56 55
REMARK SMILES IDX 57 56 62 57 58 58 59 59 61 60 63 61 60 62 6 63 7 64 8 65
REMARK SMILES IDX 9 67 10 68 11 69 32 70 12 71 31 72 13 73 14 74 15 75 20 76
REMARK SMILES IDX 16 77 19 78 21 79 18 80 23 81 22 82 17 83 24 85 25 86 30 87
REMARK SMILES IDX 26 88 28 89 27 90 29 91
REMARK H PARENT 3 6 80 24 54 35 7 66 17 84
REMARK Flexibility Score: inf
ROOT
ATOM      1  C   UNL     1       4.903  -0.273   2.124  1.00  0.00     0.042 C 
ENDROOT
BRANCH   1   2
ATOM      2  C   UNL     1       4.570  -0.786   0.727  1.00  0.00     0.118 C 
BRANCH   2   3
ATOM      3  N   UNL     1       3.160  -0.976   0.458  1.00  0.00    -0.352 N 
ATOM      4  O   UNL     1       1.098  -0.737  -0.290  1.00  0.00    -0.269 OA
ATOM      5  C   UNL     1       2.140  -0.167   0.043  1.00  0.00     0.251 C 
ATOM      6  H   UNL     1       2.868  -1.904   0.610  1.00  0.00     0.163 HD
BRANCH   5   7
ATOM      7  C   UNL     1       2.163   1.320   0.056  1.00  0.00     0.039 A 
ATOM      8  C   UNL     1       3.297   2.130   0.138  1.00  0.00     0.014 A 
ATOM      9  C   UNL     1       0.897   1.935   0.011  1.00  0.00     0.014 A 
ATOM     10  C   UNL     1       3.162   3.513   0.272  1.00  0.00     0.010 A 
ATOM     11  C   UNL     1       0.757   3.309   0.138  1.00  0.00     0.010 A 
ATOM     12  C   UNL     1       1.890   4.096   0.309  1.00  0.00    -0.014 A 
BRANCH  12  13
ATOM     13  C   UNL     1       1.770   5.552   0.334  1.00  0.00     0.031 A 
ATOM     14  C   UNL     1       2.223   6.216  -0.924  1.00  0.00     0.074 A 
ATOM     15  C   UNL     1       1.137   6.234   1.313  1.00  0.00     0.049 A 
ATOM     16  N   UNL     1       3.186   7.065  -1.075  1.00  0.00    -0.248 NA
ATOM     17  C   UNL     1       1.603   5.792  -2.192  1.00  0.00     0.031 C 
ATOM     18  C   UNL     1       0.386   5.691   2.448  1.00  0.00     0.029 A 
ATOM     19  N   UNL     1       0.948   7.579   1.448  1.00  0.00    -0.354 N 
ATOM     20  C   UNL     1       3.175   7.427  -2.422  1.00  0.00     0.074 A 
ATOM     21  C   UNL     1       2.293   6.504  -3.084  1.00  0.00     0.031 C 
ATOM     22  C   UNL     1      -0.355   6.674   3.011  1.00  0.00     0.029 A 
ATOM     23  C   UNL     1      -0.036   7.937   2.367  1.00  0.00     0.049 A 
ATOM     24  H   UNL     1       1.465   8.243   0.937  1.00  0.00     0.167 HD
ATOM     25  C   UNL     1       3.719   8.601  -2.847  1.00  0.00     0.037 A 
ATOM     26  C   UNL     1      -0.580   9.171   2.545  1.00  0.00     0.037 A 
ATOM     27  C   UNL     1       4.601   9.157  -1.856  1.00  0.00     0.049 A 
ATOM     28  C   UNL     1       0.342  10.159   1.934  1.00  0.00     0.074 A 
ATOM     29  C   UNL     1       5.773   8.751  -1.251  1.00  0.00     0.029 A 
ATOM     30  N   UNL     1       4.113  10.178  -1.081  1.00  0.00    -0.354 N 
ATOM     31  N   UNL     1       1.520  10.442   2.410  1.00  0.00    -0.248 NA
ATOM     32  C   UNL     1       0.131  10.497   0.536  1.00  0.00     0.031 C 
ATOM     33  C   UNL     1       5.665   9.204   0.096  1.00  0.00     0.029 A 
ATOM     34  C   UNL     1       4.470   9.916   0.213  1.00  0.00     0.049 A 
ATOM     35  H   UNL     1       3.600  10.957  -1.398  1.00  0.00     0.167 HD
ATOM     36  C   UNL     1       2.326  10.561   1.289  1.00  0.00     0.074 A 
ATOM     37  C   UNL     1       1.401  10.666   0.162  1.00  0.00     0.031 C 
ATOM     38  C   UNL     1       3.658  10.271   1.351  1.00  0.00     0.037 A 
BRANCH  25  39
ATOM     39  C   UNL     1       3.166   9.445  -3.972  1.00  0.00     0.057 A 
ATOM     40  C   UNL     1       3.886  10.578  -4.395  1.00  0.00     0.134 A 
ATOM     41  C   UNL     1       1.833   9.380  -4.424  1.00  0.00     0.134 A 
ATOM     42  F   UNL     1       5.163  10.762  -4.024  1.00  0.00    -0.206 F 
ATOM     43  C   UNL     1       3.296  11.611  -5.135  1.00  0.00     0.040 A 
ATOM     44  C   UNL     1       1.250  10.381  -5.206  1.00  0.00     0.040 A 
ATOM     45  F   UNL     1       0.995   8.407  -4.050  1.00  0.00    -0.206 F 
ATOM     46  C   UNL     1       1.969  11.518  -5.534  1.00  0.00     0.006 A 
ENDBRANCH  25  39
BRANCH  26  47
ATOM     47  C   UNL     1      -1.968   9.545   2.916  1.00  0.00     0.057 A 
ATOM     48  C   UNL     1      -2.288  10.848   3.334  1.00  0.00     0.134 A 
ATOM     49  C   UNL     1      -3.058   8.724   2.584  1.00  0.00     0.134 A 
ATOM     50  F   UNL     1      -1.319  11.726   3.631  1.00  0.00    -0.206 F 
ATOM     51  C   UNL     1      -3.611  11.312   3.391  1.00  0.00     0.040 A 
ATOM     52  C   UNL     1      -4.383   9.173   2.641  1.00  0.00     0.040 A 
ATOM     53  F   UNL     1      -2.870   7.488   2.102  1.00  0.00    -0.206 F 
ATOM     54  C   UNL     1      -4.663  10.477   3.032  1.00  0.00     0.006 A 
ENDBRANCH  26  47
BRANCH  38  55
ATOM     55  C   UNL     1       4.276  10.081   2.708  1.00  0.00     0.057 A 
ATOM     56  C   UNL     1       3.929   9.055   3.600  1.00  0.00     0.134 A 
ATOM     57  C   UNL     1       5.371  10.879   3.055  1.00  0.00     0.134 A 
ATOM     58  F   UNL     1       2.958   8.179   3.312  1.00  0.00    -0.206 F 
ATOM     59  C   UNL     1       4.618   8.861   4.801  1.00  0.00     0.040 A 
ATOM     60  C   UNL     1       6.089  10.673   4.234  1.00  0.00     0.040 A 
ATOM     61  F   UNL     1       5.793  11.845   2.224  1.00  0.00    -0.206 F 
ATOM     62  C   UNL     1       5.708   9.667   5.117  1.00  0.00     0.006 A 
ENDBRANCH  38  55
ENDBRANCH  12  13
ENDBRANCH   5   7
ENDBRANCH   2   3
ENDBRANCH   1   2
BRANCH   1  63
ATOM     63  C   UNL     1       4.388  -1.139   3.272  1.00  0.00     0.118 C 
BRANCH  63  64
ATOM     64  N   UNL     1       4.904  -2.500   3.239  1.00  0.00    -0.352 N 
ATOM     65  C   UNL     1       5.660  -3.186   4.151  1.00  0.00     0.251 C 
ATOM     66  H   UNL     1       4.672  -3.009   2.429  1.00  0.00     0.163 HD
ATOM     67  O   UNL     1       6.114  -4.295   3.847  1.00  0.00    -0.269 OA
BRANCH  65  68
ATOM     68  C   UNL     1       5.954  -2.626   5.486  1.00  0.00     0.039 A 
ATOM     69  C   UNL     1       7.252  -2.744   5.988  1.00  0.00     0.014 A 
ATOM     70  C   UNL     1       4.954  -2.046   6.272  1.00  0.00     0.014 A 
ATOM     71  C   UNL     1       7.563  -2.225   7.246  1.00  0.00     0.005 A 
ATOM     72  C   UNL     1       5.269  -1.510   7.521  1.00  0.00     0.005 A 
ATOM     73  C   UNL     1       6.579  -1.590   8.025  1.00  0.00    -0.038 A 
BRANCH  73  74
ATOM     74  C   UNL     1       6.947  -1.065   9.403  1.00  0.00     0.081 C 
ATOM     75  C   UNL     1       6.084  -1.696  10.519  1.00  0.00     0.111 C 
ATOM     76  C   UNL     1       6.788   0.411   9.359  1.00  0.00     0.093 A 
ATOM     77  C   UNL     1       5.084  -0.754  11.171  1.00  0.00     0.188 C 
ATOM     78  C   UNL     1       5.914   1.065  10.199  1.00  0.00     0.164 A 
ATOM     79  N   UNL     1       7.419   1.278   8.509  1.00  0.00    -0.238 NA
ATOM     80  N   UNL     1       5.029   0.535  11.075  1.00  0.00    -0.198 NA
ATOM     81  N   UNL     1       6.016   2.401   9.860  1.00  0.00    -0.283 N 
ATOM     82  C   UNL     1       6.902   2.455   8.801  1.00  0.00     0.206 A 
BRANCH  77  83
ATOM     83  O   UNL     1       4.192  -1.371  11.970  1.00  0.00    -0.496 OA
ATOM     84  H   UNL     1       4.208  -2.304  12.058  1.00  0.00     0.294 HD
ENDBRANCH  77  83
BRANCH  81  85
ATOM     85  C   UNL     1       5.360   3.498  10.467  1.00  0.00     0.050 A 
ATOM     86  C   UNL     1       4.879   4.553   9.682  1.00  0.00     0.027 A 
ATOM     87  C   UNL     1       5.202   3.522  11.859  1.00  0.00     0.047 A 
ATOM     88  C   UNL     1       4.205   5.613  10.293  1.00  0.00     0.004 A 
ATOM     89  C   UNL     1       4.575   4.611  12.459  1.00  0.00     0.043 A 
ATOM     90  C   UNL     1       4.062   5.648  11.682  1.00  0.00     0.020 A 
ATOM     91  Cl  UNL     1       4.451   4.687  14.174  1.00  0.00    -0.084 Cl
ENDBRANCH  81  85
ENDBRANCH  73  74
ENDBRANCH  65  68
ENDBRANCH  63  64
ENDBRANCH   1  63
TORSDOF 13
