REMARK SMILES O=Cc1ccc(-c2ccc(C(=O)NCCCNC(=O)c3ccc(-c4c5nc(c(-c6c(F)cccc6F)c6ccc([nH]6)c(-c6c(F)cccc6F)c6nc(c(-c7c(F)cccc7F)c7ccc4[nH]7)C=C6)C=C5)cc3)cn2)cc1
REMARK SMILES IDX 15 1 14 2 13 3 11 4 12 5 10 7 7 8 8 9 75 10 9 11 74 12 6 13
REMARK SMILES IDX 3 14 4 15 77 16 5 17 76 18 2 19 1 20 16 21 17 22 18 23 19 25
REMARK SMILES IDX 20 26 21 27 73 28 22 29 72 30 23 31 24 32 25 33 66 34 26 35
REMARK SMILES IDX 71 36 65 37 67 38 27 39 70 40 64 41 63 42 28 44 54 45 37 46
REMARK SMILES IDX 53 47 38 48 41 49 52 50 68 51 39 52 40 53 51 55 69 56 42 57
REMARK SMILES IDX 29 58 30 59 35 60 31 61 32 62 34 63 36 64 33 65 55 66 56 67
REMARK SMILES IDX 61 68 57 69 58 70 60 71 62 72 59 73 43 74 44 75 49 76 45 77
REMARK SMILES IDX 46 78 48 79 50 80 47 81
REMARK H PARENT 13 6 17 24 67 43 41 54
REMARK Flexibility Score: inf
ROOT
ATOM      1  C   UNL     1       9.288  -7.722   3.909  1.00  0.00     0.042 C 
ENDROOT
BRANCH   1   2
ATOM      2  C   UNL     1       8.190  -7.495   4.948  1.00  0.00     0.118 C 
BRANCH   2   3
ATOM      3  N   UNL     1       8.549  -6.431   5.868  1.00  0.00    -0.352 N 
ATOM      4  C   UNL     1       8.190  -5.111   5.947  1.00  0.00     0.252 C 
ATOM      5  O   UNL     1       8.622  -4.464   6.901  1.00  0.00    -0.269 OA
ATOM      6  H   UNL     1       9.173  -6.714   6.575  1.00  0.00     0.163 HD
BRANCH   4   7
ATOM      7  C   UNL     1       7.296  -4.438   4.975  1.00  0.00     0.058 A 
ATOM      8  C   UNL     1       5.570  -2.971   3.379  1.00  0.00     0.070 A 
ATOM      9  C   UNL     1       6.233  -4.070   2.840  1.00  0.00     0.030 A 
ATOM     10  N   UNL     1       5.760  -2.571   4.656  1.00  0.00    -0.255 NA
ATOM     11  C   UNL     1       7.121  -4.792   3.641  1.00  0.00     0.018 A 
ATOM     12  C   UNL     1       6.607  -3.311   5.420  1.00  0.00     0.125 A 
BRANCH   8  13
ATOM     13  C   UNL     1       4.664  -2.152   2.571  1.00  0.00     0.000 A 
ATOM     14  C   UNL     1       2.992  -0.598   0.934  1.00  0.00     0.014 A 
ATOM     15  C   UNL     1       4.174  -0.050   1.435  1.00  0.00     0.012 A 
ATOM     16  C   UNL     1       2.627  -1.907   1.258  1.00  0.00     0.012 A 
ATOM     17  C   UNL     1       4.999  -0.825   2.256  1.00  0.00     0.011 A 
ATOM     18  C   UNL     1       3.462  -2.679   2.070  1.00  0.00     0.011 A 
BRANCH  14  19
ATOM     19  C   UNL     1       2.133   0.215   0.052  1.00  0.00     0.260 C 
ATOM     20  O   UNL     1       1.084  -0.213  -0.413  1.00  0.00    -0.298 OA
ENDBRANCH  14  19
ENDBRANCH   8  13
ENDBRANCH   4   7
ENDBRANCH   2   3
ENDBRANCH   1   2
BRANCH   1  21
ATOM     21  C   UNL     1      10.527  -8.414   4.475  1.00  0.00     0.118 C 
BRANCH  21  22
ATOM     22  N   UNL     1      10.265  -9.803   4.821  1.00  0.00    -0.352 N 
ATOM     23  C   UNL     1      10.862 -10.955   4.374  1.00  0.00     0.251 C 
ATOM     24  H   UNL     1       9.545  -9.938   5.479  1.00  0.00     0.163 HD
ATOM     25  O   UNL     1      10.341 -12.038   4.619  1.00  0.00    -0.269 OA
BRANCH  23  26
ATOM     26  C   UNL     1      12.121 -10.907   3.598  1.00  0.00     0.039 A 
ATOM     27  C   UNL     1      12.284 -11.795   2.530  1.00  0.00     0.014 A 
ATOM     28  C   UNL     1      13.162 -10.045   3.953  1.00  0.00     0.014 A 
ATOM     29  C   UNL     1      13.469 -11.785   1.789  1.00  0.00     0.010 A 
ATOM     30  C   UNL     1      14.317  -9.990   3.175  1.00  0.00     0.010 A 
ATOM     31  C   UNL     1      14.485 -10.865   2.091  1.00  0.00    -0.014 A 
BRANCH  31  32
ATOM     32  C   UNL     1      15.733 -10.808   1.290  1.00  0.00     0.031 A 
ATOM     33  C   UNL     1      17.052 -11.165   1.916  1.00  0.00     0.074 A 
ATOM     34  C   UNL     1      15.686 -10.374   0.017  1.00  0.00     0.049 A 
ATOM     35  N   UNL     1      18.255 -11.105   1.403  1.00  0.00    -0.248 NA
ATOM     36  C   UNL     1      17.016 -11.627   3.313  1.00  0.00     0.031 C 
ATOM     37  C   UNL     1      14.473  -9.962  -0.692  1.00  0.00     0.029 A 
ATOM     38  N   UNL     1      16.687 -10.196  -0.904  1.00  0.00    -0.354 N 
ATOM     39  C   UNL     1      19.118 -11.501   2.417  1.00  0.00     0.074 A 
ATOM     40  C   UNL     1      18.306 -11.755   3.587  1.00  0.00     0.031 C 
ATOM     41  C   UNL     1      14.798  -9.600  -1.943  1.00  0.00     0.029 A 
ATOM     42  C   UNL     1      16.242  -9.720  -2.113  1.00  0.00     0.049 A 
ATOM     43  H   UNL     1      17.633 -10.391  -0.717  1.00  0.00     0.167 HD
ATOM     44  C   UNL     1      20.463 -11.659   2.371  1.00  0.00     0.037 A 
ATOM     45  C   UNL     1      16.924  -9.409  -3.232  1.00  0.00     0.037 A 
ATOM     46  C   UNL     1      21.265 -11.429   1.198  1.00  0.00     0.049 A 
ATOM     47  C   UNL     1      18.415  -9.589  -3.258  1.00  0.00     0.074 A 
ATOM     48  C   UNL     1      22.627 -11.616   1.033  1.00  0.00     0.029 A 
ATOM     49  N   UNL     1      20.776 -10.959  -0.012  1.00  0.00    -0.354 N 
ATOM     50  N   UNL     1      19.212 -10.018  -2.310  1.00  0.00    -0.248 NA
ATOM     51  C   UNL     1      19.101  -9.243  -4.511  1.00  0.00     0.031 C 
ATOM     52  C   UNL     1      22.967 -11.224  -0.267  1.00  0.00     0.029 A 
ATOM     53  C   UNL     1      21.812 -10.832  -0.923  1.00  0.00     0.049 A 
ATOM     54  H   UNL     1      19.833 -10.747  -0.196  1.00  0.00     0.167 HD
ATOM     55  C   UNL     1      20.488 -10.020  -2.858  1.00  0.00     0.074 A 
ATOM     56  C   UNL     1      20.357  -9.557  -4.225  1.00  0.00     0.031 C 
ATOM     57  C   UNL     1      21.663 -10.373  -2.281  1.00  0.00     0.037 A 
BRANCH  44  58
ATOM     58  C   UNL     1      21.147 -12.100   3.633  1.00  0.00     0.057 A 
ATOM     59  C   UNL     1      20.997 -13.399   4.139  1.00  0.00     0.134 A 
ATOM     60  C   UNL     1      21.976 -11.223   4.343  1.00  0.00     0.134 A 
ATOM     61  F   UNL     1      20.207 -14.285   3.513  1.00  0.00    -0.206 F 
ATOM     62  C   UNL     1      21.620 -13.798   5.323  1.00  0.00     0.040 A 
ATOM     63  C   UNL     1      22.625 -11.619   5.514  1.00  0.00     0.040 A 
ATOM     64  F   UNL     1      22.169  -9.968   3.911  1.00  0.00    -0.206 F 
ATOM     65  C   UNL     1      22.441 -12.908   6.011  1.00  0.00     0.006 A 
ENDBRANCH  44  58
BRANCH  45  66
ATOM     66  C   UNL     1      16.194  -8.928  -4.430  1.00  0.00     0.057 A 
ATOM     67  C   UNL     1      16.042  -9.747  -5.554  1.00  0.00     0.134 A 
ATOM     68  C   UNL     1      15.621  -7.652  -4.477  1.00  0.00     0.134 A 
ATOM     69  F   UNL     1      16.584 -10.973  -5.572  1.00  0.00    -0.206 F 
ATOM     70  C   UNL     1      15.357  -9.311  -6.688  1.00  0.00     0.040 A 
ATOM     71  C   UNL     1      14.915  -7.210  -5.597  1.00  0.00     0.040 A 
ATOM     72  F   UNL     1      15.725  -6.823  -3.428  1.00  0.00    -0.206 F 
ATOM     73  C   UNL     1      14.785  -8.040  -6.709  1.00  0.00     0.006 A 
ENDBRANCH  45  66
BRANCH  57  74
ATOM     74  C   UNL     1      22.893 -10.302  -3.136  1.00  0.00     0.057 A 
ATOM     75  C   UNL     1      23.482  -9.079  -3.481  1.00  0.00     0.134 A 
ATOM     76  C   UNL     1      23.514 -11.472  -3.590  1.00  0.00     0.134 A 
ATOM     77  F   UNL     1      22.926  -7.922  -3.090  1.00  0.00    -0.206 F 
ATOM     78  C   UNL     1      24.635  -9.023  -4.265  1.00  0.00     0.040 A 
ATOM     79  C   UNL     1      24.680 -11.429  -4.354  1.00  0.00     0.040 A 
ATOM     80  F   UNL     1      23.003 -12.675  -3.288  1.00  0.00    -0.206 F 
ATOM     81  C   UNL     1      25.241 -10.201  -4.698  1.00  0.00     0.006 A 
ENDBRANCH  57  74
ENDBRANCH  31  32
ENDBRANCH  23  26
ENDBRANCH  21  22
ENDBRANCH   1  21
TORSDOF 12
