REMARK SMILES O=C(/C=C/c1cc(F)cc(COCc2ccco2)c1)NCCCNC(=O)c1ccc(-c2c3nc(c(-c4c(F)cccc4F)c4ccc([nH]4)c(-c4c(F)cccc4F)c4nc(c(-c5c(F)cccc5F)c5ccc2[nH]5)C=C4)C=C3)cc1
REMARK SMILES IDX 1 1 2 2 20 3 3 5 4 6 5 7 6 8 19 9 7 10 10 11 8 12 9 13 11 14
REMARK SMILES IDX 12 15 13 16 14 17 15 18 18 19 16 20 17 21 21 22 22 23 23 24
REMARK SMILES IDX 24 25 25 26 26 28 27 29 28 30 80 31 29 32 79 33 30 34 31 35
REMARK SMILES IDX 32 36 73 37 33 38 78 39 72 40 74 41 34 42 77 43 71 44 70 45
REMARK SMILES IDX 35 47 61 48 44 49 60 50 45 51 48 52 59 53 75 54 46 55 47 56
REMARK SMILES IDX 58 58 76 59 49 60 36 61 37 62 42 63 38 64 39 65 41 66 43 67
REMARK SMILES IDX 40 68 62 69 63 70 68 71 64 72 65 73 67 74 69 75 66 76 50 77
REMARK SMILES IDX 51 78 56 79 52 80 53 81 55 82 57 83 54 84
REMARK H PARENT 20 4 24 27 74 46 48 57
REMARK Flexibility Score: inf
ROOT
ATOM      1  O   UNL     1       1.091  -0.455  -0.018  1.00  0.00    -0.270 OA
ATOM      2  C   UNL     1       2.255  -0.067   0.065  1.00  0.00     0.244 C 
ATOM      3  N   UNL     1       2.878   0.233   1.246  1.00  0.00    -0.352 N 
ATOM      4  H   UNL     1       3.822   0.512   1.231  1.00  0.00     0.163 HD
ENDROOT
BRANCH   2   5
ATOM      5  C   UNL     1       3.039   0.140  -1.180  1.00  0.00     0.072 C 
ATOM      6  C   UNL     1       4.375   0.226  -1.271  1.00  0.00     0.014 C 
BRANCH   6   7
ATOM      7  C   UNL     1       5.078   0.329  -2.558  1.00  0.00    -0.022 A 
ATOM      8  C   UNL     1       4.650   1.163  -3.595  1.00  0.00     0.047 A 
ATOM      9  C   UNL     1       6.235  -0.441  -2.745  1.00  0.00     0.014 A 
ATOM     10  C   UNL     1       5.350   1.186  -4.799  1.00  0.00     0.124 A 
ATOM     11  C   UNL     1       6.930  -0.435  -3.967  1.00  0.00    -0.019 A 
ATOM     12  F   UNL     1       4.924   1.981  -5.789  1.00  0.00    -0.207 F 
ATOM     13  C   UNL     1       6.474   0.391  -4.999  1.00  0.00     0.045 A 
BRANCH  11  14
ATOM     14  C   UNL     1       8.109  -1.354  -4.175  1.00  0.00     0.196 C 
BRANCH  14  15
ATOM     15  O   UNL     1       7.864  -2.452  -5.049  1.00  0.00    -0.369 OA
BRANCH  15  16
ATOM     16  C   UNL     1       6.709  -3.254  -4.786  1.00  0.00     0.235 C 
BRANCH  16  17
ATOM     17  C   UNL     1       6.938  -4.211  -3.668  1.00  0.00     0.129 A 
ATOM     18  C   UNL     1       7.293  -4.100  -2.337  1.00  0.00     0.048 A 
ATOM     19  O   UNL     1       6.660  -5.521  -3.949  1.00  0.00    -0.467 OA
ATOM     20  C   UNL     1       7.228  -5.402  -1.784  1.00  0.00     0.042 A 
ATOM     21  C   UNL     1       6.840  -6.231  -2.807  1.00  0.00     0.195 A 
ENDBRANCH  16  17
ENDBRANCH  15  16
ENDBRANCH  14  15
ENDBRANCH  11  14
ENDBRANCH   6   7
ENDBRANCH   2   5
BRANCH   3  22
ATOM     22  C   UNL     1       2.187   0.152   2.518  1.00  0.00     0.118 C 
BRANCH  22  23
ATOM     23  C   UNL     1       2.441  -1.155   3.264  1.00  0.00     0.042 C 
BRANCH  23  24
ATOM     24  C   UNL     1       3.899  -1.420   3.636  1.00  0.00     0.118 C 
BRANCH  24  25
ATOM     25  N   UNL     1       4.480  -0.389   4.484  1.00  0.00    -0.352 N 
ATOM     26  C   UNL     1       5.225  -0.480   5.633  1.00  0.00     0.251 C 
ATOM     27  H   UNL     1       4.309   0.532   4.181  1.00  0.00     0.163 HD
ATOM     28  O   UNL     1       5.525   0.555   6.226  1.00  0.00    -0.269 OA
BRANCH  26  29
ATOM     29  C   UNL     1       5.651  -1.785   6.191  1.00  0.00     0.039 A 
ATOM     30  C   UNL     1       5.636  -1.940   7.583  1.00  0.00     0.014 A 
ATOM     31  C   UNL     1       6.106  -2.833   5.388  1.00  0.00     0.014 A 
ATOM     32  C   UNL     1       6.009  -3.157   8.159  1.00  0.00     0.010 A 
ATOM     33  C   UNL     1       6.421  -4.069   5.959  1.00  0.00     0.010 A 
ATOM     34  C   UNL     1       6.369  -4.246   7.349  1.00  0.00    -0.014 A 
BRANCH  34  35
ATOM     35  C   UNL     1       6.650  -5.575   7.953  1.00  0.00     0.031 A 
ATOM     36  C   UNL     1       8.023  -6.184   7.892  1.00  0.00     0.074 A 
ATOM     37  C   UNL     1       5.645  -6.257   8.537  1.00  0.00     0.049 A 
ATOM     38  N   UNL     1       8.437  -7.335   8.360  1.00  0.00    -0.248 NA
ATOM     39  C   UNL     1       9.064  -5.409   7.199  1.00  0.00     0.031 C 
ATOM     40  C   UNL     1       4.256  -5.803   8.624  1.00  0.00     0.029 A 
ATOM     41  N   UNL     1       5.636  -7.475   9.172  1.00  0.00    -0.354 N 
ATOM     42  C   UNL     1       9.779  -7.426   8.015  1.00  0.00     0.074 A 
ATOM     43  C   UNL     1      10.100  -6.234   7.259  1.00  0.00     0.031 C 
ATOM     44  C   UNL     1       3.538  -6.710   9.305  1.00  0.00     0.029 A 
ATOM     45  C   UNL     1       4.406  -7.824   9.675  1.00  0.00     0.049 A 
ATOM     46  H   UNL     1       6.435  -8.043   9.258  1.00  0.00     0.167 HD
ATOM     47  C   UNL     1      10.667  -8.403   8.320  1.00  0.00     0.037 A 
ATOM     48  C   UNL     1       4.018  -8.914  10.363  1.00  0.00     0.037 A 
ATOM     49  C   UNL     1      10.357  -9.578   9.093  1.00  0.00     0.049 A 
ATOM     50  C   UNL     1       5.024  -9.979  10.694  1.00  0.00     0.074 A 
ATOM     51  C   UNL     1      11.209 -10.592   9.496  1.00  0.00     0.029 A 
ATOM     52  N   UNL     1       9.099  -9.897   9.581  1.00  0.00    -0.354 N 
ATOM     53  N   UNL     1       6.301 -10.025  10.404  1.00  0.00    -0.248 NA
ATOM     54  C   UNL     1       4.536 -11.140  11.452  1.00  0.00     0.031 C 
ATOM     55  C   UNL     1      10.460 -11.543  10.197  1.00  0.00     0.029 A 
ATOM     56  C   UNL     1       9.149 -11.101  10.265  1.00  0.00     0.049 A 
ATOM     57  H   UNL     1       8.290  -9.349   9.459  1.00  0.00     0.167 HD
ATOM     58  C   UNL     1       6.771 -11.211  10.951  1.00  0.00     0.074 A 
ATOM     59  C   UNL     1       5.648 -11.844  11.611  1.00  0.00     0.031 C 
ATOM     60  C   UNL     1       8.023 -11.729  10.908  1.00  0.00     0.037 A 
BRANCH  47  61
ATOM     61  C   UNL     1      12.075  -8.239   7.829  1.00  0.00     0.057 A 
ATOM     62  C   UNL     1      12.585  -9.067   6.821  1.00  0.00     0.134 A 
ATOM     63  C   UNL     1      12.949  -7.307   8.404  1.00  0.00     0.134 A 
ATOM     64  F   UNL     1      11.803  -9.985   6.233  1.00  0.00    -0.206 F 
ATOM     65  C   UNL     1      13.916  -8.978   6.408  1.00  0.00     0.040 A 
ATOM     66  C   UNL     1      14.275  -7.194   7.984  1.00  0.00     0.040 A 
ATOM     67  F   UNL     1      12.520  -6.479   9.368  1.00  0.00    -0.206 F 
ATOM     68  C   UNL     1      14.764  -8.037   6.988  1.00  0.00     0.006 A 
ENDBRANCH  47  61
BRANCH  48  69
ATOM     69  C   UNL     1       2.612  -9.030  10.819  1.00  0.00     0.057 A 
ATOM     70  C   UNL     1       1.569  -9.282   9.921  1.00  0.00     0.134 A 
ATOM     71  C   UNL     1       2.280  -8.868  12.169  1.00  0.00     0.134 A 
ATOM     72  F   UNL     1       1.824  -9.439   8.614  1.00  0.00    -0.206 F 
ATOM     73  C   UNL     1       0.242  -9.353  10.347  1.00  0.00     0.040 A 
ATOM     74  C   UNL     1       0.960  -8.958  12.612  1.00  0.00     0.040 A 
ATOM     75  F   UNL     1       3.241  -8.644  13.078  1.00  0.00    -0.206 F 
ATOM     76  C   UNL     1      -0.065  -9.194  11.698  1.00  0.00     0.006 A 
ENDBRANCH  48  69
BRANCH  60  77
ATOM     77  C   UNL     1       8.246 -13.044  11.593  1.00  0.00     0.057 A 
ATOM     78  C   UNL     1       8.981 -13.118  12.783  1.00  0.00     0.134 A 
ATOM     79  C   UNL     1       7.769 -14.244  11.051  1.00  0.00     0.134 A 
ATOM     80  F   UNL     1       9.473 -12.006  13.350  1.00  0.00    -0.206 F 
ATOM     81  C   UNL     1       9.236 -14.339  13.408  1.00  0.00     0.040 A 
ATOM     82  C   UNL     1       7.998 -15.470  11.679  1.00  0.00     0.040 A 
ATOM     83  F   UNL     1       7.049 -14.240   9.919  1.00  0.00    -0.206 F 
ATOM     84  C   UNL     1       8.740 -15.520  12.857  1.00  0.00     0.006 A 
ENDBRANCH  60  77
ENDBRANCH  34  35
ENDBRANCH  26  29
ENDBRANCH  24  25
ENDBRANCH  23  24
ENDBRANCH  22  23
ENDBRANCH   3  22
TORSDOF 15
