REMARK SMILES C[NH+]1CCC(C[N@H+](C)[C@H]2CC[C@]([NH3+])(C(=O)NCCCNC(=O)c3ccc(-c4c5nc(c(-c6c(F)cccc6F)c6ccc([nH]6)c(-c6c(F)cccc6F)c6nc(c(-c7c(F)cccc7F)c7ccc4[nH]7)C=C6)C=C5)cc3)C2)CC1
REMARK SMILES IDX 17 1 16 2 14 3 15 4 12 6 9 7 10 8 77 9 11 10 7 11 8 12 6 14
REMARK SMILES IDX 5 15 1 16 2 17 3 18 79 19 4 21 78 22 13 23 18 27 19 28 20 29
REMARK SMILES IDX 21 30 22 32 23 33 24 34 76 35 25 36 75 37 26 38 27 39 28 40
REMARK SMILES IDX 69 41 29 42 74 43 68 44 70 45 30 46 73 47 67 48 66 49 31 51
REMARK SMILES IDX 57 52 40 53 56 54 41 55 44 56 55 57 71 58 42 59 43 60 54 62
REMARK SMILES IDX 72 63 45 64 32 65 33 66 38 67 34 68 35 69 37 70 39 71 36 72
REMARK SMILES IDX 58 73 59 74 64 75 60 76 61 77 63 78 65 79 62 80 46 81 47 82
REMARK SMILES IDX 52 83 48 84 49 85 51 86 53 87 50 88
REMARK H PARENT 16 5 7 13 2 20 13 24 13 25 13 26 20 31 70 50 44 61
REMARK Flexibility Score: inf
ROOT
ATOM      1  C   UNL     1       6.578  -5.092   2.817  1.00  0.00     0.118 C 
ENDROOT
BRANCH   1   2
ATOM      2  N   UNL     1       6.577  -5.350   1.393  1.00  0.00    -0.351 N 
ATOM      3  C   UNL     1       5.704  -5.045   0.397  1.00  0.00     0.281 C 
ATOM      4  O   UNL     1       6.160  -5.181  -0.747  1.00  0.00    -0.268 OA
ATOM      5  H   UNL     1       7.368  -5.846   1.083  1.00  0.00     0.163 HD
BRANCH   3   6
ATOM      6  C   UNL     1       4.171  -4.779   0.619  1.00  0.00     0.179 C 
ATOM      7  C   UNL     1       3.130  -2.655  -0.277  1.00  0.00     0.190 C 
ATOM      8  C   UNL     1       3.727  -2.454   1.125  1.00  0.00     0.072 C 
ATOM      9  C   UNL     1       3.586  -4.089  -0.660  1.00  0.00     0.144 C 
ATOM     10  C   UNL     1       3.732  -3.840   1.747  1.00  0.00     0.085 C 
BRANCH   7  11
ATOM     11  N   UNL     1       1.690  -2.273  -0.250  1.00  0.00    -0.334 N 
ATOM     12  C   UNL     1       1.524  -0.953  -0.883  1.00  0.00     0.332 C 
ATOM     13  H   UNL     1       1.469  -2.278   0.746  1.00  0.00     0.348 HD
BRANCH  11  14
ATOM     14  C   UNL     1       0.708  -3.209  -0.824  1.00  0.00     0.266 C 
BRANCH  14  15
ATOM     15  C   UNL     1       0.448  -4.400   0.104  1.00  0.00     0.055 C 
ATOM     16  C   UNL     1      -0.485  -7.659   2.576  1.00  0.00     0.332 C 
ATOM     17  N   UNL     1      -0.765  -6.510   1.706  1.00  0.00    -0.337 N 
ATOM     18  C   UNL     1      -0.249  -6.777   0.355  1.00  0.00     0.262 C 
ATOM     19  C   UNL     1      -0.234  -5.285   2.328  1.00  0.00     0.262 C 
ATOM     20  H   UNL     1      -1.769  -6.362   1.600  1.00  0.00     0.347 HD
ATOM     21  C   UNL     1      -0.291  -5.554  -0.569  1.00  0.00     0.071 C 
ATOM     22  C   UNL     1      -0.278  -4.061   1.406  1.00  0.00     0.071 C 
ENDBRANCH  14  15
ENDBRANCH  11  14
ENDBRANCH   7  11
BRANCH   6  23
ATOM     23  N   UNL     1       3.609  -6.137   0.836  1.00  0.00    -0.345 N 
ATOM     24  H   UNL     1       2.603  -6.067   0.991  1.00  0.00     0.345 HD
ATOM     25  H   UNL     1       4.050  -6.561   1.651  1.00  0.00     0.345 HD
ATOM     26  H   UNL     1       3.787  -6.713   0.014  1.00  0.00     0.345 HD
ENDBRANCH   6  23
ENDBRANCH   3   6
ENDBRANCH   1   2
BRANCH   1  27
ATOM     27  C   UNL     1       5.761  -6.046   3.685  1.00  0.00     0.042 C 
BRANCH  27  28
ATOM     28  C   UNL     1       6.186  -7.513   3.628  1.00  0.00     0.118 C 
BRANCH  28  29
ATOM     29  N   UNL     1       7.624  -7.686   3.763  1.00  0.00    -0.352 N 
ATOM     30  C   UNL     1       8.424  -7.952   4.842  1.00  0.00     0.251 C 
ATOM     31  H   UNL     1       8.117  -7.594   2.916  1.00  0.00     0.163 HD
ATOM     32  O   UNL     1       9.626  -7.708   4.754  1.00  0.00    -0.269 OA
BRANCH  30  33
ATOM     33  C   UNL     1       7.901  -8.546   6.094  1.00  0.00     0.039 A 
ATOM     34  C   UNL     1       8.536  -8.214   7.299  1.00  0.00     0.014 A 
ATOM     35  C   UNL     1       6.912  -9.533   6.091  1.00  0.00     0.014 A 
ATOM     36  C   UNL     1       8.177  -8.855   8.488  1.00  0.00     0.010 A 
ATOM     37  C   UNL     1       6.512 -10.132   7.288  1.00  0.00     0.010 A 
ATOM     38  C   UNL     1       7.157  -9.817   8.494  1.00  0.00    -0.014 A 
BRANCH  38  39
ATOM     39  C   UNL     1       6.786 -10.526   9.745  1.00  0.00     0.031 A 
ATOM     40  C   UNL     1       7.066 -11.997   9.899  1.00  0.00     0.074 A 
ATOM     41  C   UNL     1       6.162  -9.854  10.732  1.00  0.00     0.049 A 
ATOM     42  N   UNL     1       6.777 -12.795  10.896  1.00  0.00    -0.248 NA
ATOM     43  C   UNL     1       7.739 -12.664   8.773  1.00  0.00     0.031 C 
ATOM     44  C   UNL     1       5.800  -8.437  10.690  1.00  0.00     0.029 A 
ATOM     45  N   UNL     1       5.717 -10.277  11.959  1.00  0.00    -0.354 N 
ATOM     46  C   UNL     1       7.211 -14.058  10.510  1.00  0.00     0.074 A 
ATOM     47  C   UNL     1       7.750 -13.927   9.174  1.00  0.00     0.031 C 
ATOM     48  C   UNL     1       5.204  -8.103  11.845  1.00  0.00     0.029 A 
ATOM     49  C   UNL     1       5.121  -9.285  12.698  1.00  0.00     0.049 A 
ATOM     50  H   UNL     1       5.816 -11.203  12.278  1.00  0.00     0.167 HD
ATOM     51  C   UNL     1       7.180 -15.217  11.211  1.00  0.00     0.037 A 
ATOM     52  C   UNL     1       4.571  -9.324  13.925  1.00  0.00     0.037 A 
ATOM     53  C   UNL     1       6.677 -15.340  12.555  1.00  0.00     0.049 A 
ATOM     54  C   UNL     1       4.579 -10.613  14.697  1.00  0.00     0.074 A 
ATOM     55  C   UNL     1       6.654 -16.458  13.371  1.00  0.00     0.029 A 
ATOM     56  N   UNL     1       6.112 -14.303  13.282  1.00  0.00    -0.354 N 
ATOM     57  N   UNL     1       5.041 -11.786  14.339  1.00  0.00    -0.248 NA
ATOM     58  C   UNL     1       4.000 -10.580  16.047  1.00  0.00     0.031 C 
ATOM     59  C   UNL     1       6.051 -16.104  14.583  1.00  0.00     0.029 A 
ATOM     60  C   UNL     1       5.729 -14.757  14.533  1.00  0.00     0.049 A 
ATOM     61  H   UNL     1       5.999 -13.381  12.957  1.00  0.00     0.167 HD
ATOM     62  C   UNL     1       4.827 -12.625  15.424  1.00  0.00     0.074 A 
ATOM     63  C   UNL     1       4.208 -11.823  16.459  1.00  0.00     0.031 C 
ATOM     64  C   UNL     1       5.117 -13.943  15.551  1.00  0.00     0.037 A 
BRANCH  51  65
ATOM     65  C   UNL     1       7.710 -16.447  10.536  1.00  0.00     0.057 A 
ATOM     66  C   UNL     1       9.082 -16.639  10.325  1.00  0.00     0.134 A 
ATOM     67  C   UNL     1       6.844 -17.465  10.117  1.00  0.00     0.134 A 
ATOM     68  F   UNL     1       9.964 -15.697  10.692  1.00  0.00    -0.206 F 
ATOM     69  C   UNL     1       9.571 -17.787   9.698  1.00  0.00     0.040 A 
ATOM     70  C   UNL     1       7.323 -18.628   9.510  1.00  0.00     0.040 A 
ATOM     71  F   UNL     1       5.519 -17.348  10.295  1.00  0.00    -0.206 F 
ATOM     72  C   UNL     1       8.690 -18.788   9.294  1.00  0.00     0.006 A 
ENDBRANCH  51  65
BRANCH  52  73
ATOM     73  C   UNL     1       4.000  -8.090  14.516  1.00  0.00     0.057 A 
ATOM     74  C   UNL     1       4.663  -7.413  15.546  1.00  0.00     0.134 A 
ATOM     75  C   UNL     1       2.791  -7.552  14.061  1.00  0.00     0.134 A 
ATOM     76  F   UNL     1       5.817  -7.892  16.034  1.00  0.00    -0.206 F 
ATOM     77  C   UNL     1       4.137  -6.251  16.113  1.00  0.00     0.040 A 
ATOM     78  C   UNL     1       2.264  -6.380  14.605  1.00  0.00     0.040 A 
ATOM     79  F   UNL     1       2.113  -8.152  13.071  1.00  0.00    -0.206 F 
ATOM     80  C   UNL     1       2.936  -5.729  15.638  1.00  0.00     0.006 A 
ENDBRANCH  52  73
BRANCH  64  81
ATOM     81  C   UNL     1       4.789 -14.587  16.863  1.00  0.00     0.057 A 
ATOM     82  C   UNL     1       3.471 -14.905  17.217  1.00  0.00     0.134 A 
ATOM     83  C   UNL     1       5.803 -14.915  17.771  1.00  0.00     0.134 A 
ATOM     84  F   UNL     1       2.455 -14.603  16.395  1.00  0.00    -0.206 F 
ATOM     85  C   UNL     1       3.172 -15.507  18.440  1.00  0.00     0.040 A 
ATOM     86  C   UNL     1       5.518 -15.536  18.988  1.00  0.00     0.040 A 
ATOM     87  F   UNL     1       7.085 -14.642  17.488  1.00  0.00    -0.206 F 
ATOM     88  C   UNL     1       4.198 -15.829  19.327  1.00  0.00     0.006 A 
ENDBRANCH  64  81
ENDBRANCH  38  39
ENDBRANCH  30  33
ENDBRANCH  28  29
ENDBRANCH  27  28
ENDBRANCH   1  27
TORSDOF 14
