REMARK SMILES C[C@@H]1[C@@H](C(=O)NCCCNC(=O)c2ccc(-c3c4nc(c(-c5c(F)cccc5F)c5ccc([nH]5)c(-c5c(F)cccc5F)c5nc(c(-c6c(F)cccc6F)c6ccc3[nH]6)C=C5)C=C4)cc2)CCN1C(=O)N1CCC[C@H]2CCC[C@@H]21
REMARK SMILES IDX 8 1 7 2 6 3 4 4 5 5 3 7 1 8 2 9 69 10 67 11 68 12 70 13
REMARK SMILES IDX 71 14 72 15 73 16 80 17 74 18 76 19 79 20 75 21 77 22 78 23
REMARK SMILES IDX 9 24 10 25 11 26 12 28 13 29 14 30 66 31 15 32 65 33 16 34
REMARK SMILES IDX 17 35 18 36 59 37 19 38 64 39 58 40 60 41 20 42 63 43 57 44
REMARK SMILES IDX 56 45 21 47 47 48 30 49 46 50 31 51 34 52 45 53 61 54 32 55
REMARK SMILES IDX 33 56 44 58 62 59 35 60 22 61 23 62 28 63 24 64 25 65 27 66
REMARK SMILES IDX 29 67 26 68 48 69 49 70 54 71 50 72 51 73 53 74 55 75 52 76
REMARK SMILES IDX 36 77 37 78 42 79 38 80 39 81 41 82 43 83 40 84
REMARK H PARENT 6 6 10 27 60 46 34 57
REMARK Flexibility Score: inf
ROOT
ATOM      1  C   UNL     1      -2.939   4.096  -1.175  1.00  0.00     0.042 C 
ENDROOT
BRANCH   1   2
ATOM      2  C   UNL     1      -2.619   2.659  -0.814  1.00  0.00     0.117 C 
BRANCH   2   3
ATOM      3  N   UNL     1      -1.835   1.965  -1.818  1.00  0.00    -0.356 N 
ATOM      4  C   UNL     1      -0.798   1.093  -1.655  1.00  0.00     0.225 C 
ATOM      5  O   UNL     1      -0.304   0.607  -2.672  1.00  0.00    -0.275 OA
ATOM      6  H   UNL     1      -2.087   2.150  -2.752  1.00  0.00     0.163 HD
BRANCH   4   7
ATOM      7  C   UNL     1      -0.233   0.860  -0.259  1.00  0.00     0.102 C 
ATOM      8  C   UNL     1       1.921   0.201   0.802  1.00  0.00     0.032 C 
ATOM      9  C   UNL     1       0.887  -0.209  -0.255  1.00  0.00     0.096 C 
ATOM     10  N   UNL     1       0.180  -1.468   0.069  1.00  0.00    -0.321 N 
ATOM     11  C   UNL     1      -1.225   0.292   0.762  1.00  0.00     0.037 C 
ATOM     12  C   UNL     1      -1.166  -1.200   0.528  1.00  0.00     0.122 C 
BRANCH  10  13
ATOM     13  C   UNL     1       0.406  -2.737  -0.444  1.00  0.00     0.320 C 
ATOM     14  O   UNL     1      -0.458  -3.614  -0.404  1.00  0.00    -0.248 OA
BRANCH  13  15
ATOM     15  N   UNL     1       1.586  -2.925  -1.111  1.00  0.00    -0.321 N 
ATOM     16  C   UNL     1       2.870  -2.874  -0.429  1.00  0.00     0.121 C 
ATOM     17  C   UNL     1       1.645  -3.628  -2.378  1.00  0.00     0.090 C 
ATOM     18  C   UNL     1       3.908  -2.145  -1.286  1.00  0.00     0.022 C 
ATOM     19  C   UNL     1       2.544  -2.797  -3.297  1.00  0.00     0.012 C 
ATOM     20  C   UNL     1       0.391  -3.789  -3.229  1.00  0.00     0.025 C 
ATOM     21  C   UNL     1       3.957  -2.696  -2.724  1.00  0.00     0.007 C 
ATOM     22  C   UNL     1       2.386  -3.482  -4.643  1.00  0.00     0.006 C 
ATOM     23  C   UNL     1       0.926  -3.956  -4.658  1.00  0.00     0.002 C 
ENDBRANCH  13  15
ENDBRANCH  10  13
ENDBRANCH   4   7
ENDBRANCH   2   3
ENDBRANCH   1   2
BRANCH   1  24
ATOM     24  C   UNL     1      -3.701   4.271  -2.478  1.00  0.00     0.118 C 
BRANCH  24  25
ATOM     25  N   UNL     1      -5.032   3.680  -2.458  1.00  0.00    -0.352 N 
ATOM     26  C   UNL     1      -6.276   4.270  -2.489  1.00  0.00     0.251 C 
ATOM     27  H   UNL     1      -5.045   2.697  -2.415  1.00  0.00     0.163 HD
ATOM     28  O   UNL     1      -7.277   3.586  -2.322  1.00  0.00    -0.269 OA
BRANCH  26  29
ATOM     29  C   UNL     1      -6.408   5.732  -2.680  1.00  0.00     0.039 A 
ATOM     30  C   UNL     1      -7.344   6.432  -1.914  1.00  0.00     0.014 A 
ATOM     31  C   UNL     1      -5.614   6.418  -3.600  1.00  0.00     0.014 A 
ATOM     32  C   UNL     1      -7.412   7.825  -2.003  1.00  0.00     0.010 A 
ATOM     33  C   UNL     1      -5.599   7.808  -3.601  1.00  0.00     0.010 A 
ATOM     34  C   UNL     1      -6.501   8.530  -2.807  1.00  0.00    -0.014 A 
BRANCH  34  35
ATOM     35  C   UNL     1      -6.478  10.015  -2.840  1.00  0.00     0.031 A 
ATOM     36  C   UNL     1      -6.709  10.747  -4.136  1.00  0.00     0.074 A 
ATOM     37  C   UNL     1      -6.176  10.706  -1.722  1.00  0.00     0.049 A 
ATOM     38  N   UNL     1      -6.644  12.030  -4.385  1.00  0.00    -0.248 NA
ATOM     39  C   UNL     1      -7.024   9.924  -5.315  1.00  0.00     0.031 C 
ATOM     40  C   UNL     1      -5.879  10.118  -0.414  1.00  0.00     0.029 A 
ATOM     41  N   UNL     1      -6.059  12.058  -1.510  1.00  0.00    -0.354 N 
ATOM     42  C   UNL     1      -6.891  12.163  -5.746  1.00  0.00     0.074 A 
ATOM     43  C   UNL     1      -7.043  10.829  -6.281  1.00  0.00     0.031 C 
ATOM     44  C   UNL     1      -5.648  11.102   0.469  1.00  0.00     0.029 A 
ATOM     45  C   UNL     1      -5.732  12.387  -0.216  1.00  0.00     0.049 A 
ATOM     46  H   UNL     1      -6.196  12.728  -2.218  1.00  0.00     0.167 HD
ATOM     47  C   UNL     1      -7.012  13.295  -6.479  1.00  0.00     0.037 A 
ATOM     48  C   UNL     1      -5.516  13.589   0.352  1.00  0.00     0.037 A 
ATOM     49  C   UNL     1      -6.887  14.623  -5.940  1.00  0.00     0.049 A 
ATOM     50  C   UNL     1      -5.641  14.831  -0.487  1.00  0.00     0.074 A 
ATOM     51  C   UNL     1      -7.048  15.835  -6.589  1.00  0.00     0.029 A 
ATOM     52  N   UNL     1      -6.569  14.914  -4.622  1.00  0.00    -0.354 N 
ATOM     53  N   UNL     1      -5.941  14.944  -1.758  1.00  0.00    -0.248 NA
ATOM     54  C   UNL     1      -5.400  16.113   0.189  1.00  0.00     0.031 C 
ATOM     55  C   UNL     1      -6.777  16.859  -5.676  1.00  0.00     0.029 A 
ATOM     56  C   UNL     1      -6.505  16.286  -4.444  1.00  0.00     0.049 A 
ATOM     57  H   UNL     1      -6.412  14.245  -3.918  1.00  0.00     0.167 HD
ATOM     58  C   UNL     1      -5.959  16.306  -2.026  1.00  0.00     0.074 A 
ATOM     59  C   UNL     1      -5.652  16.980  -0.781  1.00  0.00     0.031 C 
ATOM     60  C   UNL     1      -6.208  16.943  -3.196  1.00  0.00     0.037 A 
BRANCH  47  61
ATOM     61  C   UNL     1      -7.301  13.143  -7.946  1.00  0.00     0.057 A 
ATOM     62  C   UNL     1      -8.533  12.662  -8.411  1.00  0.00     0.134 A 
ATOM     63  C   UNL     1      -6.349  13.510  -8.905  1.00  0.00     0.134 A 
ATOM     64  F   UNL     1      -9.485  12.281  -7.546  1.00  0.00    -0.206 F 
ATOM     65  C   UNL     1      -8.796  12.524  -9.775  1.00  0.00     0.040 A 
ATOM     66  C   UNL     1      -6.612  13.405 -10.272  1.00  0.00     0.040 A 
ATOM     67  F   UNL     1      -5.151  13.983  -8.531  1.00  0.00    -0.206 F 
ATOM     68  C   UNL     1      -7.835  12.904 -10.710  1.00  0.00     0.006 A 
ENDBRANCH  47  61
BRANCH  48  69
ATOM     69  C   UNL     1      -5.183  13.682   1.797  1.00  0.00     0.057 A 
ATOM     70  C   UNL     1      -6.086  14.239   2.711  1.00  0.00     0.134 A 
ATOM     71  C   UNL     1      -3.954  13.235   2.298  1.00  0.00     0.134 A 
ATOM     72  F   UNL     1      -7.272  14.702   2.290  1.00  0.00    -0.206 F 
ATOM     73  C   UNL     1      -5.772  14.369   4.065  1.00  0.00     0.040 A 
ATOM     74  C   UNL     1      -3.638  13.333   3.655  1.00  0.00     0.040 A 
ATOM     75  F   UNL     1      -3.048  12.684   1.478  1.00  0.00    -0.206 F 
ATOM     76  C   UNL     1      -4.545  13.911   4.541  1.00  0.00     0.006 A 
ENDBRANCH  48  69
BRANCH  60  77
ATOM     77  C   UNL     1      -6.202  18.444  -3.179  1.00  0.00     0.057 A 
ATOM     78  C   UNL     1      -5.020  19.181  -3.038  1.00  0.00     0.134 A 
ATOM     79  C   UNL     1      -7.394  19.161  -3.348  1.00  0.00     0.134 A 
ATOM     80  F   UNL     1      -3.846  18.557  -2.861  1.00  0.00    -0.206 F 
ATOM     81  C   UNL     1      -5.026  20.577  -3.040  1.00  0.00     0.040 A 
ATOM     82  C   UNL     1      -7.410  20.556  -3.382  1.00  0.00     0.040 A 
ATOM     83  F   UNL     1      -8.562  18.517  -3.498  1.00  0.00    -0.206 F 
ATOM     84  C   UNL     1      -6.224  21.268  -3.221  1.00  0.00     0.006 A 
ENDBRANCH  60  77
ENDBRANCH  34  35
ENDBRANCH  26  29
ENDBRANCH  24  25
ENDBRANCH   1  24
TORSDOF 12
