REMARK SMILES CCN(CC)C(=O)[C@H](C)SCC(=O)NCCCNC(=O)c1ccc(-c2c3nc(c(-c4c(F)cccc4F)c4ccc([nH]4)c(-c4c(F)cccc4F)c4nc(c(-c5c(F)cccc5F)c5ccc2[nH]5)C=C4)C=C3)cc1
REMARK SMILES IDX 15 1 14 2 12 3 13 4 11 6 10 7 8 8 9 9 6 10 3 11 7 12 2 13
REMARK SMILES IDX 1 14 4 15 5 16 16 17 17 18 18 19 19 20 20 22 21 23 22 24
REMARK SMILES IDX 74 25 23 26 73 27 24 28 25 29 26 30 67 31 27 32 72 33 66 34
REMARK SMILES IDX 68 35 28 36 71 37 65 38 64 39 29 41 55 42 38 43 54 44 39 45
REMARK SMILES IDX 42 46 53 47 69 48 40 49 41 50 52 52 70 53 43 54 30 55 31 56
REMARK SMILES IDX 36 57 32 58 33 59 35 60 37 61 34 62 56 63 57 64 62 65 58 66
REMARK SMILES IDX 59 67 61 68 63 69 60 70 44 71 45 72 50 73 46 74 47 75 49 76
REMARK SMILES IDX 51 77 48 78
REMARK H PARENT 14 5 18 21 68 40 42 51
REMARK Flexibility Score: inf
ROOT
ATOM      1  C   UNL     1       0.967   1.783   7.949  1.00  0.00     0.117 C 
ENDROOT
BRANCH   1   2
ATOM      2  N   UNL     1       0.017   1.900   6.857  1.00  0.00    -0.355 N 
ATOM      3  C   UNL     1      -0.093   1.196   5.692  1.00  0.00     0.230 C 
ATOM      4  O   UNL     1      -1.023   1.483   4.929  1.00  0.00    -0.274 OA
ATOM      5  H   UNL     1      -0.660   2.604   6.977  1.00  0.00     0.163 HD
BRANCH   3   6
ATOM      6  C   UNL     1       0.811   0.020   5.377  1.00  0.00     0.170 C 
BRANCH   6   7
ATOM      7  S   UNL     1       2.596   0.360   5.253  1.00  0.00    -0.139 SA
BRANCH   7   8
ATOM      8  C   UNL     1       2.769   1.344   3.703  1.00  0.00     0.133 C 
ATOM      9  C   UNL     1       2.230   0.598   2.489  1.00  0.00     0.030 C 
BRANCH   8  10
ATOM     10  C   UNL     1       2.191   2.765   3.802  1.00  0.00     0.235 C 
ATOM     11  N   UNL     1       2.505   3.662   2.780  1.00  0.00    -0.342 N 
ATOM     12  O   UNL     1       1.468   3.138   4.723  1.00  0.00    -0.274 OA
BRANCH  11  13
ATOM     13  C   UNL     1       1.605   4.805   2.603  1.00  0.00     0.116 C 
ATOM     14  C   UNL     1       0.274   4.365   2.001  1.00  0.00     0.027 C 
ENDBRANCH  11  13
BRANCH  11  15
ATOM     15  C   UNL     1       3.868   3.781   2.268  1.00  0.00     0.116 C 
ATOM     16  C   UNL     1       4.807   4.332   3.336  1.00  0.00     0.027 C 
ENDBRANCH  11  15
ENDBRANCH   8  10
ENDBRANCH   7   8
ENDBRANCH   6   7
ENDBRANCH   3   6
ENDBRANCH   1   2
BRANCH   1  17
ATOM     17  C   UNL     1       2.164   2.736   7.862  1.00  0.00     0.042 C 
BRANCH  17  18
ATOM     18  C   UNL     1       1.825   4.221   7.755  1.00  0.00     0.118 C 
BRANCH  18  19
ATOM     19  N   UNL     1       1.264   4.760   8.983  1.00  0.00    -0.352 N 
ATOM     20  C   UNL     1       1.774   5.635   9.909  1.00  0.00     0.251 C 
ATOM     21  H   UNL     1       0.356   4.439   9.188  1.00  0.00     0.163 HD
ATOM     22  O   UNL     1       1.165   5.801  10.964  1.00  0.00    -0.269 OA
BRANCH  20  23
ATOM     23  C   UNL     1       3.042   6.374   9.688  1.00  0.00     0.039 A 
ATOM     24  C   UNL     1       3.890   6.567  10.787  1.00  0.00     0.014 A 
ATOM     25  C   UNL     1       3.373   6.955   8.462  1.00  0.00     0.014 A 
ATOM     26  C   UNL     1       5.081   7.288  10.646  1.00  0.00     0.010 A 
ATOM     27  C   UNL     1       4.592   7.624   8.305  1.00  0.00     0.010 A 
ATOM     28  C   UNL     1       5.459   7.799   9.395  1.00  0.00    -0.014 A 
BRANCH  28  29
ATOM     29  C   UNL     1       6.756   8.507   9.216  1.00  0.00     0.031 A 
ATOM     30  C   UNL     1       6.792   9.968   8.858  1.00  0.00     0.074 A 
ATOM     31  C   UNL     1       7.912   7.823   9.330  1.00  0.00     0.049 A 
ATOM     32  N   UNL     1       7.825  10.730   8.589  1.00  0.00    -0.248 NA
ATOM     33  C   UNL     1       5.498  10.661   8.772  1.00  0.00     0.031 C 
ATOM     34  C   UNL     1       8.023   6.399   9.649  1.00  0.00     0.029 A 
ATOM     35  N   UNL     1       9.214   8.232   9.180  1.00  0.00    -0.354 N 
ATOM     36  C   UNL     1       7.305  11.983   8.290  1.00  0.00     0.074 A 
ATOM     37  C   UNL     1       5.864  11.870   8.372  1.00  0.00     0.031 C 
ATOM     38  C   UNL     1       9.321   6.057   9.686  1.00  0.00     0.029 A 
ATOM     39  C   UNL     1      10.132   7.225   9.357  1.00  0.00     0.049 A 
ATOM     40  H   UNL     1       9.466   9.159   8.965  1.00  0.00     0.167 HD
ATOM     41  C   UNL     1       7.967  13.128   7.991  1.00  0.00     0.037 A 
ATOM     42  C   UNL     1      11.475   7.235   9.254  1.00  0.00     0.037 A 
ATOM     43  C   UNL     1       9.401  13.252   7.932  1.00  0.00     0.049 A 
ATOM     44  C   UNL     1      12.184   8.513   8.904  1.00  0.00     0.074 A 
ATOM     45  C   UNL     1      10.159  14.384   7.684  1.00  0.00     0.029 A 
ATOM     46  N   UNL     1      10.294  12.210   8.125  1.00  0.00    -0.354 N 
ATOM     47  N   UNL     1      11.680   9.699   8.666  1.00  0.00    -0.248 NA
ATOM     48  C   UNL     1      13.650   8.454   8.809  1.00  0.00     0.031 C 
ATOM     49  C   UNL     1      11.510  14.019   7.690  1.00  0.00     0.029 A 
ATOM     50  C   UNL     1      11.594  12.668   7.983  1.00  0.00     0.049 A 
ATOM     51  H   UNL     1      10.042  11.281   8.333  1.00  0.00     0.167 HD
ATOM     52  C   UNL     1      12.765  10.531   8.423  1.00  0.00     0.074 A 
ATOM     53  C   UNL     1      13.956   9.717   8.551  1.00  0.00     0.031 C 
ATOM     54  C   UNL     1      12.773  11.852   8.121  1.00  0.00     0.037 A 
BRANCH  41  55
ATOM     55  C   UNL     1       7.142  14.348   7.703  1.00  0.00     0.057 A 
ATOM     56  C   UNL     1       6.457  15.031   8.716  1.00  0.00     0.134 A 
ATOM     57  C   UNL     1       7.066  14.872   6.405  1.00  0.00     0.134 A 
ATOM     58  F   UNL     1       6.482  14.577   9.978  1.00  0.00    -0.206 F 
ATOM     59  C   UNL     1       5.706  16.177   8.445  1.00  0.00     0.040 A 
ATOM     60  C   UNL     1       6.339  16.030   6.127  1.00  0.00     0.040 A 
ATOM     61  F   UNL     1       7.707  14.272   5.390  1.00  0.00    -0.206 F 
ATOM     62  C   UNL     1       5.651  16.683   7.148  1.00  0.00     0.006 A 
ENDBRANCH  41  55
BRANCH  42  63
ATOM     63  C   UNL     1      12.246   5.992   9.501  1.00  0.00     0.057 A 
ATOM     64  C   UNL     1      13.035   5.850  10.648  1.00  0.00     0.134 A 
ATOM     65  C   UNL     1      12.224   4.925   8.595  1.00  0.00     0.134 A 
ATOM     66  F   UNL     1      13.114   6.848  11.540  1.00  0.00    -0.206 F 
ATOM     67  C   UNL     1      13.789   4.698  10.879  1.00  0.00     0.040 A 
ATOM     68  C   UNL     1      12.954   3.758   8.825  1.00  0.00     0.040 A 
ATOM     69  F   UNL     1      11.484   4.999   7.479  1.00  0.00    -0.206 F 
ATOM     70  C   UNL     1      13.745   3.645   9.967  1.00  0.00     0.006 A 
ENDBRANCH  42  63
BRANCH  54  71
ATOM     71  C   UNL     1      14.110  12.509   7.944  1.00  0.00     0.057 A 
ATOM     72  C   UNL     1      14.895  12.291   6.805  1.00  0.00     0.134 A 
ATOM     73  C   UNL     1      14.603  13.394   8.912  1.00  0.00     0.134 A 
ATOM     74  F   UNL     1      14.486  11.444   5.849  1.00  0.00    -0.206 F 
ATOM     75  C   UNL     1      16.133  12.917   6.643  1.00  0.00     0.040 A 
ATOM     76  C   UNL     1      15.828  14.042   8.751  1.00  0.00     0.040 A 
ATOM     77  F   UNL     1      13.897  13.650  10.023  1.00  0.00    -0.206 F 
ATOM     78  C   UNL     1      16.599  13.800   7.616  1.00  0.00     0.006 A 
ENDBRANCH  54  71
ENDBRANCH  28  29
ENDBRANCH  20  23
ENDBRANCH  18  19
ENDBRANCH  17  18
ENDBRANCH   1  17
TORSDOF 15
