REMARK SMILES COc1cc(/C=C2\SC(=S)N(CC(=O)NCCCNC(=O)c3ccc(-c4c5nc(c(-c6c(F)cccc6F)c6ccc([nH]6)c(-c6c(F)cccc6F)c6nc(c(-c7c(F)cccc7F)c7ccc4[nH]7)C=C6)C=C5)cc3)C2=O)cc2c1OCO2
REMARK SMILES IDX 16 1 15 2 13 3 14 4 12 6 11 7 6 8 7 9 8 10 76 11 9 12 77 13
REMARK SMILES IDX 10 14 5 15 3 16 4 17 80 18 79 19 81 20 78 21 83 22 82 23
REMARK SMILES IDX 2 24 1 25 17 26 18 27 19 28 20 29 21 31 22 32 23 33 75 34
REMARK SMILES IDX 24 35 74 36 25 37 26 38 27 39 68 40 28 41 73 42 67 43 69 44
REMARK SMILES IDX 29 45 72 46 66 47 65 48 30 50 56 51 39 52 55 53 40 54 43 55
REMARK SMILES IDX 54 56 70 57 41 58 42 59 53 61 71 62 44 63 31 64 32 65 37 66
REMARK SMILES IDX 33 67 34 68 36 69 38 70 35 71 57 72 58 73 63 74 59 75 60 76
REMARK SMILES IDX 62 77 64 78 61 79 45 80 46 81 51 82 47 83 48 84 50 85 52 86
REMARK SMILES IDX 49 87
REMARK H PARENT 15 5 19 30 69 49 43 60
REMARK Flexibility Score: inf
ROOT
ATOM      1  C   UNL     1      -3.038  -9.077  -4.054  1.00  0.00     0.117 C 
ENDROOT
BRANCH   1   2
ATOM      2  N   UNL     1      -4.078  -8.403  -4.803  1.00  0.00    -0.354 N 
ATOM      3  C   UNL     1      -4.028  -7.771  -6.009  1.00  0.00     0.240 C 
ATOM      4  O   UNL     1      -5.107  -7.545  -6.564  1.00  0.00    -0.273 OA
ATOM      5  H   UNL     1      -4.963  -8.400  -4.371  1.00  0.00     0.163 HD
BRANCH   3   6
ATOM      6  C   UNL     1      -2.705  -7.508  -6.739  1.00  0.00     0.227 C 
BRANCH   6   7
ATOM      7  N   UNL     1      -1.690  -6.822  -5.941  1.00  0.00    -0.283 N 
ATOM      8  C   UNL     1      -0.827  -3.708  -4.311  1.00  0.00     0.029 C 
ATOM      9  C   UNL     1      -0.805  -4.955  -4.803  1.00  0.00     0.081 C 
ATOM     10  S   UNL     1       0.446  -6.124  -4.690  1.00  0.00    -0.054 SA
ATOM     11  C   UNL     1      -1.961  -5.522  -5.547  1.00  0.00     0.266 C 
ATOM     12  C   UNL     1      -0.415  -7.282  -5.693  1.00  0.00     0.148 C 
ATOM     13  O   UNL     1      -2.987  -4.902  -5.773  1.00  0.00    -0.268 OA
ATOM     14  S   UNL     1       0.312  -8.685  -6.226  1.00  0.00    -0.052 S 
BRANCH   8  15
ATOM     15  C   UNL     1       0.242  -3.064  -3.538  1.00  0.00    -0.017 A 
ATOM     16  C   UNL     1       0.914  -1.911  -1.485  1.00  0.00     0.165 A 
ATOM     17  C   UNL     1      -0.066  -2.532  -2.269  1.00  0.00     0.058 A 
ATOM     18  C   UNL     1       2.206  -1.873  -1.976  1.00  0.00     0.207 A 
ATOM     19  C   UNL     1       2.503  -2.378  -3.222  1.00  0.00     0.170 A 
ATOM     20  O   UNL     1       3.319  -1.397  -1.351  1.00  0.00    -0.450 OA
ATOM     21  C   UNL     1       1.546  -2.952  -4.034  1.00  0.00     0.059 A 
ATOM     22  O   UNL     1       3.822  -2.265  -3.537  1.00  0.00    -0.453 OA
ATOM     23  C   UNL     1       4.342  -1.712  -2.314  1.00  0.00     0.468 C 
BRANCH  16  24
ATOM     24  O   UNL     1       0.503  -1.457  -0.266  1.00  0.00    -0.493 OA
ATOM     25  C   UNL     1       1.028  -0.180   0.085  1.00  0.00     0.278 C 
ENDBRANCH  16  24
ENDBRANCH   8  15
ENDBRANCH   6   7
ENDBRANCH   3   6
ENDBRANCH   1   2
BRANCH   1  26
ATOM     26  C   UNL     1      -2.646  -8.329  -2.785  1.00  0.00     0.042 C 
BRANCH  26  27
ATOM     27  C   UNL     1      -3.741  -8.285  -1.720  1.00  0.00     0.118 C 
BRANCH  27  28
ATOM     28  N   UNL     1      -4.084  -9.604  -1.206  1.00  0.00    -0.352 N 
ATOM     29  C   UNL     1      -4.056 -10.102   0.074  1.00  0.00     0.251 C 
ATOM     30  H   UNL     1      -4.386 -10.245  -1.889  1.00  0.00     0.163 HD
ATOM     31  O   UNL     1      -4.231 -11.304   0.255  1.00  0.00    -0.269 OA
BRANCH  29  32
ATOM     32  C   UNL     1      -3.797  -9.220   1.233  1.00  0.00     0.039 A 
ATOM     33  C   UNL     1      -2.961  -9.686   2.253  1.00  0.00     0.014 A 
ATOM     34  C   UNL     1      -4.393  -7.962   1.343  1.00  0.00     0.014 A 
ATOM     35  C   UNL     1      -2.660  -8.862   3.341  1.00  0.00     0.010 A 
ATOM     36  C   UNL     1      -4.042  -7.115   2.394  1.00  0.00     0.010 A 
ATOM     37  C   UNL     1      -3.163  -7.552   3.397  1.00  0.00    -0.014 A 
BRANCH  37  38
ATOM     38  C   UNL     1      -2.744  -6.615   4.471  1.00  0.00     0.031 A 
ATOM     39  C   UNL     1      -3.742  -6.085   5.461  1.00  0.00     0.074 A 
ATOM     40  C   UNL     1      -1.469  -6.181   4.504  1.00  0.00     0.049 A 
ATOM     41  N   UNL     1      -3.573  -5.199   6.410  1.00  0.00    -0.248 NA
ATOM     42  C   UNL     1      -5.116  -6.601   5.359  1.00  0.00     0.031 C 
ATOM     43  C   UNL     1      -0.415  -6.583   3.570  1.00  0.00     0.029 A 
ATOM     44  N   UNL     1      -0.846  -5.293   5.345  1.00  0.00    -0.354 N 
ATOM     45  C   UNL     1      -4.817  -5.042   7.008  1.00  0.00     0.074 A 
ATOM     46  C   UNL     1      -5.741  -5.892   6.288  1.00  0.00     0.031 C 
ATOM     47  C   UNL     1       0.725  -5.955   3.897  1.00  0.00     0.029 A 
ATOM     48  C   UNL     1       0.475  -5.078   5.036  1.00  0.00     0.049 A 
ATOM     49  H   UNL     1      -1.302  -4.853   6.098  1.00  0.00     0.167 HD
ATOM     50  C   UNL     1      -5.153  -4.271   8.071  1.00  0.00     0.037 A 
ATOM     51  C   UNL     1       1.382  -4.256   5.597  1.00  0.00     0.037 A 
ATOM     52  C   UNL     1      -4.229  -3.439   8.797  1.00  0.00     0.049 A 
ATOM     53  C   UNL     1       0.980  -3.404   6.766  1.00  0.00     0.074 A 
ATOM     54  C   UNL     1      -4.463  -2.674   9.927  1.00  0.00     0.029 A 
ATOM     55  N   UNL     1      -2.896  -3.258   8.462  1.00  0.00    -0.354 N 
ATOM     56  N   UNL     1      -0.184  -3.316   7.363  1.00  0.00    -0.248 NA
ATOM     57  C   UNL     1       2.018  -2.536   7.340  1.00  0.00     0.031 C 
ATOM     58  C   UNL     1      -3.282  -1.995  10.249  1.00  0.00     0.029 A 
ATOM     59  C   UNL     1      -2.301  -2.373   9.348  1.00  0.00     0.049 A 
ATOM     60  H   UNL     1      -2.439  -3.694   7.707  1.00  0.00     0.167 HD
ATOM     61  C   UNL     1      -0.014  -2.402   8.394  1.00  0.00     0.074 A 
ATOM     62  C   UNL     1       1.370  -1.976   8.352  1.00  0.00     0.031 C 
ATOM     63  C   UNL     1      -0.923  -1.955   9.294  1.00  0.00     0.037 A 
BRANCH  50  64
ATOM     64  C   UNL     1      -6.587  -4.292   8.516  1.00  0.00     0.057 A 
ATOM     65  C   UNL     1      -7.146  -5.407   9.153  1.00  0.00     0.134 A 
ATOM     66  C   UNL     1      -7.405  -3.167   8.346  1.00  0.00     0.134 A 
ATOM     67  F   UNL     1      -6.419  -6.519   9.338  1.00  0.00    -0.206 F 
ATOM     68  C   UNL     1      -8.473  -5.412   9.585  1.00  0.00     0.040 A 
ATOM     69  C   UNL     1      -8.726  -3.151   8.797  1.00  0.00     0.040 A 
ATOM     70  F   UNL     1      -6.931  -2.062   7.751  1.00  0.00    -0.206 F 
ATOM     71  C   UNL     1      -9.266  -4.279   9.413  1.00  0.00     0.006 A 
ENDBRANCH  50  64
BRANCH  51  72
ATOM     72  C   UNL     1       2.766  -4.208   5.064  1.00  0.00     0.057 A 
ATOM     73  C   UNL     1       3.838  -4.737   5.792  1.00  0.00     0.134 A 
ATOM     74  C   UNL     1       3.051  -3.632   3.821  1.00  0.00     0.134 A 
ATOM     75  F   UNL     1       3.629  -5.283   6.999  1.00  0.00    -0.206 F 
ATOM     76  C   UNL     1       5.146  -4.683   5.310  1.00  0.00     0.040 A 
ATOM     77  C   UNL     1       4.351  -3.594   3.314  1.00  0.00     0.040 A 
ATOM     78  F   UNL     1       2.066  -3.110   3.075  1.00  0.00    -0.206 F 
ATOM     79  C   UNL     1       5.404  -4.114   4.064  1.00  0.00     0.006 A 
ENDBRANCH  51  72
BRANCH  63  80
ATOM     80  C   UNL     1      -0.444  -0.970  10.319  1.00  0.00     0.057 A 
ATOM     81  C   UNL     1      -0.157   0.360   9.986  1.00  0.00     0.134 A 
ATOM     82  C   UNL     1      -0.296  -1.349  11.659  1.00  0.00     0.134 A 
ATOM     83  F   UNL     1      -0.265   0.782   8.717  1.00  0.00    -0.206 F 
ATOM     84  C   UNL     1       0.282   1.273  10.946  1.00  0.00     0.040 A 
ATOM     85  C   UNL     1       0.118  -0.439  12.632  1.00  0.00     0.040 A 
ATOM     86  F   UNL     1      -0.560  -2.606  12.045  1.00  0.00    -0.206 F 
ATOM     87  C   UNL     1       0.414   0.875  12.276  1.00  0.00     0.006 A 
ENDBRANCH  63  80
ENDBRANCH  37  38
ENDBRANCH  29  32
ENDBRANCH  27  28
ENDBRANCH  26  27
ENDBRANCH   1  26
TORSDOF 13
