REMARK SMILES C/C=C/C=C/C(=O)N[C@@H](C)CC(=O)NCCCNC(=O)c1ccc(-c2c3nc(c(-c4c(F)cccc4F)c4ccc([nH]4)c(-c4c(F)cccc4F)c4nc(c(-c5c(F)cccc5F)c5ccc2[nH]5)C=C4)C=C3)cc1
REMARK SMILES IDX 15 1 14 2 12 3 13 4 11 6 9 7 10 8 8 9 6 10 7 11 5 13 4 14
REMARK SMILES IDX 3 15 1 16 2 17 16 18 17 19 18 20 19 21 20 23 21 24 22 25
REMARK SMILES IDX 74 26 23 27 73 28 24 29 25 30 26 31 67 32 27 33 72 34 66 35
REMARK SMILES IDX 68 36 28 37 71 38 65 39 64 40 29 42 55 43 38 44 54 45 39 46
REMARK SMILES IDX 42 47 53 48 69 49 40 50 41 51 52 53 70 54 43 55 30 56 31 57
REMARK SMILES IDX 36 58 32 59 33 60 35 61 37 62 34 63 56 64 57 65 62 66 58 67
REMARK SMILES IDX 59 68 61 69 63 70 60 71 44 72 45 73 50 74 46 75 47 76 49 77
REMARK SMILES IDX 51 78 48 79
REMARK H PARENT 14 5 8 12 18 22 68 41 42 52
REMARK Flexibility Score: inf
ROOT
ATOM      1  C   UNL     1      -4.452  -4.983   4.301  1.00  0.00     0.117 C 
ENDROOT
BRANCH   1   2
ATOM      2  N   UNL     1      -4.071  -4.765   2.916  1.00  0.00    -0.356 N 
ATOM      3  C   UNL     1      -2.878  -4.979   2.296  1.00  0.00     0.222 C 
ATOM      4  O   UNL     1      -2.747  -4.599   1.131  1.00  0.00    -0.275 OA
ATOM      5  H   UNL     1      -4.784  -4.409   2.337  1.00  0.00     0.163 HD
BRANCH   3   6
ATOM      6  C   UNL     1      -1.749  -5.687   3.013  1.00  0.00     0.124 C 
BRANCH   6   7
ATOM      7  C   UNL     1      -0.620  -4.718   3.381  1.00  0.00     0.088 C 
ATOM      8  C   UNL     1       0.689  -5.487   3.567  1.00  0.00     0.031 C 
BRANCH   7   9
ATOM      9  N   UNL     1      -0.891  -4.002   4.631  1.00  0.00    -0.350 N 
ATOM     10  C   UNL     1      -0.968  -2.676   4.921  1.00  0.00     0.244 C 
ATOM     11  O   UNL     1      -1.237  -2.329   6.070  1.00  0.00    -0.270 OA
ATOM     12  H   UNL     1      -1.047  -4.591   5.405  1.00  0.00     0.164 HD
BRANCH  10  13
ATOM     13  C   UNL     1      -0.882  -1.650   3.862  1.00  0.00     0.071 C 
ATOM     14  C   UNL     1       0.083  -1.590   2.937  1.00  0.00     0.005 C 
BRANCH  14  15
ATOM     15  C   UNL     1       0.111  -0.575   1.910  1.00  0.00    -0.004 C 
ATOM     16  C   UNL     1       0.906   0.324  -0.285  1.00  0.00     0.035 C 
ATOM     17  C   UNL     1       0.872  -0.690   0.811  1.00  0.00    -0.030 C 
ENDBRANCH  14  15
ENDBRANCH  10  13
ENDBRANCH   7   9
ENDBRANCH   6   7
ENDBRANCH   3   6
ENDBRANCH   1   2
BRANCH   1  18
ATOM     18  C   UNL     1      -4.409  -3.686   5.100  1.00  0.00     0.042 C 
BRANCH  18  19
ATOM     19  C   UNL     1      -5.570  -2.743   4.818  1.00  0.00     0.118 C 
BRANCH  19  20
ATOM     20  N   UNL     1      -6.809  -3.204   5.422  1.00  0.00    -0.352 N 
ATOM     21  C   UNL     1      -7.538  -2.700   6.467  1.00  0.00     0.251 C 
ATOM     22  H   UNL     1      -7.187  -4.016   5.013  1.00  0.00     0.163 HD
ATOM     23  O   UNL     1      -8.434  -3.398   6.949  1.00  0.00    -0.269 OA
BRANCH  21  24
ATOM     24  C   UNL     1      -7.288  -1.351   7.032  1.00  0.00     0.039 A 
ATOM     25  C   UNL     1      -7.512  -1.155   8.400  1.00  0.00     0.014 A 
ATOM     26  C   UNL     1      -6.935  -0.258   6.235  1.00  0.00     0.014 A 
ATOM     27  C   UNL     1      -7.362   0.116   8.965  1.00  0.00     0.010 A 
ATOM     28  C   UNL     1      -6.703   0.992   6.814  1.00  0.00     0.010 A 
ATOM     29  C   UNL     1      -6.942   1.200   8.179  1.00  0.00    -0.014 A 
BRANCH  29  30
ATOM     30  C   UNL     1      -6.811   2.560   8.765  1.00  0.00     0.031 A 
ATOM     31  C   UNL     1      -7.714   3.675   8.305  1.00  0.00     0.074 A 
ATOM     32  C   UNL     1      -5.870   2.805   9.698  1.00  0.00     0.049 A 
ATOM     33  N   UNL     1      -7.739   4.930   8.682  1.00  0.00    -0.248 NA
ATOM     34  C   UNL     1      -8.704   3.344   7.268  1.00  0.00     0.031 C 
ATOM     35  C   UNL     1      -4.903   1.829  10.202  1.00  0.00     0.029 A 
ATOM     36  N   UNL     1      -5.575   3.954  10.389  1.00  0.00    -0.354 N 
ATOM     37  C   UNL     1      -8.729   5.536   7.918  1.00  0.00     0.074 A 
ATOM     38  C   UNL     1      -9.249   4.526   7.022  1.00  0.00     0.031 C 
ATOM     39  C   UNL     1      -4.142   2.412  11.143  1.00  0.00     0.029 A 
ATOM     40  C   UNL     1      -4.547   3.807  11.288  1.00  0.00     0.049 A 
ATOM     41  H   UNL     1      -6.054   4.803  10.252  1.00  0.00     0.167 HD
ATOM     42  C   UNL     1      -9.185   6.810   7.973  1.00  0.00     0.037 A 
ATOM     43  C   UNL     1      -3.996   4.695  12.137  1.00  0.00     0.037 A 
ATOM     44  C   UNL     1      -8.703   7.808   8.890  1.00  0.00     0.049 A 
ATOM     45  C   UNL     1      -4.531   6.098  12.192  1.00  0.00     0.074 A 
ATOM     46  C   UNL     1      -9.145   9.108   9.062  1.00  0.00     0.029 A 
ATOM     47  N   UNL     1      -7.673   7.612   9.796  1.00  0.00    -0.354 N 
ATOM     48  N   UNL     1      -5.507   6.639  11.503  1.00  0.00    -0.248 NA
ATOM     49  C   UNL     1      -3.891   7.014  13.148  1.00  0.00     0.031 C 
ATOM     50  C   UNL     1      -8.362   9.709  10.054  1.00  0.00     0.029 A 
ATOM     51  C   UNL     1      -7.456   8.772  10.521  1.00  0.00     0.049 A 
ATOM     52  H   UNL     1      -7.170   6.773   9.908  1.00  0.00     0.167 HD
ATOM     53  C   UNL     1      -5.613   7.947  11.957  1.00  0.00     0.074 A 
ATOM     54  C   UNL     1      -4.612   8.116  12.990  1.00  0.00     0.031 C 
ATOM     55  C   UNL     1      -6.462   8.922  11.552  1.00  0.00     0.037 A 
BRANCH  42  56
ATOM     56  C   UNL     1     -10.276   7.195   7.018  1.00  0.00     0.057 A 
ATOM     57  C   UNL     1     -11.591   6.741   7.182  1.00  0.00     0.134 A 
ATOM     58  C   UNL     1     -10.018   8.056   5.944  1.00  0.00     0.134 A 
ATOM     59  F   UNL     1     -11.901   5.904   8.184  1.00  0.00    -0.206 F 
ATOM     60  C   UNL     1     -12.607   7.111   6.299  1.00  0.00     0.040 A 
ATOM     61  C   UNL     1     -11.030   8.451   5.067  1.00  0.00     0.040 A 
ATOM     62  F   UNL     1      -8.782   8.531   5.734  1.00  0.00    -0.206 F 
ATOM     63  C   UNL     1     -12.328   7.974   5.241  1.00  0.00     0.006 A 
ENDBRANCH  42  56
BRANCH  43  64
ATOM     64  C   UNL     1      -2.890   4.277  13.033  1.00  0.00     0.057 A 
ATOM     65  C   UNL     1      -3.098   4.121  14.409  1.00  0.00     0.134 A 
ATOM     66  C   UNL     1      -1.603   4.036  12.542  1.00  0.00     0.134 A 
ATOM     67  F   UNL     1      -4.307   4.359  14.939  1.00  0.00    -0.206 F 
ATOM     68  C   UNL     1      -2.061   3.756  15.268  1.00  0.00     0.040 A 
ATOM     69  C   UNL     1      -0.561   3.649  13.386  1.00  0.00     0.040 A 
ATOM     70  F   UNL     1      -1.341   4.167  11.233  1.00  0.00    -0.206 F 
ATOM     71  C   UNL     1      -0.788   3.515  14.755  1.00  0.00     0.006 A 
ENDBRANCH  43  64
BRANCH  55  72
ATOM     72  C   UNL     1      -6.364  10.247  12.245  1.00  0.00     0.057 A 
ATOM     73  C   UNL     1      -5.314  11.136  11.986  1.00  0.00     0.134 A 
ATOM     74  C   UNL     1      -7.348  10.652  13.155  1.00  0.00     0.134 A 
ATOM     75  F   UNL     1      -4.333  10.800  11.135  1.00  0.00    -0.206 F 
ATOM     76  C   UNL     1      -5.236  12.375  12.623  1.00  0.00     0.040 A 
ATOM     77  C   UNL     1      -7.293  11.897  13.781  1.00  0.00     0.040 A 
ATOM     78  F   UNL     1      -8.384   9.848  13.440  1.00  0.00    -0.206 F 
ATOM     79  C   UNL     1      -6.231  12.761  13.519  1.00  0.00     0.006 A 
ENDBRANCH  55  72
ENDBRANCH  29  30
ENDBRANCH  21  24
ENDBRANCH  19  20
ENDBRANCH  18  19
ENDBRANCH   1  18
TORSDOF 14
