REMARK SMILES O=C(C[NH+]1CCC2(CC1)CC(=O)N2)NCCCNC(=O)c1ccc(-c2c3nc(c(-c4c(F)cccc4F)c4ccc([nH]4)c(-c4c(F)cccc4F)c4nc(c(-c5c(F)cccc5F)c5ccc2[nH]5)C=C4)C=C3)cc1
REMARK SMILES IDX 16 1 15 2 14 3 1 4 2 5 3 7 4 8 5 9 9 10 6 12 8 13 7 14 10 15
REMARK SMILES IDX 13 16 11 17 12 19 17 20 18 21 19 22 20 24 21 25 22 26 74 27
REMARK SMILES IDX 23 28 73 29 24 30 25 31 26 32 67 33 27 34 72 35 66 36 68 37
REMARK SMILES IDX 28 38 71 39 65 40 64 41 29 43 55 44 38 45 54 46 39 47 42 48
REMARK SMILES IDX 53 49 69 50 40 51 41 52 52 54 70 55 43 56 30 57 31 58 36 59
REMARK SMILES IDX 32 60 33 61 35 62 37 63 34 64 56 65 57 66 62 67 58 68 59 69
REMARK SMILES IDX 61 70 63 71 60 72 44 73 45 74 50 75 46 76 47 77 49 78 51 79
REMARK SMILES IDX 48 80
REMARK H PARENT 14 6 4 11 13 18 18 23 68 42 42 53
REMARK Flexibility Score: inf
ROOT
ATOM      1  C   UNL     1       2.529   1.361  -3.181  1.00  0.00     0.042 C 
ENDROOT
BRANCH   1   2
ATOM      2  C   UNL     1       2.271   0.040  -2.473  1.00  0.00     0.118 C 
BRANCH   2   3
ATOM      3  N   UNL     1       2.810   0.001  -1.129  1.00  0.00    -0.351 N 
ATOM      4  O   UNL     1       0.830  -0.590  -0.129  1.00  0.00    -0.269 OA
ATOM      5  C   UNL     1       2.041  -0.394  -0.057  1.00  0.00     0.275 C 
ATOM      6  H   UNL     1       3.747   0.263  -0.979  1.00  0.00     0.163 HD
BRANCH   5   7
ATOM      7  C   UNL     1       2.791  -0.538   1.267  1.00  0.00     0.363 C 
BRANCH   7   8
ATOM      8  N   UNL     1       4.112  -1.212   1.156  1.00  0.00    -0.327 N 
ATOM      9  C   UNL     1       4.658  -1.456   2.511  1.00  0.00     0.265 C 
ATOM     10  C   UNL     1       4.105  -2.482   0.406  1.00  0.00     0.265 C 
ATOM     11  H   UNL     1       4.698  -0.573   0.619  1.00  0.00     0.348 HD
ATOM     12  C   UNL     1       3.920  -2.547   3.307  1.00  0.00     0.090 C 
ATOM     13  C   UNL     1       3.310  -3.602   1.068  1.00  0.00     0.090 C 
ATOM     14  C   UNL     1       3.808  -3.831   2.489  1.00  0.00     0.059 C 
ATOM     15  C   UNL     1       3.128  -5.036   3.203  1.00  0.00     0.128 C 
ATOM     16  N   UNL     1       5.045  -4.608   2.537  1.00  0.00    -0.350 N 
ATOM     17  C   UNL     1       4.550  -5.606   3.302  1.00  0.00     0.222 C 
ATOM     18  H   UNL     1       5.936  -4.456   2.146  1.00  0.00     0.164 HD
ATOM     19  O   UNL     1       5.111  -6.533   3.845  1.00  0.00    -0.275 OA
ENDBRANCH   7   8
ENDBRANCH   5   7
ENDBRANCH   2   3
ENDBRANCH   1   2
BRANCH   1  20
ATOM     20  C   UNL     1       3.995   1.629  -3.496  1.00  0.00     0.118 C 
BRANCH  20  21
ATOM     21  N   UNL     1       4.558   0.682  -4.450  1.00  0.00    -0.352 N 
ATOM     22  C   UNL     1       5.227   0.906  -5.628  1.00  0.00     0.251 C 
ATOM     23  H   UNL     1       4.440  -0.266  -4.213  1.00  0.00     0.163 HD
ATOM     24  O   UNL     1       5.506  -0.040  -6.360  1.00  0.00    -0.269 OA
BRANCH  22  25
ATOM     25  C   UNL     1       5.595   2.280  -6.037  1.00  0.00     0.039 A 
ATOM     26  C   UNL     1       5.405   2.659  -7.370  1.00  0.00     0.014 A 
ATOM     27  C   UNL     1       6.142   3.184  -5.125  1.00  0.00     0.014 A 
ATOM     28  C   UNL     1       5.694   3.966  -7.770  1.00  0.00     0.010 A 
ATOM     29  C   UNL     1       6.367   4.504  -5.508  1.00  0.00     0.010 A 
ATOM     30  C   UNL     1       6.143   4.909  -6.833  1.00  0.00    -0.014 A 
BRANCH  30  31
ATOM     31  C   UNL     1       6.392   6.324  -7.206  1.00  0.00     0.031 A 
ATOM     32  C   UNL     1       7.781   6.890  -7.118  1.00  0.00     0.074 A 
ATOM     33  C   UNL     1       5.359   7.123  -7.533  1.00  0.00     0.049 A 
ATOM     34  N   UNL     1       8.180   8.130  -7.244  1.00  0.00    -0.248 NA
ATOM     35  C   UNL     1       8.862   5.937  -6.820  1.00  0.00     0.031 C 
ATOM     36  C   UNL     1       3.958   6.706  -7.624  1.00  0.00     0.029 A 
ATOM     37  N   UNL     1       5.326   8.463  -7.827  1.00  0.00    -0.354 N 
ATOM     38  C   UNL     1       9.549   8.111  -7.011  1.00  0.00     0.074 A 
ATOM     39  C   UNL     1       9.908   6.742  -6.705  1.00  0.00     0.031 C 
ATOM     40  C   UNL     1       3.205   7.766  -7.959  1.00  0.00     0.029 A 
ATOM     41  C   UNL     1       4.062   8.944  -8.067  1.00  0.00     0.049 A 
ATOM     42  H   UNL     1       6.133   9.027  -7.863  1.00  0.00     0.167 HD
ATOM     43  C   UNL     1      10.430   9.139  -7.060  1.00  0.00     0.037 A 
ATOM     44  C   UNL     1       3.638  10.195  -8.326  1.00  0.00     0.037 A 
ATOM     45  C   UNL     1      10.081  10.492  -7.403  1.00  0.00     0.049 A 
ATOM     46  C   UNL     1       4.637  11.316  -8.388  1.00  0.00     0.074 A 
ATOM     47  C   UNL     1      10.912  11.591  -7.532  1.00  0.00     0.029 A 
ATOM     48  N   UNL     1       8.794  10.928  -7.678  1.00  0.00    -0.354 N 
ATOM     49  N   UNL     1       5.933  11.278  -8.199  1.00  0.00    -0.248 NA
ATOM     50  C   UNL     1       4.113  12.653  -8.700  1.00  0.00     0.031 C 
ATOM     51  C   UNL     1      10.124  12.699  -7.862  1.00  0.00     0.029 A 
ATOM     52  C   UNL     1       8.807  12.282  -7.969  1.00  0.00     0.049 A 
ATOM     53  H   UNL     1       7.990  10.360  -7.669  1.00  0.00     0.167 HD
ATOM     54  C   UNL     1       6.383  12.576  -8.395  1.00  0.00     0.074 A 
ATOM     55  C   UNL     1       5.223  13.378  -8.724  1.00  0.00     0.031 C 
ATOM     56  C   UNL     1       7.646  13.061  -8.310  1.00  0.00     0.037 A 
BRANCH  43  57
ATOM     57  C   UNL     1      11.861   8.834  -6.734  1.00  0.00     0.057 A 
ATOM     58  C   UNL     1      12.682   8.122  -7.617  1.00  0.00     0.134 A 
ATOM     59  C   UNL     1      12.432   9.282  -5.536  1.00  0.00     0.134 A 
ATOM     60  F   UNL     1      12.191   7.653  -8.774  1.00  0.00    -0.206 F 
ATOM     61  C   UNL     1      14.015   7.845  -7.309  1.00  0.00     0.040 A 
ATOM     62  C   UNL     1      13.770   9.032  -5.228  1.00  0.00     0.040 A 
ATOM     63  F   UNL     1      11.700   9.974  -4.649  1.00  0.00    -0.206 F 
ATOM     64  C   UNL     1      14.564   8.306  -6.113  1.00  0.00     0.006 A 
ENDBRANCH  43  57
BRANCH  44  65
ATOM     65  C   UNL     1       2.197  10.454  -8.563  1.00  0.00     0.057 A 
ATOM     66  C   UNL     1       1.723  10.744  -9.848  1.00  0.00     0.134 A 
ATOM     67  C   UNL     1       1.266  10.424  -7.520  1.00  0.00     0.134 A 
ATOM     68  F   UNL     1       2.573  10.806 -10.883  1.00  0.00    -0.206 F 
ATOM     69  C   UNL     1       0.373  11.010 -10.084  1.00  0.00     0.040 A 
ATOM     70  C   UNL     1      -0.090  10.668  -7.745  1.00  0.00     0.040 A 
ATOM     71  F   UNL     1       1.660  10.147  -6.268  1.00  0.00    -0.206 F 
ATOM     72  C   UNL     1      -0.538  10.968  -9.031  1.00  0.00     0.006 A 
ENDBRANCH  44  65
BRANCH  56  73
ATOM     73  C   UNL     1       7.844  14.514  -8.620  1.00  0.00     0.057 A 
ATOM     74  C   UNL     1       7.484  15.517  -7.712  1.00  0.00     0.134 A 
ATOM     75  C   UNL     1       8.442  14.909  -9.823  1.00  0.00     0.134 A 
ATOM     76  F   UNL     1       6.896  15.202  -6.548  1.00  0.00    -0.206 F 
ATOM     77  C   UNL     1       7.698  16.866  -7.998  1.00  0.00     0.040 A 
ATOM     78  C   UNL     1       8.678  16.253 -10.111  1.00  0.00     0.040 A 
ATOM     79  F   UNL     1       8.814  13.994 -10.731  1.00  0.00    -0.206 F 
ATOM     80  C   UNL     1       8.303  17.236  -9.198  1.00  0.00     0.006 A 
ENDBRANCH  56  73
ENDBRANCH  30  31
ENDBRANCH  22  25
ENDBRANCH  20  21
ENDBRANCH   1  20
TORSDOF 11
