REMARK SMILES C[C@@H](Oc1ccc(/C=N/NC(=O)c2ccc(I)c(O)c2)cc1)C(=O)NCCCNC(=O)c1ccc(-c2c3nc(c(-c4c(F)cccc4F)c4ccc([nH]4)c(-c4c(F)cccc4F)c4nc(c(-c5c(F)cccc5F)c5ccc2[nH]5)C=C4)C=C3)cc1
REMARK SMILES IDX 23 1 24 2 25 3 2 5 1 6 3 7 4 8 5 9 22 10 6 11 21 12 7 13
REMARK SMILES IDX 8 14 9 15 10 16 11 17 12 19 13 20 14 21 20 22 15 23 18 24
REMARK SMILES IDX 16 25 17 26 19 27 26 29 27 30 28 31 29 32 30 33 31 35 32 36
REMARK SMILES IDX 33 37 85 38 34 39 84 40 35 41 36 42 37 43 78 44 38 45 83 46
REMARK SMILES IDX 77 47 79 48 39 49 82 50 76 51 75 52 40 54 66 55 49 56 65 57
REMARK SMILES IDX 50 58 53 59 64 60 80 61 51 62 52 63 63 65 81 66 54 67 41 68
REMARK SMILES IDX 42 69 47 70 43 71 44 72 46 73 48 74 45 75 67 76 68 77 73 78
REMARK SMILES IDX 69 79 70 80 72 81 74 82 71 83 55 84 56 85 61 86 57 87 58 88
REMARK SMILES IDX 60 89 62 90 59 91
REMARK H PARENT 25 4 10 18 19 28 29 34 79 53 53 64
REMARK Flexibility Score: inf
ROOT
ATOM      1  C   UNL     1      -0.939  -1.454   0.528  1.00  0.00     0.260 C 
ATOM      2  O   UNL     1      -1.609  -2.177  -0.213  1.00  0.00    -0.271 OA
ATOM      3  N   UNL     1      -1.607  -0.659   1.421  1.00  0.00    -0.353 N 
ATOM      4  H   UNL     1      -2.588  -0.710   1.373  1.00  0.00     0.163 HD
ENDROOT
BRANCH   1   5
ATOM      5  C   UNL     1       0.589  -1.376   0.395  1.00  0.00     0.258 C 
ATOM      6  C   UNL     1       0.916  -0.070  -0.328  1.00  0.00     0.064 C 
BRANCH   5   7
ATOM      7  O   UNL     1       1.127  -1.516   1.715  1.00  0.00    -0.481 OA
BRANCH   7   8
ATOM      8  C   UNL     1       2.460  -1.756   1.829  1.00  0.00     0.120 A 
ATOM      9  C   UNL     1       2.844  -2.871   2.580  1.00  0.00     0.047 A 
ATOM     10  C   UNL     1       3.420  -0.855   1.382  1.00  0.00     0.047 A 
ATOM     11  C   UNL     1       4.195  -3.115   2.836  1.00  0.00     0.013 A 
ATOM     12  C   UNL     1       4.769  -1.120   1.582  1.00  0.00     0.013 A 
ATOM     13  C   UNL     1       5.149  -2.247   2.310  1.00  0.00    -0.005 A 
BRANCH  13  14
ATOM     14  C   UNL     1       6.585  -2.446   2.527  1.00  0.00     0.141 C 
ATOM     15  N   UNL     1       7.069  -2.678   3.705  1.00  0.00    -0.180 NA
BRANCH  15  16
ATOM     16  N   UNL     1       8.433  -2.688   3.828  1.00  0.00    -0.243 N 
ATOM     17  C   UNL     1       9.378  -1.829   3.285  1.00  0.00     0.271 C 
ATOM     18  H   UNL     1       8.798  -3.413   4.385  1.00  0.00     0.194 HD
ATOM     19  O   UNL     1      10.580  -2.059   3.403  1.00  0.00    -0.267 OA
BRANCH  17  20
ATOM     20  C   UNL     1       8.961  -0.610   2.552  1.00  0.00     0.045 A 
ATOM     21  C   UNL     1       9.549  -0.350   1.308  1.00  0.00     0.015 A 
ATOM     22  C   UNL     1       7.977   0.247   3.059  1.00  0.00     0.061 A 
ATOM     23  C   UNL     1       9.102   0.724   0.536  1.00  0.00     0.019 A 
ATOM     24  C   UNL     1       7.522   1.310   2.277  1.00  0.00     0.129 A 
ATOM     25  C   UNL     1       8.075   1.544   1.013  1.00  0.00     0.055 A 
ATOM     26  I   UNL     1       7.374   3.071  -0.232  1.00  0.00    -0.040 I 
BRANCH  24  27
ATOM     27  O   UNL     1       6.493   2.086   2.735  1.00  0.00    -0.507 OA
ATOM     28  H   UNL     1       6.181   2.802   2.217  1.00  0.00     0.293 HD
ENDBRANCH  24  27
ENDBRANCH  17  20
ENDBRANCH  15  16
ENDBRANCH  13  14
ENDBRANCH   7   8
ENDBRANCH   5   7
ENDBRANCH   1   5
BRANCH   3  29
ATOM     29  C   UNL     1      -1.085   0.249   2.431  1.00  0.00     0.118 C 
BRANCH  29  30
ATOM     30  C   UNL     1      -1.410   1.706   2.134  1.00  0.00     0.042 C 
BRANCH  30  31
ATOM     31  C   UNL     1      -2.896   2.029   2.184  1.00  0.00     0.118 C 
BRANCH  31  32
ATOM     32  N   UNL     1      -3.471   1.816   3.505  1.00  0.00    -0.352 N 
ATOM     33  C   UNL     1      -4.026   2.705   4.392  1.00  0.00     0.251 C 
ATOM     34  H   UNL     1      -3.460   0.881   3.813  1.00  0.00     0.163 HD
ATOM     35  O   UNL     1      -4.275   2.344   5.537  1.00  0.00    -0.269 OA
BRANCH  33  36
ATOM     36  C   UNL     1      -4.304   4.100   3.986  1.00  0.00     0.039 A 
ATOM     37  C   UNL     1      -4.023   5.130   4.888  1.00  0.00     0.014 A 
ATOM     38  C   UNL     1      -4.856   4.396   2.738  1.00  0.00     0.014 A 
ATOM     39  C   UNL     1      -4.218   6.460   4.506  1.00  0.00     0.010 A 
ATOM     40  C   UNL     1      -4.975   5.722   2.329  1.00  0.00     0.010 A 
ATOM     41  C   UNL     1      -4.650   6.767   3.206  1.00  0.00    -0.014 A 
BRANCH  41  42
ATOM     42  C   UNL     1      -4.739   8.171   2.734  1.00  0.00     0.031 A 
ATOM     43  C   UNL     1      -6.062   8.758   2.331  1.00  0.00     0.074 A 
ATOM     44  C   UNL     1      -3.610   8.893   2.594  1.00  0.00     0.049 A 
ATOM     45  N   UNL     1      -6.321   9.930   1.809  1.00  0.00    -0.248 NA
ATOM     46  C   UNL     1      -7.248   7.908   2.519  1.00  0.00     0.031 C 
ATOM     47  C   UNL     1      -2.259   8.422   2.911  1.00  0.00     0.029 A 
ATOM     48  N   UNL     1      -3.415  10.170   2.132  1.00  0.00    -0.354 N 
ATOM     49  C   UNL     1      -7.694   9.953   1.595  1.00  0.00     0.074 A 
ATOM     50  C   UNL     1      -8.206   8.661   1.999  1.00  0.00     0.031 C 
ATOM     51  C   UNL     1      -1.380   9.402   2.651  1.00  0.00     0.029 A 
ATOM     52  C   UNL     1      -2.095  10.551   2.107  1.00  0.00     0.049 A 
ATOM     53  H   UNL     1      -4.151  10.758   1.846  1.00  0.00     0.167 HD
ATOM     54  C   UNL     1      -8.459  10.966   1.123  1.00  0.00     0.037 A 
ATOM     55  C   UNL     1      -1.522  11.691   1.677  1.00  0.00     0.037 A 
ATOM     56  C   UNL     1      -7.947  12.256   0.736  1.00  0.00     0.049 A 
ATOM     57  C   UNL     1      -2.391  12.788   1.129  1.00  0.00     0.074 A 
ATOM     58  C   UNL     1      -8.650  13.367   0.303  1.00  0.00     0.029 A 
ATOM     59  N   UNL     1      -6.605  12.604   0.726  1.00  0.00    -0.354 N 
ATOM     60  N   UNL     1      -3.695  12.822   0.995  1.00  0.00    -0.248 NA
ATOM     61  C   UNL     1      -1.708  14.007   0.671  1.00  0.00     0.031 C 
ATOM     62  C   UNL     1      -7.729  14.370  -0.017  1.00  0.00     0.029 A 
ATOM     63  C   UNL     1      -6.456  13.902   0.265  1.00  0.00     0.049 A 
ATOM     64  H   UNL     1      -5.866  12.016   1.005  1.00  0.00     0.167 HD
ATOM     65  C   UNL     1      -3.990  14.069   0.460  1.00  0.00     0.074 A 
ATOM     66  C   UNL     1      -2.731  14.769   0.312  1.00  0.00     0.031 C 
ATOM     67  C   UNL     1      -5.196  14.586   0.119  1.00  0.00     0.037 A 
BRANCH  54  68
ATOM     68  C   UNL     1      -9.934  10.720   0.997  1.00  0.00     0.057 A 
ATOM     69  C   UNL     1     -10.763  10.600   2.120  1.00  0.00     0.134 A 
ATOM     70  C   UNL     1     -10.541  10.643  -0.263  1.00  0.00     0.134 A 
ATOM     71  F   UNL     1     -10.244  10.654   3.356  1.00  0.00    -0.206 F 
ATOM     72  C   UNL     1     -12.137  10.387   1.996  1.00  0.00     0.040 A 
ATOM     73  C   UNL     1     -11.918  10.458  -0.401  1.00  0.00     0.040 A 
ATOM     74  F   UNL     1      -9.809  10.757  -1.381  1.00  0.00    -0.206 F 
ATOM     75  C   UNL     1     -12.719  10.323   0.731  1.00  0.00     0.006 A 
ENDBRANCH  54  68
BRANCH  55  76
ATOM     76  C   UNL     1      -0.049  11.856   1.751  1.00  0.00     0.057 A 
ATOM     77  C   UNL     1       0.532  12.764   2.644  1.00  0.00     0.134 A 
ATOM     78  C   UNL     1       0.813  11.121   0.928  1.00  0.00     0.134 A 
ATOM     79  F   UNL     1      -0.243  13.511   3.445  1.00  0.00    -0.206 F 
ATOM     80  C   UNL     1       1.914  12.948   2.705  1.00  0.00     0.040 A 
ATOM     81  C   UNL     1       2.198  11.276   0.996  1.00  0.00     0.040 A 
ATOM     82  F   UNL     1       0.320  10.230   0.055  1.00  0.00    -0.206 F 
ATOM     83  C   UNL     1       2.752  12.198   1.881  1.00  0.00     0.006 A 
ENDBRANCH  55  76
BRANCH  67  84
ATOM     84  C   UNL     1      -5.212  15.984  -0.426  1.00  0.00     0.057 A 
ATOM     85  C   UNL     1      -4.733  16.282  -1.708  1.00  0.00     0.134 A 
ATOM     86  C   UNL     1      -5.742  17.039   0.327  1.00  0.00     0.134 A 
ATOM     87  F   UNL     1      -4.199  15.320  -2.475  1.00  0.00    -0.206 F 
ATOM     88  C   UNL     1      -4.760  17.584  -2.213  1.00  0.00     0.040 A 
ATOM     89  C   UNL     1      -5.801  18.339  -0.177  1.00  0.00     0.040 A 
ATOM     90  F   UNL     1      -6.225  16.822   1.560  1.00  0.00    -0.206 F 
ATOM     91  C   UNL     1      -5.302  18.615  -1.448  1.00  0.00     0.006 A 
ENDBRANCH  67  84
ENDBRANCH  41  42
ENDBRANCH  33  36
ENDBRANCH  31  32
ENDBRANCH  30  31
ENDBRANCH  29  30
ENDBRANCH   3  29
TORSDOF 16
