REMARK SMILES O=C(CN1C(=O)/C(=C\c2c(F)cccc2Cl)Oc2ccccc21)NCCCNC(=O)c1ccc(-c2c3nc(c(-c4c(F)cccc4F)c4ccc([nH]4)c(-c4c(F)cccc4F)c4nc(c(-c5c(F)cccc5F)c5ccc2[nH]5)C=C4)C=C3)cc1
REMARK SMILES IDX 26 1 25 2 24 3 1 4 2 5 3 7 4 8 5 9 23 10 6 11 7 12 18 13
REMARK SMILES IDX 22 14 8 15 17 16 19 17 21 18 20 19 9 20 10 21 15 22 11 23
REMARK SMILES IDX 12 24 14 25 16 26 13 27 27 28 28 29 29 30 30 32 31 33 32 34
REMARK SMILES IDX 84 35 33 36 83 37 34 38 35 39 36 40 77 41 37 42 82 43 76 44
REMARK SMILES IDX 78 45 38 46 81 47 75 48 74 49 39 51 65 52 48 53 64 54 49 55
REMARK SMILES IDX 52 56 63 57 79 58 50 59 51 60 62 62 80 63 53 64 40 65 41 66
REMARK SMILES IDX 46 67 42 68 43 69 45 70 47 71 44 72 66 73 67 74 72 75 68 76
REMARK SMILES IDX 69 77 71 78 73 79 70 80 54 81 55 82 60 83 56 84 57 85 59 86
REMARK SMILES IDX 61 87 58 88
REMARK H PARENT 24 6 28 31 78 50 52 61
REMARK Flexibility Score: inf
ROOT
ATOM      1  C   UNL     1       1.979   3.407  -0.490  1.00  0.00     0.042 C 
ENDROOT
BRANCH   1   2
ATOM      2  C   UNL     1       1.793   2.182  -1.391  1.00  0.00     0.117 C 
BRANCH   2   3
ATOM      3  N   UNL     1       2.511   1.002  -0.950  1.00  0.00    -0.354 N 
ATOM      4  O   UNL     1       1.270   0.697   0.936  1.00  0.00    -0.273 OA
ATOM      5  C   UNL     1       2.189   0.325   0.205  1.00  0.00     0.240 C 
ATOM      6  H   UNL     1       3.259   0.672  -1.499  1.00  0.00     0.163 HD
BRANCH   5   7
ATOM      7  C   UNL     1       3.187  -0.745   0.676  1.00  0.00     0.226 C 
BRANCH   7   8
ATOM      8  N   UNL     1       4.002  -1.450  -0.314  1.00  0.00    -0.293 N 
ATOM      9  C   UNL     1       3.633  -2.758  -0.615  1.00  0.00     0.294 C 
ATOM     10  C   UNL     1       5.163  -0.878  -0.904  1.00  0.00     0.088 A 
ATOM     11  O   UNL     1       2.566  -3.255  -0.268  1.00  0.00    -0.265 OA
ATOM     12  C   UNL     1       4.677  -3.548  -1.349  1.00  0.00     0.193 C 
ATOM     13  C   UNL     1       5.846  -1.597  -1.895  1.00  0.00     0.151 A 
ATOM     14  C   UNL     1       5.622   0.405  -0.582  1.00  0.00     0.030 A 
ATOM     15  C   UNL     1       4.876  -4.856  -1.103  1.00  0.00     0.065 C 
ATOM     16  O   UNL     1       5.525  -2.891  -2.225  1.00  0.00    -0.449 OA
ATOM     17  C   UNL     1       6.917  -1.031  -2.589  1.00  0.00     0.049 A 
ATOM     18  C   UNL     1       6.695   0.975  -1.275  1.00  0.00     0.002 A 
ATOM     19  C   UNL     1       7.335   0.262  -2.285  1.00  0.00     0.004 A 
BRANCH  15  20
ATOM     20  C   UNL     1       4.196  -5.627  -0.050  1.00  0.00     0.033 A 
ATOM     21  C   UNL     1       3.066  -6.385  -0.371  1.00  0.00     0.132 A 
ATOM     22  C   UNL     1       4.606  -5.585   1.294  1.00  0.00     0.051 A 
ATOM     23  F   UNL     1       2.648  -6.464  -1.644  1.00  0.00    -0.206 F 
ATOM     24  C   UNL     1       2.345  -7.066   0.609  1.00  0.00     0.040 A 
ATOM     25  C   UNL     1       3.890  -6.274   2.281  1.00  0.00     0.021 A 
ATOM     26  Cl  UNL     1       6.000  -4.687   1.795  1.00  0.00    -0.084 Cl
ATOM     27  C   UNL     1       2.754  -7.007   1.939  1.00  0.00     0.005 A 
ENDBRANCH  15  20
ENDBRANCH   7   8
ENDBRANCH   5   7
ENDBRANCH   2   3
ENDBRANCH   1   2
BRANCH   1  28
ATOM     28  C   UNL     1       3.422   3.836  -0.237  1.00  0.00     0.118 C 
BRANCH  28  29
ATOM     29  N   UNL     1       4.142   4.236  -1.436  1.00  0.00    -0.352 N 
ATOM     30  C   UNL     1       4.985   5.302  -1.649  1.00  0.00     0.251 C 
ATOM     31  H   UNL     1       4.005   3.653  -2.217  1.00  0.00     0.163 HD
ATOM     32  O   UNL     1       5.427   5.506  -2.776  1.00  0.00    -0.269 OA
BRANCH  30  33
ATOM     33  C   UNL     1       5.345   6.227  -0.547  1.00  0.00     0.039 A 
ATOM     34  C   UNL     1       5.679   5.759   0.725  1.00  0.00     0.014 A 
ATOM     35  C   UNL     1       5.370   7.603  -0.806  1.00  0.00     0.014 A 
ATOM     36  C   UNL     1       5.890   6.664   1.766  1.00  0.00     0.010 A 
ATOM     37  C   UNL     1       5.642   8.510   0.226  1.00  0.00     0.010 A 
ATOM     38  C   UNL     1       5.852   8.049   1.534  1.00  0.00    -0.014 A 
BRANCH  38  39
ATOM     39  C   UNL     1       5.996   8.985   2.681  1.00  0.00     0.031 A 
ATOM     40  C   UNL     1       4.824   9.807   3.150  1.00  0.00     0.074 A 
ATOM     41  C   UNL     1       7.161   9.044   3.353  1.00  0.00     0.049 A 
ATOM     42  N   UNL     1       4.730  10.588   4.199  1.00  0.00    -0.248 NA
ATOM     43  C   UNL     1       3.600   9.750   2.336  1.00  0.00     0.031 C 
ATOM     44  C   UNL     1       8.379   8.315   2.999  1.00  0.00     0.029 A 
ATOM     45  N   UNL     1       7.501   9.728   4.494  1.00  0.00    -0.354 N 
ATOM     46  C   UNL     1       3.445  11.116   4.167  1.00  0.00     0.074 A 
ATOM     47  C   UNL     1       2.807  10.598   2.976  1.00  0.00     0.031 C 
ATOM     48  C   UNL     1       9.315   8.547   3.933  1.00  0.00     0.029 A 
ATOM     49  C   UNL     1       8.774   9.462   4.934  1.00  0.00     0.049 A 
ATOM     50  H   UNL     1       6.890  10.349   4.953  1.00  0.00     0.167 HD
ATOM     51  C   UNL     1       2.841  11.941   5.056  1.00  0.00     0.037 A 
ATOM     52  C   UNL     1       9.429   9.895   6.027  1.00  0.00     0.037 A 
ATOM     53  C   UNL     1       3.456  12.446   6.255  1.00  0.00     0.049 A 
ATOM     54  C   UNL     1       8.742  10.822   6.988  1.00  0.00     0.074 A 
ATOM     55  C   UNL     1       2.905  13.253   7.236  1.00  0.00     0.029 A 
ATOM     56  N   UNL     1       4.764  12.194   6.635  1.00  0.00    -0.354 N 
ATOM     57  N   UNL     1       7.513  11.275   6.965  1.00  0.00    -0.248 NA
ATOM     58  C   UNL     1       9.539  11.299   8.128  1.00  0.00     0.031 C 
ATOM     59  C   UNL     1       3.890  13.514   8.195  1.00  0.00     0.029 A 
ATOM     60  C   UNL     1       5.045  12.845   7.825  1.00  0.00     0.049 A 
ATOM     61  H   UNL     1       5.401  11.634   6.134  1.00  0.00     0.167 HD
ATOM     62  C   UNL     1       7.387  12.084   8.086  1.00  0.00     0.074 A 
ATOM     63  C   UNL     1       8.656  12.040   8.782  1.00  0.00     0.031 C 
ATOM     64  C   UNL     1       6.316  12.803   8.500  1.00  0.00     0.037 A 
BRANCH  51  65
ATOM     65  C   UNL     1       1.428  12.349   4.762  1.00  0.00     0.057 A 
ATOM     66  C   UNL     1       1.135  13.645   4.320  1.00  0.00     0.134 A 
ATOM     67  C   UNL     1       0.356  11.467   4.944  1.00  0.00     0.134 A 
ATOM     68  F   UNL     1       2.117  14.538   4.129  1.00  0.00    -0.206 F 
ATOM     69  C   UNL     1      -0.177  14.049   4.068  1.00  0.00     0.040 A 
ATOM     70  C   UNL     1      -0.959  11.854   4.678  1.00  0.00     0.040 A 
ATOM     71  F   UNL     1       0.574  10.208   5.354  1.00  0.00    -0.206 F 
ATOM     72  C   UNL     1      -1.228  13.150   4.243  1.00  0.00     0.006 A 
ENDBRANCH  51  65
BRANCH  52  73
ATOM     73  C   UNL     1      10.816   9.440   6.288  1.00  0.00     0.057 A 
ATOM     74  C   UNL     1      11.892   9.912   5.529  1.00  0.00     0.134 A 
ATOM     75  C   UNL     1      11.094   8.532   7.316  1.00  0.00     0.134 A 
ATOM     76  F   UNL     1      11.686  10.783   4.531  1.00  0.00    -0.206 F 
ATOM     77  C   UNL     1      13.199   9.491   5.779  1.00  0.00     0.040 A 
ATOM     78  C   UNL     1      12.398   8.118   7.589  1.00  0.00     0.040 A 
ATOM     79  F   UNL     1      10.103   8.064   8.089  1.00  0.00    -0.206 F 
ATOM     80  C   UNL     1      13.454   8.596   6.816  1.00  0.00     0.006 A 
ENDBRANCH  52  73
BRANCH  64  81
ATOM     81  C   UNL     1       6.479  13.598   9.759  1.00  0.00     0.057 A 
ATOM     82  C   UNL     1       5.892  13.175  10.958  1.00  0.00     0.134 A 
ATOM     83  C   UNL     1       7.214  14.790   9.781  1.00  0.00     0.134 A 
ATOM     84  F   UNL     1       5.172  12.043  11.002  1.00  0.00    -0.206 F 
ATOM     85  C   UNL     1       6.034  13.909  12.136  1.00  0.00     0.040 A 
ATOM     86  C   UNL     1       7.379  15.522  10.957  1.00  0.00     0.040 A 
ATOM     87  F   UNL     1       7.814  15.238   8.668  1.00  0.00    -0.206 F 
ATOM     88  C   UNL     1       6.784  15.083  12.139  1.00  0.00     0.006 A 
ENDBRANCH  64  81
ENDBRANCH  38  39
ENDBRANCH  30  33
ENDBRANCH  28  29
ENDBRANCH   1  28
TORSDOF 12
