REMARK SMILES CC(C)C[C@H](NC(=O)c1cc(Cl)nnc1Cl)C(=O)NCCCNC(=O)c1ccc(-c2c3nc(c(-c4c(F)cccc4F)c4ccc([nH]4)c(-c4c(F)cccc4F)c4nc(c(-c5c(F)cccc5F)c5ccc2[nH]5)C=C4)C=C3)cc1
REMARK SMILES IDX 21 1 20 2 19 3 17 4 18 5 5 7 4 8 2 9 1 10 3 11 6 12 7 13
REMARK SMILES IDX 8 15 9 16 10 17 15 18 11 19 14 20 16 21 12 22 13 23 22 24
REMARK SMILES IDX 23 25 24 26 25 28 26 29 27 30 79 31 28 32 78 33 29 34 30 35
REMARK SMILES IDX 31 36 72 37 32 38 77 39 71 40 73 41 33 42 76 43 70 44 69 45
REMARK SMILES IDX 34 47 60 48 43 49 59 50 44 51 47 52 58 53 74 54 45 55 46 56
REMARK SMILES IDX 57 58 75 59 48 60 35 61 36 62 41 63 37 64 38 65 40 66 42 67
REMARK SMILES IDX 39 68 61 69 62 70 67 71 63 72 64 73 66 74 68 75 65 76 49 77
REMARK SMILES IDX 50 78 55 79 51 80 52 81 54 82 56 83 53 84
REMARK H PARENT 19 6 6 14 23 27 73 46 47 57
REMARK Flexibility Score: inf
ROOT
ATOM      1  C   UNL     1      -3.563  -1.155   4.069  1.00  0.00     0.042 C 
ENDROOT
BRANCH   1   2
ATOM      2  C   UNL     1      -3.181  -2.164   3.000  1.00  0.00     0.117 C 
BRANCH   2   3
ATOM      3  N   UNL     1      -3.656  -1.763   1.687  1.00  0.00    -0.354 N 
ATOM      4  C   UNL     1      -2.962  -1.582   0.529  1.00  0.00     0.242 C 
ATOM      5  O   UNL     1      -3.578  -1.171  -0.457  1.00  0.00    -0.273 OA
ATOM      6  H   UNL     1      -4.625  -1.598   1.625  1.00  0.00     0.163 HD
BRANCH   4   7
ATOM      7  C   UNL     1      -1.447  -1.844   0.479  1.00  0.00     0.171 C 
BRANCH   7   8
ATOM      8  C   UNL     1      -1.044  -3.299   0.787  1.00  0.00     0.038 C 
BRANCH   8   9
ATOM      9  C   UNL     1      -2.063  -4.439   0.581  1.00  0.00    -0.015 C 
ATOM     10  C   UNL     1      -2.600  -4.556  -0.841  1.00  0.00     0.007 C 
ATOM     11  C   UNL     1      -1.407  -5.763   0.999  1.00  0.00     0.007 C 
ENDBRANCH   8   9
ENDBRANCH   7   8
BRANCH   7  12
ATOM     12  N   UNL     1      -0.849  -0.773   1.318  1.00  0.00    -0.340 N 
ATOM     13  C   UNL     1       0.281  -0.641   2.070  1.00  0.00     0.255 C 
ATOM     14  H   UNL     1      -1.405   0.040   1.335  1.00  0.00     0.164 HD
ATOM     15  O   UNL     1       0.491   0.390   2.702  1.00  0.00    -0.269 OA
BRANCH  13  16
ATOM     16  C   UNL     1       1.210  -1.747   2.249  1.00  0.00     0.082 A 
ATOM     17  C   UNL     1       1.194  -2.420   3.473  1.00  0.00     0.060 A 
ATOM     18  C   UNL     1       2.091  -2.136   1.263  1.00  0.00     0.164 A 
ATOM     19  C   UNL     1       2.022  -3.510   3.602  1.00  0.00     0.152 A 
ATOM     20  N   UNL     1       2.890  -3.209   1.431  1.00  0.00    -0.136 NA
ATOM     21  Cl  UNL     1       2.243  -1.366  -0.259  1.00  0.00    -0.059 Cl
ATOM     22  Cl  UNL     1       2.024  -4.473   5.014  1.00  0.00    -0.060 Cl
ATOM     23  N   UNL     1       2.843  -3.916   2.613  1.00  0.00    -0.137 NA
ENDBRANCH  13  16
ENDBRANCH   7  12
ENDBRANCH   4   7
ENDBRANCH   2   3
ENDBRANCH   1   2
BRANCH   1  24
ATOM     24  C   UNL     1      -5.069  -1.041   4.252  1.00  0.00     0.118 C 
BRANCH  24  25
ATOM     25  N   UNL     1      -5.656  -2.276   4.763  1.00  0.00    -0.352 N 
ATOM     26  C   UNL     1      -6.114  -2.553   6.027  1.00  0.00     0.251 C 
ATOM     27  H   UNL     1      -5.734  -3.010   4.112  1.00  0.00     0.163 HD
ATOM     28  O   UNL     1      -6.372  -3.703   6.364  1.00  0.00    -0.269 OA
BRANCH  26  29
ATOM     29  C   UNL     1      -6.269  -1.442   6.981  1.00  0.00     0.039 A 
ATOM     30  C   UNL     1      -5.678  -1.532   8.242  1.00  0.00     0.014 A 
ATOM     31  C   UNL     1      -6.959  -0.290   6.592  1.00  0.00     0.014 A 
ATOM     32  C   UNL     1      -5.717  -0.428   9.092  1.00  0.00     0.010 A 
ATOM     33  C   UNL     1      -6.926   0.834   7.405  1.00  0.00     0.010 A 
ATOM     34  C   UNL     1      -6.312   0.770   8.664  1.00  0.00    -0.014 A 
BRANCH  34  35
ATOM     35  C   UNL     1      -6.336   1.965   9.536  1.00  0.00     0.031 A 
ATOM     36  C   UNL     1      -7.646   2.456  10.081  1.00  0.00     0.074 A 
ATOM     37  C   UNL     1      -5.195   2.635   9.785  1.00  0.00     0.049 A 
ATOM     38  N   UNL     1      -7.888   3.492  10.840  1.00  0.00    -0.248 NA
ATOM     39  C   UNL     1      -8.846   1.694   9.699  1.00  0.00     0.031 C 
ATOM     40  C   UNL     1      -3.873   2.285   9.263  1.00  0.00     0.029 A 
ATOM     41  N   UNL     1      -4.970   3.757  10.539  1.00  0.00    -0.354 N 
ATOM     42  C   UNL     1      -9.264   3.506  11.025  1.00  0.00     0.074 A 
ATOM     43  C   UNL     1      -9.810   2.418  10.244  1.00  0.00     0.031 C 
ATOM     44  C   UNL     1      -2.970   3.163   9.733  1.00  0.00     0.029 A 
ATOM     45  C   UNL     1      -3.652   4.144  10.570  1.00  0.00     0.049 A 
ATOM     46  H   UNL     1      -5.684   4.241  11.013  1.00  0.00     0.167 HD
ATOM     47  C   UNL     1     -10.004   4.330  11.802  1.00  0.00     0.037 A 
ATOM     48  C   UNL     1      -3.067   5.171  11.213  1.00  0.00     0.037 A 
ATOM     49  C   UNL     1      -9.457   5.402  12.588  1.00  0.00     0.049 A 
ATOM     50  C   UNL     1      -3.912   6.078  12.063  1.00  0.00     0.074 A 
ATOM     51  C   UNL     1     -10.112   6.269  13.444  1.00  0.00     0.029 A 
ATOM     52  N   UNL     1      -8.115   5.751  12.610  1.00  0.00    -0.354 N 
ATOM     53  N   UNL     1      -5.202   6.034  12.292  1.00  0.00    -0.248 NA
ATOM     54  C   UNL     1      -3.215   7.172  12.755  1.00  0.00     0.031 C 
ATOM     55  C   UNL     1      -9.168   7.162  13.964  1.00  0.00     0.029 A 
ATOM     56  C   UNL     1      -7.922   6.829  13.457  1.00  0.00     0.049 A 
ATOM     57  H   UNL     1      -7.405   5.299  12.100  1.00  0.00     0.167 HD
ATOM     58  C   UNL     1      -5.467   7.069  13.179  1.00  0.00     0.074 A 
ATOM     59  C   UNL     1      -4.201   7.719  13.452  1.00  0.00     0.031 C 
ATOM     60  C   UNL     1      -6.649   7.448  13.722  1.00  0.00     0.037 A 
BRANCH  47  61
ATOM     61  C   UNL     1     -11.482   4.081  11.840  1.00  0.00     0.057 A 
ATOM     62  C   UNL     1     -12.377   4.958  11.216  1.00  0.00     0.134 A 
ATOM     63  C   UNL     1     -12.018   2.959  12.487  1.00  0.00     0.134 A 
ATOM     64  F   UNL     1     -11.928   6.049  10.579  1.00  0.00    -0.206 F 
ATOM     65  C   UNL     1     -13.753   4.724  11.230  1.00  0.00     0.040 A 
ATOM     66  C   UNL     1     -13.389   2.701  12.486  1.00  0.00     0.040 A 
ATOM     67  F   UNL     1     -11.211   2.069  13.086  1.00  0.00    -0.206 F 
ATOM     68  C   UNL     1     -14.262   3.588  11.858  1.00  0.00     0.006 A 
ENDBRANCH  47  61
BRANCH  48  69
ATOM     69  C   UNL     1      -1.601   5.375  11.120  1.00  0.00     0.057 A 
ATOM     70  C   UNL     1      -1.000   5.864   9.955  1.00  0.00     0.134 A 
ATOM     71  C   UNL     1      -0.770   5.106  12.213  1.00  0.00     0.134 A 
ATOM     72  F   UNL     1      -1.743   6.135   8.872  1.00  0.00    -0.206 F 
ATOM     73  C   UNL     1       0.377   6.083   9.882  1.00  0.00     0.040 A 
ATOM     74  C   UNL     1       0.605   5.338  12.161  1.00  0.00     0.040 A 
ATOM     75  F   UNL     1      -1.292   4.651  13.362  1.00  0.00    -0.206 F 
ATOM     76  C   UNL     1       1.182   5.828  10.991  1.00  0.00     0.006 A 
ENDBRANCH  48  69
BRANCH  60  77
ATOM     77  C   UNL     1      -6.616   8.587  14.695  1.00  0.00     0.057 A 
ATOM     78  C   UNL     1      -6.784   8.356  16.065  1.00  0.00     0.134 A 
ATOM     79  C   UNL     1      -6.444   9.911  14.274  1.00  0.00     0.134 A 
ATOM     80  F   UNL     1      -6.959   7.109  16.530  1.00  0.00    -0.206 F 
ATOM     81  C   UNL     1      -6.782   9.404  16.986  1.00  0.00     0.040 A 
ATOM     82  C   UNL     1      -6.417  10.966  15.188  1.00  0.00     0.040 A 
ATOM     83  F   UNL     1      -6.263  10.194  12.975  1.00  0.00    -0.206 F 
ATOM     84  C   UNL     1      -6.592  10.713  16.547  1.00  0.00     0.006 A 
ENDBRANCH  60  77
ENDBRANCH  34  35
ENDBRANCH  26  29
ENDBRANCH  24  25
ENDBRANCH   1  24
TORSDOF 14
