REMARK SMILES Cc1ccccc1/C=C1\SC(=O)N(CC(=O)Nc2ccccc2C(=O)NCCCNC(=O)c2ccc(-c3c4nc(c(-c5c(F)cccc5F)c5ccc([nH]5)c(-c5c(F)cccc5F)c5nc(c(-c6c(F)cccc6F)c6ccc3[nH]6)C=C5)C=C4)cc2)C1=O
REMARK SMILES IDX 27 1 26 2 24 3 25 4 23 6 18 7 19 8 20 9 22 10 21 11 17 12
REMARK SMILES IDX 15 13 16 14 14 16 13 17 8 18 9 19 10 20 87 21 11 22 88 23
REMARK SMILES IDX 12 24 7 25 1 26 2 27 3 28 4 29 6 30 5 31 28 32 29 33 30 34
REMARK SMILES IDX 31 35 32 37 33 38 34 39 86 40 35 41 85 42 36 43 37 44 38 45
REMARK SMILES IDX 79 46 39 47 84 48 78 49 80 50 40 51 83 52 77 53 76 54 41 56
REMARK SMILES IDX 67 57 50 58 66 59 51 60 54 61 65 62 81 63 52 64 53 65 64 67
REMARK SMILES IDX 82 68 55 69 42 70 43 71 48 72 44 73 45 74 47 75 49 76 46 77
REMARK SMILES IDX 68 78 69 79 74 80 70 81 71 82 73 83 75 84 72 85 56 86 57 87
REMARK SMILES IDX 62 88 58 89 59 90 61 91 63 92 60 93
REMARK H PARENT 26 5 17 15 30 36 80 55 54 66
REMARK Flexibility Score: inf
ROOT
ATOM      1  C   UNL     1       1.692   0.918  -4.136  1.00  0.00     0.118 C 
ENDROOT
BRANCH   1   2
ATOM      2  N   UNL     1       1.555   2.148  -3.349  1.00  0.00    -0.352 N 
ATOM      3  C   UNL     1       1.584   3.513  -3.558  1.00  0.00     0.253 C 
ATOM      4  O   UNL     1       1.203   4.222  -2.627  1.00  0.00    -0.269 OA
ATOM      5  H   UNL     1       1.396   1.942  -2.399  1.00  0.00     0.163 HD
BRANCH   3   6
ATOM      6  C   UNL     1       2.027   4.192  -4.800  1.00  0.00     0.063 A 
ATOM      7  C   UNL     1       2.506   5.530  -4.833  1.00  0.00     0.054 A 
ATOM      8  C   UNL     1       2.678   6.152  -6.092  1.00  0.00     0.027 A 
ATOM      9  C   UNL     1       2.389   5.503  -7.289  1.00  0.00     0.002 A 
ATOM     10  C   UNL     1       1.678   3.590  -6.024  1.00  0.00     0.016 A 
ATOM     11  C   UNL     1       1.869   4.223  -7.253  1.00  0.00     0.001 A 
BRANCH   7  12
ATOM     12  N   UNL     1       2.582   6.468  -3.780  1.00  0.00    -0.324 N 
ATOM     13  C   UNL     1       3.143   6.579  -2.549  1.00  0.00     0.244 C 
ATOM     14  O   UNL     1       2.854   7.608  -1.921  1.00  0.00    -0.273 OA
ATOM     15  H   UNL     1       2.079   7.284  -4.007  1.00  0.00     0.170 HD
BRANCH  13  16
ATOM     16  C   UNL     1       4.223   5.661  -2.004  1.00  0.00     0.230 C 
BRANCH  16  17
ATOM     17  N   UNL     1       3.758   4.464  -1.358  1.00  0.00    -0.259 N 
ATOM     18  C   UNL     1       1.098   2.880   0.215  1.00  0.00     0.029 C 
ATOM     19  C   UNL     1       2.404   3.066  -0.065  1.00  0.00     0.083 C 
ATOM     20  S   UNL     1       3.597   2.020  -0.705  1.00  0.00    -0.022 SA
ATOM     21  C   UNL     1       2.891   4.476  -0.275  1.00  0.00     0.268 C 
ATOM     22  C   UNL     1       4.306   3.268  -1.678  1.00  0.00     0.294 C 
ATOM     23  O   UNL     1       2.546   5.433   0.384  1.00  0.00    -0.268 OA
ATOM     24  O   UNL     1       5.183   3.032  -2.508  1.00  0.00    -0.261 OA
BRANCH  18  25
ATOM     25  C   UNL     1       0.109   1.789  -0.067  1.00  0.00    -0.021 A 
ATOM     26  C   UNL     1       1.581  -0.321  -0.097  1.00  0.00     0.045 C 
ATOM     27  C   UNL     1       0.313   0.419  -0.291  1.00  0.00    -0.044 A 
ATOM     28  C   UNL     1      -0.733  -0.407  -0.769  1.00  0.00     0.004 A 
ATOM     29  C   UNL     1      -2.012   0.080  -0.957  1.00  0.00     0.000 A 
ATOM     30  C   UNL     1      -1.222   2.241  -0.226  1.00  0.00     0.008 A 
ATOM     31  C   UNL     1      -2.263   1.406  -0.656  1.00  0.00     0.001 A 
ENDBRANCH  18  25
ENDBRANCH  16  17
ENDBRANCH  13  16
ENDBRANCH   7  12
ENDBRANCH   3   6
ENDBRANCH   1   2
BRANCH   1  32
ATOM     32  C   UNL     1       3.112   0.402  -4.374  1.00  0.00     0.042 C 
BRANCH  32  33
ATOM     33  C   UNL     1       3.604  -0.649  -3.369  1.00  0.00     0.118 C 
BRANCH  33  34
ATOM     34  N   UNL     1       2.891  -1.931  -3.372  1.00  0.00    -0.352 N 
ATOM     35  C   UNL     1       2.850  -2.962  -2.442  1.00  0.00     0.251 C 
ATOM     36  H   UNL     1       2.344  -2.088  -4.175  1.00  0.00     0.163 HD
ATOM     37  O   UNL     1       2.168  -3.954  -2.696  1.00  0.00    -0.269 OA
BRANCH  35  38
ATOM     38  C   UNL     1       3.497  -2.855  -1.100  1.00  0.00     0.039 A 
ATOM     39  C   UNL     1       2.863  -3.454   0.009  1.00  0.00     0.014 A 
ATOM     40  C   UNL     1       4.597  -2.036  -0.884  1.00  0.00     0.014 A 
ATOM     41  C   UNL     1       3.173  -3.039   1.314  1.00  0.00     0.010 A 
ATOM     42  C   UNL     1       4.850  -1.567   0.395  1.00  0.00     0.010 A 
ATOM     43  C   UNL     1       4.094  -2.013   1.491  1.00  0.00    -0.014 A 
BRANCH  43  44
ATOM     44  C   UNL     1       4.333  -1.284   2.740  1.00  0.00     0.031 A 
ATOM     45  C   UNL     1       5.624  -1.474   3.447  1.00  0.00     0.074 A 
ATOM     46  C   UNL     1       3.485  -0.309   3.151  1.00  0.00     0.049 A 
ATOM     47  N   UNL     1       5.911  -0.962   4.595  1.00  0.00    -0.248 NA
ATOM     48  C   UNL     1       6.676  -2.358   2.943  1.00  0.00     0.031 C 
ATOM     49  C   UNL     1       3.801   0.836   4.006  1.00  0.00     0.029 A 
ATOM     50  N   UNL     1       2.088  -0.267   3.038  1.00  0.00    -0.354 N 
ATOM     51  C   UNL     1       7.238  -1.213   4.853  1.00  0.00     0.074 A 
ATOM     52  C   UNL     1       7.627  -2.186   3.867  1.00  0.00     0.031 C 
ATOM     53  C   UNL     1       2.667   1.317   4.537  1.00  0.00     0.029 A 
ATOM     54  C   UNL     1       1.611   0.383   4.193  1.00  0.00     0.049 A 
ATOM     55  H   UNL     1       1.547  -0.621   2.296  1.00  0.00     0.167 HD
ATOM     56  C   UNL     1       7.874  -0.473   5.802  1.00  0.00     0.037 A 
ATOM     57  C   UNL     1       0.758  -0.218   5.065  1.00  0.00     0.037 A 
ATOM     58  C   UNL     1       6.903   0.240   6.631  1.00  0.00     0.049 A 
ATOM     59  C   UNL     1       1.268  -0.208   6.476  1.00  0.00     0.074 A 
ATOM     60  C   UNL     1       6.462   1.551   6.666  1.00  0.00     0.029 A 
ATOM     61  N   UNL     1       6.028  -0.494   7.429  1.00  0.00    -0.354 N 
ATOM     62  N   UNL     1       2.527  -0.067   6.780  1.00  0.00    -0.248 NA
ATOM     63  C   UNL     1       0.418  -0.400   7.645  1.00  0.00     0.031 C 
ATOM     64  C   UNL     1       5.258   1.581   7.421  1.00  0.00     0.029 A 
ATOM     65  C   UNL     1       4.996   0.301   7.885  1.00  0.00     0.049 A 
ATOM     66  H   UNL     1       6.132  -1.451   7.640  1.00  0.00     0.167 HD
ATOM     67  C   UNL     1       2.682  -0.220   8.127  1.00  0.00     0.074 A 
ATOM     68  C   UNL     1       1.331  -0.385   8.631  1.00  0.00     0.031 C 
ATOM     69  C   UNL     1       3.919  -0.256   8.697  1.00  0.00     0.037 A 
BRANCH  56  70
ATOM     70  C   UNL     1       9.372  -0.234   5.888  1.00  0.00     0.057 A 
ATOM     71  C   UNL     1       9.893   0.619   6.886  1.00  0.00     0.134 A 
ATOM     72  C   UNL     1      10.341  -0.684   4.967  1.00  0.00     0.134 A 
ATOM     73  F   UNL     1       9.108   1.145   7.837  1.00  0.00    -0.206 F 
ATOM     74  C   UNL     1      11.243   1.001   6.945  1.00  0.00     0.040 A 
ATOM     75  C   UNL     1      11.701  -0.344   5.042  1.00  0.00     0.040 A 
ATOM     76  F   UNL     1      10.037  -1.431   3.903  1.00  0.00    -0.206 F 
ATOM     77  C   UNL     1      12.156   0.514   6.025  1.00  0.00     0.006 A 
ENDBRANCH  56  70
BRANCH  57  78
ATOM     78  C   UNL     1      -0.013  -1.333   4.458  1.00  0.00     0.057 A 
ATOM     79  C   UNL     1      -0.990  -1.041   3.493  1.00  0.00     0.134 A 
ATOM     80  C   UNL     1       0.467  -2.646   4.508  1.00  0.00     0.134 A 
ATOM     81  F   UNL     1      -1.486   0.202   3.389  1.00  0.00    -0.206 F 
ATOM     82  C   UNL     1      -1.393  -1.988   2.548  1.00  0.00     0.040 A 
ATOM     83  C   UNL     1       0.070  -3.602   3.567  1.00  0.00     0.040 A 
ATOM     84  F   UNL     1       1.413  -2.994   5.392  1.00  0.00    -0.206 F 
ATOM     85  C   UNL     1      -0.835  -3.263   2.562  1.00  0.00     0.006 A 
ENDBRANCH  57  78
BRANCH  69  86
ATOM     86  C   UNL     1       4.195  -0.775  10.082  1.00  0.00     0.057 A 
ATOM     87  C   UNL     1       3.408  -1.745  10.727  1.00  0.00     0.134 A 
ATOM     88  C   UNL     1       5.374  -0.412  10.763  1.00  0.00     0.134 A 
ATOM     89  F   UNL     1       2.332  -2.286  10.138  1.00  0.00    -0.206 F 
ATOM     90  C   UNL     1       3.724  -2.253  11.992  1.00  0.00     0.040 A 
ATOM     91  C   UNL     1       5.729  -0.956  12.001  1.00  0.00     0.040 A 
ATOM     92  F   UNL     1       6.244   0.465  10.241  1.00  0.00    -0.206 F 
ATOM     93  C   UNL     1       4.893  -1.865  12.631  1.00  0.00     0.006 A 
ENDBRANCH  69  86
ENDBRANCH  43  44
ENDBRANCH  35  38
ENDBRANCH  33  34
ENDBRANCH  32  33
ENDBRANCH   1  32
TORSDOF 14
