REMARK SMILES O=C(COc1ccc(S(=O)(=O)NC[C@@H]2CCCO2)cc1)NCCCNC(=O)c1ccc(-c2c3nc(c(-c4c(F)cccc4F)c4ccc([nH]4)c(-c4c(F)cccc4F)c4nc(c(-c5c(F)cccc5F)c5ccc2[nH]5)C=C4)C=C3)cc1
REMARK SMILES IDX 1 1 2 2 21 3 3 5 4 6 5 7 6 8 20 9 7 10 19 11 8 12 9 13 10 14
REMARK SMILES IDX 11 15 12 16 13 18 14 19 15 20 18 21 16 22 17 23 22 24 23 25
REMARK SMILES IDX 24 26 25 27 26 28 27 30 28 31 29 32 81 33 30 34 80 35 31 36
REMARK SMILES IDX 32 37 33 38 74 39 34 40 79 41 73 42 75 43 35 44 78 45 72 46
REMARK SMILES IDX 71 47 36 49 62 50 45 51 61 52 46 53 49 54 60 55 76 56 47 57
REMARK SMILES IDX 48 58 59 60 77 61 50 62 37 63 38 64 43 65 39 66 40 67 42 68
REMARK SMILES IDX 44 69 41 70 63 71 64 72 69 73 65 74 66 75 68 76 70 77 67 78
REMARK SMILES IDX 51 79 52 80 57 81 53 82 54 83 56 84 58 85 55 86
REMARK H PARENT 21 4 12 17 25 29 75 48 49 59
REMARK Flexibility Score: inf
ROOT
ATOM      1  O   UNL     1       1.247  -0.553   1.176  1.00  0.00    -0.271 OA
ATOM      2  C   UNL     1       2.237  -0.274   0.507  1.00  0.00     0.257 C 
ATOM      3  N   UNL     1       2.821   0.977   0.500  1.00  0.00    -0.353 N 
ATOM      4  H   UNL     1       3.712   1.085   0.097  1.00  0.00     0.163 HD
ENDROOT
BRANCH   2   5
ATOM      5  C   UNL     1       2.911  -1.284  -0.427  1.00  0.00     0.329 C 
BRANCH   5   6
ATOM      6  O   UNL     1       3.735  -0.721  -1.445  1.00  0.00    -0.484 OA
BRANCH   6   7
ATOM      7  C   UNL     1       3.088  -0.316  -2.583  1.00  0.00     0.120 A 
ATOM      8  C   UNL     1       3.769  -0.550  -3.778  1.00  0.00     0.048 A 
ATOM      9  C   UNL     1       1.877   0.384  -2.603  1.00  0.00     0.048 A 
ATOM     10  C   UNL     1       3.249  -0.085  -4.986  1.00  0.00     0.025 A 
ATOM     11  C   UNL     1       1.353   0.859  -3.808  1.00  0.00     0.025 A 
ATOM     12  C   UNL     1       2.047   0.631  -4.994  1.00  0.00     0.082 A 
BRANCH  12  13
ATOM     13  S   UNL     1       1.504   1.321  -6.533  1.00  0.00     0.240 S 
ATOM     14  O   UNL     1       2.657   1.947  -7.144  1.00  0.00    -0.207 OA
ATOM     15  O   UNL     1       0.751   0.288  -7.203  1.00  0.00    -0.207 OA
BRANCH  13  16
ATOM     16  N   UNL     1       0.394   2.514  -6.117  1.00  0.00    -0.209 NA
ATOM     17  H   UNL     1      -0.202   2.113  -5.392  1.00  0.00     0.141 HD
BRANCH  16  18
ATOM     18  C   UNL     1       0.835   3.830  -5.615  1.00  0.00     0.130 C 
BRANCH  18  19
ATOM     19  C   UNL     1       1.522   4.674  -6.686  1.00  0.00     0.133 C 
ATOM     20  C   UNL     1       1.508   6.164  -6.400  1.00  0.00     0.036 C 
ATOM     21  O   UNL     1       0.839   4.580  -7.950  1.00  0.00    -0.377 OA
ATOM     22  C   UNL     1       1.858   6.724  -7.761  1.00  0.00     0.031 C 
ATOM     23  C   UNL     1       1.266   5.710  -8.729  1.00  0.00     0.160 C 
ENDBRANCH  18  19
ENDBRANCH  16  18
ENDBRANCH  13  16
ENDBRANCH  12  13
ENDBRANCH   6   7
ENDBRANCH   5   6
ENDBRANCH   2   5
BRANCH   3  24
ATOM     24  C   UNL     1       2.164   2.134   1.065  1.00  0.00     0.117 C 
BRANCH  24  25
ATOM     25  C   UNL     1       2.456   2.344   2.542  1.00  0.00     0.042 C 
BRANCH  25  26
ATOM     26  C   UNL     1       3.929   2.563   2.866  1.00  0.00     0.118 C 
BRANCH  26  27
ATOM     27  N   UNL     1       4.488   3.754   2.239  1.00  0.00    -0.352 N 
ATOM     28  C   UNL     1       5.186   4.803   2.784  1.00  0.00     0.251 C 
ATOM     29  H   UNL     1       4.342   3.816   1.267  1.00  0.00     0.163 HD
ATOM     30  O   UNL     1       5.466   5.771   2.083  1.00  0.00    -0.269 OA
BRANCH  28  31
ATOM     31  C   UNL     1       5.577   4.795   4.212  1.00  0.00     0.039 A 
ATOM     32  C   UNL     1       5.440   5.976   4.949  1.00  0.00     0.014 A 
ATOM     33  C   UNL     1       6.091   3.649   4.823  1.00  0.00     0.014 A 
ATOM     34  C   UNL     1       5.745   5.986   6.312  1.00  0.00     0.010 A 
ATOM     35  C   UNL     1       6.328   3.640   6.196  1.00  0.00     0.010 A 
ATOM     36  C   UNL     1       6.153   4.807   6.955  1.00  0.00    -0.014 A 
BRANCH  36  37
ATOM     37  C   UNL     1       6.388   4.771   8.421  1.00  0.00     0.031 A 
ATOM     38  C   UNL     1       7.762   4.496   8.964  1.00  0.00     0.074 A 
ATOM     39  C   UNL     1       5.347   4.912   9.265  1.00  0.00     0.049 A 
ATOM     40  N   UNL     1       8.144   4.339  10.206  1.00  0.00    -0.248 NA
ATOM     41  C   UNL     1       8.846   4.355   7.979  1.00  0.00     0.031 C 
ATOM     42  C   UNL     1       3.956   5.134   8.866  1.00  0.00     0.029 A 
ATOM     43  N   UNL     1       5.298   4.874  10.636  1.00  0.00    -0.354 N 
ATOM     44  C   UNL     1       9.503   4.059  10.151  1.00  0.00     0.074 A 
ATOM     45  C   UNL     1       9.872   4.030   8.752  1.00  0.00     0.031 C 
ATOM     46  C   UNL     1       3.194   5.231   9.967  1.00  0.00     0.029 A 
ATOM     47  C   UNL     1       4.034   5.045  11.146  1.00  0.00     0.049 A 
ATOM     48  H   UNL     1       6.093   4.738  11.200  1.00  0.00     0.167 HD
ATOM     49  C   UNL     1      10.368   3.861  11.174  1.00  0.00     0.037 A 
ATOM     50  C   UNL     1       3.600   5.045  12.420  1.00  0.00     0.037 A 
ATOM     51  C   UNL     1      10.011   3.925  12.566  1.00  0.00     0.049 A 
ATOM     52  C   UNL     1       4.583   4.841  13.537  1.00  0.00     0.074 A 
ATOM     53  C   UNL     1      10.833   3.803  13.674  1.00  0.00     0.029 A 
ATOM     54  N   UNL     1       8.726   4.130  13.042  1.00  0.00    -0.354 N 
ATOM     55  N   UNL     1       5.875   4.634  13.471  1.00  0.00    -0.248 NA
ATOM     56  C   UNL     1       4.047   4.874  14.906  1.00  0.00     0.031 C 
ATOM     57  C   UNL     1      10.039   3.907  14.821  1.00  0.00     0.029 A 
ATOM     58  C   UNL     1       8.729   4.126  14.427  1.00  0.00     0.049 A 
ATOM     59  H   UNL     1       7.929   4.260  12.479  1.00  0.00     0.167 HD
ATOM     60  C   UNL     1       6.311   4.536  14.786  1.00  0.00     0.074 A 
ATOM     61  C   UNL     1       5.147   4.717  15.629  1.00  0.00     0.031 C 
ATOM     62  C   UNL     1       7.564   4.316  15.252  1.00  0.00     0.037 A 
BRANCH  49  63
ATOM     63  C   UNL     1      11.795   3.565  10.820  1.00  0.00     0.057 A 
ATOM     64  C   UNL     1      12.650   4.555  10.321  1.00  0.00     0.134 A 
ATOM     65  C   UNL     1      12.328   2.284  11.011  1.00  0.00     0.134 A 
ATOM     66  F   UNL     1      12.197   5.799  10.103  1.00  0.00    -0.206 F 
ATOM     67  C   UNL     1      13.980   4.277  10.002  1.00  0.00     0.040 A 
ATOM     68  C   UNL     1      13.662   1.999  10.717  1.00  0.00     0.040 A 
ATOM     69  F   UNL     1      11.563   1.292  11.490  1.00  0.00    -0.206 F 
ATOM     70  C   UNL     1      14.491   2.996  10.205  1.00  0.00     0.006 A 
ENDBRANCH  49  63
BRANCH  50  71
ATOM     71  C   UNL     1       2.163   5.271  12.711  1.00  0.00     0.057 A 
ATOM     72  C   UNL     1       1.724   6.481  13.259  1.00  0.00     0.134 A 
ATOM     73  C   UNL     1       1.201   4.288  12.454  1.00  0.00     0.134 A 
ATOM     74  F   UNL     1       2.605   7.451  13.544  1.00  0.00    -0.206 F 
ATOM     75  C   UNL     1       0.379   6.702  13.555  1.00  0.00     0.040 A 
ATOM     76  C   UNL     1      -0.151   4.503  12.726  1.00  0.00     0.040 A 
ATOM     77  F   UNL     1       1.560   3.110  11.925  1.00  0.00    -0.206 F 
ATOM     78  C   UNL     1      -0.564   5.712  13.284  1.00  0.00     0.006 A 
ENDBRANCH  50  71
BRANCH  62  79
ATOM     79  C   UNL     1       7.745   4.289  16.739  1.00  0.00     0.057 A 
ATOM     80  C   UNL     1       7.339   3.193  17.511  1.00  0.00     0.134 A 
ATOM     81  C   UNL     1       8.363   5.357  17.401  1.00  0.00     0.134 A 
ATOM     82  F   UNL     1       6.729   2.146  16.936  1.00  0.00    -0.206 F 
ATOM     83  C   UNL     1       7.526   3.168  18.893  1.00  0.00     0.040 A 
ATOM     84  C   UNL     1       8.573   5.335  18.780  1.00  0.00     0.040 A 
ATOM     85  F   UNL     1       8.779   6.433  16.717  1.00  0.00    -0.206 F 
ATOM     86  C   UNL     1       8.150   4.240  19.531  1.00  0.00     0.006 A 
ENDBRANCH  62  79
ENDBRANCH  36  37
ENDBRANCH  28  31
ENDBRANCH  26  27
ENDBRANCH  25  26
ENDBRANCH  24  25
ENDBRANCH   3  24
TORSDOF 16
