REMARK SMILES O=C(NCCCNC(=O)c1ccc(-c2c3nc(c(-c4c(F)cccc4F)c4ccc([nH]4)c(-c4c(F)cccc4F)c4nc(c(-c5c(F)cccc5F)c5ccc2[nH]5)C=C4)C=C3)cc1)C1=Cc2cc(C(F)(F)F)ccc2O[C@@H]1C(F)(F)F
REMARK SMILES IDX 5 1 4 2 3 3 1 4 2 5 64 7 65 8 77 9 66 10 76 11 67 12 75 13
REMARK SMILES IDX 68 14 74 15 73 16 78 17 79 18 80 19 81 20 69 21 70 22 71 23
REMARK SMILES IDX 72 24 6 25 7 26 8 27 9 29 10 30 11 31 63 32 12 33 62 34
REMARK SMILES IDX 13 35 14 36 15 37 56 38 16 39 61 40 55 41 57 42 17 43 60 44
REMARK SMILES IDX 54 45 53 46 18 48 44 49 27 50 43 51 28 52 31 53 42 54 58 55
REMARK SMILES IDX 29 56 30 57 41 59 59 60 32 61 19 62 20 63 25 64 21 65 22 66
REMARK SMILES IDX 24 67 26 68 23 69 45 70 46 71 51 72 47 73 48 74 50 75 52 76
REMARK SMILES IDX 49 77 33 78 34 79 39 80 35 81 36 82 38 83 40 84 37 85
REMARK H PARENT 3 6 7 28 57 47 31 58
REMARK Flexibility Score: inf
ROOT
ATOM      1  C   UNL     1       3.947  -2.640  -0.681  1.00  0.00     0.042 C 
ENDROOT
BRANCH   1   2
ATOM      2  C   UNL     1       3.172  -1.346  -0.913  1.00  0.00     0.118 C 
BRANCH   2   3
ATOM      3  N   UNL     1       2.193  -1.064   0.141  1.00  0.00    -0.352 N 
ATOM      4  O   UNL     1       1.081   0.156   1.688  1.00  0.00    -0.270 OA
ATOM      5  C   UNL     1       2.090  -0.011   1.016  1.00  0.00     0.251 C 
ATOM      6  H   UNL     1       1.490  -1.746   0.237  1.00  0.00     0.163 HD
BRANCH   5   7
ATOM      7  C   UNL     1       3.212   0.943   1.067  1.00  0.00     0.067 C 
ATOM      8  C   UNL     1       4.347   0.560   1.665  1.00  0.00     0.025 C 
ATOM      9  C   UNL     1       3.150   2.129   0.156  1.00  0.00     0.314 C 
ATOM     10  C   UNL     1       5.499   0.716   0.769  1.00  0.00     0.018 A 
ATOM     11  O   UNL     1       4.280   2.207  -0.748  1.00  0.00    -0.475 OA
ATOM     12  C   UNL     1       6.558  -0.191   0.914  1.00  0.00     0.025 A 
ATOM     13  C   UNL     1       5.378   1.447  -0.426  1.00  0.00     0.128 A 
ATOM     14  C   UNL     1       7.442  -0.435  -0.150  1.00  0.00     0.056 A 
ATOM     15  C   UNL     1       6.299   1.268  -1.457  1.00  0.00     0.048 A 
ATOM     16  C   UNL     1       7.312   0.316  -1.329  1.00  0.00     0.017 A 
BRANCH   9  17
ATOM     17  C   UNL     1       3.030   3.424   0.978  1.00  0.00     0.429 C 
ATOM     18  F   UNL     1       2.801   4.491   0.175  1.00  0.00    -0.167 F 
ATOM     19  F   UNL     1       2.004   3.371   1.860  1.00  0.00    -0.167 F 
ATOM     20  F   UNL     1       4.154   3.688   1.685  1.00  0.00    -0.167 F 
ENDBRANCH   9  17
BRANCH  14  21
ATOM     21  C   UNL     1       8.473  -1.533  -0.041  1.00  0.00     0.416 C 
ATOM     22  F   UNL     1       9.618  -1.115   0.560  1.00  0.00    -0.166 F 
ATOM     23  F   UNL     1       8.029  -2.596   0.691  1.00  0.00    -0.166 F 
ATOM     24  F   UNL     1       8.840  -2.049  -1.246  1.00  0.00    -0.166 F 
ENDBRANCH  14  21
ENDBRANCH   5   7
ENDBRANCH   2   3
ENDBRANCH   1   2
BRANCH   1  25
ATOM     25  C   UNL     1       3.946  -3.564  -1.896  1.00  0.00     0.118 C 
BRANCH  25  26
ATOM     26  N   UNL     1       4.608  -3.015  -3.074  1.00  0.00    -0.352 N 
ATOM     27  C   UNL     1       5.475  -3.604  -3.968  1.00  0.00     0.251 C 
ATOM     28  H   UNL     1       4.402  -2.070  -3.260  1.00  0.00     0.163 HD
ATOM     29  O   UNL     1       5.956  -2.923  -4.873  1.00  0.00    -0.269 OA
BRANCH  27  30
ATOM     30  C   UNL     1       5.879  -5.024  -3.825  1.00  0.00     0.039 A 
ATOM     31  C   UNL     1       7.200  -5.384  -4.110  1.00  0.00     0.014 A 
ATOM     32  C   UNL     1       4.983  -5.998  -3.387  1.00  0.00     0.014 A 
ATOM     33  C   UNL     1       7.639  -6.688  -3.858  1.00  0.00     0.010 A 
ATOM     34  C   UNL     1       5.450  -7.255  -3.016  1.00  0.00     0.010 A 
ATOM     35  C   UNL     1       6.783  -7.620  -3.250  1.00  0.00    -0.014 A 
BRANCH  35  36
ATOM     36  C   UNL     1       7.253  -8.974  -2.849  1.00  0.00     0.031 A 
ATOM     37  C   UNL     1       6.558 -10.205  -3.372  1.00  0.00     0.074 A 
ATOM     38  C   UNL     1       8.246  -9.097  -1.943  1.00  0.00     0.049 A 
ATOM     39  N   UNL     1       6.752 -11.462  -3.059  1.00  0.00    -0.248 NA
ATOM     40  C   UNL     1       5.466  -9.995  -4.337  1.00  0.00     0.031 C 
ATOM     41  C   UNL     1       8.945  -7.986  -1.292  1.00  0.00     0.029 A 
ATOM     42  N   UNL     1       8.834 -10.215  -1.405  1.00  0.00    -0.354 N 
ATOM     43  C   UNL     1       5.786 -12.178  -3.757  1.00  0.00     0.074 A 
ATOM     44  C   UNL     1       4.968 -11.215  -4.458  1.00  0.00     0.031 C 
ATOM     45  C   UNL     1       9.891  -8.477  -0.475  1.00  0.00     0.029 A 
ATOM     46  C   UNL     1       9.840  -9.934  -0.511  1.00  0.00     0.049 A 
ATOM     47  H   UNL     1       8.560 -11.131  -1.636  1.00  0.00     0.167 HD
ATOM     48  C   UNL     1       5.616 -13.520  -3.836  1.00  0.00     0.037 A 
ATOM     49  C   UNL     1      10.634 -10.758   0.198  1.00  0.00     0.037 A 
ATOM     50  C   UNL     1       6.473 -14.478  -3.191  1.00  0.00     0.049 A 
ATOM     51  C   UNL     1      10.466 -12.244   0.044  1.00  0.00     0.074 A 
ATOM     52  C   UNL     1       6.447 -15.858  -3.284  1.00  0.00     0.029 A 
ATOM     53  N   UNL     1       7.520 -14.152  -2.342  1.00  0.00    -0.354 N 
ATOM     54  N   UNL     1       9.601 -12.907  -0.684  1.00  0.00    -0.248 NA
ATOM     55  C   UNL     1      11.390 -13.097   0.804  1.00  0.00     0.031 C 
ATOM     56  C   UNL     1       7.457 -16.370  -2.463  1.00  0.00     0.029 A 
ATOM     57  C   UNL     1       8.138 -15.307  -1.893  1.00  0.00     0.049 A 
ATOM     58  H   UNL     1       7.784 -13.236  -2.096  1.00  0.00     0.167 HD
ATOM     59  C   UNL     1       9.890 -14.251  -0.490  1.00  0.00     0.074 A 
ATOM     60  C   UNL     1      11.025 -14.308   0.408  1.00  0.00     0.031 C 
ATOM     61  C   UNL     1       9.270 -15.341  -1.004  1.00  0.00     0.037 A 
BRANCH  48  62
ATOM     62  C   UNL     1       4.474 -14.029  -4.668  1.00  0.00     0.057 A 
ATOM     63  C   UNL     1       4.470 -13.921  -6.065  1.00  0.00     0.134 A 
ATOM     64  C   UNL     1       3.381 -14.667  -4.069  1.00  0.00     0.134 A 
ATOM     65  F   UNL     1       5.481 -13.309  -6.702  1.00  0.00    -0.206 F 
ATOM     66  C   UNL     1       3.409 -14.402  -6.834  1.00  0.00     0.040 A 
ATOM     67  C   UNL     1       2.327 -15.179  -4.829  1.00  0.00     0.040 A 
ATOM     68  F   UNL     1       3.321 -14.810  -2.736  1.00  0.00    -0.206 F 
ATOM     69  C   UNL     1       2.336 -15.041  -6.215  1.00  0.00     0.006 A 
ENDBRANCH  48  62
BRANCH  49  70
ATOM     70  C   UNL     1      11.683 -10.202   1.091  1.00  0.00     0.057 A 
ATOM     71  C   UNL     1      13.041 -10.326   0.771  1.00  0.00     0.134 A 
ATOM     72  C   UNL     1      11.360  -9.544   2.283  1.00  0.00     0.134 A 
ATOM     73  F   UNL     1      13.415 -10.961  -0.349  1.00  0.00    -0.206 F 
ATOM     74  C   UNL     1      14.040  -9.838   1.615  1.00  0.00     0.040 A 
ATOM     75  C   UNL     1      12.348  -9.028   3.124  1.00  0.00     0.040 A 
ATOM     76  F   UNL     1      10.078  -9.383   2.642  1.00  0.00    -0.206 F 
ATOM     77  C   UNL     1      13.694  -9.183   2.795  1.00  0.00     0.006 A 
ENDBRANCH  49  70
BRANCH  61  78
ATOM     78  C   UNL     1       9.826 -16.682  -0.628  1.00  0.00     0.057 A 
ATOM     79  C   UNL     1       9.659 -17.216   0.655  1.00  0.00     0.134 A 
ATOM     80  C   UNL     1      10.507 -17.461  -1.572  1.00  0.00     0.134 A 
ATOM     81  F   UNL     1       9.026 -16.514   1.607  1.00  0.00    -0.206 F 
ATOM     82  C   UNL     1      10.174 -18.467   0.995  1.00  0.00     0.040 A 
ATOM     83  C   UNL     1      11.003 -18.724  -1.252  1.00  0.00     0.040 A 
ATOM     84  F   UNL     1      10.691 -17.010  -2.822  1.00  0.00    -0.206 F 
ATOM     85  C   UNL     1      10.843 -19.228   0.038  1.00  0.00     0.006 A 
ENDBRANCH  61  78
ENDBRANCH  35  36
ENDBRANCH  27  30
ENDBRANCH  25  26
ENDBRANCH   1  25
TORSDOF 12
