REMARK SMILES Cc1nc(SCc2ccccc2)[nH]c(=O)c1CCC(=O)NCCCNC(=O)c1ccc(-c2c3nc(c(-c4c(F)cccc4F)c4ccc([nH]4)c(-c4c(F)cccc4F)c4nc(c(-c5c(F)cccc5F)c5ccc2[nH]5)C=C4)C=C3)cc1
REMARK SMILES IDX 19 1 20 2 21 3 18 5 17 6 16 7 1 8 2 9 3 10 4 11 14 12 13 13
REMARK SMILES IDX 15 14 5 16 6 17 7 18 8 19 12 20 9 21 11 22 10 23 22 24 23 25
REMARK SMILES IDX 24 26 25 27 26 28 27 30 28 31 29 32 81 33 30 34 80 35 31 36
REMARK SMILES IDX 32 37 33 38 74 39 34 40 79 41 73 42 75 43 35 44 78 45 72 46
REMARK SMILES IDX 71 47 36 49 62 50 45 51 61 52 46 53 49 54 60 55 76 56 47 57
REMARK SMILES IDX 48 58 59 60 77 61 50 62 37 63 38 64 43 65 39 66 40 67 42 68
REMARK SMILES IDX 44 69 41 70 63 71 64 72 69 73 65 74 66 75 68 76 70 77 67 78
REMARK SMILES IDX 51 79 52 80 57 81 53 82 54 83 56 84 58 85 55 86
REMARK H PARENT 21 4 13 15 25 29 75 48 49 59
REMARK Flexibility Score: inf
ROOT
ATOM      1  C   UNL     1       1.883  -2.699  -1.145  1.00  0.00     0.220 C 
ATOM      2  O   UNL     1       2.350  -3.818  -0.920  1.00  0.00    -0.275 OA
ATOM      3  N   UNL     1       2.752  -1.671  -1.346  1.00  0.00    -0.356 N 
ATOM      4  H   UNL     1       3.696  -1.945  -1.383  1.00  0.00     0.163 HD
ENDROOT
BRANCH   1   5
ATOM      5  C   UNL     1       0.384  -2.503  -1.246  1.00  0.00     0.105 C 
BRANCH   5   6
ATOM      6  C   UNL     1      -0.328  -2.619   0.115  1.00  0.00     0.053 C 
BRANCH   6   7
ATOM      7  C   UNL     1      -0.764  -1.263   0.608  1.00  0.00     0.039 A 
ATOM      8  C   UNL     1      -3.204  -1.514   0.099  1.00  0.00     0.067 C 
ATOM      9  C   UNL     1      -2.001  -0.728   0.555  1.00  0.00     0.049 A 
ATOM     10  N   UNL     1      -2.249   0.621   0.726  1.00  0.00    -0.229 NA
ATOM     11  C   UNL     1      -1.227   1.389   0.883  1.00  0.00     0.168 A 
ATOM     12  C   UNL     1       0.298  -0.393   1.161  1.00  0.00     0.254 A 
ATOM     13  N   UNL     1       0.020   0.935   1.136  1.00  0.00    -0.301 N 
ATOM     14  O   UNL     1       1.369  -0.833   1.554  1.00  0.00    -0.269 OA
ATOM     15  H   UNL     1       0.743   1.582   1.307  1.00  0.00     0.172 HD
BRANCH  11  16
ATOM     16  S   UNL     1      -1.251   3.114   0.735  1.00  0.00    -0.083 SA
BRANCH  16  17
ATOM     17  C   UNL     1      -2.918   3.450   0.135  1.00  0.00     0.113 C 
BRANCH  17  18
ATOM     18  C   UNL     1      -3.234   3.241  -1.335  1.00  0.00    -0.038 A 
ATOM     19  C   UNL     1      -3.910   4.254  -2.039  1.00  0.00     0.004 A 
ATOM     20  C   UNL     1      -3.048   2.017  -1.993  1.00  0.00     0.004 A 
ATOM     21  C   UNL     1      -4.415   4.031  -3.325  1.00  0.00     0.000 A 
ATOM     22  C   UNL     1      -3.560   1.787  -3.273  1.00  0.00     0.000 A 
ATOM     23  C   UNL     1      -4.256   2.790  -3.935  1.00  0.00     0.000 A 
ENDBRANCH  17  18
ENDBRANCH  16  17
ENDBRANCH  11  16
ENDBRANCH   6   7
ENDBRANCH   5   6
ENDBRANCH   1   5
BRANCH   3  24
ATOM     24  C   UNL     1       2.541  -0.238  -1.518  1.00  0.00     0.117 C 
BRANCH  24  25
ATOM     25  C   UNL     1       3.241   0.559  -0.403  1.00  0.00     0.042 C 
BRANCH  25  26
ATOM     26  C   UNL     1       4.301   1.531  -0.907  1.00  0.00     0.118 C 
BRANCH  26  27
ATOM     27  N   UNL     1       3.723   2.701  -1.543  1.00  0.00    -0.352 N 
ATOM     28  C   UNL     1       3.238   3.913  -1.129  1.00  0.00     0.251 C 
ATOM     29  H   UNL     1       3.664   2.596  -2.521  1.00  0.00     0.163 HD
ATOM     30  O   UNL     1       2.765   4.620  -2.025  1.00  0.00    -0.269 OA
BRANCH  28  31
ATOM     31  C   UNL     1       3.223   4.449   0.271  1.00  0.00     0.039 A 
ATOM     32  C   UNL     1       2.494   5.639   0.472  1.00  0.00     0.014 A 
ATOM     33  C   UNL     1       3.903   3.925   1.371  1.00  0.00     0.014 A 
ATOM     34  C   UNL     1       2.471   6.295   1.712  1.00  0.00     0.010 A 
ATOM     35  C   UNL     1       3.842   4.555   2.629  1.00  0.00     0.010 A 
ATOM     36  C   UNL     1       3.144   5.758   2.813  1.00  0.00    -0.014 A 
BRANCH  36  37
ATOM     37  C   UNL     1       3.140   6.445   4.139  1.00  0.00     0.031 A 
ATOM     38  C   UNL     1       4.425   6.952   4.749  1.00  0.00     0.074 A 
ATOM     39  C   UNL     1       1.989   6.588   4.827  1.00  0.00     0.049 A 
ATOM     40  N   UNL     1       4.631   7.492   5.926  1.00  0.00    -0.248 NA
ATOM     41  C   UNL     1       5.643   6.808   3.938  1.00  0.00     0.031 C 
ATOM     42  C   UNL     1       0.674   6.125   4.382  1.00  0.00     0.029 A 
ATOM     43  N   UNL     1       1.742   7.156   6.054  1.00  0.00    -0.354 N 
ATOM     44  C   UNL     1       6.001   7.717   6.009  1.00  0.00     0.074 A 
ATOM     45  C   UNL     1       6.580   7.225   4.777  1.00  0.00     0.031 C 
ATOM     46  C   UNL     1      -0.242   6.443   5.310  1.00  0.00     0.029 A 
ATOM     47  C   UNL     1       0.422   7.100   6.433  1.00  0.00     0.049 A 
ATOM     48  H   UNL     1       2.444   7.565   6.609  1.00  0.00     0.167 HD
ATOM     49  C   UNL     1       6.713   8.296   7.008  1.00  0.00     0.037 A 
ATOM     50  C   UNL     1      -0.188   7.519   7.559  1.00  0.00     0.037 A 
ATOM     51  C   UNL     1       6.139   8.837   8.214  1.00  0.00     0.049 A 
ATOM     52  C   UNL     1       0.618   8.180   8.643  1.00  0.00     0.074 A 
ATOM     53  C   UNL     1       6.775   9.504   9.249  1.00  0.00     0.029 A 
ATOM     54  N   UNL     1       4.794   8.780   8.544  1.00  0.00    -0.354 N 
ATOM     55  N   UNL     1       1.905   8.424   8.684  1.00  0.00    -0.248 NA
ATOM     56  C   UNL     1      -0.117   8.627   9.836  1.00  0.00     0.031 C 
ATOM     57  C   UNL     1       5.819   9.823  10.220  1.00  0.00     0.029 A 
ATOM     58  C   UNL     1       4.582   9.389   9.772  1.00  0.00     0.049 A 
ATOM     59  H   UNL     1       4.093   8.369   7.989  1.00  0.00     0.167 HD
ATOM     60  C   UNL     1       2.131   9.070   9.893  1.00  0.00     0.074 A 
ATOM     61  C   UNL     1       0.846   9.196  10.549  1.00  0.00     0.031 C 
ATOM     62  C   UNL     1       3.300   9.515  10.414  1.00  0.00     0.037 A 
BRANCH  49  63
ATOM     63  C   UNL     1       8.204   8.381   6.840  1.00  0.00     0.057 A 
ATOM     64  C   UNL     1       8.797   9.254   5.919  1.00  0.00     0.134 A 
ATOM     65  C   UNL     1       9.059   7.607   7.636  1.00  0.00     0.134 A 
ATOM     66  F   UNL     1       8.036  10.018   5.121  1.00  0.00    -0.206 F 
ATOM     67  C   UNL     1      10.183   9.332   5.773  1.00  0.00     0.040 A 
ATOM     68  C   UNL     1      10.447   7.696   7.519  1.00  0.00     0.040 A 
ATOM     69  F   UNL     1       8.560   6.759   8.548  1.00  0.00    -0.206 F 
ATOM     70  C   UNL     1      11.013   8.555   6.579  1.00  0.00     0.006 A 
ENDBRANCH  49  63
BRANCH  50  71
ATOM     71  C   UNL     1      -1.655   7.346   7.714  1.00  0.00     0.057 A 
ATOM     72  C   UNL     1      -2.518   8.446   7.661  1.00  0.00     0.134 A 
ATOM     73  C   UNL     1      -2.225   6.086   7.926  1.00  0.00     0.134 A 
ATOM     74  F   UNL     1      -2.027   9.682   7.484  1.00  0.00    -0.206 F 
ATOM     75  C   UNL     1      -3.897   8.302   7.827  1.00  0.00     0.040 A 
ATOM     76  C   UNL     1      -3.604   5.925   8.070  1.00  0.00     0.040 A 
ATOM     77  F   UNL     1      -1.451   4.993   7.984  1.00  0.00    -0.206 F 
ATOM     78  C   UNL     1      -4.444   7.036   8.027  1.00  0.00     0.006 A 
ENDBRANCH  50  71
BRANCH  62  79
ATOM     79  C   UNL     1       3.240  10.207  11.744  1.00  0.00     0.057 A 
ATOM     80  C   UNL     1       3.028   9.501  12.934  1.00  0.00     0.134 A 
ATOM     81  C   UNL     1       3.428  11.592  11.838  1.00  0.00     0.134 A 
ATOM     82  F   UNL     1       2.827   8.174  12.911  1.00  0.00    -0.206 F 
ATOM     83  C   UNL     1       2.983  10.150  14.169  1.00  0.00     0.040 A 
ATOM     84  C   UNL     1       3.408  12.249  13.069  1.00  0.00     0.040 A 
ATOM     85  F   UNL     1       3.642  12.327  10.736  1.00  0.00    -0.206 F 
ATOM     86  C   UNL     1       3.179  11.528  14.239  1.00  0.00     0.006 A 
ENDBRANCH  62  79
ENDBRANCH  36  37
ENDBRANCH  28  31
ENDBRANCH  26  27
ENDBRANCH  25  26
ENDBRANCH  24  25
ENDBRANCH   3  24
TORSDOF 15
