REMARK SMILES Cc1cc2c(cc1C)O[C@@H](C(=O)NCCCNC(=O)c1ccc(-c3c4nc(c(-c5c(F)cccc5F)c5ccc([nH]5)c(-c5c(F)cccc5F)c5nc(c(-c6c(F)cccc6F)c6ccc3[nH]6)C=C5)C=C4)cc1)C2
REMARK SMILES IDX 16 1 15 2 14 3 13 4 11 5 12 6 10 8 1 9 2 10 3 11 7 12 4 13
REMARK SMILES IDX 6 14 8 15 5 16 74 17 9 18 17 19 18 20 19 22 20 23 21 24
REMARK SMILES IDX 73 25 22 26 72 27 23 28 24 29 25 30 66 31 26 32 71 33 65 34
REMARK SMILES IDX 67 35 27 36 70 37 64 38 63 39 28 41 54 42 37 43 53 44 38 45
REMARK SMILES IDX 41 46 52 47 68 48 39 49 40 50 51 52 69 53 42 54 29 55 30 56
REMARK SMILES IDX 35 57 31 58 32 59 34 60 36 61 33 62 55 63 56 64 61 65 57 66
REMARK SMILES IDX 58 67 60 68 62 69 59 70 43 71 44 72 49 73 45 74 46 75 48 76
REMARK SMILES IDX 50 77 47 78
REMARK H PARENT 13 7 17 21 67 40 41 51
REMARK Flexibility Score: inf
ROOT
ATOM      1  C   UNL     1      -1.313 -10.069   0.557  1.00  0.00     0.118 C 
ENDROOT
BRANCH   1   2
ATOM      2  C   UNL     1      -1.167  -8.607   0.955  1.00  0.00     0.042 C 
BRANCH   2   3
ATOM      3  C   UNL     1       0.031  -7.924   0.312  1.00  0.00     0.118 C 
BRANCH   3   4
ATOM      4  N   UNL     1      -0.018  -7.956  -1.141  1.00  0.00    -0.353 N 
ATOM      5  C   UNL     1      -0.191  -6.929  -2.031  1.00  0.00     0.261 C 
ATOM      6  O   UNL     1      -0.220  -7.203  -3.230  1.00  0.00    -0.271 OA
ATOM      7  H   UNL     1       0.090  -8.847  -1.545  1.00  0.00     0.163 HD
BRANCH   5   8
ATOM      8  C   UNL     1      -0.353  -5.513  -1.482  1.00  0.00     0.266 C 
ATOM      9  C   UNL     1       1.201  -0.025   0.188  1.00  0.00     0.044 C 
ATOM     10  C   UNL     1       0.654  -1.173  -0.615  1.00  0.00    -0.048 A 
ATOM     11  C   UNL     1       1.193  -2.452  -0.383  1.00  0.00     0.011 A 
ATOM     12  C   UNL     1      -0.419  -1.014  -1.535  1.00  0.00    -0.045 A 
ATOM     13  C   UNL     1       0.647  -3.530  -1.047  1.00  0.00    -0.001 A 
ATOM     14  C   UNL     1      -0.926  -2.134  -2.223  1.00  0.00     0.050 A 
ATOM     15  C   UNL     1      -1.079   0.310  -1.810  1.00  0.00     0.045 C 
ATOM     16  C   UNL     1      -0.398  -3.371  -1.939  1.00  0.00     0.124 A 
ATOM     17  C   UNL     1       0.989  -4.967  -0.975  1.00  0.00     0.095 C 
ATOM     18  O   UNL     1      -0.863  -4.561  -2.442  1.00  0.00    -0.480 OA
ENDBRANCH   5   8
ENDBRANCH   3   4
ENDBRANCH   2   3
ENDBRANCH   1   2
BRANCH   1  19
ATOM     19  N   UNL     1      -0.147 -10.871   0.914  1.00  0.00    -0.352 N 
ATOM     20  C   UNL     1       0.149 -11.591   2.047  1.00  0.00     0.251 C 
ATOM     21  H   UNL     1       0.551 -10.902   0.221  1.00  0.00     0.163 HD
ATOM     22  O   UNL     1       1.297 -11.993   2.224  1.00  0.00    -0.269 OA
BRANCH  20  23
ATOM     23  C   UNL     1      -0.886 -11.851   3.069  1.00  0.00     0.039 A 
ATOM     24  C   UNL     1      -2.189 -12.164   2.695  1.00  0.00     0.014 A 
ATOM     25  C   UNL     1      -0.547 -11.799   4.425  1.00  0.00     0.014 A 
ATOM     26  C   UNL     1      -3.192 -12.197   3.654  1.00  0.00     0.010 A 
ATOM     27  C   UNL     1      -1.540 -11.959   5.398  1.00  0.00     0.010 A 
ATOM     28  C   UNL     1      -2.884 -12.099   5.019  1.00  0.00    -0.014 A 
BRANCH  28  29
ATOM     29  C   UNL     1      -3.989 -12.136   6.014  1.00  0.00     0.031 A 
ATOM     30  C   UNL     1      -4.250 -10.960   6.919  1.00  0.00     0.074 A 
ATOM     31  C   UNL     1      -4.818 -13.200   6.037  1.00  0.00     0.049 A 
ATOM     32  N   UNL     1      -5.179 -10.813   7.830  1.00  0.00    -0.248 NA
ATOM     33  C   UNL     1      -3.354  -9.799   6.792  1.00  0.00     0.031 C 
ATOM     34  C   UNL     1      -4.684 -14.391   5.195  1.00  0.00     0.029 A 
ATOM     35  N   UNL     1      -5.958 -13.436   6.761  1.00  0.00    -0.354 N 
ATOM     36  C   UNL     1      -4.967  -9.561   8.395  1.00  0.00     0.074 A 
ATOM     37  C   UNL     1      -3.805  -8.996   7.746  1.00  0.00     0.031 C 
ATOM     38  C   UNL     1      -5.742 -15.191   5.390  1.00  0.00     0.029 A 
ATOM     39  C   UNL     1      -6.585 -14.614   6.431  1.00  0.00     0.049 A 
ATOM     40  H   UNL     1      -6.296 -12.821   7.452  1.00  0.00     0.167 HD
ATOM     41  C   UNL     1      -5.686  -8.934   9.356  1.00  0.00     0.037 A 
ATOM     42  C   UNL     1      -7.705 -15.179   6.919  1.00  0.00     0.037 A 
ATOM     43  C   UNL     1      -6.864  -9.482   9.974  1.00  0.00     0.049 A 
ATOM     44  C   UNL     1      -8.452 -14.481   8.017  1.00  0.00     0.074 A 
ATOM     45  C   UNL     1      -7.662  -8.918  10.956  1.00  0.00     0.029 A 
ATOM     46  N   UNL     1      -7.423 -10.711   9.661  1.00  0.00    -0.354 N 
ATOM     47  N   UNL     1      -8.221 -13.309   8.557  1.00  0.00    -0.248 NA
ATOM     48  C   UNL     1      -9.604 -15.192   8.589  1.00  0.00     0.031 C 
ATOM     49  C   UNL     1      -8.683  -9.822  11.261  1.00  0.00     0.029 A 
ATOM     50  C   UNL     1      -8.546 -10.930  10.441  1.00  0.00     0.049 A 
ATOM     51  H   UNL     1      -7.073 -11.336   8.985  1.00  0.00     0.167 HD
ATOM     52  C   UNL     1      -9.200 -13.139   9.525  1.00  0.00     0.074 A 
ATOM     53  C   UNL     1     -10.043 -14.315   9.482  1.00  0.00     0.031 C 
ATOM     54  C   UNL     1      -9.377 -12.104  10.380  1.00  0.00     0.037 A 
BRANCH  41  55
ATOM     55  C   UNL     1      -5.228  -7.579   9.808  1.00  0.00     0.057 A 
ATOM     56  C   UNL     1      -5.424  -6.436   9.023  1.00  0.00     0.134 A 
ATOM     57  C   UNL     1      -4.667  -7.402  11.080  1.00  0.00     0.134 A 
ATOM     58  F   UNL     1      -5.944  -6.538   7.791  1.00  0.00    -0.206 F 
ATOM     59  C   UNL     1      -5.077  -5.165   9.487  1.00  0.00     0.040 A 
ATOM     60  C   UNL     1      -4.335  -6.135  11.562  1.00  0.00     0.040 A 
ATOM     61  F   UNL     1      -4.458  -8.456  11.884  1.00  0.00    -0.206 F 
ATOM     62  C   UNL     1      -4.541  -5.011  10.764  1.00  0.00     0.006 A 
ENDBRANCH  41  55
BRANCH  42  63
ATOM     63  C   UNL     1      -8.174 -16.481   6.383  1.00  0.00     0.057 A 
ATOM     64  C   UNL     1      -9.359 -16.574   5.645  1.00  0.00     0.134 A 
ATOM     65  C   UNL     1      -7.448 -17.661   6.589  1.00  0.00     0.134 A 
ATOM     66  F   UNL     1     -10.109 -15.483   5.432  1.00  0.00    -0.206 F 
ATOM     67  C   UNL     1      -9.809 -17.794   5.137  1.00  0.00     0.040 A 
ATOM     68  C   UNL     1      -7.871 -18.882   6.063  1.00  0.00     0.040 A 
ATOM     69  F   UNL     1      -6.302 -17.638   7.285  1.00  0.00    -0.206 F 
ATOM     70  C   UNL     1      -9.059 -18.951   5.340  1.00  0.00     0.006 A 
ENDBRANCH  42  63
BRANCH  54  71
ATOM     71  C   UNL     1     -10.533 -12.187  11.329  1.00  0.00     0.057 A 
ATOM     72  C   UNL     1     -10.504 -13.031  12.446  1.00  0.00     0.134 A 
ATOM     73  C   UNL     1     -11.659 -11.372  11.158  1.00  0.00     0.134 A 
ATOM     74  F   UNL     1      -9.458 -13.844  12.657  1.00  0.00    -0.206 F 
ATOM     75  C   UNL     1     -11.562 -13.070  13.354  1.00  0.00     0.040 A 
ATOM     76  C   UNL     1     -12.713 -11.386  12.072  1.00  0.00     0.040 A 
ATOM     77  F   UNL     1     -11.742 -10.536  10.112  1.00  0.00    -0.206 F 
ATOM     78  C   UNL     1     -12.667 -12.240  13.173  1.00  0.00     0.006 A 
ENDBRANCH  54  71
ENDBRANCH  28  29
ENDBRANCH  20  23
ENDBRANCH   1  19
TORSDOF 10
