REMARK SMILES CCN(CC(C)(C)O)C(=O)Nc1ccc(C(=O)NCCCNC(=O)c2ccc(-c3c4nc(c(-c5c(F)cccc5F)c5ccc([nH]5)c(-c5c(F)cccc5F)c5nc(c(-c6c(F)cccc6F)c6ccc3[nH]6)C=C5)C=C4)cc2)c(O)c1
REMARK SMILES IDX 16 1 17 2 18 3 15 5 12 6 13 7 81 8 14 9 79 10 11 11 9 12
REMARK SMILES IDX 10 13 3 15 2 16 1 17 4 18 5 19 6 20 7 21 8 22 80 24 19 26
REMARK SMILES IDX 20 27 21 28 22 29 23 30 24 32 25 33 26 34 78 35 27 36 77 37
REMARK SMILES IDX 28 38 29 39 30 40 71 41 31 42 76 43 70 44 72 45 32 46 75 47
REMARK SMILES IDX 69 48 68 49 33 51 59 52 42 53 58 54 43 55 46 56 57 57 73 58
REMARK SMILES IDX 44 59 45 60 56 62 74 63 47 64 34 65 35 66 40 67 36 68 37 69
REMARK SMILES IDX 39 70 41 71 38 72 60 73 61 74 66 75 62 76 63 77 65 78 67 79
REMARK SMILES IDX 64 80 48 81 49 82 54 83 50 84 51 85 53 86 55 87 52 88
REMARK H PARENT 18 4 11 14 8 23 80 25 22 31 72 50 46 61
REMARK Flexibility Score: inf
ROOT
ATOM      1  C   UNL     1       0.638   6.805  -6.180  1.00  0.00     0.255 C 
ATOM      2  O   UNL     1       0.206   7.842  -5.685  1.00  0.00    -0.269 OA
ATOM      3  N   UNL     1       0.402   6.523  -7.489  1.00  0.00    -0.352 N 
ATOM      4  H   UNL     1      -0.146   7.184  -7.970  1.00  0.00     0.163 HD
ENDROOT
BRANCH   1   5
ATOM      5  C   UNL     1       1.270   5.795  -5.330  1.00  0.00     0.081 A 
ATOM      6  C   UNL     1       2.132   3.800  -3.526  1.00  0.00     0.046 A 
ATOM      7  C   UNL     1       0.916   4.424  -3.425  1.00  0.00     0.027 A 
ATOM      8  C   UNL     1       2.934   4.174  -4.615  1.00  0.00     0.073 A 
ATOM      9  C   UNL     1       0.469   5.409  -4.281  1.00  0.00     0.020 A 
ATOM     10  C   UNL     1       2.515   5.186  -5.499  1.00  0.00     0.130 A 
BRANCH   6  11
ATOM     11  N   UNL     1       2.632   2.898  -2.578  1.00  0.00    -0.308 N 
ATOM     12  C   UNL     1       2.358   2.300  -1.402  1.00  0.00     0.321 C 
ATOM     13  O   UNL     1       3.340   1.652  -0.995  1.00  0.00    -0.248 OA
ATOM     14  H   UNL     1       3.514   2.585  -2.885  1.00  0.00     0.171 HD
BRANCH  12  15
ATOM     15  N   UNL     1       1.203   2.300  -0.665  1.00  0.00    -0.322 N 
BRANCH  15  16
ATOM     16  C   UNL     1       1.212   1.387   0.494  1.00  0.00     0.118 C 
ATOM     17  C   UNL     1       1.180  -0.080   0.066  1.00  0.00     0.027 C 
ENDBRANCH  15  16
BRANCH  15  18
ATOM     18  C   UNL     1      -0.100   2.974  -0.830  1.00  0.00     0.155 C 
BRANCH  18  19
ATOM     19  C   UNL     1      -0.219   4.438  -0.246  1.00  0.00     0.077 C 
ATOM     20  C   UNL     1       1.060   5.295  -0.270  1.00  0.00     0.043 C 
ATOM     21  C   UNL     1      -1.395   5.195  -0.907  1.00  0.00     0.043 C 
BRANCH  19  22
ATOM     22  O   UNL     1      -0.566   4.314   1.149  1.00  0.00    -0.389 OA
ATOM     23  H   UNL     1       0.141   3.844   1.617  1.00  0.00     0.211 HD
ENDBRANCH  19  22
ENDBRANCH  18  19
ENDBRANCH  15  18
ENDBRANCH  12  15
ENDBRANCH   6  11
BRANCH  10  24
ATOM     24  O   UNL     1       3.385   5.535  -6.494  1.00  0.00    -0.507 OA
ATOM     25  H   UNL     1       3.151   6.205  -7.107  1.00  0.00     0.293 HD
ENDBRANCH  10  24
ENDBRANCH   1   5
BRANCH   3  26
ATOM     26  C   UNL     1       0.841   5.388  -8.279  1.00  0.00     0.118 C 
BRANCH  26  27
ATOM     27  C   UNL     1      -0.263   4.773  -9.116  1.00  0.00     0.042 C 
BRANCH  27  28
ATOM     28  C   UNL     1      -1.099   5.797  -9.864  1.00  0.00     0.118 C 
BRANCH  28  29
ATOM     29  N   UNL     1      -0.288   6.703 -10.675  1.00  0.00    -0.352 N 
ATOM     30  C   UNL     1       0.141   6.591 -11.980  1.00  0.00     0.251 C 
ATOM     31  H   UNL     1      -0.002   7.526 -10.216  1.00  0.00     0.163 HD
ATOM     32  O   UNL     1       1.018   7.321 -12.411  1.00  0.00    -0.269 OA
BRANCH  30  33
ATOM     33  C   UNL     1      -0.457   5.547 -12.834  1.00  0.00     0.039 A 
ATOM     34  C   UNL     1       0.355   4.756 -13.649  1.00  0.00     0.014 A 
ATOM     35  C   UNL     1      -1.828   5.324 -12.774  1.00  0.00     0.014 A 
ATOM     36  C   UNL     1      -0.208   3.671 -14.326  1.00  0.00     0.010 A 
ATOM     37  C   UNL     1      -2.350   4.163 -13.311  1.00  0.00     0.010 A 
ATOM     38  C   UNL     1      -1.555   3.335 -14.117  1.00  0.00    -0.014 A 
BRANCH  38  39
ATOM     39  C   UNL     1      -2.211   2.172 -14.764  1.00  0.00     0.031 A 
ATOM     40  C   UNL     1      -3.448   2.410 -15.592  1.00  0.00     0.074 A 
ATOM     41  C   UNL     1      -1.785   0.919 -14.518  1.00  0.00     0.049 A 
ATOM     42  N   UNL     1      -4.318   1.550 -16.052  1.00  0.00    -0.248 NA
ATOM     43  C   UNL     1      -3.784   3.816 -15.886  1.00  0.00     0.031 C 
ATOM     44  C   UNL     1      -0.625   0.553 -13.702  1.00  0.00     0.029 A 
ATOM     45  N   UNL     1      -2.300  -0.288 -14.919  1.00  0.00    -0.354 N 
ATOM     46  C   UNL     1      -5.314   2.312 -16.650  1.00  0.00     0.074 A 
ATOM     47  C   UNL     1      -4.988   3.700 -16.421  1.00  0.00     0.031 C 
ATOM     48  C   UNL     1      -0.501  -0.785 -13.689  1.00  0.00     0.029 A 
ATOM     49  C   UNL     1      -1.601  -1.373 -14.445  1.00  0.00     0.049 A 
ATOM     50  H   UNL     1      -3.095  -0.370 -15.493  1.00  0.00     0.167 HD
ATOM     51  C   UNL     1      -6.386   1.896 -17.362  1.00  0.00     0.037 A 
ATOM     52  C   UNL     1      -1.835  -2.690 -14.595  1.00  0.00     0.037 A 
ATOM     53  C   UNL     1      -6.672   0.515 -17.635  1.00  0.00     0.049 A 
ATOM     54  C   UNL     1      -3.038  -3.131 -15.388  1.00  0.00     0.074 A 
ATOM     55  C   UNL     1      -7.702  -0.020 -18.388  1.00  0.00     0.029 A 
ATOM     56  N   UNL     1      -5.912  -0.549 -17.175  1.00  0.00    -0.354 N 
ATOM     57  N   UNL     1      -3.951  -2.401 -15.982  1.00  0.00    -0.248 NA
ATOM     58  C   UNL     1      -3.241  -4.579 -15.533  1.00  0.00     0.031 C 
ATOM     59  C   UNL     1      -7.585  -1.412 -18.353  1.00  0.00     0.029 A 
ATOM     60  C   UNL     1      -6.452  -1.740 -17.624  1.00  0.00     0.049 A 
ATOM     61  H   UNL     1      -5.107  -0.469 -16.614  1.00  0.00     0.167 HD
ATOM     62  C   UNL     1      -4.806  -3.297 -16.610  1.00  0.00     0.074 A 
ATOM     63  C   UNL     1      -4.303  -4.624 -16.325  1.00  0.00     0.031 C 
ATOM     64  C   UNL     1      -5.907  -3.047 -17.360  1.00  0.00     0.037 A 
BRANCH  51  65
ATOM     65  C   UNL     1      -7.304   2.949 -17.912  1.00  0.00     0.057 A 
ATOM     66  C   UNL     1      -6.897   3.830 -18.923  1.00  0.00     0.134 A 
ATOM     67  C   UNL     1      -8.616   3.075 -17.438  1.00  0.00     0.134 A 
ATOM     68  F   UNL     1      -5.647   3.775 -19.411  1.00  0.00    -0.206 F 
ATOM     69  C   UNL     1      -7.747   4.819 -19.419  1.00  0.00     0.040 A 
ATOM     70  C   UNL     1      -9.487   4.039 -17.950  1.00  0.00     0.040 A 
ATOM     71  F   UNL     1      -9.074   2.263 -16.473  1.00  0.00    -0.206 F 
ATOM     72  C   UNL     1      -9.050   4.920 -18.937  1.00  0.00     0.006 A 
ENDBRANCH  51  65
BRANCH  52  73
ATOM     73  C   UNL     1      -0.907  -3.693 -14.012  1.00  0.00     0.057 A 
ATOM     74  C   UNL     1      -0.118  -4.505 -14.837  1.00  0.00     0.134 A 
ATOM     75  C   UNL     1      -0.804  -3.891 -12.630  1.00  0.00     0.134 A 
ATOM     76  F   UNL     1      -0.183  -4.375 -16.171  1.00  0.00    -0.206 F 
ATOM     77  C   UNL     1       0.714  -5.496 -14.314  1.00  0.00     0.040 A 
ATOM     78  C   UNL     1       0.045  -4.860 -12.091  1.00  0.00     0.040 A 
ATOM     79  F   UNL     1      -1.523  -3.141 -11.782  1.00  0.00    -0.206 F 
ATOM     80  C   UNL     1       0.798  -5.674 -12.935  1.00  0.00     0.006 A 
ENDBRANCH  52  73
BRANCH  64  81
ATOM     81  C   UNL     1      -6.598  -4.218 -17.992  1.00  0.00     0.057 A 
ATOM     82  C   UNL     1      -7.370  -5.119 -17.250  1.00  0.00     0.134 A 
ATOM     83  C   UNL     1      -6.548  -4.396 -19.382  1.00  0.00     0.134 A 
ATOM     84  F   UNL     1      -7.449  -5.007 -15.915  1.00  0.00    -0.206 F 
ATOM     85  C   UNL     1      -8.055  -6.167 -17.865  1.00  0.00     0.040 A 
ATOM     86  C   UNL     1      -7.252  -5.422 -20.011  1.00  0.00     0.040 A 
ATOM     87  F   UNL     1      -5.835  -3.559 -20.151  1.00  0.00    -0.206 F 
ATOM     88  C   UNL     1      -8.006  -6.314 -19.250  1.00  0.00     0.006 A 
ENDBRANCH  64  81
ENDBRANCH  38  39
ENDBRANCH  30  33
ENDBRANCH  28  29
ENDBRANCH  27  28
ENDBRANCH  26  27
ENDBRANCH   3  26
TORSDOF 17
