REMARK SMILES C[C@@](O)(CC1(C(=O)NCCCNC(=O)c2ccc(-c3c4nc(c(-c5c(F)cccc5F)c5ccc([nH]5)c(-c5c(F)cccc5F)c5nc(c(-c6c(F)cccc6F)c6ccc3[nH]6)C=C5)C=C4)cc2)CC1)c1ccccc1
REMARK SMILES IDX 9 1 8 2 6 3 7 4 5 6 69 7 70 8 4 9 2 10 1 11 3 12 71 14 72 15
REMARK SMILES IDX 76 16 73 17 75 18 74 19 10 20 11 21 12 22 13 23 14 25 15 26
REMARK SMILES IDX 16 27 68 28 17 29 67 30 18 31 19 32 20 33 61 34 21 35 66 36
REMARK SMILES IDX 60 37 62 38 22 39 65 40 59 41 58 42 23 44 49 45 32 46 48 47
REMARK SMILES IDX 33 48 36 49 47 50 63 51 34 52 35 53 46 55 64 56 37 57 24 58
REMARK SMILES IDX 25 59 30 60 26 61 27 62 29 63 31 64 28 65 50 66 51 67 56 68
REMARK SMILES IDX 52 69 53 70 55 71 57 72 54 73 38 74 39 75 44 76 40 77 41 78
REMARK SMILES IDX 43 79 45 80 42 81
REMARK H PARENT 8 5 3 13 12 24 62 43 36 54
REMARK Flexibility Score: inf
ROOT
ATOM      1  C   UNL     1      -1.778   2.705   2.367  1.00  0.00     0.117 C 
ENDROOT
BRANCH   1   2
ATOM      2  N   UNL     1      -1.349   1.383   1.968  1.00  0.00    -0.356 N 
ATOM      3  C   UNL     1      -1.663   0.623   0.877  1.00  0.00     0.226 C 
ATOM      4  O   UNL     1      -1.688  -0.593   1.029  1.00  0.00    -0.274 OA
ATOM      5  H   UNL     1      -0.718   0.956   2.592  1.00  0.00     0.163 HD
BRANCH   3   6
ATOM      6  C   UNL     1      -1.837   1.179  -0.511  1.00  0.00     0.052 C 
ATOM      7  C   UNL     1      -2.471   2.509  -0.900  1.00  0.00     0.018 C 
ATOM      8  C   UNL     1      -3.318   1.287  -0.913  1.00  0.00     0.018 C 
BRANCH   6   9
ATOM      9  C   UNL     1      -0.954   0.503  -1.585  1.00  0.00     0.056 C 
BRANCH   9  10
ATOM     10  C   UNL     1       0.597   0.540  -1.467  1.00  0.00     0.088 C 
ATOM     11  C   UNL     1       1.167   0.076  -0.120  1.00  0.00     0.047 C 
BRANCH  10  12
ATOM     12  O   UNL     1       1.020  -0.434  -2.457  1.00  0.00    -0.385 OA
ATOM     13  H   UNL     1       0.638  -1.300  -2.242  1.00  0.00     0.211 HD
ENDBRANCH  10  12
BRANCH  10  14
ATOM     14  C   UNL     1       1.224   1.883  -1.851  1.00  0.00    -0.017 A 
ATOM     15  C   UNL     1       2.245   1.959  -2.818  1.00  0.00     0.007 A 
ATOM     16  C   UNL     1       0.852   3.077  -1.213  1.00  0.00     0.007 A 
ATOM     17  C   UNL     1       2.839   3.177  -3.158  1.00  0.00     0.000 A 
ATOM     18  C   UNL     1       1.429   4.300  -1.569  1.00  0.00     0.000 A 
ATOM     19  C   UNL     1       2.421   4.350  -2.543  1.00  0.00     0.000 A 
ENDBRANCH  10  14
ENDBRANCH   9  10
ENDBRANCH   6   9
ENDBRANCH   3   6
ENDBRANCH   1   2
BRANCH   1  20
ATOM     20  C   UNL     1      -3.112   2.628   3.113  1.00  0.00     0.042 C 
BRANCH  20  21
ATOM     21  C   UNL     1      -3.046   1.818   4.411  1.00  0.00     0.118 C 
BRANCH  21  22
ATOM     22  N   UNL     1      -2.174   2.428   5.407  1.00  0.00    -0.352 N 
ATOM     23  C   UNL     1      -2.451   2.855   6.681  1.00  0.00     0.251 C 
ATOM     24  H   UNL     1      -1.241   2.554   5.120  1.00  0.00     0.163 HD
ATOM     25  O   UNL     1      -1.621   3.521   7.293  1.00  0.00    -0.269 OA
BRANCH  23  26
ATOM     26  C   UNL     1      -3.745   2.532   7.318  1.00  0.00     0.039 A 
ATOM     27  C   UNL     1      -4.405   3.528   8.043  1.00  0.00     0.014 A 
ATOM     28  C   UNL     1      -4.290   1.248   7.235  1.00  0.00     0.014 A 
ATOM     29  C   UNL     1      -5.641   3.254   8.633  1.00  0.00     0.010 A 
ATOM     30  C   UNL     1      -5.553   0.995   7.766  1.00  0.00     0.010 A 
ATOM     31  C   UNL     1      -6.239   1.994   8.473  1.00  0.00    -0.014 A 
BRANCH  31  32
ATOM     32  C   UNL     1      -7.579   1.700   9.040  1.00  0.00     0.031 A 
ATOM     33  C   UNL     1      -7.735   0.670  10.122  1.00  0.00     0.074 A 
ATOM     34  C   UNL     1      -8.665   2.317   8.537  1.00  0.00     0.049 A 
ATOM     35  N   UNL     1      -8.826   0.229  10.695  1.00  0.00    -0.248 NA
ATOM     36  C   UNL     1      -6.501   0.032  10.607  1.00  0.00     0.031 C 
ATOM     37  C   UNL     1      -8.653   3.310   7.461  1.00  0.00     0.029 A 
ATOM     38  N   UNL     1      -9.992   2.194   8.861  1.00  0.00    -0.354 N 
ATOM     39  C   UNL     1      -8.413  -0.749  11.591  1.00  0.00     0.074 A 
ATOM     40  C   UNL     1      -6.978  -0.872  11.449  1.00  0.00     0.031 C 
ATOM     41  C   UNL     1      -9.909   3.730   7.238  1.00  0.00     0.029 A 
ATOM     42  C   UNL     1     -10.816   3.010   8.126  1.00  0.00     0.049 A 
ATOM     43  H   UNL     1     -10.323   1.578   9.555  1.00  0.00     0.167 HD
ATOM     44  C   UNL     1      -9.157  -1.464  12.469  1.00  0.00     0.037 A 
ATOM     45  C   UNL     1     -12.153   3.162   8.165  1.00  0.00     0.037 A 
ATOM     46  C   UNL     1     -10.581  -1.325  12.626  1.00  0.00     0.049 A 
ATOM     47  C   UNL     1     -12.960   2.347   9.135  1.00  0.00     0.074 A 
ATOM     48  C   UNL     1     -11.418  -1.962  13.526  1.00  0.00     0.029 A 
ATOM     49  N   UNL     1     -11.381  -0.490  11.860  1.00  0.00    -0.354 N 
ATOM     50  N   UNL     1     -12.551   1.465  10.014  1.00  0.00    -0.248 NA
ATOM     51  C   UNL     1     -14.415   2.549   9.116  1.00  0.00     0.031 C 
ATOM     52  C   UNL     1     -12.729  -1.539  13.280  1.00  0.00     0.029 A 
ATOM     53  C   UNL     1     -12.704  -0.609  12.253  1.00  0.00     0.049 A 
ATOM     54  H   UNL     1     -11.056   0.100  11.142  1.00  0.00     0.167 HD
ATOM     55  C   UNL     1     -13.693   1.028  10.673  1.00  0.00     0.074 A 
ATOM     56  C   UNL     1     -14.810   1.747  10.095  1.00  0.00     0.031 C 
ATOM     57  C   UNL     1     -13.804   0.117  11.670  1.00  0.00     0.037 A 
BRANCH  44  58
ATOM     58  C   UNL     1      -8.431  -2.463  13.323  1.00  0.00     0.057 A 
ATOM     59  C   UNL     1      -7.559  -2.064  14.346  1.00  0.00     0.134 A 
ATOM     60  C   UNL     1      -8.600  -3.837  13.119  1.00  0.00     0.134 A 
ATOM     61  F   UNL     1      -7.343  -0.762  14.584  1.00  0.00    -0.206 F 
ATOM     62  C   UNL     1      -6.852  -2.996  15.107  1.00  0.00     0.040 A 
ATOM     63  C   UNL     1      -7.919  -4.779  13.893  1.00  0.00     0.040 A 
ATOM     64  F   UNL     1      -9.425  -4.289  12.162  1.00  0.00    -0.206 F 
ATOM     65  C   UNL     1      -7.034  -4.359  14.883  1.00  0.00     0.006 A 
ENDBRANCH  44  58
BRANCH  45  66
ATOM     66  C   UNL     1     -12.806   4.163   7.288  1.00  0.00     0.057 A 
ATOM     67  C   UNL     1     -13.310   5.356   7.821  1.00  0.00     0.134 A 
ATOM     68  C   UNL     1     -12.930   3.967   5.908  1.00  0.00     0.134 A 
ATOM     69  F   UNL     1     -13.235   5.590   9.139  1.00  0.00    -0.206 F 
ATOM     70  C   UNL     1     -13.922   6.315   7.013  1.00  0.00     0.040 A 
ATOM     71  C   UNL     1     -13.522   4.927   5.086  1.00  0.00     0.040 A 
ATOM     72  F   UNL     1     -12.460   2.848   5.339  1.00  0.00    -0.206 F 
ATOM     73  C   UNL     1     -14.023   6.104   5.640  1.00  0.00     0.006 A 
ENDBRANCH  45  66
BRANCH  57  74
ATOM     74  C   UNL     1     -15.177  -0.129  12.220  1.00  0.00     0.057 A 
ATOM     75  C   UNL     1     -16.138  -0.860  11.511  1.00  0.00     0.134 A 
ATOM     76  C   UNL     1     -15.531   0.347  13.489  1.00  0.00     0.134 A 
ATOM     77  F   UNL     1     -15.866  -1.329  10.284  1.00  0.00    -0.206 F 
ATOM     78  C   UNL     1     -17.410  -1.093  12.037  1.00  0.00     0.040 A 
ATOM     79  C   UNL     1     -16.791   0.101  14.035  1.00  0.00     0.040 A 
ATOM     80  F   UNL     1     -14.654   1.049  14.222  1.00  0.00    -0.206 F 
ATOM     81  C   UNL     1     -17.737  -0.617  13.305  1.00  0.00     0.006 A 
ENDBRANCH  57  74
ENDBRANCH  31  32
ENDBRANCH  23  26
ENDBRANCH  21  22
ENDBRANCH  20  21
ENDBRANCH   1  20
TORSDOF 14
