REMARK SMILES O=C(COc1ccccc1/C=N/NC(=O)C1CC1)NCCCNC(=O)c1ccc(-c2c3nc(c(-c4c(F)cccc4F)c4ccc([nH]4)c(-c4c(F)cccc4F)c4nc(c(-c5c(F)cccc5F)c5ccc2[nH]5)C=C4)C=C3)cc1
REMARK SMILES IDX 1 1 2 2 19 3 3 5 4 6 5 7 6 8 10 9 7 10 9 11 8 12 11 13 12 14
REMARK SMILES IDX 13 15 14 16 15 18 16 19 17 20 18 21 20 22 21 23 22 24 23 25
REMARK SMILES IDX 24 26 25 28 26 29 27 30 79 31 28 32 78 33 29 34 30 35 31 36
REMARK SMILES IDX 72 37 32 38 77 39 71 40 73 41 33 42 76 43 70 44 69 45 34 47
REMARK SMILES IDX 60 48 43 49 59 50 44 51 47 52 58 53 74 54 45 55 46 56 57 58
REMARK SMILES IDX 75 59 48 60 35 61 36 62 41 63 37 64 38 65 40 66 42 67 39 68
REMARK SMILES IDX 61 69 62 70 67 71 63 72 64 73 66 74 68 75 65 76 49 77 50 78
REMARK SMILES IDX 55 79 51 80 52 81 54 82 56 83 53 84
REMARK H PARENT 19 4 13 17 23 27 73 46 47 57
REMARK Flexibility Score: inf
ROOT
ATOM      1  O   UNL     1       3.699   0.513   1.185  1.00  0.00    -0.271 OA
ATOM      2  C   UNL     1       3.998  -0.102   0.167  1.00  0.00     0.257 C 
ATOM      3  N   UNL     1       4.383   0.509  -1.021  1.00  0.00    -0.353 N 
ATOM      4  H   UNL     1       5.322   0.466  -1.312  1.00  0.00     0.163 HD
ENDROOT
BRANCH   2   5
ATOM      5  C   UNL     1       4.041  -1.626   0.091  1.00  0.00     0.329 C 
BRANCH   5   6
ATOM      6  O   UNL     1       3.776  -1.934  -1.282  1.00  0.00    -0.483 OA
BRANCH   6   7
ATOM      7  C   UNL     1       2.847  -2.910  -1.484  1.00  0.00     0.128 A 
ATOM      8  C   UNL     1       3.329  -4.223  -1.548  1.00  0.00     0.047 A 
ATOM      9  C   UNL     1       1.559  -2.617  -1.946  1.00  0.00     0.037 A 
ATOM     10  C   UNL     1       2.547  -5.230  -2.116  1.00  0.00     0.004 A 
ATOM     11  C   UNL     1       0.801  -3.625  -2.557  1.00  0.00     0.013 A 
ATOM     12  C   UNL     1       1.296  -4.924  -2.647  1.00  0.00     0.001 A 
BRANCH   9  13
ATOM     13  C   UNL     1       0.886  -1.304  -1.907  1.00  0.00     0.145 C 
ATOM     14  N   UNL     1       0.752  -0.565  -0.845  1.00  0.00    -0.181 NA
BRANCH  14  15
ATOM     15  N   UNL     1      -0.098   0.504  -1.044  1.00  0.00    -0.247 N 
ATOM     16  C   UNL     1      -0.209   1.616  -0.230  1.00  0.00     0.243 C 
ATOM     17  H   UNL     1      -0.679   0.472  -1.839  1.00  0.00     0.193 HD
ATOM     18  O   UNL     1      -1.064   2.470  -0.453  1.00  0.00    -0.273 OA
BRANCH  16  19
ATOM     19  C   UNL     1       0.780   1.788   0.857  1.00  0.00     0.080 C 
ATOM     20  C   UNL     1       0.722   2.969   1.802  1.00  0.00     0.014 C 
ATOM     21  C   UNL     1       0.422   1.586   2.303  1.00  0.00     0.014 C 
ENDBRANCH  16  19
ENDBRANCH  14  15
ENDBRANCH   9  13
ENDBRANCH   6   7
ENDBRANCH   5   6
ENDBRANCH   2   5
BRANCH   3  22
ATOM     22  C   UNL     1       3.408   1.208  -1.831  1.00  0.00     0.117 C 
BRANCH  22  23
ATOM     23  C   UNL     1       3.334   2.703  -1.644  1.00  0.00     0.042 C 
BRANCH  23  24
ATOM     24  C   UNL     1       4.660   3.379  -1.880  1.00  0.00     0.118 C 
BRANCH  24  25
ATOM     25  N   UNL     1       5.146   3.216  -3.243  1.00  0.00    -0.352 N 
ATOM     26  C   UNL     1       5.659   4.158  -4.095  1.00  0.00     0.251 C 
ATOM     27  H   UNL     1       5.099   2.300  -3.602  1.00  0.00     0.163 HD
ATOM     28  O   UNL     1       5.888   3.867  -5.265  1.00  0.00    -0.269 OA
BRANCH  26  29
ATOM     29  C   UNL     1       5.919   5.527  -3.601  1.00  0.00     0.039 A 
ATOM     30  C   UNL     1       5.680   6.609  -4.450  1.00  0.00     0.014 A 
ATOM     31  C   UNL     1       6.411   5.743  -2.311  1.00  0.00     0.014 A 
ATOM     32  C   UNL     1       5.921   7.905  -3.996  1.00  0.00     0.010 A 
ATOM     33  C   UNL     1       6.525   7.032  -1.817  1.00  0.00     0.010 A 
ATOM     34  C   UNL     1       6.339   8.123  -2.673  1.00  0.00    -0.014 A 
BRANCH  34  35
ATOM     35  C   UNL     1       6.706   9.474  -2.192  1.00  0.00     0.031 A 
ATOM     36  C   UNL     1       8.128   9.739  -1.770  1.00  0.00     0.074 A 
ATOM     37  C   UNL     1       5.769  10.433  -2.095  1.00  0.00     0.049 A 
ATOM     38  N   UNL     1       8.654  10.825  -1.266  1.00  0.00    -0.248 NA
ATOM     39  C   UNL     1       9.078   8.618  -1.891  1.00  0.00     0.031 C 
ATOM     40  C   UNL     1       4.351  10.271  -2.419  1.00  0.00     0.029 A 
ATOM     41  N   UNL     1       5.874  11.738  -1.693  1.00  0.00    -0.354 N 
ATOM     42  C   UNL     1       9.977  10.506  -0.986  1.00  0.00     0.074 A 
ATOM     43  C   UNL     1      10.158   9.110  -1.307  1.00  0.00     0.031 C 
ATOM     44  C   UNL     1       3.724  11.445  -2.237  1.00  0.00     0.029 A 
ATOM     45  C   UNL     1       4.689  12.429  -1.757  1.00  0.00     0.049 A 
ATOM     46  H   UNL     1       6.718  12.142  -1.386  1.00  0.00     0.167 HD
ATOM     47  C   UNL     1      10.965  11.313  -0.536  1.00  0.00     0.037 A 
ATOM     48  C   UNL     1       4.423  13.716  -1.469  1.00  0.00     0.037 A 
ATOM     49  C   UNL     1      10.790  12.715  -0.274  1.00  0.00     0.049 A 
ATOM     50  C   UNL     1       5.547  14.607  -1.016  1.00  0.00     0.074 A 
ATOM     51  C   UNL     1      11.733  13.644   0.123  1.00  0.00     0.029 A 
ATOM     52  N   UNL     1       9.585  13.390  -0.397  1.00  0.00    -0.354 N 
ATOM     53  N   UNL     1       6.809  14.310  -0.816  1.00  0.00    -0.248 NA
ATOM     54  C   UNL     1       5.213  16.015  -0.764  1.00  0.00     0.031 C 
ATOM     55  C   UNL     1      11.091  14.879   0.268  1.00  0.00     0.029 A 
ATOM     56  C   UNL     1       9.758  14.725  -0.079  1.00  0.00     0.049 A 
ATOM     57  H   UNL     1       8.732  12.980  -0.671  1.00  0.00     0.167 HD
ATOM     58  C   UNL     1       7.425  15.498  -0.445  1.00  0.00     0.074 A 
ATOM     59  C   UNL     1       6.400  16.521  -0.461  1.00  0.00     0.031 C 
ATOM     60  C   UNL     1       8.722  15.724  -0.121  1.00  0.00     0.037 A 
BRANCH  47  61
ATOM     61  C   UNL     1      12.317  10.697  -0.322  1.00  0.00     0.057 A 
ATOM     62  C   UNL     1      13.111  10.263  -1.393  1.00  0.00     0.134 A 
ATOM     63  C   UNL     1      12.836  10.540   0.969  1.00  0.00     0.134 A 
ATOM     64  F   UNL     1      12.666  10.367  -2.655  1.00  0.00    -0.206 F 
ATOM     65  C   UNL     1      14.356   9.667  -1.187  1.00  0.00     0.040 A 
ATOM     66  C   UNL     1      14.093   9.973   1.186  1.00  0.00     0.040 A 
ATOM     67  F   UNL     1      12.131  10.935   2.039  1.00  0.00    -0.206 F 
ATOM     68  C   UNL     1      14.853   9.526   0.107  1.00  0.00     0.006 A 
ENDBRANCH  47  61
BRANCH  48  69
ATOM     69  C   UNL     1       3.051  14.249  -1.652  1.00  0.00     0.057 A 
ATOM     70  C   UNL     1       2.757  15.137  -2.692  1.00  0.00     0.134 A 
ATOM     71  C   UNL     1       2.003  13.883  -0.799  1.00  0.00     0.134 A 
ATOM     72  F   UNL     1       3.723  15.535  -3.533  1.00  0.00    -0.206 F 
ATOM     73  C   UNL     1       1.475  15.661  -2.867  1.00  0.00     0.040 A 
ATOM     74  C   UNL     1       0.710  14.381  -0.977  1.00  0.00     0.040 A 
ATOM     75  F   UNL     1       2.218  13.027   0.210  1.00  0.00    -0.206 F 
ATOM     76  C   UNL     1       0.446  15.278  -2.010  1.00  0.00     0.006 A 
ENDBRANCH  48  69
BRANCH  60  77
ATOM     77  C   UNL     1       9.109  17.137   0.197  1.00  0.00     0.057 A 
ATOM     78  C   UNL     1       8.739  17.752   1.399  1.00  0.00     0.134 A 
ATOM     79  C   UNL     1       9.897  17.874  -0.695  1.00  0.00     0.134 A 
ATOM     80  F   UNL     1       7.975  17.101   2.289  1.00  0.00    -0.206 F 
ATOM     81  C   UNL     1       9.119  19.062   1.692  1.00  0.00     0.040 A 
ATOM     82  C   UNL     1      10.305  19.175  -0.403  1.00  0.00     0.040 A 
ATOM     83  F   UNL     1      10.294  17.336  -1.859  1.00  0.00    -0.206 F 
ATOM     84  C   UNL     1       9.910  19.774   0.791  1.00  0.00     0.006 A 
ENDBRANCH  60  77
ENDBRANCH  34  35
ENDBRANCH  26  29
ENDBRANCH  24  25
ENDBRANCH  23  24
ENDBRANCH  22  23
ENDBRANCH   3  22
TORSDOF 15
