REMARK SMILES C[C@@H](C(=O)NCCCNC(=O)c1ccc(-c2c3nc(c(-c4c(F)cccc4F)c4ccc([nH]4)c(-c4c(F)cccc4F)c4nc(c(-c5c(F)cccc5F)c5ccc2[nH]5)C=C4)C=C3)cc1)N1C(=O)CSc2cccn2-c2ccccc21
REMARK SMILES IDX 3 1 4 2 5 3 2 5 1 6 66 7 67 8 68 9 81 11 76 12 80 13 77 14
REMARK SMILES IDX 79 15 78 16 75 17 71 18 74 19 72 20 73 21 70 22 69 23 6 25
REMARK SMILES IDX 7 26 8 27 9 28 10 29 11 31 12 32 13 33 65 34 14 35 64 36
REMARK SMILES IDX 15 37 16 38 17 39 58 40 18 41 63 42 57 43 59 44 19 45 62 46
REMARK SMILES IDX 56 47 55 48 20 50 46 51 29 52 45 53 30 54 33 55 44 56 60 57
REMARK SMILES IDX 31 58 32 59 43 61 61 62 34 63 21 64 22 65 27 66 23 67 24 68
REMARK SMILES IDX 26 69 28 70 25 71 47 72 48 73 53 74 49 75 50 76 52 77 54 78
REMARK SMILES IDX 51 79 35 80 36 81 41 82 37 83 38 84 40 85 42 86 39 87
REMARK H PARENT 5 4 9 30 59 49 33 60
REMARK Flexibility Score: 80.00
ROOT
ATOM      1  C   UNL     1       0.517   0.107   1.806  1.00  0.00     0.242 C 
ATOM      2  O   UNL     1      -0.323   0.417   2.661  1.00  0.00    -0.273 OA
ATOM      3  N   UNL     1       1.799   0.521   2.063  1.00  0.00    -0.354 N 
ATOM      4  H   UNL     1       1.867   1.367   2.561  1.00  0.00     0.163 HD
ENDROOT
BRANCH   1   5
ATOM      5  C   UNL     1       0.139  -0.795   0.580  1.00  0.00     0.176 C 
ATOM      6  C   UNL     1       0.890  -0.476  -0.714  1.00  0.00     0.042 C 
BRANCH   5   7
ATOM      7  N   UNL     1      -1.351  -0.768   0.348  1.00  0.00    -0.297 N 
BRANCH   7   8
ATOM      8  C   UNL     1      -1.962   0.489   0.271  1.00  0.00     0.238 CG0
ATOM      9  O   UNL     1      -1.321   1.536   0.143  1.00  0.00    -0.274 OA
ATOM     10  G   UNL     1      -3.461   0.521   0.500  1.00  0.00     0.000 G0
ENDBRANCH   7   8
BRANCH   7  11
ATOM     11  C   UNL     1      -1.881  -1.902  -0.369  1.00  0.00     0.069 A 
ATOM     12  C   UNL     1      -2.017  -1.906  -1.780  1.00  0.00     0.070 A 
ATOM     13  C   UNL     1      -1.946  -3.126   0.308  1.00  0.00     0.028 A 
ATOM     14  C   UNL     1      -1.950  -3.118  -2.487  1.00  0.00     0.029 A 
ATOM     15  C   UNL     1      -2.042  -4.327  -0.401  1.00  0.00     0.002 A 
ATOM     16  C   UNL     1      -1.967  -4.325  -1.792  1.00  0.00     0.002 A 
BRANCH  12  17
ATOM     17  N   UNL     1      -2.328  -0.731  -2.523  1.00  0.00    -0.310 N 
ATOM     18  C   UNL     1      -3.305   0.205  -2.218  1.00  0.00     0.080 A 
ATOM     19  C   UNL     1      -1.849  -0.409  -3.783  1.00  0.00     0.092 A 
ATOM     20  C   UNL     1      -3.295   1.201  -3.166  1.00  0.00     0.035 A 
ATOM     21  C   UNL     1      -2.382   0.805  -4.167  1.00  0.00     0.021 A 
BRANCH  18  22
ATOM     22  S   UNL     1      -4.440  -0.007  -0.916  1.00  0.00    -0.098 SA
BRANCH  22  23
ATOM     23  C   UNL     1      -3.461   0.521   0.500  1.00  0.00     0.177 CG0
ATOM     24  G   UNL     1      -1.962   0.489   0.271  1.00  0.00     0.000 G0
ENDBRANCH  22  23
ENDBRANCH  18  22
ENDBRANCH  12  17
ENDBRANCH   7  11
ENDBRANCH   5   7
ENDBRANCH   1   5
BRANCH   3  25
ATOM     25  C   UNL     1       3.072  -0.090   1.717  1.00  0.00     0.117 C 
BRANCH  25  26
ATOM     26  C   UNL     1       3.954   0.763   0.799  1.00  0.00     0.042 C 
BRANCH  26  27
ATOM     27  C   UNL     1       4.684   1.930   1.471  1.00  0.00     0.118 C 
BRANCH  27  28
ATOM     28  N   UNL     1       5.764   1.510   2.359  1.00  0.00    -0.352 N 
ATOM     29  C   UNL     1       7.124   1.724   2.309  1.00  0.00     0.251 C 
ATOM     30  H   UNL     1       5.467   0.977   3.131  1.00  0.00     0.163 HD
ATOM     31  O   UNL     1       7.847   1.152   3.119  1.00  0.00    -0.269 OA
BRANCH  29  32
ATOM     32  C   UNL     1       7.743   2.606   1.288  1.00  0.00     0.039 A 
ATOM     33  C   UNL     1       8.939   2.197   0.682  1.00  0.00     0.014 A 
ATOM     34  C   UNL     1       7.197   3.846   0.957  1.00  0.00     0.014 A 
ATOM     35  C   UNL     1       9.529   2.981  -0.319  1.00  0.00     0.010 A 
ATOM     36  C   UNL     1       7.750   4.597  -0.083  1.00  0.00     0.010 A 
ATOM     37  C   UNL     1       8.911   4.165  -0.746  1.00  0.00    -0.014 A 
BRANCH  37  38
ATOM     38  C   UNL     1       9.423   4.954  -1.901  1.00  0.00     0.031 A 
ATOM     39  C   UNL     1       9.879   6.373  -1.711  1.00  0.00     0.074 A 
ATOM     40  C   UNL     1       9.360   4.439  -3.144  1.00  0.00     0.049 A 
ATOM     41  N   UNL     1      10.171   7.279  -2.611  1.00  0.00    -0.248 NA
ATOM     42  C   UNL     1       9.996   6.841  -0.323  1.00  0.00     0.031 C 
ATOM     43  C   UNL     1       8.917   3.085  -3.476  1.00  0.00     0.029 A 
ATOM     44  N   UNL     1       9.632   5.008  -4.365  1.00  0.00    -0.354 N 
ATOM     45  C   UNL     1      10.479   8.432  -1.900  1.00  0.00     0.074 A 
ATOM     46  C   UNL     1      10.300   8.119  -0.497  1.00  0.00     0.031 C 
ATOM     47  C   UNL     1       8.932   2.932  -4.809  1.00  0.00     0.029 A 
ATOM     48  C   UNL     1       9.334   4.191  -5.430  1.00  0.00     0.049 A 
ATOM     49  H   UNL     1      10.004   5.914  -4.468  1.00  0.00     0.167 HD
ATOM     50  C   UNL     1      10.882   9.638  -2.371  1.00  0.00     0.037 A 
ATOM     51  C   UNL     1       9.344   4.433  -6.755  1.00  0.00     0.037 A 
ATOM     52  C   UNL     1      11.063   9.945  -3.767  1.00  0.00     0.049 A 
ATOM     53  C   UNL     1       9.758   5.786  -7.263  1.00  0.00     0.074 A 
ATOM     54  C   UNL     1      11.520  11.120  -4.339  1.00  0.00     0.029 A 
ATOM     55  N   UNL     1      10.779   9.078  -4.812  1.00  0.00    -0.354 N 
ATOM     56  N   UNL     1      10.101   6.852  -6.581  1.00  0.00    -0.248 NA
ATOM     57  C   UNL     1       9.790   5.972  -8.721  1.00  0.00     0.031 C 
ATOM     58  C   UNL     1      11.454  10.986  -5.729  1.00  0.00     0.029 A 
ATOM     59  C   UNL     1      11.022   9.703  -6.025  1.00  0.00     0.049 A 
ATOM     60  H   UNL     1      10.454   8.155  -4.707  1.00  0.00     0.167 HD
ATOM     61  C   UNL     1      10.419   7.822  -7.523  1.00  0.00     0.074 A 
ATOM     62  C   UNL     1      10.228   7.219  -8.826  1.00  0.00     0.031 C 
ATOM     63  C   UNL     1      10.840   9.095  -7.321  1.00  0.00     0.037 A 
BRANCH  50  64
ATOM     64  C   UNL     1      11.127  10.724  -1.361  1.00  0.00     0.057 A 
ATOM     65  C   UNL     1      12.184  10.663  -0.441  1.00  0.00     0.134 A 
ATOM     66  C   UNL     1      10.295  11.851  -1.308  1.00  0.00     0.134 A 
ATOM     67  F   UNL     1      13.017   9.611  -0.432  1.00  0.00    -0.206 F 
ATOM     68  C   UNL     1      12.373  11.655   0.523  1.00  0.00     0.040 A 
ATOM     69  C   UNL     1      10.495  12.866  -0.371  1.00  0.00     0.040 A 
ATOM     70  F   UNL     1       9.273  11.985  -2.167  1.00  0.00    -0.206 F 
ATOM     71  C   UNL     1      11.528  12.762   0.558  1.00  0.00     0.006 A 
ENDBRANCH  50  64
BRANCH  51  72
ATOM     72  C   UNL     1       8.936   3.356  -7.694  1.00  0.00     0.057 A 
ATOM     73  C   UNL     1       9.875   2.705  -8.501  1.00  0.00     0.134 A 
ATOM     74  C   UNL     1       7.605   2.929  -7.780  1.00  0.00     0.134 A 
ATOM     75  F   UNL     1      11.162   3.082  -8.478  1.00  0.00    -0.206 F 
ATOM     76  C   UNL     1       9.505   1.671  -9.363  1.00  0.00     0.040 A 
ATOM     77  C   UNL     1       7.226   1.880  -8.618  1.00  0.00     0.040 A 
ATOM     78  F   UNL     1       6.659   3.507  -7.025  1.00  0.00    -0.206 F 
ATOM     79  C   UNL     1       8.178   1.250  -9.416  1.00  0.00     0.006 A 
ENDBRANCH  51  72
BRANCH  63  80
ATOM     80  C   UNL     1      11.177   9.923  -8.528  1.00  0.00     0.057 A 
ATOM     81  C   UNL     1      10.190  10.447  -9.372  1.00  0.00     0.134 A 
ATOM     82  C   UNL     1      12.508  10.271  -8.797  1.00  0.00     0.134 A 
ATOM     83  F   UNL     1       8.898  10.142  -9.179  1.00  0.00    -0.206 F 
ATOM     84  C   UNL     1      10.516  11.283 -10.442  1.00  0.00     0.040 A 
ATOM     85  C   UNL     1      12.843  11.127  -9.847  1.00  0.00     0.040 A 
ATOM     86  F   UNL     1      13.502   9.808  -8.023  1.00  0.00    -0.206 F 
ATOM     87  C   UNL     1      11.845  11.635 -10.674  1.00  0.00     0.006 A 
ENDBRANCH  63  80
ENDBRANCH  37  38
ENDBRANCH  29  32
ENDBRANCH  27  28
ENDBRANCH  26  27
ENDBRANCH  25  26
ENDBRANCH   3  25
TORSDOF 11
