REMARK SMILES CC[C@@](C)(NC(=O)N(C)CCO)C(=O)NCCCNC(=O)c1ccc(-c2c3nc(c(-c4c(F)cccc4F)c4ccc([nH]4)c(-c4c(F)cccc4F)c4nc(c(-c5c(F)cccc5F)c5ccc2[nH]5)C=C4)C=C3)cc1
REMARK SMILES IDX 13 1 14 2 15 3 3 5 4 6 2 7 1 8 5 9 6 10 7 12 8 13 9 14 10 15
REMARK SMILES IDX 11 16 12 17 16 19 17 20 18 21 19 22 20 23 21 25 22 26 23 27
REMARK SMILES IDX 75 28 24 29 74 30 25 31 26 32 27 33 68 34 28 35 73 36 67 37
REMARK SMILES IDX 69 38 29 39 72 40 66 41 65 42 30 44 56 45 39 46 55 47 40 48
REMARK SMILES IDX 43 49 54 50 70 51 41 52 42 53 53 55 71 56 44 57 31 58 32 59
REMARK SMILES IDX 37 60 33 61 34 62 36 63 38 64 35 65 57 66 58 67 63 68 59 69
REMARK SMILES IDX 60 70 62 71 64 72 61 73 45 74 46 75 51 76 47 77 48 78 50 79
REMARK SMILES IDX 52 80 49 81
REMARK H PARENT 15 4 5 11 12 18 19 24 69 43 43 54
REMARK Flexibility Score: inf
ROOT
ATOM      1  C   UNL     1       2.493  -2.557  -0.895  1.00  0.00     0.245 C 
ATOM      2  O   UNL     1       3.210  -1.779  -0.255  1.00  0.00    -0.272 OA
ATOM      3  N   UNL     1       2.955  -3.838  -0.954  1.00  0.00    -0.354 N 
ATOM      4  H   UNL     1       3.840  -3.948  -0.536  1.00  0.00     0.163 HD
ENDROOT
BRANCH   1   5
ATOM      5  C   UNL     1       1.118  -2.104  -1.479  1.00  0.00     0.117 C 
ATOM      6  C   UNL     1       0.029  -2.782  -0.601  1.00  0.00     0.045 C 
BRANCH   5   7
ATOM      7  C   UNL     1       0.831  -0.568  -1.414  1.00  0.00     0.035 C 
ATOM      8  C   UNL     1       0.899   0.097  -0.041  1.00  0.00     0.007 C 
ENDBRANCH   5   7
BRANCH   5   9
ATOM      9  N   UNL     1       0.913  -2.558  -2.879  1.00  0.00    -0.324 N 
ATOM     10  C   UNL     1       1.476  -2.417  -4.090  1.00  0.00     0.318 C 
ATOM     11  H   UNL     1       0.122  -3.142  -2.936  1.00  0.00     0.166 HD
ATOM     12  O   UNL     1       0.741  -2.776  -5.018  1.00  0.00    -0.249 OA
BRANCH  10  13
ATOM     13  N   UNL     1       2.766  -2.038  -4.320  1.00  0.00    -0.326 N 
ATOM     14  C   UNL     1       3.664  -1.338  -3.416  1.00  0.00     0.148 C 
BRANCH  13  15
ATOM     15  C   UNL     1       3.318  -2.182  -5.690  1.00  0.00     0.149 C 
BRANCH  15  16
ATOM     16  C   UNL     1       3.137  -3.545  -6.382  1.00  0.00     0.177 C 
BRANCH  16  17
ATOM     17  O   UNL     1       1.926  -3.611  -7.126  1.00  0.00    -0.395 OA
ATOM     18  H   UNL     1       1.172  -3.492  -6.527  1.00  0.00     0.210 HD
ENDBRANCH  16  17
ENDBRANCH  15  16
ENDBRANCH  13  15
ENDBRANCH  10  13
ENDBRANCH   5   9
ENDBRANCH   1   5
BRANCH   3  19
ATOM     19  C   UNL     1       2.427  -5.079  -1.499  1.00  0.00     0.117 C 
BRANCH  19  20
ATOM     20  C   UNL     1       2.948  -5.435  -2.887  1.00  0.00     0.042 C 
BRANCH  20  21
ATOM     21  C   UNL     1       4.460  -5.351  -3.063  1.00  0.00     0.118 C 
BRANCH  21  22
ATOM     22  N   UNL     1       5.158  -6.481  -2.477  1.00  0.00    -0.352 N 
ATOM     23  C   UNL     1       5.710  -7.596  -3.058  1.00  0.00     0.251 C 
ATOM     24  H   UNL     1       5.252  -6.441  -1.498  1.00  0.00     0.163 HD
ATOM     25  O   UNL     1       6.085  -8.515  -2.334  1.00  0.00    -0.269 OA
BRANCH  23  26
ATOM     26  C   UNL     1       5.852  -7.734  -4.530  1.00  0.00     0.039 A 
ATOM     27  C   UNL     1       5.609  -8.989  -5.100  1.00  0.00     0.014 A 
ATOM     28  C   UNL     1       6.311  -6.693  -5.343  1.00  0.00     0.014 A 
ATOM     29  C   UNL     1       5.779  -9.188  -6.475  1.00  0.00     0.010 A 
ATOM     30  C   UNL     1       6.421  -6.874  -6.726  1.00  0.00     0.010 A 
ATOM     31  C   UNL     1       6.165  -8.126  -7.307  1.00  0.00    -0.014 A 
BRANCH  31  32
ATOM     32  C   UNL     1       6.320  -8.321  -8.774  1.00  0.00     0.031 A 
ATOM     33  C   UNL     1       7.673  -8.219  -9.426  1.00  0.00     0.074 A 
ATOM     34  C   UNL     1       5.236  -8.561  -9.538  1.00  0.00     0.049 A 
ATOM     35  N   UNL     1       7.989  -8.302 -10.695  1.00  0.00    -0.248 NA
ATOM     36  C   UNL     1       8.819  -7.975  -8.538  1.00  0.00     0.031 C 
ATOM     37  C   UNL     1       3.861  -8.659  -9.048  1.00  0.00     0.029 A 
ATOM     38  N   UNL     1       5.121  -8.755 -10.893  1.00  0.00    -0.354 N 
ATOM     39  C   UNL     1       9.363  -8.104 -10.759  1.00  0.00     0.074 A 
ATOM     40  C   UNL     1       9.816  -7.864  -9.405  1.00  0.00     0.031 C 
ATOM     41  C   UNL     1       3.043  -8.911 -10.083  1.00  0.00     0.029 A 
ATOM     42  C   UNL     1       3.829  -8.957 -11.313  1.00  0.00     0.049 A 
ATOM     43  H   UNL     1       5.892  -8.751 -11.505  1.00  0.00     0.167 HD
ATOM     44  C   UNL     1      10.176  -8.134 -11.842  1.00  0.00     0.037 A 
ATOM     45  C   UNL     1       3.328  -9.145 -12.549  1.00  0.00     0.037 A 
ATOM     46  C   UNL     1       9.742  -8.405 -13.188  1.00  0.00     0.049 A 
ATOM     47  C   UNL     1       4.250  -9.163 -13.735  1.00  0.00     0.074 A 
ATOM     48  C   UNL     1      10.510  -8.520 -14.335  1.00  0.00     0.029 A 
ATOM     49  N   UNL     1       8.425  -8.605 -13.569  1.00  0.00    -0.354 N 
ATOM     50  N   UNL     1       5.552  -9.023 -13.772  1.00  0.00    -0.248 NA
ATOM     51  C   UNL     1       3.630  -9.364 -15.054  1.00  0.00     0.031 C 
ATOM     52  C   UNL     1       9.654  -8.756 -15.416  1.00  0.00     0.029 A 
ATOM     53  C   UNL     1       8.356  -8.822 -14.936  1.00  0.00     0.049 A 
ATOM     54  H   UNL     1       7.652  -8.595 -12.959  1.00  0.00     0.167 HD
ATOM     55  C   UNL     1       5.908  -9.138 -15.109  1.00  0.00     0.074 A 
ATOM     56  C   UNL     1       4.688  -9.371 -15.852  1.00  0.00     0.031 C 
ATOM     57  C   UNL     1       7.139  -9.057 -15.668  1.00  0.00     0.037 A 
BRANCH  44  58
ATOM     58  C   UNL     1      11.635  -7.869 -11.618  1.00  0.00     0.057 A 
ATOM     59  C   UNL     1      12.474  -8.822 -11.029  1.00  0.00     0.134 A 
ATOM     60  C   UNL     1      12.215  -6.667 -12.042  1.00  0.00     0.134 A 
ATOM     61  F   UNL     1      11.976  -9.989 -10.594  1.00  0.00    -0.206 F 
ATOM     62  C   UNL     1      13.838  -8.582 -10.852  1.00  0.00     0.040 A 
ATOM     63  C   UNL     1      13.581  -6.423 -11.889  1.00  0.00     0.040 A 
ATOM     64  F   UNL     1      11.467  -5.715 -12.620  1.00  0.00    -0.206 F 
ATOM     65  C   UNL     1      14.396  -7.382 -11.289  1.00  0.00     0.006 A 
ENDBRANCH  44  58
BRANCH  45  66
ATOM     66  C   UNL     1       1.870  -9.342 -12.731  1.00  0.00     0.057 A 
ATOM     67  C   UNL     1       1.347 -10.599 -13.053  1.00  0.00     0.134 A 
ATOM     68  C   UNL     1       0.969  -8.280 -12.594  1.00  0.00     0.134 A 
ATOM     69  F   UNL     1       2.167 -11.648 -13.220  1.00  0.00    -0.206 F 
ATOM     70  C   UNL     1      -0.021 -10.793 -13.244  1.00  0.00     0.040 A 
ATOM     71  C   UNL     1      -0.404  -8.464 -12.762  1.00  0.00     0.040 A 
ATOM     72  F   UNL     1       1.411  -7.052 -12.289  1.00  0.00    -0.206 F 
ATOM     73  C   UNL     1      -0.902  -9.723 -13.093  1.00  0.00     0.006 A 
ENDBRANCH  45  66
BRANCH  57  74
ATOM     74  C   UNL     1       7.234  -9.246 -17.152  1.00  0.00     0.057 A 
ATOM     75  C   UNL     1       6.844  -8.243 -18.047  1.00  0.00     0.134 A 
ATOM     76  C   UNL     1       7.754 -10.430 -17.690  1.00  0.00     0.134 A 
ATOM     77  F   UNL     1       6.326  -7.092 -17.594  1.00  0.00    -0.206 F 
ATOM     78  C   UNL     1       6.955  -8.417 -19.428  1.00  0.00     0.040 A 
ATOM     79  C   UNL     1       7.887 -10.608 -19.068  1.00  0.00     0.040 A 
ATOM     80  F   UNL     1       8.150 -11.428 -16.885  1.00  0.00    -0.206 F 
ATOM     81  C   UNL     1       7.483  -9.600 -19.941  1.00  0.00     0.006 A 
ENDBRANCH  57  74
ENDBRANCH  31  32
ENDBRANCH  23  26
ENDBRANCH  21  22
ENDBRANCH  20  21
ENDBRANCH  19  20
ENDBRANCH   3  19
TORSDOF 16
