REMARK SMILES Cc1ccc(N2CCC[C@@H](Cn3cc(C(=O)NCCCNC(=O)c4ccc(-c5c6nc(c(-c7c(F)cccc7F)c7ccc([nH]7)c(-c7c(F)cccc7F)c7nc(c(-c8c(F)cccc8F)c8ccc5[nH]8)C=C7)C=C6)cc4)nn3)C2)nn1
REMARK SMILES IDX 18 1 17 2 15 3 16 4 14 6 12 7 13 8 79 9 78 10 11 11 10 12
REMARK SMILES IDX 6 13 7 14 80 15 8 16 9 17 5 18 1 19 2 20 3 21 82 22 4 23
REMARK SMILES IDX 81 24 19 25 20 26 21 27 22 28 23 30 24 31 25 32 77 33 26 34
REMARK SMILES IDX 76 35 27 36 28 37 29 38 70 39 30 40 75 41 69 42 71 43 31 44
REMARK SMILES IDX 74 45 68 46 67 47 32 49 58 50 41 51 57 52 42 53 45 54 56 55
REMARK SMILES IDX 72 56 43 57 44 58 55 60 73 61 46 62 33 63 34 64 39 65 35 66
REMARK SMILES IDX 36 67 38 68 40 69 37 70 59 71 60 72 65 73 61 74 62 75 64 76
REMARK SMILES IDX 66 77 63 78 47 79 48 80 53 81 49 82 50 83 52 84 54 85 51 86
REMARK H PARENT 17 5 21 29 71 48 45 59
REMARK Flexibility Score: inf
ROOT
ATOM      1  C   UNL     1       1.237   7.851  -3.322  1.00  0.00     0.118 C 
ENDROOT
BRANCH   1   2
ATOM      2  N   UNL     1       1.310   9.119  -4.032  1.00  0.00    -0.351 N 
ATOM      3  C   UNL     1       1.127   9.375  -5.377  1.00  0.00     0.273 C 
ATOM      4  O   UNL     1       1.008  10.553  -5.723  1.00  0.00    -0.267 OA
ATOM      5  H   UNL     1       1.519   9.904  -3.477  1.00  0.00     0.163 HD
BRANCH   3   6
ATOM      6  C   UNL     1       1.029   8.268  -6.319  1.00  0.00     0.170 A 
ATOM      7  N   UNL     1       1.006   6.320  -7.252  1.00  0.00    -0.251 N 
ATOM      8  C   UNL     1       1.673   7.045  -6.313  1.00  0.00     0.145 A 
ATOM      9  N   UNL     1       0.196   7.100  -7.981  1.00  0.00    -0.067 NA
ATOM     10  N   UNL     1       0.188   8.298  -7.409  1.00  0.00    -0.125 NA
BRANCH   7  11
ATOM     11  C   UNL     1       0.953   4.878  -7.371  1.00  0.00     0.151 C 
BRANCH  11  12
ATOM     12  C   UNL     1      -0.052   4.198  -6.417  1.00  0.00     0.030 C 
ATOM     13  N   UNL     1      -0.615   3.634  -4.130  1.00  0.00    -0.355 N 
ATOM     14  C   UNL     1      -1.948   4.214  -4.154  1.00  0.00     0.118 C 
ATOM     15  C   UNL     1       0.403   4.263  -4.947  1.00  0.00     0.123 C 
ATOM     16  C   UNL     1      -2.471   4.101  -5.582  1.00  0.00     0.022 C 
ATOM     17  C   UNL     1      -1.494   4.732  -6.579  1.00  0.00     0.009 C 
BRANCH  13  18
ATOM     18  C   UNL     1      -0.233   2.827  -3.080  1.00  0.00     0.151 A 
ATOM     19  C   UNL     1       1.142   0.208  -0.046  1.00  0.00     0.069 C 
ATOM     20  C   UNL     1       0.635   1.103  -1.131  1.00  0.00     0.060 A 
ATOM     21  C   UNL     1      -0.460   0.746  -1.895  1.00  0.00     0.029 A 
ATOM     22  N   UNL     1       1.262   2.283  -1.322  1.00  0.00    -0.154 NA
ATOM     23  C   UNL     1      -0.901   1.628  -2.873  1.00  0.00     0.051 A 
ATOM     24  N   UNL     1       0.838   3.136  -2.319  1.00  0.00    -0.133 NA
ENDBRANCH  13  18
ENDBRANCH  11  12
ENDBRANCH   7  11
ENDBRANCH   3   6
ENDBRANCH   1   2
BRANCH   1  25
ATOM     25  C   UNL     1       2.616   7.236  -3.052  1.00  0.00     0.042 C 
BRANCH  25  26
ATOM     26  C   UNL     1       3.215   7.775  -1.771  1.00  0.00     0.118 C 
BRANCH  26  27
ATOM     27  N   UNL     1       2.521   7.292  -0.571  1.00  0.00    -0.352 N 
ATOM     28  C   UNL     1       2.775   7.607   0.753  1.00  0.00     0.251 C 
ATOM     29  H   UNL     1       1.780   6.663  -0.728  1.00  0.00     0.163 HD
ATOM     30  O   UNL     1       2.331   6.927   1.670  1.00  0.00    -0.269 OA
BRANCH  28  31
ATOM     31  C   UNL     1       3.589   8.796   1.039  1.00  0.00     0.039 A 
ATOM     32  C   UNL     1       4.515   8.845   2.085  1.00  0.00     0.014 A 
ATOM     33  C   UNL     1       3.414   9.885   0.195  1.00  0.00     0.014 A 
ATOM     34  C   UNL     1       5.267  10.005   2.242  1.00  0.00     0.010 A 
ATOM     35  C   UNL     1       4.345  10.874   0.164  1.00  0.00     0.010 A 
ATOM     36  C   UNL     1       5.155  11.012   1.273  1.00  0.00    -0.014 A 
BRANCH  36  37
ATOM     37  C   UNL     1       5.819  12.291   1.390  1.00  0.00     0.031 A 
ATOM     38  C   UNL     1       7.294  12.239   1.343  1.00  0.00     0.074 A 
ATOM     39  C   UNL     1       5.125  13.447   1.315  1.00  0.00     0.049 A 
ATOM     40  N   UNL     1       8.109  12.405   2.327  1.00  0.00    -0.248 NA
ATOM     41  C   UNL     1       7.938  11.810   0.093  1.00  0.00     0.031 C 
ATOM     42  C   UNL     1       3.700  13.672   1.019  1.00  0.00     0.029 A 
ATOM     43  N   UNL     1       5.604  14.710   1.420  1.00  0.00    -0.354 N 
ATOM     44  C   UNL     1       9.385  12.302   1.787  1.00  0.00     0.074 A 
ATOM     45  C   UNL     1       9.219  11.756   0.465  1.00  0.00     0.031 C 
ATOM     46  C   UNL     1       3.490  14.982   0.760  1.00  0.00     0.029 A 
ATOM     47  C   UNL     1       4.712  15.705   1.048  1.00  0.00     0.049 A 
ATOM     48  H   UNL     1       6.516  14.906   1.736  1.00  0.00     0.167 HD
ATOM     49  C   UNL     1      10.450  12.894   2.395  1.00  0.00     0.037 A 
ATOM     50  C   UNL     1       4.994  17.027   0.966  1.00  0.00     0.037 A 
ATOM     51  C   UNL     1      10.106  13.339   3.724  1.00  0.00     0.049 A 
ATOM     52  C   UNL     1       6.212  17.262   1.787  1.00  0.00     0.074 A 
ATOM     53  C   UNL     1       9.700  12.712   4.886  1.00  0.00     0.029 A 
ATOM     54  N   UNL     1       9.770  14.664   3.878  1.00  0.00    -0.354 N 
ATOM     55  N   UNL     1       6.236  17.132   3.086  1.00  0.00    -0.248 NA
ATOM     56  C   UNL     1       7.504  17.138   1.127  1.00  0.00     0.031 C 
ATOM     57  C   UNL     1       8.715  13.581   5.447  1.00  0.00     0.029 A 
ATOM     58  C   UNL     1       8.626  14.712   4.634  1.00  0.00     0.049 A 
ATOM     59  H   UNL     1      10.260  15.435   3.513  1.00  0.00     0.167 HD
ATOM     60  C   UNL     1       7.443  16.505   3.365  1.00  0.00     0.074 A 
ATOM     61  C   UNL     1       8.214  16.600   2.124  1.00  0.00     0.031 C 
ATOM     62  C   UNL     1       7.593  15.710   4.467  1.00  0.00     0.037 A 
BRANCH  49  63
ATOM     63  C   UNL     1      11.672  13.412   1.688  1.00  0.00     0.057 A 
ATOM     64  C   UNL     1      11.701  13.798   0.334  1.00  0.00     0.134 A 
ATOM     65  C   UNL     1      12.772  13.832   2.457  1.00  0.00     0.134 A 
ATOM     66  F   UNL     1      10.698  13.531  -0.511  1.00  0.00    -0.206 F 
ATOM     67  C   UNL     1      12.724  14.582  -0.205  1.00  0.00     0.040 A 
ATOM     68  C   UNL     1      13.775  14.659   1.940  1.00  0.00     0.040 A 
ATOM     69  F   UNL     1      12.862  13.518   3.759  1.00  0.00    -0.206 F 
ATOM     70  C   UNL     1      13.745  15.048   0.608  1.00  0.00     0.006 A 
ENDBRANCH  49  63
BRANCH  50  71
ATOM     71  C   UNL     1       4.486  17.999  -0.025  1.00  0.00     0.057 A 
ATOM     72  C   UNL     1       4.173  17.600  -1.338  1.00  0.00     0.134 A 
ATOM     73  C   UNL     1       4.550  19.379   0.201  1.00  0.00     0.134 A 
ATOM     74  F   UNL     1       4.160  16.303  -1.680  1.00  0.00    -0.206 F 
ATOM     75  C   UNL     1       3.951  18.518  -2.368  1.00  0.00     0.040 A 
ATOM     76  C   UNL     1       4.331  20.311  -0.823  1.00  0.00     0.040 A 
ATOM     77  F   UNL     1       4.883  19.853   1.410  1.00  0.00    -0.206 F 
ATOM     78  C   UNL     1       4.042  19.881  -2.115  1.00  0.00     0.006 A 
ENDBRANCH  50  71
BRANCH  62  79
ATOM     79  C   UNL     1       6.475  15.702   5.476  1.00  0.00     0.057 A 
ATOM     80  C   UNL     1       6.748  16.078   6.794  1.00  0.00     0.134 A 
ATOM     81  C   UNL     1       5.191  15.197   5.218  1.00  0.00     0.134 A 
ATOM     82  F   UNL     1       7.973  16.508   7.132  1.00  0.00    -0.206 F 
ATOM     83  C   UNL     1       5.788  15.974   7.804  1.00  0.00     0.040 A 
ATOM     84  C   UNL     1       4.211  15.116   6.212  1.00  0.00     0.040 A 
ATOM     85  F   UNL     1       4.867  14.713   4.015  1.00  0.00    -0.206 F 
ATOM     86  C   UNL     1       4.511  15.503   7.513  1.00  0.00     0.006 A 
ENDBRANCH  62  79
ENDBRANCH  36  37
ENDBRANCH  28  31
ENDBRANCH  26  27
ENDBRANCH  25  26
ENDBRANCH   1  25
TORSDOF 13
