REMARK SMILES O=C(COc1ccc(/C=N/NC(=O)c2cc3cc([N+](=O)[O-])ccc3o2)cc1)NCCCNC(=O)c1ccc(-c2c3nc(c(-c4c(F)cccc4F)c4ccc([nH]4)c(-c4c(F)cccc4F)c4nc(c(-c5c(F)cccc5F)c5ccc2[nH]5)C=C4)C=C3)cc1
REMARK SMILES IDX 1 1 2 2 28 3 3 5 4 6 5 7 6 8 27 9 7 10 26 11 8 12 9 13 10 14
REMARK SMILES IDX 11 15 12 16 13 18 14 19 15 20 25 21 16 22 24 23 17 24 23 25
REMARK SMILES IDX 18 26 22 27 19 28 20 29 21 30 29 31 30 32 31 33 32 34 33 35
REMARK SMILES IDX 34 37 35 38 36 39 88 40 37 41 87 42 38 43 39 44 40 45 81 46
REMARK SMILES IDX 41 47 86 48 80 49 82 50 42 51 85 52 79 53 78 54 43 56 69 57
REMARK SMILES IDX 52 58 68 59 53 60 56 61 67 62 83 63 54 64 55 65 66 67 84 68
REMARK SMILES IDX 57 69 44 70 45 71 50 72 46 73 47 74 49 75 51 76 48 77 70 78
REMARK SMILES IDX 71 79 76 80 72 81 73 82 75 83 77 84 74 85 58 86 59 87 64 88
REMARK SMILES IDX 60 89 61 90 63 91 65 92 62 93
REMARK H PARENT 28 4 11 17 32 36 82 55 56 66
REMARK Flexibility Score: inf
ROOT
ATOM      1  O   UNL     1       1.101   0.127   0.804  1.00  0.00    -0.271 OA
ATOM      2  C   UNL     1       2.205   0.044   0.275  1.00  0.00     0.257 C 
ATOM      3  N   UNL     1       2.861   1.118  -0.296  1.00  0.00    -0.353 N 
ATOM      4  H   UNL     1       3.822   1.040  -0.492  1.00  0.00     0.163 HD
ENDROOT
BRANCH   2   5
ATOM      5  C   UNL     1       2.961  -1.281   0.141  1.00  0.00     0.329 C 
BRANCH   5   6
ATOM      6  O   UNL     1       3.809  -1.382  -1.005  1.00  0.00    -0.484 OA
BRANCH   6   7
ATOM      7  C   UNL     1       3.154  -1.691  -2.169  1.00  0.00     0.120 A 
ATOM      8  C   UNL     1       3.633  -2.778  -2.897  1.00  0.00     0.047 A 
ATOM      9  C   UNL     1       2.136  -0.897  -2.706  1.00  0.00     0.047 A 
ATOM     10  C   UNL     1       3.078  -3.081  -4.145  1.00  0.00     0.013 A 
ATOM     11  C   UNL     1       1.593  -1.180  -3.957  1.00  0.00     0.013 A 
ATOM     12  C   UNL     1       2.064  -2.273  -4.675  1.00  0.00    -0.005 A 
BRANCH  12  13
ATOM     13  C   UNL     1       1.550  -2.476  -6.044  1.00  0.00     0.141 C 
ATOM     14  N   UNL     1       1.822  -3.561  -6.681  1.00  0.00    -0.180 NA
BRANCH  14  15
ATOM     15  N   UNL     1       1.534  -3.697  -7.997  1.00  0.00    -0.240 N 
ATOM     16  C   UNL     1       0.757  -3.013  -8.902  1.00  0.00     0.307 C 
ATOM     17  H   UNL     1       1.989  -4.470  -8.402  1.00  0.00     0.194 HD
ATOM     18  O   UNL     1       1.083  -3.122 -10.090  1.00  0.00    -0.264 OA
BRANCH  16  19
ATOM     19  C   UNL     1      -0.456  -2.299  -8.556  1.00  0.00     0.194 A 
ATOM     20  C   UNL     1      -0.691  -0.928  -8.568  1.00  0.00     0.065 A 
ATOM     21  O   UNL     1      -1.620  -2.945  -8.909  1.00  0.00    -0.451 OA
ATOM     22  C   UNL     1      -1.861  -0.755  -9.370  1.00  0.00     0.028 A 
ATOM     23  C   UNL     1      -2.389  -2.026  -9.550  1.00  0.00     0.135 A 
ATOM     24  C   UNL     1      -2.424   0.319 -10.086  1.00  0.00     0.097 A 
ATOM     25  C   UNL     1      -3.457  -2.332 -10.390  1.00  0.00     0.055 A 
ATOM     26  C   UNL     1      -3.419   0.016 -11.039  1.00  0.00     0.270 A 
ATOM     27  C   UNL     1      -3.936  -1.282 -11.182  1.00  0.00     0.089 A 
BRANCH  26  28
ATOM     28  N   UNL     1      -3.845   1.065 -11.978  1.00  0.00     0.062 N 
ATOM     29  O   UNL     1      -3.480   2.226 -11.747  1.00  0.00    -0.258 OA
ATOM     30  O   UNL     1      -4.527   0.722 -12.954  1.00  0.00    -0.258 OA
ENDBRANCH  26  28
ENDBRANCH  16  19
ENDBRANCH  14  15
ENDBRANCH  12  13
ENDBRANCH   6   7
ENDBRANCH   5   6
ENDBRANCH   2   5
BRANCH   3  31
ATOM     31  C   UNL     1       2.176   2.353  -0.613  1.00  0.00     0.117 C 
BRANCH  31  32
ATOM     32  C   UNL     1       2.482   3.476   0.359  1.00  0.00     0.042 C 
BRANCH  32  33
ATOM     33  C   UNL     1       3.955   3.855   0.419  1.00  0.00     0.118 C 
BRANCH  33  34
ATOM     34  N   UNL     1       4.469   4.374  -0.842  1.00  0.00    -0.352 N 
ATOM     35  C   UNL     1       5.145   5.535  -1.114  1.00  0.00     0.251 C 
ATOM     36  H   UNL     1       4.305   3.798  -1.623  1.00  0.00     0.163 HD
ATOM     37  O   UNL     1       5.368   5.837  -2.288  1.00  0.00    -0.269 OA
BRANCH  35  38
ATOM     38  C   UNL     1       5.591   6.437  -0.029  1.00  0.00     0.039 A 
ATOM     39  C   UNL     1       5.530   7.818  -0.242  1.00  0.00     0.014 A 
ATOM     40  C   UNL     1       6.103   5.946   1.175  1.00  0.00     0.014 A 
ATOM     41  C   UNL     1       5.941   8.697   0.762  1.00  0.00     0.010 A 
ATOM     42  C   UNL     1       6.421   6.823   2.210  1.00  0.00     0.010 A 
ATOM     43  C   UNL     1       6.367   8.209   2.008  1.00  0.00    -0.014 A 
BRANCH  43  44
ATOM     44  C   UNL     1       6.792   9.140   3.085  1.00  0.00     0.031 A 
ATOM     45  C   UNL     1       8.210   9.122   3.593  1.00  0.00     0.074 A 
ATOM     46  C   UNL     1       5.897   9.991   3.625  1.00  0.00     0.049 A 
ATOM     47  N   UNL     1       8.768   9.867   4.514  1.00  0.00    -0.248 NA
ATOM     48  C   UNL     1       9.114   8.119   3.008  1.00  0.00     0.031 C 
ATOM     49  C   UNL     1       4.480  10.072   3.263  1.00  0.00     0.029 A 
ATOM     50  N   UNL     1       6.048  10.954   4.591  1.00  0.00    -0.354 N 
ATOM     51  C   UNL     1      10.079   9.418   4.622  1.00  0.00     0.074 A 
ATOM     52  C   UNL     1      10.214   8.293   3.723  1.00  0.00     0.031 C 
ATOM     53  C   UNL     1       3.902  11.057   3.970  1.00  0.00     0.029 A 
ATOM     54  C   UNL     1       4.896  11.654   4.856  1.00  0.00     0.049 A 
ATOM     55  H   UNL     1       6.901  11.127   5.051  1.00  0.00     0.167 HD
ATOM     56  C   UNL     1      11.089   9.913   5.377  1.00  0.00     0.037 A 
ATOM     57  C   UNL     1       4.668  12.668   5.712  1.00  0.00     0.037 A 
ATOM     58  C   UNL     1      10.960  11.044   6.259  1.00  0.00     0.049 A 
ATOM     59  C   UNL     1       5.807  13.205   6.535  1.00  0.00     0.074 A 
ATOM     60  C   UNL     1      11.934  11.651   7.032  1.00  0.00     0.029 A 
ATOM     61  N   UNL     1       9.780  11.737   6.487  1.00  0.00    -0.354 N 
ATOM     62  N   UNL     1       7.058  12.816   6.573  1.00  0.00    -0.248 NA
ATOM     63  C   UNL     1       5.503  14.336   7.422  1.00  0.00     0.031 C 
ATOM     64  C   UNL     1      11.333  12.681   7.764  1.00  0.00     0.029 A 
ATOM     65  C   UNL     1       9.998  12.756   7.400  1.00  0.00     0.049 A 
ATOM     66  H   UNL     1       8.915  11.535   6.062  1.00  0.00     0.167 HD
ATOM     67  C   UNL     1       7.698  13.678   7.455  1.00  0.00     0.074 A 
ATOM     68  C   UNL     1       6.699  14.618   7.917  1.00  0.00     0.031 C 
ATOM     69  C   UNL     1       8.997  13.692   7.845  1.00  0.00     0.037 A 
BRANCH  56  70
ATOM     70  C   UNL     1      12.426   9.233   5.277  1.00  0.00     0.057 A 
ATOM     71  C   UNL     1      13.205   9.299   4.113  1.00  0.00     0.134 A 
ATOM     72  C   UNL     1      12.954   8.526   6.364  1.00  0.00     0.134 A 
ATOM     73  F   UNL     1      12.754   9.948   3.028  1.00  0.00    -0.206 F 
ATOM     74  C   UNL     1      14.444   8.661   4.024  1.00  0.00     0.040 A 
ATOM     75  C   UNL     1      14.205   7.911   6.298  1.00  0.00     0.040 A 
ATOM     76  F   UNL     1      12.266   8.427   7.512  1.00  0.00    -0.206 F 
ATOM     77  C   UNL     1      14.950   7.970   5.122  1.00  0.00     0.006 A 
ENDBRANCH  56  70
BRANCH  57  78
ATOM     78  C   UNL     1       3.314  13.273   5.808  1.00  0.00     0.057 A 
ATOM     79  C   UNL     1       3.069  14.575   5.357  1.00  0.00     0.134 A 
ATOM     80  C   UNL     1       2.240  12.573   6.370  1.00  0.00     0.134 A 
ATOM     81  F   UNL     1       4.062  15.303   4.824  1.00  0.00    -0.206 F 
ATOM     82  C   UNL     1       1.813  15.171   5.486  1.00  0.00     0.040 A 
ATOM     83  C   UNL     1       0.972  13.146   6.479  1.00  0.00     0.040 A 
ATOM     84  F   UNL     1       2.406  11.318   6.813  1.00  0.00    -0.206 F 
ATOM     85  C   UNL     1       0.759  14.453   6.045  1.00  0.00     0.006 A 
ENDBRANCH  57  78
BRANCH  69  86
ATOM     86  C   UNL     1       9.421  14.794   8.774  1.00  0.00     0.057 A 
ATOM     87  C   UNL     1       8.991  14.857  10.107  1.00  0.00     0.134 A 
ATOM     88  C   UNL     1      10.281  15.806   8.326  1.00  0.00     0.134 A 
ATOM     89  F   UNL     1       8.159  13.926  10.598  1.00  0.00    -0.206 F 
ATOM     90  C   UNL     1       9.367  15.908  10.946  1.00  0.00     0.040 A 
ATOM     91  C   UNL     1      10.690  16.843   9.166  1.00  0.00     0.040 A 
ATOM     92  F   UNL     1      10.742  15.801   7.067  1.00  0.00    -0.206 F 
ATOM     93  C   UNL     1      10.222  16.903  10.476  1.00  0.00     0.006 A 
ENDBRANCH  69  86
ENDBRANCH  43  44
ENDBRANCH  35  38
ENDBRANCH  33  34
ENDBRANCH  32  33
ENDBRANCH  31  32
ENDBRANCH   3  31
TORSDOF 16
