REMARK SMILES O=C(NCCCNC(=O)[C@@H]1CN(C(=O)[C@H]2CC=CCC2)c2ccccc2O1)c1ccc(-c2c3nc(c(-c4c(F)cccc4F)c4ccc([nH]4)c(-c4c(F)cccc4F)c4nc(c(-c5c(F)cccc5F)c5ccc2[nH]5)C=C4)C=C3)cc1
REMARK SMILES IDX 5 1 4 2 3 3 1 4 2 5 28 7 29 8 81 9 30 10 80 11 31 12 32 13
REMARK SMILES IDX 33 14 74 15 34 16 79 17 73 18 75 19 35 20 78 21 72 22 71 23
REMARK SMILES IDX 36 25 62 26 45 27 61 28 46 29 49 30 60 31 76 32 47 33 48 34
REMARK SMILES IDX 59 36 77 37 50 38 37 39 38 40 43 41 39 42 40 43 42 44 44 45
REMARK SMILES IDX 41 46 63 47 64 48 69 49 65 50 66 51 68 52 70 53 67 54 51 55
REMARK SMILES IDX 52 56 57 57 53 58 54 59 56 60 58 61 55 62 6 63 7 64 8 65
REMARK SMILES IDX 9 67 10 68 11 69 27 70 12 71 26 72 21 73 25 74 22 75 24 76
REMARK SMILES IDX 23 77 13 78 14 79 15 80 16 81 20 82 17 83 19 84 18 85
REMARK H PARENT 3 6 75 24 49 35 7 66
REMARK Flexibility Score: inf
ROOT
ATOM      1  C   UNL     1       4.663  -0.430  -2.277  1.00  0.00     0.042 C 
ENDROOT
BRANCH   1   2
ATOM      2  C   UNL     1       4.407   0.642  -1.229  1.00  0.00     0.118 C 
BRANCH   2   3
ATOM      3  N   UNL     1       2.990   0.752  -0.894  1.00  0.00    -0.352 N 
ATOM      4  O   UNL     1       1.065   0.185   0.141  1.00  0.00    -0.269 OA
ATOM      5  C   UNL     1       2.293   0.212   0.159  1.00  0.00     0.251 C 
ATOM      6  H   UNL     1       2.454   1.296  -1.516  1.00  0.00     0.163 HD
BRANCH   5   7
ATOM      7  C   UNL     1       3.031  -0.349   1.306  1.00  0.00     0.039 A 
ATOM      8  C   UNL     1       4.162   0.310   1.784  1.00  0.00     0.014 A 
ATOM      9  C   UNL     1       2.600  -1.532   1.912  1.00  0.00     0.014 A 
ATOM     10  C   UNL     1       4.978  -0.314   2.710  1.00  0.00     0.010 A 
ATOM     11  C   UNL     1       3.346  -2.082   2.960  1.00  0.00     0.010 A 
ATOM     12  C   UNL     1       4.559  -1.492   3.346  1.00  0.00    -0.014 A 
BRANCH  12  13
ATOM     13  C   UNL     1       5.381  -2.005   4.470  1.00  0.00     0.031 A 
ATOM     14  C   UNL     1       6.017  -3.364   4.428  1.00  0.00     0.074 A 
ATOM     15  C   UNL     1       5.603  -1.179   5.513  1.00  0.00     0.049 A 
ATOM     16  N   UNL     1       6.805  -3.927   5.310  1.00  0.00    -0.248 NA
ATOM     17  C   UNL     1       5.732  -4.206   3.256  1.00  0.00     0.031 C 
ATOM     18  C   UNL     1       5.020   0.159   5.665  1.00  0.00     0.029 A 
ATOM     19  N   UNL     1       6.398  -1.317   6.619  1.00  0.00    -0.354 N 
ATOM     20  C   UNL     1       7.103  -5.186   4.807  1.00  0.00     0.074 A 
ATOM     21  C   UNL     1       6.381  -5.322   3.560  1.00  0.00     0.031 C 
ATOM     22  C   UNL     1       5.531   0.744   6.756  1.00  0.00     0.029 A 
ATOM     23  C   UNL     1       6.402  -0.207   7.430  1.00  0.00     0.049 A 
ATOM     24  H   UNL     1       6.917  -2.130   6.814  1.00  0.00     0.167 HD
ATOM     25  C   UNL     1       7.916  -6.134   5.335  1.00  0.00     0.037 A 
ATOM     26  C   UNL     1       7.015   0.015   8.606  1.00  0.00     0.037 A 
ATOM     27  C   UNL     1       8.628  -5.986   6.580  1.00  0.00     0.049 A 
ATOM     28  C   UNL     1       7.875  -1.070   9.181  1.00  0.00     0.074 A 
ATOM     29  C   UNL     1       9.474  -6.888   7.203  1.00  0.00     0.029 A 
ATOM     30  N   UNL     1       8.575  -4.863   7.395  1.00  0.00    -0.354 N 
ATOM     31  N   UNL     1       8.160  -2.249   8.684  1.00  0.00    -0.248 NA
ATOM     32  C   UNL     1       8.496  -0.795  10.482  1.00  0.00     0.031 C 
ATOM     33  C   UNL     1       9.896  -6.330   8.414  1.00  0.00     0.029 A 
ATOM     34  C   UNL     1       9.361  -5.057   8.521  1.00  0.00     0.049 A 
ATOM     35  H   UNL     1       8.056  -4.049   7.202  1.00  0.00     0.167 HD
ATOM     36  C   UNL     1       9.006  -2.852   9.602  1.00  0.00     0.074 A 
ATOM     37  C   UNL     1       9.214  -1.893  10.669  1.00  0.00     0.031 C 
ATOM     38  C   UNL     1       9.556  -4.090   9.572  1.00  0.00     0.037 A 
BRANCH  25  39
ATOM     39  C   UNL     1       8.075  -7.420   4.574  1.00  0.00     0.057 A 
ATOM     40  C   UNL     1       8.781  -7.482   3.366  1.00  0.00     0.134 A 
ATOM     41  C   UNL     1       7.562  -8.622   5.082  1.00  0.00     0.134 A 
ATOM     42  F   UNL     1       9.289  -6.368   2.817  1.00  0.00    -0.206 F 
ATOM     43  C   UNL     1       8.958  -8.688   2.682  1.00  0.00     0.040 A 
ATOM     44  C   UNL     1       7.755  -9.837   4.421  1.00  0.00     0.040 A 
ATOM     45  F   UNL     1       6.881  -8.638   6.237  1.00  0.00    -0.206 F 
ATOM     46  C   UNL     1       8.451  -9.871   3.215  1.00  0.00     0.006 A 
ENDBRANCH  25  39
BRANCH  26  47
ATOM     47  C   UNL     1       6.803   1.296   9.325  1.00  0.00     0.057 A 
ATOM     48  C   UNL     1       7.848   2.202   9.532  1.00  0.00     0.134 A 
ATOM     49  C   UNL     1       5.543   1.640   9.834  1.00  0.00     0.134 A 
ATOM     50  F   UNL     1       9.081   1.925   9.080  1.00  0.00    -0.206 F 
ATOM     51  C   UNL     1       7.657   3.388  10.243  1.00  0.00     0.040 A 
ATOM     52  C   UNL     1       5.329   2.839  10.514  1.00  0.00     0.040 A 
ATOM     53  F   UNL     1       4.494   0.823   9.658  1.00  0.00    -0.206 F 
ATOM     54  C   UNL     1       6.392   3.711  10.731  1.00  0.00     0.006 A 
ENDBRANCH  26  47
BRANCH  38  55
ATOM     55  C   UNL     1      10.460  -4.454  10.713  1.00  0.00     0.057 A 
ATOM     56  C   UNL     1       9.971  -4.670  12.008  1.00  0.00     0.134 A 
ATOM     57  C   UNL     1      11.840  -4.588  10.512  1.00  0.00     0.134 A 
ATOM     58  F   UNL     1       8.661  -4.540  12.271  1.00  0.00    -0.206 F 
ATOM     59  C   UNL     1      10.825  -4.969  13.070  1.00  0.00     0.040 A 
ATOM     60  C   UNL     1      12.700  -4.919  11.559  1.00  0.00     0.040 A 
ATOM     61  F   UNL     1      12.373  -4.402   9.295  1.00  0.00    -0.206 F 
ATOM     62  C   UNL     1      12.194  -5.099  12.845  1.00  0.00     0.006 A 
ENDBRANCH  38  55
ENDBRANCH  12  13
ENDBRANCH   5   7
ENDBRANCH   2   3
ENDBRANCH   1   2
BRANCH   1  63
ATOM     63  C   UNL     1       4.043  -0.086  -3.622  1.00  0.00     0.118 C 
BRANCH  63  64
ATOM     64  N   UNL     1       4.649   1.120  -4.151  1.00  0.00    -0.353 N 
ATOM     65  C   UNL     1       5.709   1.217  -4.993  1.00  0.00     0.262 C 
ATOM     66  H   UNL     1       4.242   1.970  -3.865  1.00  0.00     0.163 HD
ATOM     67  O   UNL     1       6.481   2.161  -4.803  1.00  0.00    -0.271 OA
BRANCH  65  68
ATOM     68  C   UNL     1       5.926   0.225  -6.153  1.00  0.00     0.281 C 
ATOM     69  C   UNL     1       6.022   1.020  -7.453  1.00  0.00     0.181 C 
ATOM     70  O   UNL     1       5.063  -0.876  -6.338  1.00  0.00    -0.477 OA
ATOM     71  N   UNL     1       4.729   1.594  -7.853  1.00  0.00    -0.304 N 
ATOM     72  C   UNL     1       3.887  -0.567  -6.979  1.00  0.00     0.144 A 
ATOM     73  C   UNL     1       3.655   0.619  -7.713  1.00  0.00     0.086 A 
ATOM     74  C   UNL     1       2.896  -1.545  -6.816  1.00  0.00     0.049 A 
ATOM     75  C   UNL     1       2.378   0.764  -8.271  1.00  0.00     0.030 A 
ATOM     76  C   UNL     1       1.637  -1.363  -7.369  1.00  0.00     0.004 A 
ATOM     77  C   UNL     1       1.382  -0.212  -8.101  1.00  0.00     0.002 A 
BRANCH  71  78
ATOM     78  C   UNL     1       4.535   2.888  -8.344  1.00  0.00     0.230 C 
ATOM     79  O   UNL     1       3.437   3.263  -8.787  1.00  0.00    -0.274 OA
BRANCH  78  80
ATOM     80  C   UNL     1       5.640   3.979  -8.425  1.00  0.00     0.083 C 
ATOM     81  C   UNL     1       6.594   4.246  -7.258  1.00  0.00     0.040 C 
ATOM     82  C   UNL     1       6.353   4.017  -9.780  1.00  0.00     0.018 C 
ATOM     83  C   UNL     1       8.002   3.745  -7.464  1.00  0.00    -0.030 C 
ATOM     84  C   UNL     1       7.570   3.101  -9.840  1.00  0.00     0.028 C 
ATOM     85  C   UNL     1       8.431   3.207  -8.616  1.00  0.00    -0.031 C 
ENDBRANCH  78  80
ENDBRANCH  71  78
ENDBRANCH  65  68
ENDBRANCH  63  64
ENDBRANCH   1  63
TORSDOF 12
