REMARK SMILES CC(C)C[C@H](NC(=O)[C@H](C)NC(=O)[C@@H](NC(=O)CNC(=O)OCc1ccccc1)C(C)C)C(=O)NCCCNC(=O)c1ccc(-c2c3nc(c(-c4c(F)cccc4F)c4ccc([nH]4)c(-c4c(F)cccc4F)c4nc(c(-c5c(F)cccc5F)c5ccc2[nH]5)C=C4)C=C3)cc1
REMARK SMILES IDX 6 1 7 2 8 3 5 5 4 6 2 7 1 8 3 9 33 10 34 11 35 12 36 14
REMARK SMILES IDX 37 15 38 16 39 17 40 18 41 20 42 21 43 22 95 23 44 24 94 25
REMARK SMILES IDX 45 26 46 27 47 28 88 29 48 30 93 31 87 32 89 33 49 34 92 35
REMARK SMILES IDX 86 36 85 37 50 39 76 40 59 41 75 42 60 43 63 44 74 45 90 46
REMARK SMILES IDX 61 47 62 48 73 50 91 51 64 52 51 53 52 54 57 55 53 56 54 57
REMARK SMILES IDX 56 58 58 59 55 60 77 61 78 62 83 63 79 64 80 65 82 66 84 67
REMARK SMILES IDX 81 68 65 69 66 70 71 71 67 72 68 73 70 74 72 75 69 76 9 77
REMARK SMILES IDX 10 78 11 79 12 80 13 82 14 83 15 84 16 85 17 87 18 88 19 89
REMARK SMILES IDX 20 90 21 92 22 93 23 94 24 95 25 96 29 97 26 98 28 99 27 100
REMARK SMILES IDX 30 101 31 102 32 103
REMARK H PARENT 6 4 35 13 39 19 89 38 63 49 11 81 15 86 19 91
REMARK Flexibility Score: inf
ROOT
ATOM      1  N   UNL     1      -2.726   6.791  -2.654  1.00  0.00    -0.343 N 
ATOM      2  C   UNL     1      -2.084   7.643  -1.761  1.00  0.00     0.242 C 
ATOM      3  O   UNL     1      -1.132   8.295  -2.205  1.00  0.00    -0.273 OA
ATOM      4  H   UNL     1      -2.373   6.718  -3.571  1.00  0.00     0.164 HD
ENDROOT
BRANCH   1   5
ATOM      5  C   UNL     1      -3.875   6.016  -2.301  1.00  0.00     0.171 C 
BRANCH   5   6
ATOM      6  C   UNL     1      -4.410   4.767  -3.026  1.00  0.00     0.038 C 
BRANCH   6   7
ATOM      7  C   UNL     1      -4.894   4.493  -4.439  1.00  0.00    -0.015 C 
ATOM      8  C   UNL     1      -3.763   4.588  -5.450  1.00  0.00     0.007 C 
ATOM      9  C   UNL     1      -5.417   3.023  -4.426  1.00  0.00     0.007 C 
ENDBRANCH   6   7
ENDBRANCH   5   6
BRANCH   5  10
ATOM     10  C   UNL     1      -3.430   5.316  -1.025  1.00  0.00     0.242 C 
ATOM     11  O   UNL     1      -4.332   5.027  -0.230  1.00  0.00    -0.273 OA
ATOM     12  N   UNL     1      -2.158   4.856  -0.778  1.00  0.00    -0.354 N 
ATOM     13  H   UNL     1      -2.098   4.467   0.124  1.00  0.00     0.163 HD
BRANCH  12  14
ATOM     14  C   UNL     1      -0.848   4.772  -1.471  1.00  0.00     0.117 C 
BRANCH  14  15
ATOM     15  C   UNL     1       0.422   5.585  -1.005  1.00  0.00     0.042 C 
BRANCH  15  16
ATOM     16  C   UNL     1       1.439   5.507   0.208  1.00  0.00     0.118 C 
BRANCH  16  17
ATOM     17  N   UNL     1       1.242   4.708   1.412  1.00  0.00    -0.352 N 
ATOM     18  C   UNL     1       2.127   4.238   2.361  1.00  0.00     0.251 C 
ATOM     19  H   UNL     1       0.304   4.459   1.579  1.00  0.00     0.163 HD
ATOM     20  O   UNL     1       1.834   3.464   3.260  1.00  0.00    -0.269 OA
BRANCH  18  21
ATOM     21  C   UNL     1       3.381   4.934   2.432  1.00  0.00     0.039 A 
ATOM     22  C   UNL     1       4.577   4.334   2.057  1.00  0.00     0.014 A 
ATOM     23  C   UNL     1       3.233   6.280   2.754  1.00  0.00     0.014 A 
ATOM     24  C   UNL     1       5.666   5.165   1.887  1.00  0.00     0.010 A 
ATOM     25  C   UNL     1       4.277   7.108   2.480  1.00  0.00     0.010 A 
ATOM     26  C   UNL     1       5.486   6.550   2.039  1.00  0.00    -0.014 A 
BRANCH  26  27
ATOM     27  C   UNL     1       6.538   7.512   1.724  1.00  0.00     0.031 A 
ATOM     28  C   UNL     1       7.027   8.378   2.835  1.00  0.00     0.074 A 
ATOM     29  C   UNL     1       6.832   7.712   0.429  1.00  0.00     0.049 A 
ATOM     30  N   UNL     1       7.734   9.468   2.772  1.00  0.00    -0.248 NA
ATOM     31  C   UNL     1       6.579   8.018   4.195  1.00  0.00     0.031 C 
ATOM     32  C   UNL     1       6.279   6.954  -0.701  1.00  0.00     0.029 A 
ATOM     33  N   UNL     1       7.643   8.637  -0.157  1.00  0.00    -0.354 N 
ATOM     34  C   UNL     1       7.780   9.944   4.074  1.00  0.00     0.074 A 
ATOM     35  C   UNL     1       6.966   9.075   4.889  1.00  0.00     0.031 C 
ATOM     36  C   UNL     1       6.796   7.430  -1.844  1.00  0.00     0.029 A 
ATOM     37  C   UNL     1       7.678   8.544  -1.525  1.00  0.00     0.049 A 
ATOM     38  H   UNL     1       8.153   9.308   0.352  1.00  0.00     0.167 HD
ATOM     39  C   UNL     1       8.479  11.002   4.537  1.00  0.00     0.037 A 
ATOM     40  C   UNL     1       8.363   9.291  -2.405  1.00  0.00     0.037 A 
ATOM     41  C   UNL     1       9.316  11.797   3.686  1.00  0.00     0.049 A 
ATOM     42  C   UNL     1       9.213  10.399  -1.852  1.00  0.00     0.074 A 
ATOM     43  C   UNL     1      10.152  12.842   4.022  1.00  0.00     0.029 A 
ATOM     44  N   UNL     1       9.430  11.606   2.313  1.00  0.00    -0.354 N 
ATOM     45  N   UNL     1       9.327  10.805  -0.608  1.00  0.00    -0.248 NA
ATOM     46  C   UNL     1      10.036  11.143  -2.809  1.00  0.00     0.031 C 
ATOM     47  C   UNL     1      10.761  13.294   2.846  1.00  0.00     0.029 A 
ATOM     48  C   UNL     1      10.330  12.509   1.785  1.00  0.00     0.049 A 
ATOM     49  H   UNL     1       8.941  10.927   1.794  1.00  0.00     0.167 HD
ATOM     50  C   UNL     1      10.258  11.830  -0.624  1.00  0.00     0.074 A 
ATOM     51  C   UNL     1      10.681  11.978  -2.005  1.00  0.00     0.031 C 
ATOM     52  C   UNL     1      10.726  12.586   0.400  1.00  0.00     0.037 A 
BRANCH  39  53
ATOM     53  C   UNL     1       8.373  11.306   6.000  1.00  0.00     0.057 A 
ATOM     54  C   UNL     1       8.877  10.431   6.974  1.00  0.00     0.134 A 
ATOM     55  C   UNL     1       7.732  12.466   6.449  1.00  0.00     0.134 A 
ATOM     56  F   UNL     1       9.482   9.288   6.614  1.00  0.00    -0.206 F 
ATOM     57  C   UNL     1       8.713  10.678   8.338  1.00  0.00     0.040 A 
ATOM     58  C   UNL     1       7.589  12.740   7.811  1.00  0.00     0.040 A 
ATOM     59  F   UNL     1       7.220  13.345   5.574  1.00  0.00    -0.206 F 
ATOM     60  C   UNL     1       8.070  11.839   8.759  1.00  0.00     0.006 A 
ENDBRANCH  39  53
BRANCH  40  61
ATOM     61  C   UNL     1       8.330   8.961  -3.849  1.00  0.00     0.057 A 
ATOM     62  C   UNL     1       9.440   8.378  -4.472  1.00  0.00     0.134 A 
ATOM     63  C   UNL     1       7.190   9.172  -4.634  1.00  0.00     0.134 A 
ATOM     64  F   UNL     1      10.560   8.146  -3.771  1.00  0.00    -0.206 F 
ATOM     65  C   UNL     1       9.429   8.040  -5.826  1.00  0.00     0.040 A 
ATOM     66  C   UNL     1       7.157   8.821  -5.985  1.00  0.00     0.040 A 
ATOM     67  F   UNL     1       6.083   9.701  -4.092  1.00  0.00    -0.206 F 
ATOM     68  C   UNL     1       8.283   8.259  -6.587  1.00  0.00     0.006 A 
ENDBRANCH  40  61
BRANCH  52  69
ATOM     69  C   UNL     1      11.774  13.597   0.062  1.00  0.00     0.057 A 
ATOM     70  C   UNL     1      11.451  14.802  -0.569  1.00  0.00     0.134 A 
ATOM     71  C   UNL     1      13.102  13.392   0.453  1.00  0.00     0.134 A 
ATOM     72  F   UNL     1      10.195  15.044  -0.974  1.00  0.00    -0.206 F 
ATOM     73  C   UNL     1      12.422  15.772  -0.810  1.00  0.00     0.040 A 
ATOM     74  C   UNL     1      14.076  14.364   0.239  1.00  0.00     0.040 A 
ATOM     75  F   UNL     1      13.464  12.257   1.072  1.00  0.00    -0.206 F 
ATOM     76  C   UNL     1      13.737  15.558  -0.395  1.00  0.00     0.006 A 
ENDBRANCH  52  69
ENDBRANCH  26  27
ENDBRANCH  18  21
ENDBRANCH  16  17
ENDBRANCH  15  16
ENDBRANCH  14  15
ENDBRANCH  12  14
ENDBRANCH   5  10
ENDBRANCH   1   5
BRANCH   2  77
ATOM     77  C   UNL     1      -2.489   7.706  -0.180  1.00  0.00     0.168 C 
ATOM     78  C   UNL     1      -2.510   9.233   0.078  1.00  0.00     0.041 C 
BRANCH  77  79
ATOM     79  N   UNL     1      -1.590   7.068   0.899  1.00  0.00    -0.343 N 
ATOM     80  C   UNL     1      -1.360   6.038   1.764  1.00  0.00     0.243 C 
ATOM     81  H   UNL     1      -0.836   7.690   1.018  1.00  0.00     0.164 HD
ATOM     82  O   UNL     1      -0.415   6.368   2.523  1.00  0.00    -0.273 OA
BRANCH  80  83
ATOM     83  C   UNL     1      -1.892   4.455   2.048  1.00  0.00     0.174 C 
BRANCH  83  84
ATOM     84  N   UNL     1      -3.367   4.315   2.052  1.00  0.00    -0.343 N 
ATOM     85  C   UNL     1      -4.253   3.279   1.868  1.00  0.00     0.240 C 
ATOM     86  H   UNL     1      -3.823   5.170   2.229  1.00  0.00     0.164 HD
ATOM     87  O   UNL     1      -5.293   3.362   2.539  1.00  0.00    -0.273 OA
BRANCH  85  88
ATOM     88  C   UNL     1      -4.050   2.001   0.952  1.00  0.00     0.219 C 
BRANCH  88  89
ATOM     89  N   UNL     1      -3.705   2.285  -0.443  1.00  0.00    -0.312 N 
ATOM     90  C   UNL     1      -2.794   1.784  -1.323  1.00  0.00     0.407 C 
ATOM     91  H   UNL     1      -4.257   3.001  -0.833  1.00  0.00     0.167 HD
ATOM     92  O   UNL     1      -2.572   2.410  -2.364  1.00  0.00    -0.225 OA
BRANCH  90  93
ATOM     93  O   UNL     1      -2.114   0.667  -0.997  1.00  0.00    -0.445 OA
BRANCH  93  94
ATOM     94  C   UNL     1      -0.962   0.355  -1.847  1.00  0.00     0.270 C 
BRANCH  94  95
ATOM     95  C   UNL     1      -1.074   0.472  -3.364  1.00  0.00    -0.011 A 
ATOM     96  C   UNL     1      -2.053  -0.233  -4.072  1.00  0.00     0.007 A 
ATOM     97  C   UNL     1      -0.220   1.338  -4.079  1.00  0.00     0.007 A 
ATOM     98  C   UNL     1      -2.198  -0.053  -5.451  1.00  0.00     0.000 A 
ATOM     99  C   UNL     1      -0.369   1.517  -5.458  1.00  0.00     0.000 A 
ATOM    100  C   UNL     1      -1.363   0.825  -6.143  1.00  0.00     0.000 A 
ENDBRANCH  94  95
ENDBRANCH  93  94
ENDBRANCH  90  93
ENDBRANCH  88  89
ENDBRANCH  85  88
ENDBRANCH  83  84
BRANCH  83 101
ATOM    101  C   UNL     1      -1.221   3.008   1.726  1.00  0.00     0.015 C 
ATOM    102  C   UNL     1      -0.003   2.488   0.948  1.00  0.00     0.010 C 
ATOM    103  C   UNL     1      -1.305   2.096   2.968  1.00  0.00     0.010 C 
ENDBRANCH  83 101
ENDBRANCH  80  83
ENDBRANCH  77  79
ENDBRANCH   2  77
TORSDOF 23
