REMARK SMILES O=C(NCCCNC(=O)[C@H]1CC=CC[C@H]1C(=O)Nc1ccc(S(=O)(=O)N2CCc3ccccc32)cc1)c1ccc(-c2c3nc(c(-c4c(F)cccc4F)c4ccc([nH]4)c(-c4c(F)cccc4F)c4nc(c(-c5c(F)cccc5F)c5ccc2[nH]5)C=C4)C=C3)cc1
REMARK SMILES IDX 6 1 5 2 4 3 3 4 1 5 2 6 37 8 38 9 90 10 39 11 89 12 40 13
REMARK SMILES IDX 41 14 42 15 83 16 43 17 88 18 82 19 84 20 44 21 87 22 81 23
REMARK SMILES IDX 80 24 45 26 71 27 54 28 70 29 55 30 58 31 69 32 85 33 56 34
REMARK SMILES IDX 57 35 68 37 86 38 59 39 46 40 47 41 52 42 48 43 49 44 51 45
REMARK SMILES IDX 53 46 50 47 72 48 73 49 78 50 74 51 75 52 77 53 79 54 76 55
REMARK SMILES IDX 60 56 61 57 66 58 62 59 63 60 65 61 67 62 64 63 7 64 8 65
REMARK SMILES IDX 9 67 10 68 11 69 15 70 12 71 14 72 13 73 16 74 17 75 18 76
REMARK SMILES IDX 19 78 20 79 36 80 21 81 35 82 22 83 23 84 24 85 25 86 26 87
REMARK SMILES IDX 27 88 34 89 28 90 29 91 33 92 30 93 32 94 31 95
REMARK H PARENT 3 7 84 25 58 36 7 66 18 77
REMARK Flexibility Score: inf
ROOT
ATOM      1  C   UNL     1       5.084   0.832  -3.785  1.00  0.00     0.117 C 
ENDROOT
BRANCH   1   2
ATOM      2  C   UNL     1       5.142  -0.166  -2.640  1.00  0.00     0.042 C 
BRANCH   2   3
ATOM      3  C   UNL     1       4.644   0.418  -1.330  1.00  0.00     0.118 C 
BRANCH   3   4
ATOM      4  N   UNL     1       3.198   0.298  -1.179  1.00  0.00    -0.352 N 
ATOM      5  O   UNL     1       1.237  -0.507  -0.415  1.00  0.00    -0.269 OA
ATOM      6  C   UNL     1       2.457  -0.446  -0.287  1.00  0.00     0.251 C 
ATOM      7  H   UNL     1       2.668   0.832  -1.814  1.00  0.00     0.163 HD
BRANCH   6   8
ATOM      8  C   UNL     1       3.127  -1.196   0.797  1.00  0.00     0.039 A 
ATOM      9  C   UNL     1       4.189  -0.630   1.497  1.00  0.00     0.014 A 
ATOM     10  C   UNL     1       2.720  -2.503   1.084  1.00  0.00     0.014 A 
ATOM     11  C   UNL     1       4.992  -1.435   2.288  1.00  0.00     0.010 A 
ATOM     12  C   UNL     1       3.458  -3.277   1.986  1.00  0.00     0.010 A 
ATOM     13  C   UNL     1       4.639  -2.769   2.545  1.00  0.00    -0.014 A 
BRANCH  13  14
ATOM     14  C   UNL     1       5.539  -3.589   3.397  1.00  0.00     0.031 A 
ATOM     15  C   UNL     1       6.231  -4.806   2.845  1.00  0.00     0.074 A 
ATOM     16  C   UNL     1       5.808  -3.161   4.646  1.00  0.00     0.049 A 
ATOM     17  N   UNL     1       7.079  -5.610   3.438  1.00  0.00    -0.248 NA
ATOM     18  C   UNL     1       5.934  -5.178   1.453  1.00  0.00     0.031 C 
ATOM     19  C   UNL     1       5.200  -1.988   5.282  1.00  0.00     0.029 A 
ATOM     20  N   UNL     1       6.686  -3.628   5.587  1.00  0.00    -0.354 N 
ATOM     21  C   UNL     1       7.395  -6.590   2.505  1.00  0.00     0.074 A 
ATOM     22  C   UNL     1       6.634  -6.295   1.311  1.00  0.00     0.031 C 
ATOM     23  C   UNL     1       5.775  -1.786   6.475  1.00  0.00     0.029 A 
ATOM     24  C   UNL     1       6.730  -2.857   6.724  1.00  0.00     0.049 A 
ATOM     25  H   UNL     1       7.233  -4.437   5.462  1.00  0.00     0.167 HD
ATOM     26  C   UNL     1       8.248  -7.635   2.633  1.00  0.00     0.037 A 
ATOM     27  C   UNL     1       7.446  -3.006   7.853  1.00  0.00     0.037 A 
ATOM     28  C   UNL     1       9.018  -7.908   3.819  1.00  0.00     0.049 A 
ATOM     29  C   UNL     1       8.381  -4.172   7.965  1.00  0.00     0.074 A 
ATOM     30  C   UNL     1       9.898  -8.950   4.058  1.00  0.00     0.029 A 
ATOM     31  N   UNL     1       9.009  -7.123   4.962  1.00  0.00    -0.354 N 
ATOM     32  N   UNL     1       8.642  -5.105   7.082  1.00  0.00    -0.248 NA
ATOM     33  C   UNL     1       9.110  -4.313   9.231  1.00  0.00     0.031 C 
ATOM     34  C   UNL     1      10.400  -8.810   5.357  1.00  0.00     0.029 A 
ATOM     35  C   UNL     1       9.863  -7.660   5.912  1.00  0.00     0.049 A 
ATOM     36  H   UNL     1       8.475  -6.305   5.082  1.00  0.00     0.167 HD
ATOM     37  C   UNL     1       9.562  -5.949   7.686  1.00  0.00     0.074 A 
ATOM     38  C   UNL     1       9.843  -5.392   8.995  1.00  0.00     0.031 C 
ATOM     39  C   UNL     1      10.115  -7.091   7.210  1.00  0.00     0.037 A 
BRANCH  26  40
ATOM     40  C   UNL     1       8.381  -8.572   1.467  1.00  0.00     0.057 A 
ATOM     41  C   UNL     1       9.076  -8.214   0.305  1.00  0.00     0.134 A 
ATOM     42  C   UNL     1       7.844  -9.865   1.525  1.00  0.00     0.134 A 
ATOM     43  F   UNL     1       9.600  -6.986   0.178  1.00  0.00    -0.206 F 
ATOM     44  C   UNL     1       9.221  -9.103  -0.763  1.00  0.00     0.040 A 
ATOM     45  C   UNL     1       8.000 -10.770   0.473  1.00  0.00     0.040 A 
ATOM     46  F   UNL     1       7.168 -10.274   2.609  1.00  0.00    -0.206 F 
ATOM     47  C   UNL     1       8.688 -10.388  -0.677  1.00  0.00     0.006 A 
ENDBRANCH  26  40
BRANCH  27  48
ATOM     48  C   UNL     1       7.274  -2.042   8.968  1.00  0.00     0.057 A 
ATOM     49  C   UNL     1       8.296  -1.163   9.339  1.00  0.00     0.134 A 
ATOM     50  C   UNL     1       6.070  -1.969   9.682  1.00  0.00     0.134 A 
ATOM     51  F   UNL     1       9.478  -1.195   8.704  1.00  0.00    -0.206 F 
ATOM     52  C   UNL     1       8.134  -0.254  10.386  1.00  0.00     0.040 A 
ATOM     53  C   UNL     1       5.883  -1.046  10.710  1.00  0.00     0.040 A 
ATOM     54  F   UNL     1       5.048  -2.778   9.369  1.00  0.00    -0.206 F 
ATOM     55  C   UNL     1       6.921  -0.189  11.070  1.00  0.00     0.006 A 
ENDBRANCH  27  48
BRANCH  39  56
ATOM     56  C   UNL     1      11.075  -7.797   8.118  1.00  0.00     0.057 A 
ATOM     57  C   UNL     1      10.633  -8.506   9.243  1.00  0.00     0.134 A 
ATOM     58  C   UNL     1      12.451  -7.768   7.866  1.00  0.00     0.134 A 
ATOM     59  F   UNL     1       9.326  -8.556   9.544  1.00  0.00    -0.206 F 
ATOM     60  C   UNL     1      11.531  -9.136  10.104  1.00  0.00     0.040 A 
ATOM     61  C   UNL     1      13.357  -8.414   8.708  1.00  0.00     0.040 A 
ATOM     62  F   UNL     1      12.936  -7.111   6.802  1.00  0.00    -0.206 F 
ATOM     63  C   UNL     1      12.898  -9.093   9.835  1.00  0.00     0.006 A 
ENDBRANCH  39  56
ENDBRANCH  13  14
ENDBRANCH   6   8
ENDBRANCH   3   4
ENDBRANCH   2   3
ENDBRANCH   1   2
BRANCH   1  64
ATOM     64  N   UNL     1       6.136   1.828  -3.678  1.00  0.00    -0.356 N 
ATOM     65  C   UNL     1       6.777   2.617  -4.568  1.00  0.00     0.224 C 
ATOM     66  H   UNL     1       6.451   1.956  -2.754  1.00  0.00     0.163 HD
ATOM     67  O   UNL     1       7.625   3.365  -4.064  1.00  0.00    -0.275 OA
BRANCH  65  68
ATOM     68  C   UNL     1       6.540   2.657  -6.079  1.00  0.00     0.095 C 
ATOM     69  C   UNL     1       5.903   1.461  -6.782  1.00  0.00     0.041 C 
ATOM     70  C   UNL     1       5.959   3.983  -6.622  1.00  0.00     0.095 C 
ATOM     71  C   UNL     1       4.406   1.544  -6.846  1.00  0.00    -0.030 C 
ATOM     72  C   UNL     1       4.460   4.036  -6.953  1.00  0.00     0.041 C 
ATOM     73  C   UNL     1       3.758   2.714  -6.908  1.00  0.00    -0.030 C 
BRANCH  70  74
ATOM     74  C   UNL     1       6.500   5.230  -5.956  1.00  0.00     0.228 C 
ATOM     75  O   UNL     1       7.549   5.721  -6.403  1.00  0.00    -0.274 OA
ATOM     76  N   UNL     1       5.926   5.914  -4.943  1.00  0.00    -0.326 N 
ATOM     77  H   UNL     1       6.404   6.760  -4.785  1.00  0.00     0.169 HD
BRANCH  76  78
ATOM     78  C   UNL     1       4.855   5.783  -4.049  1.00  0.00     0.041 A 
ATOM     79  C   UNL     1       4.565   6.951  -3.346  1.00  0.00     0.027 A 
ATOM     80  C   UNL     1       4.104   4.635  -3.763  1.00  0.00     0.027 A 
ATOM     81  C   UNL     1       3.598   6.957  -2.356  1.00  0.00     0.024 A 
ATOM     82  C   UNL     1       3.117   4.628  -2.748  1.00  0.00     0.024 A 
ATOM     83  C   UNL     1       2.905   5.786  -2.014  1.00  0.00     0.088 A 
BRANCH  83  84
ATOM     84  S   UNL     1       2.008   5.973  -0.501  1.00  0.00     0.264 S 
ATOM     85  O   UNL     1       3.020   6.511   0.394  1.00  0.00    -0.201 OA
ATOM     86  O   UNL     1       0.839   6.762  -0.843  1.00  0.00    -0.201 OA
BRANCH  84  87
ATOM     87  N   UNL     1       1.431   4.497   0.219  1.00  0.00    -0.266 N 
ATOM     88  C   UNL     1       2.351   3.307   0.200  1.00  0.00     0.140 C 
ATOM     89  C   UNL     1       1.261   4.797   1.643  1.00  0.00     0.055 A 
ATOM     90  C   UNL     1       2.732   2.947   1.641  1.00  0.00     0.060 C 
ATOM     91  C   UNL     1       2.201   4.105   2.399  1.00  0.00    -0.022 A 
ATOM     92  C   UNL     1       0.572   5.881   2.168  1.00  0.00     0.027 A 
ATOM     93  C   UNL     1       2.615   4.585   3.631  1.00  0.00     0.006 A 
ATOM     94  C   UNL     1       0.997   6.388   3.398  1.00  0.00     0.002 A 
ATOM     95  C   UNL     1       2.039   5.766   4.104  1.00  0.00     0.000 A 
ENDBRANCH  84  87
ENDBRANCH  83  84
ENDBRANCH  76  78
ENDBRANCH  70  74
ENDBRANCH  65  68
ENDBRANCH   1  64
TORSDOF 14
