REMARK SMILES O=C(NCCCNC(=O)c1ccc(N2C(=O)[C@@H]3N=NC(c4ccccc4)=C3[C@H]2c2cccc(Br)c2)cc1)c1ccc(-c2c3nc(c(-c4c(F)cccc4F)c4ccc([nH]4)c(-c4c(F)cccc4F)c4nc(c(-c5c(F)cccc5F)c5ccc2[nH]5)C=C4)C=C3)cc1
REMARK SMILES IDX 5 1 4 2 3 3 1 4 2 5 38 7 39 8 91 9 40 10 90 11 41 12 42 13
REMARK SMILES IDX 43 14 84 15 44 16 89 17 83 18 85 19 45 20 88 21 82 22 81 23
REMARK SMILES IDX 46 25 72 26 55 27 71 28 56 29 59 30 70 31 86 32 57 33 58 34
REMARK SMILES IDX 69 36 87 37 60 38 47 39 48 40 53 41 49 42 50 43 52 44 54 45
REMARK SMILES IDX 51 46 73 47 74 48 79 49 75 50 76 51 78 52 80 53 77 54 61 55
REMARK SMILES IDX 62 56 67 57 63 58 64 59 66 60 68 61 65 62 6 63 7 64 8 65
REMARK SMILES IDX 9 67 10 68 11 69 37 70 12 71 36 72 13 73 14 74 15 75 28 76
REMARK SMILES IDX 17 77 16 78 27 79 18 80 20 81 19 82 29 83 30 84 35 85 31 86
REMARK SMILES IDX 33 87 32 88 34 89 21 90 22 91 26 92 23 93 25 94 24 95
REMARK H PARENT 3 6 85 24 59 35 7 66
REMARK Flexibility Score: inf
ROOT
ATOM      1  C   UNL     1       4.936  -0.685   2.221  1.00  0.00     0.042 C 
ENDROOT
BRANCH   1   2
ATOM      2  C   UNL     1       4.686  -1.064   0.760  1.00  0.00     0.118 C 
BRANCH   2   3
ATOM      3  N   UNL     1       3.299  -1.265   0.388  1.00  0.00    -0.352 N 
ATOM      4  O   UNL     1       1.226  -0.994  -0.328  1.00  0.00    -0.269 OA
ATOM      5  C   UNL     1       2.244  -0.444   0.100  1.00  0.00     0.251 C 
ATOM      6  H   UNL     1       3.061  -2.218   0.328  1.00  0.00     0.163 HD
BRANCH   5   7
ATOM      7  C   UNL     1       2.213   1.027   0.322  1.00  0.00     0.039 A 
ATOM      8  C   UNL     1       3.327   1.852   0.484  1.00  0.00     0.014 A 
ATOM      9  C   UNL     1       0.934   1.614   0.360  1.00  0.00     0.014 A 
ATOM     10  C   UNL     1       3.167   3.211   0.758  1.00  0.00     0.010 A 
ATOM     11  C   UNL     1       0.769   2.973   0.611  1.00  0.00     0.010 A 
ATOM     12  C   UNL     1       1.889   3.770   0.840  1.00  0.00    -0.014 A 
BRANCH  12  13
ATOM     13  C   UNL     1       1.764   5.212   1.061  1.00  0.00     0.031 A 
ATOM     14  C   UNL     1       2.219   6.102  -0.051  1.00  0.00     0.074 A 
ATOM     15  C   UNL     1       1.098   5.747   2.104  1.00  0.00     0.049 A 
ATOM     16  N   UNL     1       3.062   7.085  -0.009  1.00  0.00    -0.248 NA
ATOM     17  C   UNL     1       1.670   5.844  -1.391  1.00  0.00     0.031 C 
ATOM     18  C   UNL     1       0.291   5.050   3.108  1.00  0.00     0.029 A 
ATOM     19  N   UNL     1       0.910   7.064   2.412  1.00  0.00    -0.354 N 
ATOM     20  C   UNL     1       3.045   7.668  -1.278  1.00  0.00     0.074 A 
ATOM     21  C   UNL     1       2.239   6.812  -2.110  1.00  0.00     0.031 C 
ATOM     22  C   UNL     1      -0.464   5.952   3.773  1.00  0.00     0.029 A 
ATOM     23  C   UNL     1      -0.104   7.290   3.331  1.00  0.00     0.049 A 
ATOM     24  H   UNL     1       1.446   7.789   2.017  1.00  0.00     0.167 HD
ATOM     25  C   UNL     1       3.562   8.903  -1.529  1.00  0.00     0.037 A 
ATOM     26  C   UNL     1      -0.658   8.482   3.656  1.00  0.00     0.037 A 
ATOM     27  C   UNL     1       4.459   9.339  -0.497  1.00  0.00     0.049 A 
ATOM     28  C   UNL     1       0.264   9.559   3.226  1.00  0.00     0.074 A 
ATOM     29  C   UNL     1       5.649   8.876   0.029  1.00  0.00     0.029 A 
ATOM     30  N   UNL     1       4.029  10.309   0.372  1.00  0.00    -0.354 N 
ATOM     31  N   UNL     1       1.406   9.828   3.791  1.00  0.00    -0.248 NA
ATOM     32  C   UNL     1       0.071  10.136   1.904  1.00  0.00     0.031 C 
ATOM     33  C   UNL     1       5.607   9.231   1.409  1.00  0.00     0.029 A 
ATOM     34  C   UNL     1       4.403   9.900   1.625  1.00  0.00     0.049 A 
ATOM     35  H   UNL     1       3.547  11.136   0.141  1.00  0.00     0.167 HD
ATOM     36  C   UNL     1       2.224  10.240   2.752  1.00  0.00     0.074 A 
ATOM     37  C   UNL     1       1.320  10.527   1.644  1.00  0.00     0.031 C 
ATOM     38  C   UNL     1       3.575  10.045   2.797  1.00  0.00     0.037 A 
BRANCH  25  39
ATOM     39  C   UNL     1       3.035   9.857  -2.571  1.00  0.00     0.057 A 
ATOM     40  C   UNL     1       3.785  10.995  -2.922  1.00  0.00     0.134 A 
ATOM     41  C   UNL     1       1.700   9.854  -3.020  1.00  0.00     0.134 A 
ATOM     42  F   UNL     1       5.062  11.127  -2.531  1.00  0.00    -0.206 F 
ATOM     43  C   UNL     1       3.228  12.077  -3.616  1.00  0.00     0.040 A 
ATOM     44  C   UNL     1       1.149  10.907  -3.757  1.00  0.00     0.040 A 
ATOM     45  F   UNL     1       0.841   8.884  -2.683  1.00  0.00    -0.206 F 
ATOM     46  C   UNL     1       1.904  12.037  -4.032  1.00  0.00     0.006 A 
ENDBRANCH  25  39
BRANCH  26  47
ATOM     47  C   UNL     1      -2.041   8.769   4.095  1.00  0.00     0.057 A 
ATOM     48  C   UNL     1      -2.367   9.968   4.744  1.00  0.00     0.134 A 
ATOM     49  C   UNL     1      -3.126   7.988   3.659  1.00  0.00     0.134 A 
ATOM     50  F   UNL     1      -1.403  10.803   5.157  1.00  0.00    -0.206 F 
ATOM     51  C   UNL     1      -3.694  10.373   4.936  1.00  0.00     0.040 A 
ATOM     52  C   UNL     1      -4.455   8.375   3.854  1.00  0.00     0.040 A 
ATOM     53  F   UNL     1      -2.932   6.865   2.953  1.00  0.00    -0.206 F 
ATOM     54  C   UNL     1      -4.743   9.579   4.483  1.00  0.00     0.006 A 
ENDBRANCH  26  47
BRANCH  38  55
ATOM     55  C   UNL     1       4.187   9.653   4.109  1.00  0.00     0.057 A 
ATOM     56  C   UNL     1       3.893   8.456   4.778  1.00  0.00     0.134 A 
ATOM     57  C   UNL     1       5.218  10.439   4.636  1.00  0.00     0.134 A 
ATOM     58  F   UNL     1       2.997   7.589   4.288  1.00  0.00    -0.206 F 
ATOM     59  C   UNL     1       4.561   8.085   5.948  1.00  0.00     0.040 A 
ATOM     60  C   UNL     1       5.918  10.062   5.784  1.00  0.00     0.040 A 
ATOM     61  F   UNL     1       5.596  11.566   4.012  1.00  0.00    -0.206 F 
ATOM     62  C   UNL     1       5.582   8.886   6.451  1.00  0.00     0.006 A 
ENDBRANCH  38  55
ENDBRANCH  12  13
ENDBRANCH   5   7
ENDBRANCH   2   3
ENDBRANCH   1   2
BRANCH   1  63
ATOM     63  C   UNL     1       4.402  -1.669   3.265  1.00  0.00     0.118 C 
BRANCH  63  64
ATOM     64  N   UNL     1       4.969  -3.000   3.139  1.00  0.00    -0.352 N 
ATOM     65  C   UNL     1       5.651  -3.776   4.038  1.00  0.00     0.251 C 
ATOM     66  H   UNL     1       4.841  -3.415   2.255  1.00  0.00     0.163 HD
ATOM     67  O   UNL     1       6.143  -4.837   3.656  1.00  0.00    -0.269 OA
BRANCH  65  68
ATOM     68  C   UNL     1       5.847  -3.365   5.448  1.00  0.00     0.039 A 
ATOM     69  C   UNL     1       7.141  -3.454   5.963  1.00  0.00     0.016 A 
ATOM     70  C   UNL     1       4.793  -2.996   6.295  1.00  0.00     0.016 A 
ATOM     71  C   UNL     1       7.388  -3.111   7.293  1.00  0.00     0.027 A 
ATOM     72  C   UNL     1       5.041  -2.668   7.644  1.00  0.00     0.027 A 
ATOM     73  C   UNL     1       6.345  -2.703   8.144  1.00  0.00     0.045 A 
BRANCH  73  74
ATOM     74  N   UNL     1       6.656  -2.265   9.469  1.00  0.00    -0.299 N 
ATOM     75  C   UNL     1       7.810  -1.419   9.594  1.00  0.00     0.259 C 
ATOM     76  C   UNL     1       6.567  -3.208  10.609  1.00  0.00     0.152 C 
ATOM     77  C   UNL     1       8.560  -1.839  10.829  1.00  0.00     0.248 C 
ATOM     78  O   UNL     1       8.157  -0.549   8.817  1.00  0.00    -0.271 OA
ATOM     79  C   UNL     1       8.006  -3.203  10.951  1.00  0.00     0.021 C 
ATOM     80  N   UNL     1       9.994  -2.113  10.651  1.00  0.00    -0.170 NA
ATOM     81  C   UNL     1       9.041  -4.027  11.075  1.00  0.00     0.097 C 
ATOM     82  N   UNL     1      10.225  -3.330  10.931  1.00  0.00    -0.154 NA
BRANCH  76  83
ATOM     83  C   UNL     1       5.724  -2.701  11.794  1.00  0.00    -0.020 A 
ATOM     84  C   UNL     1       6.244  -2.683  13.113  1.00  0.00     0.006 A 
ATOM     85  C   UNL     1       4.394  -2.287  11.629  1.00  0.00     0.022 A 
ATOM     86  C   UNL     1       5.499  -2.225  14.201  1.00  0.00     0.002 A 
ATOM     87  C   UNL     1       3.641  -1.851  12.731  1.00  0.00     0.018 A 
ATOM     88  C   UNL     1       4.190  -1.808  14.011  1.00  0.00     0.016 A 
ATOM     89  Br  UNL     1       1.839  -1.324  12.493  1.00  0.00    -0.051 Br
ENDBRANCH  76  83
BRANCH  81  90
ATOM     90  C   UNL     1       9.059  -5.484  11.155  1.00  0.00     0.002 A 
ATOM     91  C   UNL     1       8.866  -6.122  12.389  1.00  0.00     0.010 A 
ATOM     92  C   UNL     1       9.432  -6.248  10.043  1.00  0.00     0.010 A 
ATOM     93  C   UNL     1       9.100  -7.494  12.517  1.00  0.00     0.001 A 
ATOM     94  C   UNL     1       9.659  -7.620  10.172  1.00  0.00     0.001 A 
ATOM     95  C   UNL     1       9.511  -8.239  11.413  1.00  0.00     0.000 A 
ENDBRANCH  81  90
ENDBRANCH  73  74
ENDBRANCH  65  68
ENDBRANCH  63  64
ENDBRANCH   1  63
TORSDOF 13
