REMARK SMILES CCN(C(=O)C[NH2+][C@@](C)(C(=O)NCCCNC(=O)c1ccc(-c2c3nc(c(-c4c(F)cccc4F)c4ccc([nH]4)c(-c4c(F)cccc4F)c4nc(c(-c5c(F)cccc5F)c5ccc2[nH]5)C=C4)C=C3)cc1)C(F)(F)F)C1CC1
REMARK SMILES IDX 10 1 11 2 12 3 8 5 9 6 7 7 6 10 4 11 5 12 3 13 2 14 1 15
REMARK SMILES IDX 77 16 78 17 79 18 73 19 74 20 75 21 76 22 13 23 14 24 15 25
REMARK SMILES IDX 16 26 17 27 18 29 19 30 20 31 72 32 21 33 71 34 22 35 23 36
REMARK SMILES IDX 24 37 65 38 25 39 70 40 64 41 66 42 26 43 69 44 63 45 62 46
REMARK SMILES IDX 27 48 53 49 36 50 52 51 37 52 40 53 51 54 67 55 38 56 39 57
REMARK SMILES IDX 50 59 68 60 41 61 28 62 29 63 34 64 30 65 31 66 33 67 35 68
REMARK SMILES IDX 32 69 54 70 55 71 60 72 56 73 57 74 59 75 61 76 58 77 42 78
REMARK SMILES IDX 43 79 48 80 44 81 45 82 47 83 49 84 46 85
REMARK H PARENT 12 4 7 8 7 9 16 28 66 47 40 58
REMARK Flexibility Score: inf
ROOT
ATOM      1  C   UNL     1      -3.811  -0.832  -1.478  1.00  0.00     0.290 C 
ATOM      2  O   UNL     1      -4.248  -1.108  -0.357  1.00  0.00    -0.267 OA
ATOM      3  N   UNL     1      -3.648  -1.907  -2.306  1.00  0.00    -0.350 N 
ATOM      4  H   UNL     1      -3.964  -2.752  -1.913  1.00  0.00     0.163 HD
ENDROOT
BRANCH   1   5
ATOM      5  C   UNL     1      -3.477   0.619  -1.914  1.00  0.00     0.268 C 
ATOM      6  C   UNL     1      -4.367   1.016  -3.109  1.00  0.00     0.101 C 
BRANCH   5   7
ATOM      7  N   UNL     1      -2.009   0.660  -2.245  1.00  0.00    -0.318 N 
ATOM      8  H   UNL     1      -1.493   0.299  -1.442  1.00  0.00     0.347 HD
ATOM      9  H   UNL     1      -1.890   0.097  -3.087  1.00  0.00     0.347 HD
BRANCH   7  10
ATOM     10  C   UNL     1      -1.483   1.995  -2.563  1.00  0.00     0.363 C 
BRANCH  10  11
ATOM     11  C   UNL     1       0.001   1.870  -2.953  1.00  0.00     0.277 C 
ATOM     12  O   UNL     1       0.279   1.878  -4.157  1.00  0.00    -0.268 OA
BRANCH  11  13
ATOM     13  N   UNL     1       0.948   1.733  -1.927  1.00  0.00    -0.335 N 
BRANCH  13  14
ATOM     14  C   UNL     1       0.578   1.509  -0.516  1.00  0.00     0.116 C 
ATOM     15  C   UNL     1       0.800   0.063  -0.091  1.00  0.00     0.027 C 
ENDBRANCH  13  14
BRANCH  13  16
ATOM     16  C   UNL     1       2.385   1.729  -2.181  1.00  0.00     0.085 C 
ATOM     17  C   UNL     1       3.025   1.056  -3.364  1.00  0.00     0.027 C 
ATOM     18  C   UNL     1       3.046   2.557  -3.248  1.00  0.00     0.027 C 
ENDBRANCH  13  16
ENDBRANCH  11  13
ENDBRANCH  10  11
ENDBRANCH   7  10
ENDBRANCH   5   7
BRANCH   5  19
ATOM     19  C   UNL     1      -3.911   1.521  -0.714  1.00  0.00     0.453 C 
ATOM     20  F   UNL     1      -3.167   1.317   0.397  1.00  0.00    -0.164 F 
ATOM     21  F   UNL     1      -3.756   2.837  -1.036  1.00  0.00    -0.164 F 
ATOM     22  F   UNL     1      -5.217   1.377  -0.393  1.00  0.00    -0.164 F 
ENDBRANCH   5  19
ENDBRANCH   1   5
BRANCH   3  23
ATOM     23  C   UNL     1      -3.106  -2.065  -3.645  1.00  0.00     0.118 C 
BRANCH  23  24
ATOM     24  C   UNL     1      -1.763  -2.788  -3.637  1.00  0.00     0.042 C 
BRANCH  24  25
ATOM     25  C   UNL     1      -1.844  -4.242  -3.185  1.00  0.00     0.118 C 
BRANCH  25  26
ATOM     26  N   UNL     1      -2.667  -5.058  -4.069  1.00  0.00    -0.352 N 
ATOM     27  C   UNL     1      -2.338  -6.137  -4.848  1.00  0.00     0.251 C 
ATOM     28  H   UNL     1      -3.614  -4.790  -4.114  1.00  0.00     0.163 HD
ATOM     29  O   UNL     1      -3.148  -6.554  -5.676  1.00  0.00    -0.269 OA
BRANCH  27  30
ATOM     30  C   UNL     1      -1.022  -6.796  -4.716  1.00  0.00     0.039 A 
ATOM     31  C   UNL     1      -0.363  -7.226  -5.872  1.00  0.00     0.014 A 
ATOM     32  C   UNL     1      -0.451  -7.026  -3.462  1.00  0.00     0.014 A 
ATOM     33  C   UNL     1       0.895  -7.824  -5.773  1.00  0.00     0.010 A 
ATOM     34  C   UNL     1       0.836  -7.546  -3.369  1.00  0.00     0.010 A 
ATOM     35  C   UNL     1       1.520  -7.957  -4.523  1.00  0.00    -0.014 A 
BRANCH  35  36
ATOM     36  C   UNL     1       2.890  -8.514  -4.400  1.00  0.00     0.031 A 
ATOM     37  C   UNL     1       3.128  -9.784  -3.631  1.00  0.00     0.074 A 
ATOM     38  C   UNL     1       3.933  -7.829  -4.905  1.00  0.00     0.049 A 
ATOM     39  N   UNL     1       4.258 -10.378  -3.344  1.00  0.00    -0.248 NA
ATOM     40  C   UNL     1       1.940 -10.456  -3.083  1.00  0.00     0.031 C 
ATOM     41  C   UNL     1       3.841  -6.550  -5.612  1.00  0.00     0.029 A 
ATOM     42  N   UNL     1       5.278  -8.101  -4.882  1.00  0.00    -0.354 N 
ATOM     43  C   UNL     1       3.920 -11.474  -2.561  1.00  0.00     0.074 A 
ATOM     44  C   UNL     1       2.485 -11.436  -2.379  1.00  0.00     0.031 C 
ATOM     45  C   UNL     1       5.075  -6.153  -5.963  1.00  0.00     0.029 A 
ATOM     46  C   UNL     1       6.045  -7.130  -5.478  1.00  0.00     0.049 A 
ATOM     47  H   UNL     1       5.656  -8.914  -4.476  1.00  0.00     0.167 HD
ATOM     48  C   UNL     1       4.729 -12.436  -2.056  1.00  0.00     0.037 A 
ATOM     49  C   UNL     1       7.380  -7.031  -5.611  1.00  0.00     0.037 A 
ATOM     50  C   UNL     1       6.152 -12.488  -2.267  1.00  0.00     0.049 A 
ATOM     51  C   UNL     1       8.257  -8.125  -5.074  1.00  0.00     0.074 A 
ATOM     52  C   UNL     1       7.047 -13.470  -1.880  1.00  0.00     0.029 A 
ATOM     53  N   UNL     1       6.890 -11.510  -2.918  1.00  0.00    -0.354 N 
ATOM     54  N   UNL     1       7.917  -9.206  -4.414  1.00  0.00    -0.248 NA
ATOM     55  C   UNL     1       9.702  -7.993  -5.308  1.00  0.00     0.031 C 
ATOM     56  C   UNL     1       8.332 -13.064  -2.256  1.00  0.00     0.029 A 
ATOM     57  C   UNL     1       8.233 -11.851  -2.919  1.00  0.00     0.049 A 
ATOM     58  H   UNL     1       6.514 -10.694  -3.320  1.00  0.00     0.167 HD
ATOM     59  C   UNL     1       9.099  -9.891  -4.169  1.00  0.00     0.074 A 
ATOM     60  C   UNL     1      10.165  -9.111  -4.765  1.00  0.00     0.031 C 
ATOM     61  C   UNL     1       9.284 -11.061  -3.510  1.00  0.00     0.037 A 
BRANCH  48  62
ATOM     62  C   UNL     1       4.088 -13.506  -1.219  1.00  0.00     0.057 A 
ATOM     63  C   UNL     1       3.233 -14.469  -1.772  1.00  0.00     0.134 A 
ATOM     64  C   UNL     1       4.336 -13.578   0.158  1.00  0.00     0.134 A 
ATOM     65  F   UNL     1       2.945 -14.450  -3.082  1.00  0.00    -0.206 F 
ATOM     66  C   UNL     1       2.618 -15.441  -0.980  1.00  0.00     0.040 A 
ATOM     67  C   UNL     1       3.750 -14.563   0.955  1.00  0.00     0.040 A 
ATOM     68  F   UNL     1       5.150 -12.693   0.752  1.00  0.00    -0.206 F 
ATOM     69  C   UNL     1       2.879 -15.492   0.387  1.00  0.00     0.006 A 
ENDBRANCH  48  62
BRANCH  49  70
ATOM     70  C   UNL     1       7.959  -5.853  -6.303  1.00  0.00     0.057 A 
ATOM     71  C   UNL     1       8.496  -5.964  -7.590  1.00  0.00     0.134 A 
ATOM     72  C   UNL     1       7.954  -4.585  -5.710  1.00  0.00     0.134 A 
ATOM     73  F   UNL     1       8.542  -7.156  -8.202  1.00  0.00    -0.206 F 
ATOM     74  C   UNL     1       9.016  -4.856  -8.261  1.00  0.00     0.040 A 
ATOM     75  C   UNL     1       8.450  -3.465  -6.379  1.00  0.00     0.040 A 
ATOM     76  F   UNL     1       7.443  -4.413  -4.482  1.00  0.00    -0.206 F 
ATOM     77  C   UNL     1       8.986  -3.600  -7.658  1.00  0.00     0.006 A 
ENDBRANCH  49  70
BRANCH  61  78
ATOM     78  C   UNL     1      10.689 -11.578  -3.411  1.00  0.00     0.057 A 
ATOM     79  C   UNL     1      11.635 -10.986  -2.565  1.00  0.00     0.134 A 
ATOM     80  C   UNL     1      11.088 -12.704  -4.141  1.00  0.00     0.134 A 
ATOM     81  F   UNL     1      11.320  -9.896  -1.849  1.00  0.00    -0.206 F 
ATOM     82  C   UNL     1      12.935 -11.485  -2.463  1.00  0.00     0.040 A 
ATOM     83  C   UNL     1      12.377 -13.228  -4.029  1.00  0.00     0.040 A 
ATOM     84  F   UNL     1      10.228 -13.323  -4.964  1.00  0.00    -0.206 F 
ATOM     85  C   UNL     1      13.306 -12.614  -3.191  1.00  0.00     0.006 A 
ENDBRANCH  61  78
ENDBRANCH  35  36
ENDBRANCH  27  30
ENDBRANCH  25  26
ENDBRANCH  24  25
ENDBRANCH  23  24
ENDBRANCH   3  23
TORSDOF 17
