REMARK SMILES CCCCCCNC(=O)Oc1cccc(-c2ccc([C@@H](C)C(=O)NCCCNC(=O)c3ccc(-c4c5nc(c(-c6c(F)cccc6F)c6ccc([nH]6)c(-c6c(F)cccc6F)c6nc(c(-c7c(F)cccc7F)c7ccc4[nH]7)C=C6)C=C5)cc3)cc2N)c1
REMARK SMILES IDX 16 1 17 2 18 3 19 4 85 5 86 6 15 7 11 8 12 9 88 10 13 11
REMARK SMILES IDX 14 12 10 13 8 14 7 15 9 17 6 18 5 19 4 20 3 21 2 22 1 23
REMARK SMILES IDX 87 24 20 27 21 28 22 29 23 30 24 31 25 33 26 34 27 35 28 36
REMARK SMILES IDX 29 37 30 39 31 40 32 41 84 42 33 43 83 44 34 45 35 46 36 47
REMARK SMILES IDX 77 48 37 49 82 50 76 51 78 52 38 53 81 54 75 55 74 56 39 58
REMARK SMILES IDX 65 59 48 60 64 61 49 62 52 63 63 64 79 65 50 66 51 67 62 69
REMARK SMILES IDX 80 70 53 71 40 72 41 73 46 74 42 75 43 76 45 77 47 78 44 79
REMARK SMILES IDX 66 80 67 81 72 82 68 83 69 84 71 85 73 86 70 87 54 88 55 89
REMARK SMILES IDX 60 90 56 91 57 92 59 93 61 94 58 95
REMARK H PARENT 7 16 87 25 87 26 24 32 28 38 78 57 52 68
REMARK Flexibility Score: inf
ROOT
ATOM      1  C   UNL     1      -5.198   1.181  -9.686  1.00  0.00     0.005 A 
ATOM      2  C   UNL     1      -5.576   1.801 -10.893  1.00  0.00     0.011 A 
ATOM      3  C   UNL     1      -5.441   1.160 -12.127  1.00  0.00     0.005 A 
ATOM      4  C   UNL     1      -4.824  -0.085 -12.217  1.00  0.00    -0.034 A 
ATOM      5  C   UNL     1      -4.494  -0.733 -11.015  1.00  0.00     0.030 A 
ATOM      6  C   UNL     1      -4.750  -0.158  -9.757  1.00  0.00     0.040 A 
ENDROOT
BRANCH   1   7
ATOM      7  C   UNL     1      -5.273   1.960  -8.424  1.00  0.00    -0.013 A 
ATOM      8  C   UNL     1      -4.298   2.692  -6.316  1.00  0.00     0.133 A 
ATOM      9  C   UNL     1      -5.412   3.477  -6.036  1.00  0.00     0.047 A 
ATOM     10  C   UNL     1      -4.216   1.950  -7.495  1.00  0.00     0.056 A 
ATOM     11  C   UNL     1      -6.456   3.525  -6.954  1.00  0.00     0.004 A 
ATOM     12  C   UNL     1      -6.391   2.765  -8.127  1.00  0.00     0.009 A 
BRANCH   8  13
ATOM     13  O   UNL     1      -3.341   2.567  -5.295  1.00  0.00    -0.410 OA
BRANCH  13  14
ATOM     14  C   UNL     1      -1.999   2.740  -5.599  1.00  0.00     0.412 C 
ATOM     15  N   UNL     1      -1.175   2.469  -4.540  1.00  0.00    -0.321 N 
ATOM     16  H   UNL     1      -0.209   2.591  -4.690  1.00  0.00     0.167 HD
ATOM     17  O   UNL     1      -1.545   3.105  -6.676  1.00  0.00    -0.224 OA
BRANCH  15  18
ATOM     18  C   UNL     1      -1.574   2.021  -3.221  1.00  0.00     0.119 C 
BRANCH  18  19
ATOM     19  C   UNL     1      -0.973   0.659  -2.869  1.00  0.00     0.021 C 
BRANCH  19  20
ATOM     20  C   UNL     1       0.556   0.638  -2.758  1.00  0.00     0.002 C 
BRANCH  20  21
ATOM     21  C   UNL     1       1.158   1.601  -1.728  1.00  0.00    -0.000 C 
BRANCH  21  22
ATOM     22  C   UNL     1       0.672   1.413  -0.288  1.00  0.00    -0.003 C 
ATOM     23  C   UNL     1       1.035   0.058   0.298  1.00  0.00     0.004 C 
ENDBRANCH  21  22
ENDBRANCH  20  21
ENDBRANCH  19  20
ENDBRANCH  18  19
ENDBRANCH  15  18
ENDBRANCH  13  14
ENDBRANCH   8  13
ENDBRANCH   1   7
BRANCH   6  24
ATOM     24  N   UNL     1      -4.428  -0.903  -8.620  1.00  0.00    -0.398 N 
ATOM     25  H   UNL     1      -4.593  -0.530  -7.724  1.00  0.00     0.156 HD
ATOM     26  H   UNL     1      -4.035  -1.801  -8.715  1.00  0.00     0.156 HD
ENDBRANCH   6  24
BRANCH   4  27
ATOM     27  C   UNL     1      -4.467  -0.738 -13.543  1.00  0.00     0.105 C 
ATOM     28  C   UNL     1      -5.585  -0.777 -14.583  1.00  0.00     0.023 C 
BRANCH  27  29
ATOM     29  C   UNL     1      -3.096  -0.309 -14.092  1.00  0.00     0.227 C 
ATOM     30  O   UNL     1      -2.125  -1.069 -13.986  1.00  0.00    -0.274 OA
ATOM     31  N   UNL     1      -2.860   0.876 -14.719  1.00  0.00    -0.356 N 
ATOM     32  H   UNL     1      -1.944   0.969 -15.067  1.00  0.00     0.163 HD
BRANCH  31  33
ATOM     33  C   UNL     1      -3.706   2.025 -14.970  1.00  0.00     0.117 C 
BRANCH  33  34
ATOM     34  C   UNL     1      -3.504   3.130 -13.937  1.00  0.00     0.042 C 
BRANCH  34  35
ATOM     35  C   UNL     1      -2.309   4.030 -14.213  1.00  0.00     0.118 C 
BRANCH  35  36
ATOM     36  N   UNL     1      -2.513   4.867 -15.385  1.00  0.00    -0.352 N 
ATOM     37  C   UNL     1      -2.535   6.231 -15.526  1.00  0.00     0.251 C 
ATOM     38  H   UNL     1      -2.660   4.369 -16.221  1.00  0.00     0.163 HD
ATOM     39  O   UNL     1      -2.942   6.704 -16.585  1.00  0.00    -0.269 OA
BRANCH  37  40
ATOM     40  C   UNL     1      -2.080   7.143 -14.449  1.00  0.00     0.039 A 
ATOM     41  C   UNL     1      -2.667   8.412 -14.366  1.00  0.00     0.014 A 
ATOM     42  C   UNL     1      -1.027   6.820 -13.589  1.00  0.00     0.014 A 
ATOM     43  C   UNL     1      -2.206   9.342 -13.430  1.00  0.00     0.010 A 
ATOM     44  C   UNL     1      -0.630   7.713 -12.594  1.00  0.00     0.010 A 
ATOM     45  C   UNL     1      -1.185   8.998 -12.532  1.00  0.00    -0.014 A 
BRANCH  45  46
ATOM     46  C   UNL     1      -0.633  10.000 -11.584  1.00  0.00     0.031 A 
ATOM     47  C   UNL     1       0.797  10.456 -11.721  1.00  0.00     0.074 A 
ATOM     48  C   UNL     1      -1.404  10.487 -10.594  1.00  0.00     0.049 A 
ATOM     49  N   UNL     1       1.469  11.311 -10.991  1.00  0.00    -0.248 NA
ATOM     50  C   UNL     1       1.587   9.849 -12.805  1.00  0.00     0.031 C 
ATOM     51  C   UNL     1      -2.787  10.092 -10.325  1.00  0.00     0.029 A 
ATOM     52  N   UNL     1      -1.131  11.423  -9.629  1.00  0.00    -0.354 N 
ATOM     53  C   UNL     1       2.756  11.327 -11.514  1.00  0.00     0.074 A 
ATOM     54  C   UNL     1       2.790  10.356 -12.585  1.00  0.00     0.031 C 
ATOM     55  C   UNL     1      -3.252  10.803  -9.284  1.00  0.00     0.029 A 
ATOM     56  C   UNL     1      -2.194  11.683  -8.798  1.00  0.00     0.049 A 
ATOM     57  H   UNL     1      -0.257  11.867  -9.540  1.00  0.00     0.167 HD
ATOM     58  C   UNL     1       3.810  12.099 -11.156  1.00  0.00     0.037 A 
ATOM     59  C   UNL     1      -2.302  12.541  -7.767  1.00  0.00     0.037 A 
ATOM     60  C   UNL     1       3.766  13.091 -10.115  1.00  0.00     0.049 A 
ATOM     61  C   UNL     1      -1.131  13.414  -7.411  1.00  0.00     0.074 A 
ATOM     62  C   UNL     1       4.763  13.958  -9.703  1.00  0.00     0.029 A 
ATOM     63  N   UNL     1       2.657  13.351  -9.323  1.00  0.00    -0.354 N 
ATOM     64  N   UNL     1       0.062  13.460  -7.953  1.00  0.00    -0.248 NA
ATOM     65  C   UNL     1      -1.328  14.367  -6.311  1.00  0.00     0.031 C 
ATOM     66  C   UNL     1       4.266  14.723  -8.643  1.00  0.00     0.029 A 
ATOM     67  C   UNL     1       2.946  14.363  -8.424  1.00  0.00     0.049 A 
ATOM     68  H   UNL     1       1.793  12.885  -9.392  1.00  0.00     0.167 HD
ATOM     69  C   UNL     1       0.744  14.469  -7.287  1.00  0.00     0.074 A 
ATOM     70  C   UNL     1      -0.172  15.016  -6.308  1.00  0.00     0.031 C 
ATOM     71  C   UNL     1       2.015  14.906  -7.469  1.00  0.00     0.037 A 
BRANCH  58  72
ATOM     72  C   UNL     1       5.096  11.904 -11.908  1.00  0.00     0.057 A 
ATOM     73  C   UNL     1       5.235  12.295 -13.247  1.00  0.00     0.134 A 
ATOM     74  C   UNL     1       6.213  11.335 -11.284  1.00  0.00     0.134 A 
ATOM     75  F   UNL     1       4.200  12.834 -13.909  1.00  0.00    -0.206 F 
ATOM     76  C   UNL     1       6.428  12.098 -13.946  1.00  0.00     0.040 A 
ATOM     77  C   UNL     1       7.419  11.159 -11.964  1.00  0.00     0.040 A 
ATOM     78  F   UNL     1       6.152  10.944 -10.002  1.00  0.00    -0.206 F 
ATOM     79  C   UNL     1       7.526  11.533 -13.302  1.00  0.00     0.006 A 
ENDBRANCH  58  72
BRANCH  59  80
ATOM     80  C   UNL     1      -3.585  12.656  -7.029  1.00  0.00     0.057 A 
ATOM     81  C   UNL     1      -4.392  13.793  -7.159  1.00  0.00     0.134 A 
ATOM     82  C   UNL     1      -4.032  11.642  -6.175  1.00  0.00     0.134 A 
ATOM     83  F   UNL     1      -4.008  14.806  -7.950  1.00  0.00    -0.206 F 
ATOM     84  C   UNL     1      -5.586  13.927  -6.450  1.00  0.00     0.040 A 
ATOM     85  C   UNL     1      -5.237  11.752  -5.478  1.00  0.00     0.040 A 
ATOM     86  F   UNL     1      -3.309  10.524  -6.013  1.00  0.00    -0.206 F 
ATOM     87  C   UNL     1      -6.014  12.902  -5.609  1.00  0.00     0.006 A 
ENDBRANCH  59  80
BRANCH  71  88
ATOM     88  C   UNL     1       2.466  16.065  -6.630  1.00  0.00     0.057 A 
ATOM     89  C   UNL     1       2.728  15.933  -5.261  1.00  0.00     0.134 A 
ATOM     90  C   UNL     1       2.660  17.325  -7.209  1.00  0.00     0.134 A 
ATOM     91  F   UNL     1       2.551  14.755  -4.644  1.00  0.00    -0.206 F 
ATOM     92  C   UNL     1       3.138  17.023  -4.490  1.00  0.00     0.040 A 
ATOM     93  C   UNL     1       3.095  18.415  -6.455  1.00  0.00     0.040 A 
ATOM     94  F   UNL     1       2.435  17.516  -8.518  1.00  0.00    -0.206 F 
ATOM     95  C   UNL     1       3.327  18.267  -5.089  1.00  0.00     0.006 A 
ENDBRANCH  71  88
ENDBRANCH  45  46
ENDBRANCH  37  40
ENDBRANCH  35  36
ENDBRANCH  34  35
ENDBRANCH  33  34
ENDBRANCH  31  33
ENDBRANCH  27  29
ENDBRANCH   4  27
TORSDOF 20
