REMARK SMILES Nc1ncccc1C[N@@H+]1CC2(CC[NH2+]CC2)C[C@H]1C(=O)NCCCNC(=O)c1ccc(-c2c3nc(c(-c4c(F)cccc4F)c4ccc([nH]4)c(-c4c(F)cccc4F)c4nc(c(-c5c(F)cccc5F)c5ccc2[nH]5)C=C4)C=C3)cc1
REMARK SMILES IDX 22 1 21 2 19 3 20 4 18 6 9 7 10 8 11 10 17 11 12 12 16 13
REMARK SMILES IDX 13 14 15 15 14 16 8 19 7 20 2 21 3 22 4 23 6 24 5 25 1 26
REMARK SMILES IDX 23 29 24 30 25 31 26 32 27 34 28 35 29 36 81 37 30 38 80 39
REMARK SMILES IDX 31 40 32 41 33 42 74 43 34 44 79 45 73 46 75 47 35 48 78 49
REMARK SMILES IDX 72 50 71 51 36 53 62 54 45 55 61 56 46 57 49 58 60 59 76 60
REMARK SMILES IDX 47 61 48 62 59 64 77 65 50 66 37 67 38 68 43 69 39 70 40 71
REMARK SMILES IDX 42 72 44 73 41 74 63 75 64 76 69 77 65 78 66 79 68 80 70 81
REMARK SMILES IDX 67 82 51 83 52 84 57 85 53 86 54 87 56 88 58 89 55 90
REMARK H PARENT 21 5 9 9 14 17 14 18 1 27 1 28 25 33 75 52 49 63
REMARK Flexibility Score: inf
ROOT
ATOM      1  C   UNL     1      -1.221  -4.244   4.111  1.00  0.00     0.118 C 
ENDROOT
BRANCH   1   2
ATOM      2  N   UNL     1       0.124  -3.793   4.257  1.00  0.00    -0.351 N 
ATOM      3  C   UNL     1       0.724  -2.734   3.639  1.00  0.00     0.278 C 
ATOM      4  O   UNL     1       1.840  -2.431   4.086  1.00  0.00    -0.268 OA
ATOM      5  H   UNL     1       0.689  -4.308   4.879  1.00  0.00     0.163 HD
BRANCH   3   6
ATOM      6  C   UNL     1       0.131  -1.949   2.413  1.00  0.00     0.275 C 
ATOM      7  N   UNL     1       0.018  -2.831   1.238  1.00  0.00    -0.320 N 
ATOM      8  C   UNL     1      -1.412  -3.031   0.945  1.00  0.00     0.270 C 
ATOM      9  H   UNL     1       0.393  -3.759   1.433  1.00  0.00     0.349 HD
ATOM     10  C   UNL     1      -2.259  -1.928   1.659  1.00  0.00     0.036 C 
ATOM     11  C   UNL     1      -1.188  -1.157   2.472  1.00  0.00     0.089 C 
ATOM     12  C   UNL     1      -3.426  -2.293   2.634  1.00  0.00     0.074 C 
ATOM     13  C   UNL     1      -3.040  -1.151   0.567  1.00  0.00     0.074 C 
ATOM     14  C   UNL     1      -4.472  -3.202   2.007  1.00  0.00     0.261 C 
ATOM     15  C   UNL     1      -4.122  -2.042  -0.086  1.00  0.00     0.261 C 
ATOM     16  N   UNL     1      -5.108  -2.537   0.873  1.00  0.00    -0.346 N 
ATOM     17  H   UNL     1      -5.659  -1.751   1.217  1.00  0.00     0.346 HD
ATOM     18  H   UNL     1      -5.700  -3.218   0.398  1.00  0.00     0.346 HD
BRANCH   7  19
ATOM     19  C   UNL     1       0.902  -2.415   0.113  1.00  0.00     0.303 C 
BRANCH  19  20
ATOM     20  C   UNL     1       0.779  -0.982  -0.380  1.00  0.00     0.048 A 
ATOM     21  C   UNL     1       1.582   0.064   0.085  1.00  0.00     0.132 A 
ATOM     22  N   UNL     1       1.254   1.363  -0.070  1.00  0.00    -0.239 NA
ATOM     23  C   UNL     1       0.153   1.652  -0.788  1.00  0.00     0.113 A 
ATOM     24  C   UNL     1      -0.246  -0.637  -1.265  1.00  0.00     0.015 A 
ATOM     25  C   UNL     1      -0.588   0.699  -1.451  1.00  0.00     0.021 A 
BRANCH  21  26
ATOM     26  N   UNL     1       2.759  -0.142   0.774  1.00  0.00    -0.383 N 
ATOM     27  H   UNL     1       3.291   0.628   1.081  1.00  0.00     0.158 HD
ATOM     28  H   UNL     1       3.067  -1.058   0.959  1.00  0.00     0.158 HD
ENDBRANCH  21  26
ENDBRANCH  19  20
ENDBRANCH   7  19
ENDBRANCH   3   6
ENDBRANCH   1   2
BRANCH   1  29
ATOM     29  C   UNL     1      -1.422  -5.678   3.671  1.00  0.00     0.042 C 
BRANCH  29  30
ATOM     30  C   UNL     1      -1.798  -6.602   4.813  1.00  0.00     0.118 C 
BRANCH  30  31
ATOM     31  N   UNL     1      -3.076  -6.254   5.437  1.00  0.00    -0.352 N 
ATOM     32  C   UNL     1      -4.234  -6.981   5.598  1.00  0.00     0.251 C 
ATOM     33  H   UNL     1      -3.114  -5.341   5.805  1.00  0.00     0.163 HD
ATOM     34  O   UNL     1      -5.238  -6.434   6.028  1.00  0.00    -0.269 OA
BRANCH  32  35
ATOM     35  C   UNL     1      -4.273  -8.413   5.226  1.00  0.00     0.039 A 
ATOM     36  C   UNL     1      -5.426  -8.931   4.628  1.00  0.00     0.014 A 
ATOM     37  C   UNL     1      -3.176  -9.241   5.457  1.00  0.00     0.014 A 
ATOM     38  C   UNL     1      -5.437 -10.254   4.180  1.00  0.00     0.010 A 
ATOM     39  C   UNL     1      -3.142 -10.511   4.902  1.00  0.00     0.010 A 
ATOM     40  C   UNL     1      -4.275 -11.037   4.267  1.00  0.00    -0.014 A 
BRANCH  40  41
ATOM     41  C   UNL     1      -4.210 -12.411   3.714  1.00  0.00     0.031 A 
ATOM     42  C   UNL     1      -3.901 -13.569   4.622  1.00  0.00     0.074 A 
ATOM     43  C   UNL     1      -4.331 -12.601   2.387  1.00  0.00     0.049 A 
ATOM     44  N   UNL     1      -3.693 -14.825   4.322  1.00  0.00    -0.248 NA
ATOM     45  C   UNL     1      -3.766 -13.265   6.057  1.00  0.00     0.031 C 
ATOM     46  C   UNL     1      -4.575 -11.550   1.397  1.00  0.00     0.029 A 
ATOM     47  N   UNL     1      -4.252 -13.748   1.639  1.00  0.00    -0.354 N 
ATOM     48  C   UNL     1      -3.378 -15.451   5.522  1.00  0.00     0.074 A 
ATOM     49  C   UNL     1      -3.356 -14.427   6.542  1.00  0.00     0.031 C 
ATOM     50  C   UNL     1      -4.662 -12.104   0.178  1.00  0.00     0.029 A 
ATOM     51  C   UNL     1      -4.433 -13.540   0.293  1.00  0.00     0.049 A 
ATOM     52  H   UNL     1      -4.082 -14.636   2.029  1.00  0.00     0.167 HD
ATOM     53  C   UNL     1      -3.155 -16.765   5.758  1.00  0.00     0.037 A 
ATOM     54  C   UNL     1      -4.410 -14.411  -0.733  1.00  0.00     0.037 A 
ATOM     55  C   UNL     1      -3.207 -17.781   4.740  1.00  0.00     0.049 A 
ATOM     56  C   UNL     1      -4.150 -15.864  -0.451  1.00  0.00     0.074 A 
ATOM     57  C   UNL     1      -3.075 -19.151   4.880  1.00  0.00     0.029 A 
ATOM     58  N   UNL     1      -3.400 -17.533   3.388  1.00  0.00    -0.354 N 
ATOM     59  N   UNL     1      -3.933 -16.457   0.699  1.00  0.00    -0.248 NA
ATOM     60  C   UNL     1      -4.132 -16.768  -1.608  1.00  0.00     0.031 C 
ATOM     61  C   UNL     1      -3.134 -19.726   3.607  1.00  0.00     0.029 A 
ATOM     62  C   UNL     1      -3.357 -18.721   2.678  1.00  0.00     0.049 A 
ATOM     63  H   UNL     1      -3.546 -16.643   2.993  1.00  0.00     0.167 HD
ATOM     64  C   UNL     1      -3.773 -17.805   0.408  1.00  0.00     0.074 A 
ATOM     65  C   UNL     1      -3.937 -17.943  -1.026  1.00  0.00     0.031 C 
ATOM     66  C   UNL     1      -3.514 -18.836   1.250  1.00  0.00     0.037 A 
BRANCH  53  67
ATOM     67  C   UNL     1      -2.830 -17.166   7.169  1.00  0.00     0.057 A 
ATOM     68  C   UNL     1      -3.771 -17.073   8.204  1.00  0.00     0.134 A 
ATOM     69  C   UNL     1      -1.557 -17.646   7.500  1.00  0.00     0.134 A 
ATOM     70  F   UNL     1      -5.006 -16.607   7.961  1.00  0.00    -0.206 F 
ATOM     71  C   UNL     1      -3.446 -17.401   9.522  1.00  0.00     0.040 A 
ATOM     72  C   UNL     1      -1.229 -18.009   8.808  1.00  0.00     0.040 A 
ATOM     73  F   UNL     1      -0.608 -17.768   6.560  1.00  0.00    -0.206 F 
ATOM     74  C   UNL     1      -2.172 -17.875   9.825  1.00  0.00     0.006 A 
ENDBRANCH  53  67
BRANCH  54  75
ATOM     75  C   UNL     1      -4.676 -13.934  -2.113  1.00  0.00     0.057 A 
ATOM     76  C   UNL     1      -5.869 -14.263  -2.767  1.00  0.00     0.134 A 
ATOM     77  C   UNL     1      -3.764 -13.127  -2.803  1.00  0.00     0.134 A 
ATOM     78  F   UNL     1      -6.774 -15.047  -2.164  1.00  0.00    -0.206 F 
ATOM     79  C   UNL     1      -6.142 -13.816  -4.061  1.00  0.00     0.040 A 
ATOM     80  C   UNL     1      -4.034 -12.652  -4.088  1.00  0.00     0.040 A 
ATOM     81  F   UNL     1      -2.606 -12.768  -2.228  1.00  0.00    -0.206 F 
ATOM     82  C   UNL     1      -5.225 -13.001  -4.722  1.00  0.00     0.006 A 
ENDBRANCH  54  75
BRANCH  66  83
ATOM     83  C   UNL     1      -3.410 -20.205   0.642  1.00  0.00     0.057 A 
ATOM     84  C   UNL     1      -2.314 -20.581  -0.145  1.00  0.00     0.134 A 
ATOM     85  C   UNL     1      -4.397 -21.169   0.880  1.00  0.00     0.134 A 
ATOM     86  F   UNL     1      -1.341 -19.700  -0.423  1.00  0.00    -0.206 F 
ATOM     87  C   UNL     1      -2.216 -21.861  -0.694  1.00  0.00     0.040 A 
ATOM     88  C   UNL     1      -4.296 -22.460   0.362  1.00  0.00     0.040 A 
ATOM     89  F   UNL     1      -5.468 -20.876   1.634  1.00  0.00    -0.206 F 
ATOM     90  C   UNL     1      -3.206 -22.807  -0.433  1.00  0.00     0.006 A 
ENDBRANCH  66  83
ENDBRANCH  40  41
ENDBRANCH  32  35
ENDBRANCH  30  31
ENDBRANCH  29  30
ENDBRANCH   1  29
TORSDOF 13
