REMARK SMILES [NH3+][C@H](CC(=O)NCCCNC(=O)c1ccc(-c2c3nc(c(-c4c(F)cccc4F)c4ccc([nH]4)c(-c4c(F)cccc4F)c4nc(c(-c5c(F)cccc5F)c5ccc2[nH]5)C=C4)C=C3)cc1)c1ccccc1Br
REMARK SMILES IDX 8 1 7 2 6 3 4 4 5 5 3 7 2 8 1 9 67 13 68 14 72 15 69 16
REMARK SMILES IDX 71 17 73 18 70 19 9 20 10 21 11 22 12 24 13 25 14 26 66 27
REMARK SMILES IDX 15 28 65 29 16 30 17 31 18 32 59 33 19 34 64 35 58 36 60 37
REMARK SMILES IDX 20 38 63 39 57 40 56 41 21 43 47 44 30 45 46 46 31 47 34 48
REMARK SMILES IDX 45 49 61 50 32 51 33 52 44 54 62 55 35 56 22 57 23 58 28 59
REMARK SMILES IDX 24 60 25 61 27 62 29 63 26 64 48 65 49 66 54 67 50 68 51 69
REMARK SMILES IDX 53 70 55 71 52 72 36 73 37 74 42 75 38 76 39 77 41 78 43 79
REMARK SMILES IDX 40 80
REMARK H PARENT 6 6 1 10 1 11 1 12 10 23 60 42 34 53
REMARK Flexibility Score: inf
ROOT
ATOM      1  C   UNL     1       0.832  -2.230   3.408  1.00  0.00     0.042 C 
ENDROOT
BRANCH   1   2
ATOM      2  C   UNL     1       1.622  -0.940   3.195  1.00  0.00     0.117 C 
BRANCH   2   3
ATOM      3  N   UNL     1       2.597  -1.022   2.118  1.00  0.00    -0.356 N 
ATOM      4  C   UNL     1       2.456  -0.803   0.778  1.00  0.00     0.226 C 
ATOM      5  O   UNL     1       3.441  -0.932   0.051  1.00  0.00    -0.275 OA
ATOM      6  H   UNL     1       3.506  -1.275   2.401  1.00  0.00     0.163 HD
BRANCH   4   7
ATOM      7  C   UNL     1       1.096  -0.462   0.211  1.00  0.00     0.170 C 
BRANCH   7   8
ATOM      8  C   UNL     1       0.372  -1.613  -0.550  1.00  0.00     0.222 C 
BRANCH   8   9
ATOM      9  N   UNL     1       1.018  -2.902  -0.318  1.00  0.00    -0.351 N 
ATOM     10  H   UNL     1       0.519  -3.630  -0.830  1.00  0.00     0.345 HD
ATOM     11  H   UNL     1       1.003  -3.116   0.679  1.00  0.00     0.345 HD
ATOM     12  H   UNL     1       1.985  -2.861  -0.642  1.00  0.00     0.345 HD
ENDBRANCH   8   9
BRANCH   8  13
ATOM     13  C   UNL     1      -1.153  -1.615  -0.300  1.00  0.00     0.024 A 
ATOM     14  C   UNL     1      -1.789  -0.361  -0.102  1.00  0.00     0.011 A 
ATOM     15  C   UNL     1      -2.007  -2.741  -0.318  1.00  0.00     0.027 A 
ATOM     16  C   UNL     1      -3.152  -0.240   0.186  1.00  0.00     0.001 A 
ATOM     17  C   UNL     1      -3.379  -2.612  -0.026  1.00  0.00     0.016 A 
ATOM     18  Br  UNL     1      -1.491  -4.514  -0.790  1.00  0.00    -0.050 Br
ATOM     19  C   UNL     1      -3.946  -1.372   0.244  1.00  0.00     0.001 A 
ENDBRANCH   8  13
ENDBRANCH   7   8
ENDBRANCH   4   7
ENDBRANCH   2   3
ENDBRANCH   1   2
BRANCH   1  20
ATOM     20  C   UNL     1       1.694  -3.469   3.649  1.00  0.00     0.118 C 
BRANCH  20  21
ATOM     21  N   UNL     1       2.454  -3.385   4.886  1.00  0.00    -0.352 N 
ATOM     22  C   UNL     1       2.409  -4.167   6.014  1.00  0.00     0.251 C 
ATOM     23  H   UNL     1       3.107  -2.649   4.921  1.00  0.00     0.163 HD
ATOM     24  O   UNL     1       3.005  -3.802   7.024  1.00  0.00    -0.269 OA
BRANCH  22  25
ATOM     25  C   UNL     1       1.641  -5.431   6.039  1.00  0.00     0.039 A 
ATOM     26  C   UNL     1       0.864  -5.718   7.166  1.00  0.00     0.014 A 
ATOM     27  C   UNL     1       1.723  -6.358   4.996  1.00  0.00     0.014 A 
ATOM     28  C   UNL     1       0.121  -6.900   7.221  1.00  0.00     0.010 A 
ATOM     29  C   UNL     1       0.943  -7.516   5.029  1.00  0.00     0.010 A 
ATOM     30  C   UNL     1       0.131  -7.794   6.139  1.00  0.00    -0.014 A 
BRANCH  30  31
ATOM     31  C   UNL     1      -0.728  -9.006   6.141  1.00  0.00     0.031 A 
ATOM     32  C   UNL     1      -0.122 -10.378   6.211  1.00  0.00     0.074 A 
ATOM     33  C   UNL     1      -2.062  -8.870   6.022  1.00  0.00     0.049 A 
ATOM     34  N   UNL     1      -0.714 -11.546   6.164  1.00  0.00    -0.248 NA
ATOM     35  C   UNL     1       1.341 -10.449   6.334  1.00  0.00     0.031 C 
ATOM     36  C   UNL     1      -2.775  -7.595   5.919  1.00  0.00     0.029 A 
ATOM     37  N   UNL     1      -3.055  -9.814   5.955  1.00  0.00    -0.354 N 
ATOM     38  C   UNL     1       0.302 -12.489   6.241  1.00  0.00     0.074 A 
ATOM     39  C   UNL     1       1.551 -11.758   6.301  1.00  0.00     0.031 C 
ATOM     40  C   UNL     1      -4.091  -7.837   5.820  1.00  0.00     0.029 A 
ATOM     41  C   UNL     1      -4.312  -9.280   5.814  1.00  0.00     0.049 A 
ATOM     42  H   UNL     1      -2.883 -10.782   6.004  1.00  0.00     0.167 HD
ATOM     43  C   UNL     1       0.203 -13.840   6.275  1.00  0.00     0.037 A 
ATOM     44  C   UNL     1      -5.508  -9.883   5.683  1.00  0.00     0.037 A 
ATOM     45  C   UNL     1      -1.038 -14.569   6.231  1.00  0.00     0.049 A 
ATOM     46  C   UNL     1      -5.588 -11.382   5.677  1.00  0.00     0.074 A 
ATOM     47  C   UNL     1      -1.241 -15.935   6.338  1.00  0.00     0.029 A 
ATOM     48  N   UNL     1      -2.287 -13.993   6.056  1.00  0.00    -0.354 N 
ATOM     49  N   UNL     1      -4.626 -12.260   5.814  1.00  0.00    -0.248 NA
ATOM     50  C   UNL     1      -6.921 -11.973   5.491  1.00  0.00     0.031 C 
ATOM     51  C   UNL     1      -2.608 -16.189   6.183  1.00  0.00     0.029 A 
ATOM     52  C   UNL     1      -3.261 -14.978   6.017  1.00  0.00     0.049 A 
ATOM     53  H   UNL     1      -2.456 -13.027   5.971  1.00  0.00     0.167 HD
ATOM     54  C   UNL     1      -5.235 -13.505   5.745  1.00  0.00     0.074 A 
ATOM     55  C   UNL     1      -6.653 -13.270   5.567  1.00  0.00     0.031 C 
ATOM     56  C   UNL     1      -4.668 -14.734   5.824  1.00  0.00     0.037 A 
BRANCH  43  57
ATOM     57  C   UNL     1       1.482 -14.620   6.359  1.00  0.00     0.057 A 
ATOM     58  C   UNL     1       2.241 -14.665   7.536  1.00  0.00     0.134 A 
ATOM     59  C   UNL     1       1.946 -15.353   5.261  1.00  0.00     0.134 A 
ATOM     60  F   UNL     1       1.855 -13.977   8.621  1.00  0.00    -0.206 F 
ATOM     61  C   UNL     1       3.433 -15.389   7.607  1.00  0.00     0.040 A 
ATOM     62  C   UNL     1       3.124 -16.099   5.327  1.00  0.00     0.040 A 
ATOM     63  F   UNL     1       1.262 -15.358   4.106  1.00  0.00    -0.206 F 
ATOM     64  C   UNL     1       3.874 -16.112   6.501  1.00  0.00     0.006 A 
ENDBRANCH  43  57
BRANCH  44  65
ATOM     65  C   UNL     1      -6.734  -9.059   5.559  1.00  0.00     0.057 A 
ATOM     66  C   UNL     1      -7.634  -8.950   6.625  1.00  0.00     0.134 A 
ATOM     67  C   UNL     1      -7.025  -8.349   4.389  1.00  0.00     0.134 A 
ATOM     68  F   UNL     1      -7.415  -9.624   7.763  1.00  0.00    -0.206 F 
ATOM     69  C   UNL     1      -8.784  -8.166   6.531  1.00  0.00     0.040 A 
ATOM     70  C   UNL     1      -8.162  -7.547   4.287  1.00  0.00     0.040 A 
ATOM     71  F   UNL     1      -6.198  -8.412   3.335  1.00  0.00    -0.206 F 
ATOM     72  C   UNL     1      -9.047  -7.456   5.360  1.00  0.00     0.006 A 
ENDBRANCH  44  65
BRANCH  56  73
ATOM     73  C   UNL     1      -5.583 -15.916   5.725  1.00  0.00     0.057 A 
ATOM     74  C   UNL     1      -6.131 -16.318   4.500  1.00  0.00     0.134 A 
ATOM     75  C   UNL     1      -5.897 -16.679   6.856  1.00  0.00     0.134 A 
ATOM     76  F   UNL     1      -5.882 -15.619   3.382  1.00  0.00    -0.206 F 
ATOM     77  C   UNL     1      -6.970 -17.430   4.407  1.00  0.00     0.040 A 
ATOM     78  C   UNL     1      -6.718 -17.804   6.772  1.00  0.00     0.040 A 
ATOM     79  F   UNL     1      -5.402 -16.349   8.059  1.00  0.00    -0.206 F 
ATOM     80  C   UNL     1      -7.260 -18.180   5.545  1.00  0.00     0.006 A 
ENDBRANCH  56  73
ENDBRANCH  30  31
ENDBRANCH  22  25
ENDBRANCH  20  21
ENDBRANCH   1  20
TORSDOF 13
