REMARK SMILES C[C@@H](Sc1nc2ccccc2c(=O)n1N)C(=O)NCCCNC(=O)c1ccc(-c2c3nc(c(-c4c(F)cccc4F)c4ccc([nH]4)c(-c4c(F)cccc4F)c4nc(c(-c5c(F)cccc5F)c5ccc2[nH]5)C=C4)C=C3)cc1
REMARK SMILES IDX 19 1 18 2 16 3 17 4 2 6 1 7 3 8 4 9 5 10 14 11 6 12 12 13
REMARK SMILES IDX 7 14 11 15 13 16 8 17 10 18 9 19 15 20 20 23 21 24 22 25
REMARK SMILES IDX 23 26 24 28 25 29 26 30 78 31 27 32 77 33 28 34 29 35 30 36
REMARK SMILES IDX 71 37 31 38 76 39 70 40 72 41 32 42 75 43 69 44 68 45 33 47
REMARK SMILES IDX 59 48 42 49 58 50 43 51 46 52 57 53 73 54 44 55 45 56 56 58
REMARK SMILES IDX 74 59 47 60 34 61 35 62 40 63 36 64 37 65 39 66 41 67 38 68
REMARK SMILES IDX 60 69 61 70 66 71 62 72 63 73 65 74 67 75 64 76 48 77 49 78
REMARK SMILES IDX 54 79 50 80 51 81 53 82 55 83 52 84
REMARK H PARENT 18 5 15 21 15 22 22 27 72 46 46 57
REMARK Flexibility Score: inf
ROOT
ATOM      1  C   UNL     1      -1.043  -0.612   2.244  1.00  0.00     0.117 C 
ENDROOT
BRANCH   1   2
ATOM      2  N   UNL     1      -1.540  -1.062   0.954  1.00  0.00    -0.355 N 
ATOM      3  C   UNL     1      -0.873  -1.497  -0.153  1.00  0.00     0.233 C 
ATOM      4  O   UNL     1      -1.556  -1.830  -1.126  1.00  0.00    -0.274 OA
ATOM      5  H   UNL     1      -2.520  -1.051   0.865  1.00  0.00     0.163 HD
BRANCH   3   6
ATOM      6  C   UNL     1       0.655  -1.569  -0.208  1.00  0.00     0.141 C 
ATOM      7  C   UNL     1       1.297  -0.188  -0.122  1.00  0.00     0.030 C 
BRANCH   6   8
ATOM      8  S   UNL     1       1.213  -2.816   1.009  1.00  0.00    -0.073 SA
BRANCH   8   9
ATOM      9  C   UNL     1       2.942  -2.600   0.974  1.00  0.00     0.191 A 
ATOM     10  N   UNL     1       3.493  -2.072   2.020  1.00  0.00    -0.222 NA
ATOM     11  N   UNL     1       3.648  -3.076  -0.124  1.00  0.00    -0.202 N 
ATOM     12  C   UNL     1       4.893  -2.006   2.062  1.00  0.00     0.079 A 
ATOM     13  C   UNL     1       5.042  -3.065  -0.153  1.00  0.00     0.280 A 
ATOM     14  C   UNL     1       5.506  -1.478   3.202  1.00  0.00     0.029 A 
ATOM     15  C   UNL     1       5.702  -2.490   1.033  1.00  0.00     0.068 A 
ATOM     16  O   UNL     1       5.704  -3.525  -1.082  1.00  0.00    -0.267 OA
ATOM     17  C   UNL     1       6.900  -1.444   3.310  1.00  0.00     0.002 A 
ATOM     18  C   UNL     1       7.098  -2.459   1.130  1.00  0.00     0.016 A 
ATOM     19  C   UNL     1       7.695  -1.936   2.275  1.00  0.00     0.001 A 
BRANCH  11  20
ATOM     20  N   UNL     1       2.982  -3.619  -1.271  1.00  0.00    -0.334 N 
ATOM     21  H   UNL     1       1.998  -3.649  -1.300  1.00  0.00     0.178 HD
ATOM     22  H   UNL     1       3.508  -3.961  -2.029  1.00  0.00     0.178 HD
ENDBRANCH  11  20
ENDBRANCH   8   9
ENDBRANCH   6   8
ENDBRANCH   3   6
ENDBRANCH   1   2
BRANCH   1  23
ATOM     23  C   UNL     1      -1.360   0.857   2.483  1.00  0.00     0.042 C 
BRANCH  23  24
ATOM     24  C   UNL     1      -2.849   1.139   2.628  1.00  0.00     0.118 C 
BRANCH  24  25
ATOM     25  N   UNL     1      -3.426   0.509   3.809  1.00  0.00    -0.352 N 
ATOM     26  C   UNL     1      -4.046   1.074   4.894  1.00  0.00     0.251 C 
ATOM     27  H   UNL     1      -3.360  -0.473   3.831  1.00  0.00     0.163 HD
ATOM     28  O   UNL     1      -4.293   0.388   5.885  1.00  0.00    -0.269 OA
BRANCH  26  29
ATOM     29  C   UNL     1      -4.399   2.508   4.886  1.00  0.00     0.039 A 
ATOM     30  C   UNL     1      -4.172   3.267   6.036  1.00  0.00     0.014 A 
ATOM     31  C   UNL     1      -4.956   3.103   3.751  1.00  0.00     0.014 A 
ATOM     32  C   UNL     1      -4.437   4.638   6.023  1.00  0.00     0.010 A 
ATOM     33  C   UNL     1      -5.134   4.481   3.710  1.00  0.00     0.010 A 
ATOM     34  C   UNL     1      -4.880   5.263   4.846  1.00  0.00    -0.014 A 
BRANCH  34  35
ATOM     35  C   UNL     1      -5.080   6.732   4.779  1.00  0.00     0.031 A 
ATOM     36  C   UNL     1      -6.444   7.298   4.498  1.00  0.00     0.074 A 
ATOM     37  C   UNL     1      -4.019   7.554   4.899  1.00  0.00     0.049 A 
ATOM     38  N   UNL     1      -6.803   8.545   4.323  1.00  0.00    -0.248 NA
ATOM     39  C   UNL     1      -7.548   6.333   4.368  1.00  0.00     0.031 C 
ATOM     40  C   UNL     1      -2.636   7.125   5.124  1.00  0.00     0.029 A 
ATOM     41  N   UNL     1      -3.935   8.922   4.837  1.00  0.00    -0.354 N 
ATOM     42  C   UNL     1      -8.164   8.511   4.047  1.00  0.00     0.074 A 
ATOM     43  C   UNL     1      -8.556   7.120   4.023  1.00  0.00     0.031 C 
ATOM     44  C   UNL     1      -1.848   8.208   5.205  1.00  0.00     0.029 A 
ATOM     45  C   UNL     1      -2.658   9.404   4.995  1.00  0.00     0.049 A 
ATOM     46  H   UNL     1      -4.716   9.504   4.692  1.00  0.00     0.167 HD
ATOM     47  C   UNL     1      -9.014   9.548   3.856  1.00  0.00     0.037 A 
ATOM     48  C   UNL     1      -2.191  10.666   4.964  1.00  0.00     0.037 A 
ATOM     49  C   UNL     1      -8.623  10.932   3.904  1.00  0.00     0.049 A 
ATOM     50  C   UNL     1      -3.154  11.799   4.740  1.00  0.00     0.074 A 
ATOM     51  C   UNL     1      -9.419  12.057   3.781  1.00  0.00     0.029 A 
ATOM     52  N   UNL     1      -7.323  11.380   4.086  1.00  0.00    -0.354 N 
ATOM     53  N   UNL     1      -4.450  11.756   4.549  1.00  0.00    -0.248 NA
ATOM     54  C   UNL     1      -2.590  13.156   4.734  1.00  0.00     0.031 C 
ATOM     55  C   UNL     1      -8.594  13.185   3.839  1.00  0.00     0.029 A 
ATOM     56  C   UNL     1      -7.292  12.764   4.056  1.00  0.00     0.049 A 
ATOM     57  H   UNL     1      -6.538  10.800   4.217  1.00  0.00     0.167 HD
ATOM     58  C   UNL     1      -4.861  13.078   4.433  1.00  0.00     0.074 A 
ATOM     59  C   UNL     1      -3.678  13.898   4.587  1.00  0.00     0.031 C 
ATOM     60  C   UNL     1      -6.107  13.568   4.221  1.00  0.00     0.037 A 
BRANCH  47  61
ATOM     61  C   UNL     1     -10.454   9.222   3.580  1.00  0.00     0.057 A 
ATOM     62  C   UNL     1     -11.291   8.679   4.564  1.00  0.00     0.134 A 
ATOM     63  C   UNL     1     -11.020   9.487   2.327  1.00  0.00     0.134 A 
ATOM     64  F   UNL     1     -10.810   8.390   5.783  1.00  0.00    -0.206 F 
ATOM     65  C   UNL     1     -12.631   8.385   4.303  1.00  0.00     0.040 A 
ATOM     66  C   UNL     1     -12.366   9.226   2.063  1.00  0.00     0.040 A 
ATOM     67  F   UNL     1     -10.278  10.013   1.341  1.00  0.00    -0.206 F 
ATOM     68  C   UNL     1     -13.174   8.666   3.051  1.00  0.00     0.006 A 
ENDBRANCH  47  61
BRANCH  48  69
ATOM     69  C   UNL     1      -0.744  10.929   5.172  1.00  0.00     0.057 A 
ATOM     70  C   UNL     1      -0.285  11.562   6.333  1.00  0.00     0.134 A 
ATOM     71  C   UNL     1       0.212  10.564   4.217  1.00  0.00     0.134 A 
ATOM     72  F   UNL     1      -1.154  11.952   7.277  1.00  0.00    -0.206 F 
ATOM     73  C   UNL     1       1.068  11.842   6.528  1.00  0.00     0.040 A 
ATOM     74  C   UNL     1       1.572  10.813   4.411  1.00  0.00     0.040 A 
ATOM     75  F   UNL     1      -0.161   9.945   3.087  1.00  0.00    -0.206 F 
ATOM     76  C   UNL     1       2.002  11.462   5.566  1.00  0.00     0.006 A 
ENDBRANCH  48  69
BRANCH  60  77
ATOM     77  C   UNL     1      -6.264  15.060   4.188  1.00  0.00     0.057 A 
ATOM     78  C   UNL     1      -5.797  15.833   3.118  1.00  0.00     0.134 A 
ATOM     79  C   UNL     1      -6.931  15.726   5.225  1.00  0.00     0.134 A 
ATOM     80  F   UNL     1      -5.138  15.258   2.100  1.00  0.00    -0.206 F 
ATOM     81  C   UNL     1      -5.968  17.218   3.091  1.00  0.00     0.040 A 
ATOM     82  C   UNL     1      -7.134  17.106   5.194  1.00  0.00     0.040 A 
ATOM     83  F   UNL     1      -7.412  15.044   6.275  1.00  0.00    -0.206 F 
ATOM     84  C   UNL     1      -6.645  17.857   4.128  1.00  0.00     0.006 A 
ENDBRANCH  60  77
ENDBRANCH  34  35
ENDBRANCH  26  29
ENDBRANCH  24  25
ENDBRANCH  23  24
ENDBRANCH   1  23
TORSDOF 13
