REMARK SMILES O=C(NCCCNC(=O)c1cccc(Br)c1C(F)(F)F)c1ccc(-c2c3nc(c(-c4c(F)cccc4F)c4ccc([nH]4)c(-c4c(F)cccc4F)c4nc(c(-c5c(F)cccc5F)c5ccc2[nH]5)C=C4)C=C3)cc1
REMARK SMILES IDX 4 1 3 2 1 3 2 4 21 6 22 7 74 8 23 9 73 10 24 11 25 12 26 13
REMARK SMILES IDX 67 14 27 15 72 16 66 17 68 18 28 19 71 20 65 21 64 22 29 24
REMARK SMILES IDX 55 25 38 26 54 27 39 28 42 29 53 30 69 31 40 32 41 33 52 35
REMARK SMILES IDX 70 36 43 37 30 38 31 39 36 40 32 41 33 42 35 43 37 44 34 45
REMARK SMILES IDX 56 46 57 47 62 48 58 49 59 50 61 51 63 52 60 53 44 54 45 55
REMARK SMILES IDX 50 56 46 57 47 58 49 59 51 60 48 61 5 62 6 63 7 64 8 65 9 67
REMARK SMILES IDX 10 68 11 69 16 70 12 71 14 72 13 73 15 74 17 75 18 76 19 77
REMARK SMILES IDX 20 78
REMARK H PARENT 3 5 68 23 42 34 7 66
REMARK Flexibility Score: inf
ROOT
ATOM      1  C   UNL     1       4.599  -1.389   0.024  1.00  0.00     0.118 C 
ENDROOT
BRANCH   1   2
ATOM      2  N   UNL     1       3.168  -1.131  -0.069  1.00  0.00    -0.352 N 
ATOM      3  O   UNL     1       1.230  -0.002   0.078  1.00  0.00    -0.269 OA
ATOM      4  C   UNL     1       2.457   0.041   0.022  1.00  0.00     0.251 C 
ATOM      5  H   UNL     1       2.617  -1.932  -0.224  1.00  0.00     0.163 HD
BRANCH   4   6
ATOM      6  C   UNL     1       3.145   1.350   0.078  1.00  0.00     0.039 A 
ATOM      7  C   UNL     1       4.253   1.623  -0.725  1.00  0.00     0.014 A 
ATOM      8  C   UNL     1       2.640   2.347   0.922  1.00  0.00     0.014 A 
ATOM      9  C   UNL     1       4.948   2.817  -0.568  1.00  0.00     0.010 A 
ATOM     10  C   UNL     1       3.284   3.585   1.008  1.00  0.00     0.010 A 
ATOM     11  C   UNL     1       4.465   3.818   0.289  1.00  0.00    -0.014 A 
BRANCH  11  12
ATOM     12  C   UNL     1       5.182   5.116   0.364  1.00  0.00     0.031 A 
ATOM     13  C   UNL     1       5.846   5.569   1.635  1.00  0.00     0.074 A 
ATOM     14  C   UNL     1       5.263   5.876  -0.745  1.00  0.00     0.049 A 
ATOM     15  N   UNL     1       6.543   6.655   1.857  1.00  0.00    -0.248 NA
ATOM     16  C   UNL     1       5.704   4.697   2.811  1.00  0.00     0.031 C 
ATOM     17  C   UNL     1       4.646   5.551  -2.034  1.00  0.00     0.029 A 
ATOM     18  N   UNL     1       5.912   7.061  -0.978  1.00  0.00    -0.354 N 
ATOM     19  C   UNL     1       6.907   6.608   3.197  1.00  0.00     0.074 A 
ATOM     20  C   UNL     1       6.333   5.397   3.745  1.00  0.00     0.031 C 
ATOM     21  C   UNL     1       4.990   6.483  -2.933  1.00  0.00     0.029 A 
ATOM     22  C   UNL     1       5.802   7.499  -2.275  1.00  0.00     0.049 A 
ATOM     23  H   UNL     1       6.409   7.550  -0.282  1.00  0.00     0.167 HD
ATOM     24  C   UNL     1       7.657   7.489   3.901  1.00  0.00     0.037 A 
ATOM     25  C   UNL     1       6.293   8.602  -2.869  1.00  0.00     0.037 A 
ATOM     26  C   UNL     1       8.244   8.683   3.347  1.00  0.00     0.049 A 
ATOM     27  C   UNL     1       7.110   9.566  -2.063  1.00  0.00     0.074 A 
ATOM     28  C   UNL     1       9.056   9.615   3.972  1.00  0.00     0.029 A 
ATOM     29  N   UNL     1       8.080   9.111   2.038  1.00  0.00    -0.354 N 
ATOM     30  N   UNL     1       7.470   9.490  -0.805  1.00  0.00    -0.248 NA
ATOM     31  C   UNL     1       7.581  10.772  -2.756  1.00  0.00     0.031 C 
ATOM     32  C   UNL     1       9.351  10.626   3.051  1.00  0.00     0.029 A 
ATOM     33  C   UNL     1       8.756  10.305   1.842  1.00  0.00     0.049 A 
ATOM     34  H   UNL     1       7.560   8.636   1.350  1.00  0.00     0.167 HD
ATOM     35  C   UNL     1       8.217  10.633  -0.556  1.00  0.00     0.074 A 
ATOM     36  C   UNL     1       8.276  11.374  -1.800  1.00  0.00     0.031 C 
ATOM     37  C   UNL     1       8.796  11.034   0.601  1.00  0.00     0.037 A 
BRANCH  24  38
ATOM     38  C   UNL     1       7.876   7.204   5.358  1.00  0.00     0.057 A 
ATOM     39  C   UNL     1       8.742   6.192   5.792  1.00  0.00     0.134 A 
ATOM     40  C   UNL     1       7.245   7.980   6.339  1.00  0.00     0.134 A 
ATOM     41  F   UNL     1       9.368   5.405   4.904  1.00  0.00    -0.206 F 
ATOM     42  C   UNL     1       8.957   5.949   7.150  1.00  0.00     0.040 A 
ATOM     43  C   UNL     1       7.469   7.761   7.699  1.00  0.00     0.040 A 
ATOM     44  F   UNL     1       6.409   8.969   5.991  1.00  0.00    -0.206 F 
ATOM     45  C   UNL     1       8.325   6.740   8.108  1.00  0.00     0.006 A 
ENDBRANCH  24  38
BRANCH  25  46
ATOM     46  C   UNL     1       6.018   8.842  -4.306  1.00  0.00     0.057 A 
ATOM     47  C   UNL     1       7.028   8.717  -5.265  1.00  0.00     0.134 A 
ATOM     48  C   UNL     1       4.734   9.174  -4.755  1.00  0.00     0.134 A 
ATOM     49  F   UNL     1       8.280   8.416  -4.891  1.00  0.00    -0.206 F 
ATOM     50  C   UNL     1       6.773   8.918  -6.622  1.00  0.00     0.040 A 
ATOM     51  C   UNL     1       4.460   9.356  -6.111  1.00  0.00     0.040 A 
ATOM     52  F   UNL     1       3.723   9.301  -3.883  1.00  0.00    -0.206 F 
ATOM     53  C   UNL     1       5.483   9.231  -7.049  1.00  0.00     0.006 A 
ENDBRANCH  25  46
BRANCH  37  54
ATOM     54  C   UNL     1       9.551  12.328   0.566  1.00  0.00     0.057 A 
ATOM     55  C   UNL     1       8.889  13.562   0.526  1.00  0.00     0.134 A 
ATOM     56  C   UNL     1      10.950  12.341   0.591  1.00  0.00     0.134 A 
ATOM     57  F   UNL     1       7.549  13.613   0.484  1.00  0.00    -0.206 F 
ATOM     58  C   UNL     1       9.595  14.765   0.492  1.00  0.00     0.040 A 
ATOM     59  C   UNL     1      11.667  13.539   0.579  1.00  0.00     0.040 A 
ATOM     60  F   UNL     1      11.642  11.193   0.634  1.00  0.00    -0.206 F 
ATOM     61  C   UNL     1      10.989  14.755   0.523  1.00  0.00     0.006 A 
ENDBRANCH  37  54
ENDBRANCH  11  12
ENDBRANCH   4   6
ENDBRANCH   1   2
BRANCH   1  62
ATOM     62  C   UNL     1       4.984  -2.176   1.269  1.00  0.00     0.042 C 
BRANCH  62  63
ATOM     63  C   UNL     1       4.409  -3.584   1.329  1.00  0.00     0.118 C 
BRANCH  63  64
ATOM     64  N   UNL     1       4.834  -4.416   0.213  1.00  0.00    -0.352 N 
ATOM     65  C   UNL     1       5.627  -5.532   0.183  1.00  0.00     0.251 C 
ATOM     66  H   UNL     1       4.495  -4.129  -0.666  1.00  0.00     0.163 HD
ATOM     67  O   UNL     1       5.914  -6.058  -0.888  1.00  0.00    -0.269 OA
BRANCH  65  68
ATOM     68  C   UNL     1       6.131  -6.137   1.433  1.00  0.00     0.053 A 
ATOM     69  C   UNL     1       5.181  -6.507   2.399  1.00  0.00     0.014 A 
ATOM     70  C   UNL     1       7.503  -6.437   1.597  1.00  0.00     0.082 A 
ATOM     71  C   UNL     1       5.583  -7.118   3.578  1.00  0.00     0.002 A 
ATOM     72  C   UNL     1       7.876  -7.110   2.774  1.00  0.00     0.031 A 
ATOM     73  C   UNL     1       6.928  -7.419   3.763  1.00  0.00     0.016 A 
ATOM     74  Br  UNL     1       9.645  -7.709   3.136  1.00  0.00    -0.050 Br
BRANCH  70  75
ATOM     75  C   UNL     1       8.485  -6.072   0.508  1.00  0.00     0.418 C 
ATOM     76  F   UNL     1       8.555  -7.007  -0.477  1.00  0.00    -0.166 F 
ATOM     77  F   UNL     1       8.203  -4.881  -0.095  1.00  0.00    -0.166 F 
ATOM     78  F   UNL     1       9.768  -5.908   0.942  1.00  0.00    -0.166 F 
ENDBRANCH  70  75
ENDBRANCH  65  68
ENDBRANCH  63  64
ENDBRANCH  62  63
ENDBRANCH   1  62
TORSDOF 11
