REMARK SMILES CC[C@]1(C(=O)NCCCNC(=O)c2ccc(-c3c4nc(c(-c5c(F)cccc5F)c5ccc([nH]5)c(-c5c(F)cccc5F)c5nc(c(-c6c(F)cccc6F)c6ccc3[nH]6)C=C5)C=C4)cc2)CCCN(S(=O)(=O)CCOC(C)C)C1
REMARK SMILES IDX 4 1 5 2 6 3 3 5 67 6 80 7 68 8 70 9 69 10 2 11 1 12 71 13
REMARK SMILES IDX 72 14 73 15 74 16 75 17 76 18 77 19 78 20 79 21 7 22 8 23
REMARK SMILES IDX 9 24 10 25 11 26 12 28 13 29 14 30 66 31 15 32 65 33 16 34
REMARK SMILES IDX 17 35 18 36 59 37 19 38 64 39 58 40 60 41 20 42 63 43 57 44
REMARK SMILES IDX 56 45 21 47 47 48 30 49 46 50 31 51 34 52 45 53 61 54 32 55
REMARK SMILES IDX 33 56 44 58 62 59 35 60 22 61 23 62 28 63 24 64 25 65 27 66
REMARK SMILES IDX 29 67 26 68 48 69 49 70 54 71 50 72 51 73 53 74 55 75 52 76
REMARK SMILES IDX 36 77 37 78 42 79 38 80 39 81 41 82 43 83 40 84
REMARK H PARENT 6 4 10 27 60 46 34 57
REMARK Flexibility Score: inf
ROOT
ATOM      1  C   UNL     1       2.286  -1.802   2.759  1.00  0.00     0.227 C 
ATOM      2  O   UNL     1       2.720  -2.683   2.014  1.00  0.00    -0.274 OA
ATOM      3  N   UNL     1       2.892  -1.700   3.975  1.00  0.00    -0.356 N 
ATOM      4  H   UNL     1       3.644  -2.322   4.103  1.00  0.00     0.163 HD
ENDROOT
BRANCH   1   5
ATOM      5  C   UNL     1       1.122  -0.869   2.355  1.00  0.00     0.063 C 
ATOM      6  C   UNL     1      -0.086  -1.175   3.284  1.00  0.00     0.019 C 
ATOM      7  C   UNL     1       1.649   0.590   2.431  1.00  0.00     0.119 C 
ATOM      8  C   UNL     1      -1.063  -0.020   3.426  1.00  0.00     0.018 C 
ATOM      9  N   UNL     1       0.621   1.625   2.764  1.00  0.00    -0.201 NA
ATOM     10  C   UNL     1      -0.342   1.252   3.825  1.00  0.00     0.102 C 
BRANCH   5  11
ATOM     11  C   UNL     1       0.651  -1.265   0.910  1.00  0.00     0.015 C 
ATOM     12  C   UNL     1       1.568  -0.917  -0.260  1.00  0.00     0.005 C 
ENDBRANCH   5  11
BRANCH   9  13
ATOM     13  S   UNL     1       1.271   3.205   2.916  1.00  0.00     0.216 S 
ATOM     14  O   UNL     1       1.466   3.431   4.338  1.00  0.00    -0.212 OA
ATOM     15  O   UNL     1       2.383   3.324   2.003  1.00  0.00    -0.212 OA
BRANCH  13  16
ATOM     16  C   UNL     1      -0.076   4.244   2.349  1.00  0.00     0.182 C 
BRANCH  16  17
ATOM     17  C   UNL     1       0.049   4.660   0.892  1.00  0.00     0.178 C 
BRANCH  17  18
ATOM     18  O   UNL     1      -1.068   4.243   0.105  1.00  0.00    -0.378 OA
BRANCH  18  19
ATOM     19  C   UNL     1      -0.920   3.091  -0.730  1.00  0.00     0.112 C 
ATOM     20  C   UNL     1       0.288   3.141  -1.663  1.00  0.00     0.038 C 
ATOM     21  C   UNL     1      -0.932   1.815   0.083  1.00  0.00     0.038 C 
ENDBRANCH  18  19
ENDBRANCH  17  18
ENDBRANCH  16  17
ENDBRANCH  13  16
ENDBRANCH   9  13
ENDBRANCH   1   5
BRANCH   3  22
ATOM     22  C   UNL     1       2.631  -0.839   5.118  1.00  0.00     0.117 C 
BRANCH  22  23
ATOM     23  C   UNL     1       2.100  -1.613   6.309  1.00  0.00     0.042 C 
BRANCH  23  24
ATOM     24  C   UNL     1       3.089  -2.636   6.823  1.00  0.00     0.118 C 
BRANCH  24  25
ATOM     25  N   UNL     1       4.324  -2.016   7.280  1.00  0.00    -0.352 N 
ATOM     26  C   UNL     1       4.842  -1.945   8.546  1.00  0.00     0.251 C 
ATOM     27  H   UNL     1       4.864  -1.585   6.579  1.00  0.00     0.163 HD
ATOM     28  O   UNL     1       5.757  -1.168   8.795  1.00  0.00    -0.269 OA
BRANCH  26  29
ATOM     29  C   UNL     1       4.288  -2.810   9.605  1.00  0.00     0.039 A 
ATOM     30  C   UNL     1       4.160  -2.307  10.899  1.00  0.00     0.014 A 
ATOM     31  C   UNL     1       3.910  -4.124   9.317  1.00  0.00     0.014 A 
ATOM     32  C   UNL     1       3.629  -3.121  11.898  1.00  0.00     0.010 A 
ATOM     33  C   UNL     1       3.258  -4.882  10.275  1.00  0.00     0.010 A 
ATOM     34  C   UNL     1       3.160  -4.409  11.588  1.00  0.00    -0.014 A 
BRANCH  34  35
ATOM     35  C   UNL     1       2.653  -5.316  12.642  1.00  0.00     0.031 A 
ATOM     36  C   UNL     1       3.371  -6.613  12.912  1.00  0.00     0.074 A 
ATOM     37  C   UNL     1       1.540  -4.993  13.325  1.00  0.00     0.049 A 
ATOM     38  N   UNL     1       3.080  -7.558  13.768  1.00  0.00    -0.248 NA
ATOM     39  C   UNL     1       4.553  -6.907  12.081  1.00  0.00     0.031 C 
ATOM     40  C   UNL     1       0.727  -3.794  13.108  1.00  0.00     0.029 A 
ATOM     41  N   UNL     1       0.903  -5.647  14.346  1.00  0.00    -0.354 N 
ATOM     42  C   UNL     1       4.027  -8.554  13.564  1.00  0.00     0.074 A 
ATOM     43  C   UNL     1       4.849  -8.141  12.451  1.00  0.00     0.031 C 
ATOM     44  C   UNL     1      -0.275  -3.776  14.002  1.00  0.00     0.029 A 
ATOM     45  C   UNL     1      -0.193  -4.975  14.829  1.00  0.00     0.049 A 
ATOM     46  H   UNL     1       1.202  -6.516  14.700  1.00  0.00     0.167 HD
ATOM     47  C   UNL     1       4.224  -9.694  14.268  1.00  0.00     0.037 A 
ATOM     48  C   UNL     1      -1.027  -5.292  15.836  1.00  0.00     0.037 A 
ATOM     49  C   UNL     1       3.426 -10.079  15.400  1.00  0.00     0.049 A 
ATOM     50  C   UNL     1      -0.775  -6.552  16.617  1.00  0.00     0.074 A 
ATOM     51  C   UNL     1       3.564 -11.186  16.217  1.00  0.00     0.029 A 
ATOM     52  N   UNL     1       2.342  -9.358  15.877  1.00  0.00    -0.354 N 
ATOM     53  N   UNL     1       0.164  -7.454  16.457  1.00  0.00    -0.248 NA
ATOM     54  C   UNL     1      -1.690  -6.828  17.732  1.00  0.00     0.031 C 
ATOM     55  C   UNL     1       2.537 -11.154  17.167  1.00  0.00     0.029 A 
ATOM     56  C   UNL     1       1.794 -10.001  16.973  1.00  0.00     0.049 A 
ATOM     57  H   UNL     1       2.011  -8.514  15.493  1.00  0.00     0.167 HD
ATOM     58  C   UNL     1      -0.025  -8.384  17.471  1.00  0.00     0.074 A 
ATOM     59  C   UNL     1      -1.157  -7.924  18.250  1.00  0.00     0.031 C 
ATOM     60  C   UNL     1       0.672  -9.517  17.737  1.00  0.00     0.037 A 
BRANCH  47  61
ATOM     61  C   UNL     1       5.353 -10.585  13.835  1.00  0.00     0.057 A 
ATOM     62  C   UNL     1       6.695 -10.201  13.976  1.00  0.00     0.134 A 
ATOM     63  C   UNL     1       5.099 -11.844  13.277  1.00  0.00     0.134 A 
ATOM     64  F   UNL     1       7.009  -9.000  14.485  1.00  0.00    -0.206 F 
ATOM     65  C   UNL     1       7.740 -11.021  13.546  1.00  0.00     0.040 A 
ATOM     66  C   UNL     1       6.137 -12.686  12.874  1.00  0.00     0.040 A 
ATOM     67  F   UNL     1       3.840 -12.276  13.114  1.00  0.00    -0.206 F 
ATOM     68  C   UNL     1       7.462 -12.272  13.000  1.00  0.00     0.006 A 
ENDBRANCH  47  61
BRANCH  48  69
ATOM     69  C   UNL     1      -2.142  -4.381  16.197  1.00  0.00     0.057 A 
ATOM     70  C   UNL     1      -2.129  -3.667  17.402  1.00  0.00     0.134 A 
ATOM     71  C   UNL     1      -3.252  -4.214  15.361  1.00  0.00     0.134 A 
ATOM     72  F   UNL     1      -1.099  -3.795  18.251  1.00  0.00    -0.206 F 
ATOM     73  C   UNL     1      -3.192  -2.843  17.776  1.00  0.00     0.040 A 
ATOM     74  C   UNL     1      -4.310  -3.372  15.711  1.00  0.00     0.040 A 
ATOM     75  F   UNL     1      -3.320  -4.859  14.188  1.00  0.00    -0.206 F 
ATOM     76  C   UNL     1      -4.286  -2.692  16.927  1.00  0.00     0.006 A 
ENDBRANCH  48  69
BRANCH  60  77
ATOM     77  C   UNL     1       0.256 -10.302  18.947  1.00  0.00     0.057 A 
ATOM     78  C   UNL     1      -0.952 -11.011  18.994  1.00  0.00     0.134 A 
ATOM     79  C   UNL     1       1.083 -10.356  20.076  1.00  0.00     0.134 A 
ATOM     80  F   UNL     1      -1.794 -10.991  17.950  1.00  0.00    -0.206 F 
ATOM     81  C   UNL     1      -1.341 -11.710  20.137  1.00  0.00     0.040 A 
ATOM     82  C   UNL     1       0.720 -11.079  21.212  1.00  0.00     0.040 A 
ATOM     83  F   UNL     1       2.259  -9.711  20.091  1.00  0.00    -0.206 F 
ATOM     84  C   UNL     1      -0.501 -11.749  21.249  1.00  0.00     0.006 A 
ENDBRANCH  60  77
ENDBRANCH  34  35
ENDBRANCH  26  29
ENDBRANCH  24  25
ENDBRANCH  23  24
ENDBRANCH  22  23
ENDBRANCH   3  22
TORSDOF 16
