REMARK SMILES C[N@@H+]1CCC[C@@H](C(=O)N[C@H](C(=O)NCCCNC(=O)c2ccc(-c3c4nc(c(-c5c(F)cccc5F)c5ccc([nH]5)c(-c5c(F)cccc5F)c5nc(c(-c6c(F)cccc6F)c6ccc3[nH]6)C=C5)C=C4)cc2)c2ccccc2)C1
REMARK SMILES IDX 15 1 14 2 13 3 11 4 12 5 10 7 9 8 7 9 8 10 6 12 1 13 2 14
REMARK SMILES IDX 3 15 80 16 4 18 5 19 74 20 75 21 79 22 76 23 78 24 77 25
REMARK SMILES IDX 16 26 17 27 18 28 19 30 20 31 21 32 73 33 22 34 72 35 23 36
REMARK SMILES IDX 24 37 25 38 66 39 26 40 71 41 65 42 67 43 27 44 70 45 64 46
REMARK SMILES IDX 63 47 28 49 54 50 37 51 53 52 38 53 41 54 52 55 68 56 39 57
REMARK SMILES IDX 40 58 51 60 69 61 42 62 29 63 30 64 35 65 31 66 32 67 34 68
REMARK SMILES IDX 36 69 33 70 55 71 56 72 61 73 57 74 58 75 60 76 62 77 59 78
REMARK SMILES IDX 43 79 44 80 49 81 45 82 46 83 48 84 50 85 47 86
REMARK H PARENT 13 6 9 11 2 17 17 29 67 48 41 59
REMARK Flexibility Score: inf
ROOT
ATOM      1  C   UNL     1       3.991   1.027   2.765  1.00  0.00     0.042 C 
ENDROOT
BRANCH   1   2
ATOM      2  C   UNL     1       2.851   0.367   1.992  1.00  0.00     0.117 C 
BRANCH   2   3
ATOM      3  N   UNL     1       1.870  -0.277   2.859  1.00  0.00    -0.354 N 
ATOM      4  C   UNL     1       0.580   0.091   3.158  1.00  0.00     0.247 C 
ATOM      5  O   UNL     1      -0.029  -0.590   3.988  1.00  0.00    -0.272 OA
ATOM      6  H   UNL     1       2.180  -1.103   3.297  1.00  0.00     0.163 HD
BRANCH   4   7
ATOM      7  C   UNL     1      -0.045   1.339   2.485  1.00  0.00     0.202 C 
BRANCH   7   8
ATOM      8  N   UNL     1      -1.494   1.199   2.409  1.00  0.00    -0.340 N 
ATOM      9  C   UNL     1      -2.354   1.077   1.371  1.00  0.00     0.229 C 
ATOM     10  O   UNL     1      -3.547   0.931   1.675  1.00  0.00    -0.275 OA
ATOM     11  H   UNL     1      -1.936   1.192   3.288  1.00  0.00     0.164 HD
BRANCH   9  12
ATOM     12  C   UNL     1      -1.981   1.065  -0.123  1.00  0.00     0.133 C 
ATOM     13  C   UNL     1       0.977   3.265  -1.071  1.00  0.00     0.332 C 
ATOM     14  N   UNL     1       0.258   2.083  -0.608  1.00  0.00    -0.337 N 
ATOM     15  C   UNL     1       0.704   0.868  -1.294  1.00  0.00     0.262 C 
ATOM     16  C   UNL     1      -1.197   2.254  -0.687  1.00  0.00     0.275 C 
ATOM     17  H   UNL     1       0.486   1.970   0.380  1.00  0.00     0.347 HD
ATOM     18  C   UNL     1       0.054  -0.379  -0.690  1.00  0.00     0.062 C 
ATOM     19  C   UNL     1      -1.464  -0.284  -0.630  1.00  0.00     0.025 C 
ENDBRANCH   9  12
ENDBRANCH   7   8
BRANCH   7  20
ATOM     20  C   UNL     1       0.367   2.674   3.098  1.00  0.00    -0.016 A 
ATOM     21  C   UNL     1       1.257   2.784   4.175  1.00  0.00     0.006 A 
ATOM     22  C   UNL     1      -0.055   3.865   2.483  1.00  0.00     0.006 A 
ATOM     23  C   UNL     1       1.808   4.021   4.526  1.00  0.00     0.000 A 
ATOM     24  C   UNL     1       0.481   5.102   2.839  1.00  0.00     0.000 A 
ATOM     25  C   UNL     1       1.439   5.175   3.842  1.00  0.00     0.000 A 
ENDBRANCH   7  20
ENDBRANCH   4   7
ENDBRANCH   2   3
ENDBRANCH   1   2
BRANCH   1  26
ATOM     26  C   UNL     1       4.820   0.070   3.611  1.00  0.00     0.118 C 
BRANCH  26  27
ATOM     27  N   UNL     1       5.850  -0.606   2.841  1.00  0.00    -0.352 N 
ATOM     28  C   UNL     1       7.218  -0.579   2.992  1.00  0.00     0.251 C 
ATOM     29  H   UNL     1       5.521  -1.167   2.102  1.00  0.00     0.163 HD
ATOM     30  O   UNL     1       7.930  -1.072   2.123  1.00  0.00    -0.269 OA
BRANCH  28  31
ATOM     31  C   UNL     1       7.842   0.061   4.176  1.00  0.00     0.039 A 
ATOM     32  C   UNL     1       8.999   0.826   3.994  1.00  0.00     0.014 A 
ATOM     33  C   UNL     1       7.326  -0.112   5.463  1.00  0.00     0.014 A 
ATOM     34  C   UNL     1       9.598   1.461   5.087  1.00  0.00     0.010 A 
ATOM     35  C   UNL     1       7.876   0.586   6.538  1.00  0.00     0.010 A 
ATOM     36  C   UNL     1       9.025   1.373   6.365  1.00  0.00    -0.014 A 
BRANCH  36  37
ATOM     37  C   UNL     1       9.621   2.082   7.530  1.00  0.00     0.031 A 
ATOM     38  C   UNL     1      10.159   1.302   8.700  1.00  0.00     0.074 A 
ATOM     39  C   UNL     1       9.632   3.429   7.564  1.00  0.00     0.049 A 
ATOM     40  N   UNL     1      10.656   1.742   9.830  1.00  0.00    -0.248 NA
ATOM     41  C   UNL     1      10.108  -0.164   8.599  1.00  0.00     0.031 C 
ATOM     42  C   UNL     1       9.105   4.308   6.519  1.00  0.00     0.029 A 
ATOM     43  N   UNL     1      10.098   4.296   8.522  1.00  0.00    -0.354 N 
ATOM     44  C   UNL     1      10.958   0.610  10.577  1.00  0.00     0.074 A 
ATOM     45  C   UNL     1      10.543  -0.535   9.794  1.00  0.00     0.031 C 
ATOM     46  C   UNL     1       9.299   5.587   6.881  1.00  0.00     0.029 A 
ATOM     47  C   UNL     1       9.930   5.620   8.197  1.00  0.00     0.049 A 
ATOM     48  H   UNL     1      10.514   3.996   9.363  1.00  0.00     0.167 HD
ATOM     49  C   UNL     1      11.549   0.526  11.793  1.00  0.00     0.037 A 
ATOM     50  C   UNL     1      10.244   6.736   8.883  1.00  0.00     0.037 A 
ATOM     51  C   UNL     1      11.995   1.659  12.560  1.00  0.00     0.049 A 
ATOM     52  C   UNL     1      10.900   6.618  10.231  1.00  0.00     0.074 A 
ATOM     53  C   UNL     1      12.661   1.671  13.774  1.00  0.00     0.029 A 
ATOM     54  N   UNL     1      11.820   2.983  12.187  1.00  0.00    -0.354 N 
ATOM     55  N   UNL     1      11.235   5.539  10.895  1.00  0.00    -0.248 NA
ATOM     56  C   UNL     1      11.226   7.874  10.921  1.00  0.00     0.031 C 
ATOM     57  C   UNL     1      12.855   3.003  14.154  1.00  0.00     0.029 A 
ATOM     58  C   UNL     1      12.349   3.820  13.156  1.00  0.00     0.049 A 
ATOM     59  H   UNL     1      11.385   3.284  11.357  1.00  0.00     0.167 HD
ATOM     60  C   UNL     1      11.835   5.985  12.066  1.00  0.00     0.074 A 
ATOM     61  C   UNL     1      11.828   7.432  12.016  1.00  0.00     0.031 C 
ATOM     62  C   UNL     1      12.345   5.259  13.091  1.00  0.00     0.037 A 
BRANCH  49  63
ATOM     63  C   UNL     1      11.755  -0.845  12.368  1.00  0.00     0.057 A 
ATOM     64  C   UNL     1      12.703  -1.732  11.841  1.00  0.00     0.134 A 
ATOM     65  C   UNL     1      11.021  -1.273  13.482  1.00  0.00     0.134 A 
ATOM     66  F   UNL     1      13.432  -1.389  10.768  1.00  0.00    -0.206 F 
ATOM     67  C   UNL     1      12.894  -3.005  12.382  1.00  0.00     0.040 A 
ATOM     68  C   UNL     1      11.221  -2.533  14.048  1.00  0.00     0.040 A 
ATOM     69  F   UNL     1      10.103  -0.471  14.041  1.00  0.00    -0.206 F 
ATOM     70  C   UNL     1      12.155  -3.405  13.493  1.00  0.00     0.006 A 
ENDBRANCH  49  63
BRANCH  50  71
ATOM     71  C   UNL     1       9.965   8.071   8.296  1.00  0.00     0.057 A 
ATOM     72  C   UNL     1      11.007   8.893   7.850  1.00  0.00     0.134 A 
ATOM     73  C   UNL     1       8.659   8.559   8.174  1.00  0.00     0.134 A 
ATOM     74  F   UNL     1      12.280   8.487   7.960  1.00  0.00    -0.206 F 
ATOM     75  C   UNL     1      10.762  10.161   7.321  1.00  0.00     0.040 A 
ATOM     76  C   UNL     1       8.398   9.816   7.624  1.00  0.00     0.040 A 
ATOM     77  F   UNL     1       7.618   7.817   8.576  1.00  0.00    -0.206 F 
ATOM     78  C   UNL     1       9.453  10.623   7.202  1.00  0.00     0.006 A 
ENDBRANCH  50  71
BRANCH  62  79
ATOM     79  C   UNL     1      12.969   6.016  14.226  1.00  0.00     0.057 A 
ATOM     80  C   UNL     1      12.197   6.719  15.159  1.00  0.00     0.134 A 
ATOM     81  C   UNL     1      14.358   6.009  14.408  1.00  0.00     0.134 A 
ATOM     82  F   UNL     1      10.863   6.776  15.033  1.00  0.00    -0.206 F 
ATOM     83  C   UNL     1      12.786   7.405  16.223  1.00  0.00     0.040 A 
ATOM     84  C   UNL     1      14.957   6.670  15.481  1.00  0.00     0.040 A 
ATOM     85  F   UNL     1      15.154   5.348  13.553  1.00  0.00    -0.206 F 
ATOM     86  C   UNL     1      14.170   7.376  16.389  1.00  0.00     0.006 A 
ENDBRANCH  62  79
ENDBRANCH  36  37
ENDBRANCH  28  31
ENDBRANCH  26  27
ENDBRANCH   1  26
TORSDOF 13
