REMARK SMILES CC(C)CCc1cc2c(cc1Cl)C=C(C(=O)NCCCNC(=O)c1ccc(-c3c4nc(c(-c5c(F)cccc5F)c5ccc([nH]5)c(-c5c(F)cccc5F)c5nc(c(-c6c(F)cccc6F)c6ccc3[nH]6)C=C5)C=C4)cc1)[C@@H](C(F)(F)F)O2
REMARK SMILES IDX 18 1 17 2 15 3 16 4 14 6 6 7 7 8 11 9 8 10 10 11 12 12 9 13
REMARK SMILES IDX 83 14 13 15 78 16 5 17 4 18 2 19 1 20 3 21 79 22 80 23 81 24
REMARK SMILES IDX 82 25 19 26 20 27 21 28 22 29 23 31 24 32 25 33 77 34 26 35
REMARK SMILES IDX 76 36 27 37 28 38 29 39 70 40 30 41 75 42 69 43 71 44 31 45
REMARK SMILES IDX 74 46 68 47 67 48 32 50 58 51 41 52 57 53 42 54 45 55 56 56
REMARK SMILES IDX 72 57 43 58 44 59 55 61 73 62 46 63 33 64 34 65 39 66 35 67
REMARK SMILES IDX 36 68 38 69 40 70 37 71 59 72 60 73 65 74 61 75 62 76 64 77
REMARK SMILES IDX 66 78 63 79 47 80 48 81 53 82 49 83 50 84 52 85 54 86 51 87
REMARK H PARENT 17 5 21 30 71 49 45 60
REMARK Flexibility Score: inf
ROOT
ATOM      1  C   UNL     1       1.099  -0.051  -9.962  1.00  0.00     0.118 C 
ENDROOT
BRANCH   1   2
ATOM      2  N   UNL     1       0.972  -1.471  -9.671  1.00  0.00    -0.352 N 
ATOM      3  C   UNL     1       0.633  -2.245  -8.616  1.00  0.00     0.251 C 
ATOM      4  O   UNL     1       0.691  -3.461  -8.822  1.00  0.00    -0.270 OA
ATOM      5  H   UNL     1       1.192  -2.018 -10.460  1.00  0.00     0.163 HD
BRANCH   3   6
ATOM      6  C   UNL     1       0.209  -1.742  -7.279  1.00  0.00     0.067 C 
ATOM      7  C   UNL     1      -1.413  -1.366  -2.514  1.00  0.00    -0.026 A 
ATOM      8  C   UNL     1      -0.771  -0.493  -3.410  1.00  0.00     0.052 A 
ATOM      9  C   UNL     1      -1.640  -2.691  -2.928  1.00  0.00     0.045 A 
ATOM     10  C   UNL     1      -0.378  -0.932  -4.671  1.00  0.00     0.128 A 
ATOM     11  C   UNL     1      -1.200  -3.138  -4.181  1.00  0.00     0.032 A 
ATOM     12  Cl  UNL     1      -2.493  -3.829  -1.948  1.00  0.00    -0.084 Cl
ATOM     13  C   UNL     1      -0.571  -2.256  -5.059  1.00  0.00     0.019 A 
ATOM     14  O   UNL     1       0.219  -0.015  -5.491  1.00  0.00    -0.475 OA
ATOM     15  C   UNL     1      -0.103  -2.685  -6.370  1.00  0.00     0.025 C 
ATOM     16  C   UNL     1       0.080  -0.289  -6.915  1.00  0.00     0.314 C 
BRANCH   7  17
ATOM     17  C   UNL     1      -1.825  -0.823  -1.164  1.00  0.00     0.037 C 
BRANCH  17  18
ATOM     18  C   UNL     1      -1.087  -1.419   0.043  1.00  0.00     0.008 C 
BRANCH  18  19
ATOM     19  C   UNL     1       0.452  -1.388  -0.032  1.00  0.00    -0.017 C 
ATOM     20  C   UNL     1       1.004   0.034   0.046  1.00  0.00     0.007 C 
ATOM     21  C   UNL     1       1.038  -2.239   1.097  1.00  0.00     0.007 C 
ENDBRANCH  18  19
ENDBRANCH  17  18
ENDBRANCH   7  17
BRANCH  16  22
ATOM     22  C   UNL     1      -1.226   0.342  -7.442  1.00  0.00     0.429 C 
ATOM     23  F   UNL     1      -1.128   1.696  -7.442  1.00  0.00    -0.167 F 
ATOM     24  F   UNL     1      -1.500  -0.023  -8.717  1.00  0.00    -0.167 F 
ATOM     25  F   UNL     1      -2.308   0.014  -6.702  1.00  0.00    -0.167 F 
ENDBRANCH  16  22
ENDBRANCH   3   6
ENDBRANCH   1   2
BRANCH   1  26
ATOM     26  C   UNL     1       2.556   0.374 -10.054  1.00  0.00     0.042 C 
BRANCH  26  27
ATOM     27  C   UNL     1       3.210  -0.072 -11.355  1.00  0.00     0.118 C 
BRANCH  27  28
ATOM     28  N   UNL     1       2.660   0.625 -12.516  1.00  0.00    -0.352 N 
ATOM     29  C   UNL     1       3.224   1.572 -13.337  1.00  0.00     0.251 C 
ATOM     30  H   UNL     1       1.736   0.375 -12.747  1.00  0.00     0.163 HD
ATOM     31  O   UNL     1       2.518   2.204 -14.117  1.00  0.00    -0.269 OA
BRANCH  29  32
ATOM     32  C   UNL     1       4.673   1.845 -13.264  1.00  0.00     0.039 A 
ATOM     33  C   UNL     1       5.579   0.795 -13.126  1.00  0.00     0.014 A 
ATOM     34  C   UNL     1       5.132   3.164 -13.328  1.00  0.00     0.014 A 
ATOM     35  C   UNL     1       6.908   1.070 -12.840  1.00  0.00     0.010 A 
ATOM     36  C   UNL     1       6.492   3.432 -13.155  1.00  0.00     0.010 A 
ATOM     37  C   UNL     1       7.383   2.391 -12.850  1.00  0.00    -0.014 A 
BRANCH  37  38
ATOM     38  C   UNL     1       8.809   2.645 -12.522  1.00  0.00     0.031 A 
ATOM     39  C   UNL     1       9.189   3.444 -11.306  1.00  0.00     0.074 A 
ATOM     40  C   UNL     1       9.765   2.076 -13.282  1.00  0.00     0.049 A 
ATOM     41  N   UNL     1      10.381   3.723 -10.839  1.00  0.00    -0.248 NA
ATOM     42  C   UNL     1       8.090   4.013 -10.510  1.00  0.00     0.031 C 
ATOM     43  C   UNL     1       9.520   1.261 -14.474  1.00  0.00     0.029 A 
ATOM     44  N   UNL     1      11.128   2.058 -13.142  1.00  0.00    -0.354 N 
ATOM     45  C   UNL     1      10.177   4.520  -9.720  1.00  0.00     0.074 A 
ATOM     46  C   UNL     1       8.747   4.703  -9.590  1.00  0.00     0.031 C 
ATOM     47  C   UNL     1      10.683   0.752 -14.904  1.00  0.00     0.029 A 
ATOM     48  C   UNL     1      11.761   1.266 -14.069  1.00  0.00     0.049 A 
ATOM     49  H   UNL     1      11.606   2.562 -12.444  1.00  0.00     0.167 HD
ATOM     50  C   UNL     1      11.095   5.046  -8.873  1.00  0.00     0.037 A 
ATOM     51  C   UNL     1      13.067   0.991 -14.232  1.00  0.00     0.037 A 
ATOM     52  C   UNL     1      12.515   4.839  -8.989  1.00  0.00     0.049 A 
ATOM     53  C   UNL     1      14.065   1.629 -13.313  1.00  0.00     0.074 A 
ATOM     54  C   UNL     1      13.527   5.299  -8.164  1.00  0.00     0.029 A 
ATOM     55  N   UNL     1      13.125   4.109  -9.999  1.00  0.00    -0.354 N 
ATOM     56  N   UNL     1      13.857   2.381 -12.260  1.00  0.00    -0.248 NA
ATOM     57  C   UNL     1      15.482   1.397 -13.622  1.00  0.00     0.031 C 
ATOM     58  C   UNL     1      14.752   4.883  -8.700  1.00  0.00     0.029 A 
ATOM     59  C   UNL     1      14.501   4.129  -9.835  1.00  0.00     0.049 A 
ATOM     60  H   UNL     1      12.650   3.645 -10.725  1.00  0.00     0.167 HD
ATOM     61  C   UNL     1      15.115   2.705 -11.773  1.00  0.00     0.074 A 
ATOM     62  C   UNL     1      16.079   2.049 -12.635  1.00  0.00     0.031 C 
ATOM     63  C   UNL     1      15.444   3.480 -10.710  1.00  0.00     0.037 A 
BRANCH  50  64
ATOM     64  C   UNL     1      10.583   5.925  -7.768  1.00  0.00     0.057 A 
ATOM     65  C   UNL     1      10.794   7.309  -7.807  1.00  0.00     0.134 A 
ATOM     66  C   UNL     1       9.877   5.411  -6.672  1.00  0.00     0.134 A 
ATOM     67  F   UNL     1      11.467   7.867  -8.824  1.00  0.00    -0.206 F 
ATOM     68  C   UNL     1      10.313   8.151  -6.802  1.00  0.00     0.040 A 
ATOM     69  C   UNL     1       9.369   6.246  -5.674  1.00  0.00     0.040 A 
ATOM     70  F   UNL     1       9.625   4.097  -6.581  1.00  0.00    -0.206 F 
ATOM     71  C   UNL     1       9.589   7.621  -5.737  1.00  0.00     0.006 A 
ENDBRANCH  50  64
BRANCH  51  72
ATOM     72  C   UNL     1      13.501   0.069 -15.310  1.00  0.00     0.057 A 
ATOM     73  C   UNL     1      13.398   0.420 -16.661  1.00  0.00     0.134 A 
ATOM     74  C   UNL     1      14.019  -1.194 -15.007  1.00  0.00     0.134 A 
ATOM     75  F   UNL     1      12.905   1.617 -17.015  1.00  0.00    -0.206 F 
ATOM     76  C   UNL     1      13.777  -0.460 -17.675  1.00  0.00     0.040 A 
ATOM     77  C   UNL     1      14.425  -2.076 -16.010  1.00  0.00     0.040 A 
ATOM     78  F   UNL     1      14.158  -1.579 -13.730  1.00  0.00    -0.206 F 
ATOM     79  C   UNL     1      14.297  -1.711 -17.350  1.00  0.00     0.006 A 
ENDBRANCH  51  72
BRANCH  63  80
ATOM     80  C   UNL     1      16.907   3.640 -10.424  1.00  0.00     0.057 A 
ATOM     81  C   UNL     1      17.497   2.989  -9.334  1.00  0.00     0.134 A 
ATOM     82  C   UNL     1      17.731   4.436 -11.229  1.00  0.00     0.134 A 
ATOM     83  F   UNL     1      16.761   2.215  -8.523  1.00  0.00    -0.206 F 
ATOM     84  C   UNL     1      18.858   3.122  -9.057  1.00  0.00     0.040 A 
ATOM     85  C   UNL     1      19.098   4.557 -10.977  1.00  0.00     0.040 A 
ATOM     86  F   UNL     1      17.228   5.070 -12.300  1.00  0.00    -0.206 F 
ATOM     87  C   UNL     1      19.664   3.901  -9.885  1.00  0.00     0.006 A 
ENDBRANCH  63  80
ENDBRANCH  37  38
ENDBRANCH  29  32
ENDBRANCH  27  28
ENDBRANCH  26  27
ENDBRANCH   1  26
TORSDOF 14
