REMARK SMILES O=C(NCCCNC(=O)c1ccc([C@H]2CCCN(C(=O)c3ccc4[nH]ccc4c3)C2)cc1)c1ccc(-c2c3nc(c(-c4c(F)cccc4F)c4ccc([nH]4)c(-c4c(F)cccc4F)c4nc(c(-c5c(F)cccc5F)c5ccc2[nH]5)C=C4)C=C3)cc1
REMARK SMILES IDX 5 1 4 2 3 3 1 4 2 5 33 7 34 8 86 9 35 10 85 11 36 12 37 13
REMARK SMILES IDX 38 14 79 15 39 16 84 17 78 18 80 19 40 20 83 21 77 22 76 23
REMARK SMILES IDX 41 25 67 26 50 27 66 28 51 29 54 30 65 31 81 32 52 33 53 34
REMARK SMILES IDX 64 36 82 37 55 38 42 39 43 40 48 41 44 42 45 43 47 44 49 45
REMARK SMILES IDX 46 46 68 47 69 48 74 49 70 50 71 51 73 52 75 53 72 54 56 55
REMARK SMILES IDX 57 56 62 57 58 58 59 59 61 60 63 61 60 62 6 63 7 64 8 65
REMARK SMILES IDX 9 67 10 68 11 69 32 70 12 71 31 72 13 73 14 74 15 75 30 76
REMARK SMILES IDX 16 77 18 78 17 79 19 80 20 81 21 82 22 83 29 84 23 85 28 86
REMARK SMILES IDX 24 87 27 88 25 89 26 90
REMARK H PARENT 3 6 80 24 54 35 7 66 25 91
REMARK Flexibility Score: inf
ROOT
ATOM      1  C   UNL     1      12.832 -13.845   2.266  1.00  0.00     0.042 C 
ENDROOT
BRANCH   1   2
ATOM      2  C   UNL     1      14.271 -14.319   2.176  1.00  0.00     0.118 C 
BRANCH   2   3
ATOM      3  N   UNL     1      15.086 -13.906   3.312  1.00  0.00    -0.352 N 
ATOM      4  O   UNL     1      16.230 -14.112   5.244  1.00  0.00    -0.269 OA
ATOM      5  C   UNL     1      15.706 -14.661   4.280  1.00  0.00     0.251 C 
ATOM      6  H   UNL     1      15.212 -12.933   3.400  1.00  0.00     0.163 HD
BRANCH   5   7
ATOM      7  C   UNL     1      15.704 -16.136   4.180  1.00  0.00     0.039 A 
ATOM      8  C   UNL     1      15.908 -16.767   2.954  1.00  0.00     0.014 A 
ATOM      9  C   UNL     1      15.468 -16.900   5.326  1.00  0.00     0.014 A 
ATOM     10  C   UNL     1      15.653 -18.125   2.829  1.00  0.00     0.010 A 
ATOM     11  C   UNL     1      15.343 -18.289   5.220  1.00  0.00     0.010 A 
ATOM     12  C   UNL     1      15.378 -18.907   3.961  1.00  0.00    -0.014 A 
BRANCH  12  13
ATOM     13  C   UNL     1      15.163 -20.368   3.795  1.00  0.00     0.031 A 
ATOM     14  C   UNL     1      13.859 -21.015   4.178  1.00  0.00     0.074 A 
ATOM     15  C   UNL     1      16.147 -21.110   3.248  1.00  0.00     0.049 A 
ATOM     16  N   UNL     1      13.495 -22.268   4.064  1.00  0.00    -0.248 NA
ATOM     17  C   UNL     1      12.831 -20.148   4.775  1.00  0.00     0.031 C 
ATOM     18  C   UNL     1      17.458 -20.599   2.837  1.00  0.00     0.029 A 
ATOM     19  N   UNL     1      16.193 -22.439   2.920  1.00  0.00    -0.354 N 
ATOM     20  C   UNL     1      12.215 -22.346   4.600  1.00  0.00     0.074 A 
ATOM     21  C   UNL     1      11.875 -21.019   5.065  1.00  0.00     0.031 C 
ATOM     22  C   UNL     1      18.152 -21.586   2.256  1.00  0.00     0.029 A 
ATOM     23  C   UNL     1      17.371 -22.814   2.322  1.00  0.00     0.049 A 
ATOM     24  H   UNL     1      15.454 -23.065   3.096  1.00  0.00     0.167 HD
ATOM     25  C   UNL     1      11.398 -23.424   4.689  1.00  0.00     0.037 A 
ATOM     26  C   UNL     1      17.787 -24.017   1.886  1.00  0.00     0.037 A 
ATOM     27  C   UNL     1      11.738 -24.741   4.210  1.00  0.00     0.049 A 
ATOM     28  C   UNL     1      16.873 -25.198   2.027  1.00  0.00     0.074 A 
ATOM     29  C   UNL     1      10.962 -25.888   4.216  1.00  0.00     0.029 A 
ATOM     30  N   UNL     1      12.957 -25.089   3.646  1.00  0.00    -0.354 N 
ATOM     31  N   UNL     1      15.652 -25.248   2.501  1.00  0.00    -0.248 NA
ATOM     32  C   UNL     1      17.398 -26.492   1.573  1.00  0.00     0.031 C 
ATOM     33  C   UNL     1      11.734 -26.942   3.715  1.00  0.00     0.029 A 
ATOM     34  C   UNL     1      12.965 -26.438   3.329  1.00  0.00     0.049 A 
ATOM     35  H   UNL     1      13.707 -24.468   3.494  1.00  0.00     0.167 HD
ATOM     36  C   UNL     1      15.248 -26.570   2.368  1.00  0.00     0.074 A 
ATOM     37  C   UNL     1      16.352 -27.284   1.760  1.00  0.00     0.031 C 
ATOM     38  C   UNL     1      14.067 -27.138   2.715  1.00  0.00     0.037 A 
BRANCH  25  39
ATOM     39  C   UNL     1      10.066 -23.235   5.363  1.00  0.00     0.057 A 
ATOM     40  C   UNL     1       9.037 -22.475   4.791  1.00  0.00     0.134 A 
ATOM     41  C   UNL     1       9.801 -23.849   6.595  1.00  0.00     0.134 A 
ATOM     42  F   UNL     1       9.223 -21.851   3.618  1.00  0.00    -0.206 F 
ATOM     43  C   UNL     1       7.807 -22.307   5.433  1.00  0.00     0.040 A 
ATOM     44  C   UNL     1       8.566 -23.713   7.232  1.00  0.00     0.040 A 
ATOM     45  F   UNL     1      10.735 -24.599   7.198  1.00  0.00    -0.206 F 
ATOM     46  C   UNL     1       7.567 -22.932   6.654  1.00  0.00     0.006 A 
ENDBRANCH  25  39
BRANCH  26  47
ATOM     47  C   UNL     1      19.129 -24.157   1.267  1.00  0.00     0.057 A 
ATOM     48  C   UNL     1      19.269 -24.457  -0.092  1.00  0.00     0.134 A 
ATOM     49  C   UNL     1      20.300 -23.991   2.016  1.00  0.00     0.134 A 
ATOM     50  F   UNL     1      18.184 -24.641  -0.859  1.00  0.00    -0.206 F 
ATOM     51  C   UNL     1      20.526 -24.606  -0.681  1.00  0.00     0.040 A 
ATOM     52  C   UNL     1      21.563 -24.106   1.434  1.00  0.00     0.040 A 
ATOM     53  F   UNL     1      20.233 -23.691   3.322  1.00  0.00    -0.206 F 
ATOM     54  C   UNL     1      21.677 -24.425   0.082  1.00  0.00     0.006 A 
ENDBRANCH  26  47
BRANCH  38  55
ATOM     55  C   UNL     1      13.886 -28.593   2.386  1.00  0.00     0.057 A 
ATOM     56  C   UNL     1      14.589 -29.604   3.052  1.00  0.00     0.134 A 
ATOM     57  C   UNL     1      12.979 -28.985   1.392  1.00  0.00     0.134 A 
ATOM     58  F   UNL     1      15.484 -29.298   4.004  1.00  0.00    -0.206 F 
ATOM     59  C   UNL     1      14.424 -30.950   2.718  1.00  0.00     0.040 A 
ATOM     60  C   UNL     1      12.780 -30.328   1.072  1.00  0.00     0.040 A 
ATOM     61  F   UNL     1      12.266 -28.069   0.720  1.00  0.00    -0.206 F 
ATOM     62  C   UNL     1      13.512 -31.315   1.730  1.00  0.00     0.006 A 
ENDBRANCH  38  55
ENDBRANCH  12  13
ENDBRANCH   5   7
ENDBRANCH   2   3
ENDBRANCH   1   2
BRANCH   1  63
ATOM     63  C   UNL     1      12.678 -12.338   2.180  1.00  0.00     0.118 C 
BRANCH  63  64
ATOM     64  N   UNL     1      13.177 -11.802   0.919  1.00  0.00    -0.352 N 
ATOM     65  C   UNL     1      12.508 -11.118  -0.069  1.00  0.00     0.251 C 
ATOM     66  H   UNL     1      14.136 -11.951   0.750  1.00  0.00     0.163 HD
ATOM     67  O   UNL     1      13.035 -10.932  -1.158  1.00  0.00    -0.269 OA
BRANCH  65  68
ATOM     68  C   UNL     1      11.149 -10.611   0.199  1.00  0.00     0.039 A 
ATOM     69  C   UNL     1      10.143 -10.764  -0.754  1.00  0.00     0.014 A 
ATOM     70  C   UNL     1      10.876  -9.967   1.401  1.00  0.00     0.014 A 
ATOM     71  C   UNL     1       8.835 -10.368  -0.450  1.00  0.00     0.005 A 
ATOM     72  C   UNL     1       9.571  -9.614   1.714  1.00  0.00     0.005 A 
ATOM     73  C   UNL     1       8.514  -9.839   0.813  1.00  0.00    -0.043 A 
BRANCH  73  74
ATOM     74  C   UNL     1       7.077  -9.459   1.170  1.00  0.00     0.039 C 
ATOM     75  C   UNL     1       6.041 -10.537   0.768  1.00  0.00     0.012 C 
ATOM     76  C   UNL     1       6.905  -9.149   2.673  1.00  0.00     0.128 C 
ATOM     77  C   UNL     1       4.618 -10.161   1.202  1.00  0.00     0.022 C 
ATOM     78  N   UNL     1       5.539  -8.801   3.013  1.00  0.00    -0.338 N 
ATOM     79  C   UNL     1       4.541  -9.813   2.686  1.00  0.00     0.120 C 
BRANCH  78  80
ATOM     80  C   UNL     1       5.309  -7.554   3.577  1.00  0.00     0.253 C 
ATOM     81  O   UNL     1       6.179  -6.710   3.777  1.00  0.00    -0.269 OA
BRANCH  80  82
ATOM     82  C   UNL     1       3.940  -7.199   3.957  1.00  0.00     0.040 A 
ATOM     83  C   UNL     1       3.222  -6.342   3.124  1.00  0.00     0.016 A 
ATOM     84  C   UNL     1       3.432  -7.659   5.178  1.00  0.00     0.024 A 
ATOM     85  C   UNL     1       1.927  -5.957   3.467  1.00  0.00     0.027 A 
ATOM     86  C   UNL     1       2.146  -7.240   5.555  1.00  0.00     0.000 A 
ATOM     87  C   UNL     1       1.418  -6.424   4.686  1.00  0.00     0.045 A 
ATOM     88  C   UNL     1       1.349  -7.432   6.717  1.00  0.00     0.028 A 
ATOM     89  N   UNL     1       0.196  -6.197   5.279  1.00  0.00    -0.361 N 
ATOM     90  C   UNL     1       0.163  -6.762   6.526  1.00  0.00     0.083 A 
ATOM     91  H   UNL     1      -0.547  -5.700   4.865  1.00  0.00     0.166 HD
ENDBRANCH  80  82
ENDBRANCH  78  80
ENDBRANCH  73  74
ENDBRANCH  65  68
ENDBRANCH  63  64
ENDBRANCH   1  63
TORSDOF 13
