REMARK SMILES O=C(NCCCNC(=O)[C@H]1[C@@H]2C[C@H]3C[C@@H](C2)C[C@]1(n1ncc(N2CCN(c4ccc(F)cc4)CC2)c(Cl)c1=O)C3)c1ccc(-c2c3nc(c(-c4c(F)cccc4F)c4ccc([nH]4)c(-c4c(F)cccc4F)c4nc(c(-c5c(F)cccc5F)c5ccc2[nH]5)C=C4)C=C3)cc1
REMARK SMILES IDX 5 1 4 2 3 3 1 4 2 5 41 7 42 8 94 9 43 10 93 11 44 12 45 13
REMARK SMILES IDX 46 14 87 15 47 16 92 17 86 18 88 19 48 20 91 21 85 22 84 23
REMARK SMILES IDX 49 25 75 26 58 27 74 28 59 29 62 30 73 31 89 32 60 33 61 34
REMARK SMILES IDX 72 36 90 37 63 38 50 39 51 40 56 41 52 42 53 43 55 44 57 45
REMARK SMILES IDX 54 46 76 47 77 48 82 49 78 50 79 51 81 52 83 53 80 54 64 55
REMARK SMILES IDX 65 56 70 57 66 58 67 59 69 60 71 61 68 62 6 63 7 64 8 65
REMARK SMILES IDX 9 67 10 68 11 69 18 70 16 71 12 72 40 73 17 74 15 75 13 76
REMARK SMILES IDX 14 77 19 78 20 79 38 80 21 81 36 82 39 83 22 84 37 85 23 86
REMARK SMILES IDX 24 87 35 88 25 89 34 90 26 91 27 92 28 93 33 94 29 95 32 96
REMARK SMILES IDX 30 97 31 98
REMARK H PARENT 3 6 88 24 62 35 7 66
REMARK Flexibility Score: inf
ROOT
ATOM      1  C   UNL     1       5.492  -0.955   1.778  1.00  0.00     0.042 C 
ENDROOT
BRANCH   1   2
ATOM      2  C   UNL     1       4.958  -1.031   0.350  1.00  0.00     0.118 C 
BRANCH   2   3
ATOM      3  N   UNL     1       3.503  -0.964   0.275  1.00  0.00    -0.352 N 
ATOM      4  O   UNL     1       1.444  -0.102   0.004  1.00  0.00    -0.269 OA
ATOM      5  C   UNL     1       2.656   0.041  -0.125  1.00  0.00     0.251 C 
ATOM      6  H   UNL     1       3.045  -1.786   0.563  1.00  0.00     0.163 HD
BRANCH   5   7
ATOM      7  C   UNL     1       3.169   1.294  -0.717  1.00  0.00     0.039 A 
ATOM      8  C   UNL     1       2.542   2.504  -0.389  1.00  0.00     0.014 A 
ATOM      9  C   UNL     1       4.189   1.281  -1.667  1.00  0.00     0.014 A 
ATOM     10  C   UNL     1       2.954   3.696  -0.992  1.00  0.00     0.010 A 
ATOM     11  C   UNL     1       4.661   2.475  -2.198  1.00  0.00     0.010 A 
ATOM     12  C   UNL     1       4.024   3.689  -1.897  1.00  0.00    -0.014 A 
BRANCH  12  13
ATOM     13  C   UNL     1       4.427   4.895  -2.663  1.00  0.00     0.031 A 
ATOM     14  C   UNL     1       4.281   4.869  -4.163  1.00  0.00     0.074 A 
ATOM     15  C   UNL     1       4.993   5.951  -2.052  1.00  0.00     0.049 A 
ATOM     16  N   UNL     1       4.787   5.670  -5.064  1.00  0.00    -0.248 NA
ATOM     17  C   UNL     1       3.490   3.759  -4.724  1.00  0.00     0.031 C 
ATOM     18  C   UNL     1       5.183   6.101  -0.609  1.00  0.00     0.029 A 
ATOM     19  N   UNL     1       5.543   7.092  -2.581  1.00  0.00    -0.354 N 
ATOM     20  C   UNL     1       4.423   5.131  -6.292  1.00  0.00     0.074 A 
ATOM     21  C   UNL     1       3.681   3.919  -6.025  1.00  0.00     0.031 C 
ATOM     22  C   UNL     1       5.807   7.267  -0.368  1.00  0.00     0.029 A 
ATOM     23  C   UNL     1       6.107   7.919  -1.639  1.00  0.00     0.049 A 
ATOM     24  H   UNL     1       5.534   7.299  -3.543  1.00  0.00     0.167 HD
ATOM     25  C   UNL     1       4.673   5.612  -7.532  1.00  0.00     0.037 A 
ATOM     26  C   UNL     1       6.813   9.055  -1.794  1.00  0.00     0.037 A 
ATOM     27  C   UNL     1       5.352   6.853  -7.786  1.00  0.00     0.049 A 
ATOM     28  C   UNL     1       7.080   9.567  -3.186  1.00  0.00     0.074 A 
ATOM     29  C   UNL     1       5.606   7.465  -9.000  1.00  0.00     0.029 A 
ATOM     30  N   UNL     1       5.868   7.681  -6.800  1.00  0.00    -0.354 N 
ATOM     31  N   UNL     1       6.717   9.060  -4.340  1.00  0.00    -0.248 NA
ATOM     32  C   UNL     1       7.861  10.808  -3.298  1.00  0.00     0.031 C 
ATOM     33  C   UNL     1       6.304   8.650  -8.751  1.00  0.00     0.029 A 
ATOM     34  C   UNL     1       6.447   8.795  -7.380  1.00  0.00     0.049 A 
ATOM     35  H   UNL     1       5.828   7.502  -5.833  1.00  0.00     0.167 HD
ATOM     36  C   UNL     1       7.186   9.940  -5.307  1.00  0.00     0.074 A 
ATOM     37  C   UNL     1       7.859  11.014  -4.607  1.00  0.00     0.031 C 
ATOM     38  C   UNL     1       7.072   9.869  -6.655  1.00  0.00     0.037 A 
BRANCH  25  39
ATOM     39  C   UNL     1       4.212   4.799  -8.704  1.00  0.00     0.057 A 
ATOM     40  C   UNL     1       5.140   4.160  -9.537  1.00  0.00     0.134 A 
ATOM     41  C   UNL     1       2.856   4.677  -9.036  1.00  0.00     0.134 A 
ATOM     42  F   UNL     1       6.454   4.239  -9.278  1.00  0.00    -0.206 F 
ATOM     43  C   UNL     1       4.737   3.436 -10.660  1.00  0.00     0.040 A 
ATOM     44  C   UNL     1       2.439   3.933 -10.141  1.00  0.00     0.040 A 
ATOM     45  F   UNL     1       1.915   5.252  -8.272  1.00  0.00    -0.206 F 
ATOM     46  C   UNL     1       3.382   3.316 -10.961  1.00  0.00     0.006 A 
ENDBRANCH  25  39
BRANCH  26  47
ATOM     47  C   UNL     1       7.334   9.793  -0.615  1.00  0.00     0.057 A 
ATOM     48  C   UNL     1       8.378   9.286   0.168  1.00  0.00     0.134 A 
ATOM     49  C   UNL     1       6.834  11.057  -0.279  1.00  0.00     0.134 A 
ATOM     50  F   UNL     1       8.900   8.079  -0.097  1.00  0.00    -0.206 F 
ATOM     51  C   UNL     1       8.910  10.011   1.236  1.00  0.00     0.040 A 
ATOM     52  C   UNL     1       7.375  11.805   0.769  1.00  0.00     0.040 A 
ATOM     53  F   UNL     1       5.849  11.607  -1.005  1.00  0.00    -0.206 F 
ATOM     54  C   UNL     1       8.416  11.280   1.531  1.00  0.00     0.006 A 
ENDBRANCH  26  47
BRANCH  38  55
ATOM     55  C   UNL     1       7.615  11.014  -7.455  1.00  0.00     0.057 A 
ATOM     56  C   UNL     1       6.743  11.912  -8.083  1.00  0.00     0.134 A 
ATOM     57  C   UNL     1       8.988  11.193  -7.656  1.00  0.00     0.134 A 
ATOM     58  F   UNL     1       5.415  11.788  -7.936  1.00  0.00    -0.206 F 
ATOM     59  C   UNL     1       7.218  12.944  -8.892  1.00  0.00     0.040 A 
ATOM     60  C   UNL     1       9.477  12.236  -8.444  1.00  0.00     0.040 A 
ATOM     61  F   UNL     1       9.874  10.372  -7.071  1.00  0.00    -0.206 F 
ATOM     62  C   UNL     1       8.589  13.109  -9.072  1.00  0.00     0.006 A 
ENDBRANCH  38  55
ENDBRANCH  12  13
ENDBRANCH   5   7
ENDBRANCH   2   3
ENDBRANCH   1   2
BRANCH   1  63
ATOM     63  C   UNL     1       5.195  -2.205   2.594  1.00  0.00     0.117 C 
BRANCH  63  64
ATOM     64  N   UNL     1       6.021  -3.326   2.245  1.00  0.00    -0.356 N 
ATOM     65  C   UNL     1       6.202  -4.518   2.839  1.00  0.00     0.225 C 
ATOM     66  H   UNL     1       6.548  -3.200   1.423  1.00  0.00     0.163 HD
ATOM     67  O   UNL     1       6.896  -5.304   2.172  1.00  0.00    -0.275 OA
BRANCH  65  68
ATOM     68  C   UNL     1       5.773  -4.953   4.245  1.00  0.00     0.109 C 
ATOM     69  C   UNL     1       6.979  -4.844   5.231  1.00  0.00     0.004 C 
ATOM     70  C   UNL     1       4.431  -4.708   5.015  1.00  0.00     0.079 C 
ATOM     71  C   UNL     1       6.947  -3.549   6.063  1.00  0.00     0.008 C 
ATOM     72  C   UNL     1       6.896  -6.035   6.205  1.00  0.00     0.008 C 
ATOM     73  C   UNL     1       4.360  -5.942   6.018  1.00  0.00     0.035 C 
ATOM     74  C   UNL     1       4.489  -3.467   5.960  1.00  0.00     0.035 C 
ATOM     75  C   UNL     1       5.675  -3.492   6.917  1.00  0.00    -0.008 C 
ATOM     76  C   UNL     1       5.568  -5.983   6.982  1.00  0.00    -0.008 C 
ATOM     77  C   UNL     1       5.558  -4.712   7.833  1.00  0.00     0.007 C 
BRANCH  70  78
ATOM     78  N   UNL     1       3.190  -4.711   4.155  1.00  0.00    -0.222 N 
ATOM     79  N   UNL     1       2.726  -5.960   3.776  1.00  0.00    -0.175 NA
ATOM     80  C   UNL     1       2.473  -3.550   3.848  1.00  0.00     0.288 A 
ATOM     81  C   UNL     1       1.584  -6.029   3.172  1.00  0.00     0.161 A 
ATOM     82  C   UNL     1       1.254  -3.701   3.019  1.00  0.00     0.132 A 
ATOM     83  O   UNL     1       2.772  -2.416   4.224  1.00  0.00    -0.266 OA
ATOM     84  C   UNL     1       0.722  -4.897   2.751  1.00  0.00     0.082 A 
ATOM     85  Cl  UNL     1       0.516  -2.223   2.502  1.00  0.00    -0.076 Cl
BRANCH  84  86
ATOM     86  N   UNL     1      -0.508  -5.192   2.170  1.00  0.00    -0.365 N 
ATOM     87  C   UNL     1      -1.764  -5.051   2.951  1.00  0.00     0.138 C 
ATOM     88  C   UNL     1      -0.721  -5.235   0.705  1.00  0.00     0.138 C 
ATOM     89  C   UNL     1      -2.622  -3.856   2.476  1.00  0.00     0.138 C 
ATOM     90  C   UNL     1      -1.615  -4.075   0.203  1.00  0.00     0.138 C 
ATOM     91  N   UNL     1      -2.825  -3.944   1.027  1.00  0.00    -0.368 N 
BRANCH  91  92
ATOM     92  C   UNL     1      -4.086  -3.897   0.484  1.00  0.00     0.037 A 
ATOM     93  C   UNL     1      -4.495  -4.848  -0.462  1.00  0.00     0.029 A 
ATOM     94  C   UNL     1      -5.016  -2.924   0.880  1.00  0.00     0.029 A 
ATOM     95  C   UNL     1      -5.789  -4.840  -0.984  1.00  0.00     0.041 A 
ATOM     96  C   UNL     1      -6.309  -2.899   0.350  1.00  0.00     0.041 A 
ATOM     97  C   UNL     1      -6.684  -3.863  -0.575  1.00  0.00     0.123 A 
ATOM     98  F   UNL     1      -7.926  -3.853  -1.075  1.00  0.00    -0.207 F 
ENDBRANCH  91  92
ENDBRANCH  84  86
ENDBRANCH  70  78
ENDBRANCH  65  68
ENDBRANCH  63  64
ENDBRANCH   1  63
TORSDOF 13
