REMARK SMILES CCNC(=O)c1cccc(-c2ccc(Cl)c(C(=O)NCCCNC(=O)c3ccc(-c4c5nc(c(-c6c(F)cccc6F)c6ccc([nH]6)c(-c6c(F)cccc6F)c6nc(c(-c7c(F)cccc7F)c7ccc4[nH]7)C=C6)C=C5)cc3)c2)c1
REMARK SMILES IDX 20 1 19 2 17 3 18 4 16 6 11 7 12 8 80 9 13 10 14 11 15 12
REMARK SMILES IDX 10 13 6 14 7 15 81 16 8 17 9 18 4 19 3 20 5 22 2 23 1 24
REMARK SMILES IDX 21 25 22 26 23 27 24 28 25 30 26 31 27 32 79 33 28 34 78 35
REMARK SMILES IDX 29 36 30 37 31 38 72 39 32 40 77 41 71 42 73 43 33 44 76 45
REMARK SMILES IDX 70 46 69 47 34 49 60 50 43 51 59 52 44 53 47 54 58 55 74 56
REMARK SMILES IDX 45 57 46 58 57 60 75 61 48 62 35 63 36 64 41 65 37 66 38 67
REMARK SMILES IDX 40 68 42 69 39 70 61 71 62 72 67 73 63 74 64 75 66 76 68 77
REMARK SMILES IDX 65 78 49 79 50 80 55 81 51 82 52 83 54 84 56 85 53 86
REMARK H PARENT 19 5 3 21 23 29 73 48 47 59
REMARK Flexibility Score: inf
ROOT
ATOM      1  C   UNL     1      -2.086   1.245   6.700  1.00  0.00     0.118 C 
ENDROOT
BRANCH   1   2
ATOM      2  N   UNL     1      -2.778   0.091   7.276  1.00  0.00    -0.352 N 
ATOM      3  C   UNL     1      -3.612  -0.902   6.796  1.00  0.00     0.252 C 
ATOM      4  O   UNL     1      -3.894  -1.797   7.590  1.00  0.00    -0.269 OA
ATOM      5  H   UNL     1      -2.608   0.000   8.242  1.00  0.00     0.163 HD
BRANCH   3   6
ATOM      6  C   UNL     1      -4.181  -0.913   5.413  1.00  0.00     0.059 A 
ATOM      7  C   UNL     1      -4.062   0.054   3.155  1.00  0.00    -0.017 A 
ATOM      8  C   UNL     1      -5.294  -0.532   2.858  1.00  0.00     0.010 A 
ATOM      9  C   UNL     1      -3.471  -0.305   4.377  1.00  0.00     0.024 A 
ATOM     10  C   UNL     1      -5.945  -1.332   3.802  1.00  0.00     0.022 A 
ATOM     11  C   UNL     1      -5.423  -1.479   5.096  1.00  0.00     0.053 A 
ATOM     12  Cl  UNL     1      -6.410  -2.353   6.212  1.00  0.00    -0.083 Cl
BRANCH   7  13
ATOM     13  C   UNL     1      -3.455   1.125   2.327  1.00  0.00    -0.018 A 
ATOM     14  C   UNL     1      -1.503   2.447   1.647  1.00  0.00     0.040 A 
ATOM     15  C   UNL     1      -2.329   3.377   1.017  1.00  0.00     0.014 A 
ATOM     16  C   UNL     1      -2.068   1.354   2.318  1.00  0.00     0.022 A 
ATOM     17  C   UNL     1      -3.707   3.180   1.012  1.00  0.00     0.001 A 
ATOM     18  C   UNL     1      -4.259   2.064   1.652  1.00  0.00     0.009 A 
BRANCH  14  19
ATOM     19  C   UNL     1      -0.046   2.706   1.701  1.00  0.00     0.251 C 
ATOM     20  N   UNL     1       0.861   1.686   1.560  1.00  0.00    -0.352 N 
ATOM     21  H   UNL     1       1.791   1.930   1.772  1.00  0.00     0.163 HD
ATOM     22  O   UNL     1       0.352   3.852   1.887  1.00  0.00    -0.269 OA
BRANCH  20  23
ATOM     23  C   UNL     1       0.674   0.305   1.147  1.00  0.00     0.112 C 
ATOM     24  C   UNL     1       1.385   0.023  -0.161  1.00  0.00     0.027 C 
ENDBRANCH  20  23
ENDBRANCH  14  19
ENDBRANCH   7  13
ENDBRANCH   3   6
ENDBRANCH   1   2
BRANCH   1  25
ATOM     25  C   UNL     1      -2.437   2.583   7.327  1.00  0.00     0.042 C 
BRANCH  25  26
ATOM     26  C   UNL     1      -1.997   2.753   8.770  1.00  0.00     0.118 C 
BRANCH  26  27
ATOM     27  N   UNL     1      -0.552   2.667   8.943  1.00  0.00    -0.352 N 
ATOM     28  C   UNL     1       0.399   3.624   9.205  1.00  0.00     0.251 C 
ATOM     29  H   UNL     1      -0.191   1.756   8.856  1.00  0.00     0.163 HD
ATOM     30  O   UNL     1       1.587   3.316   9.131  1.00  0.00    -0.269 OA
BRANCH  28  31
ATOM     31  C   UNL     1       0.030   5.015   9.555  1.00  0.00     0.039 A 
ATOM     32  C   UNL     1       0.843   6.062   9.104  1.00  0.00     0.014 A 
ATOM     33  C   UNL     1      -1.072   5.304  10.360  1.00  0.00     0.014 A 
ATOM     34  C   UNL     1       0.506   7.387   9.395  1.00  0.00     0.010 A 
ATOM     35  C   UNL     1      -1.467   6.624  10.561  1.00  0.00     0.010 A 
ATOM     36  C   UNL     1      -0.679   7.682  10.088  1.00  0.00    -0.014 A 
BRANCH  36  37
ATOM     37  C   UNL     1      -1.111   9.084  10.325  1.00  0.00     0.031 A 
ATOM     38  C   UNL     1      -1.274   9.606  11.728  1.00  0.00     0.074 A 
ATOM     39  C   UNL     1      -1.430   9.866   9.276  1.00  0.00     0.049 A 
ATOM     40  N   UNL     1      -1.701  10.777  12.130  1.00  0.00    -0.248 NA
ATOM     41  C   UNL     1      -0.945   8.681  12.824  1.00  0.00     0.031 C 
ATOM     42  C   UNL     1      -1.377   9.460   7.870  1.00  0.00     0.029 A 
ATOM     43  N   UNL     1      -1.870  11.165   9.229  1.00  0.00    -0.354 N 
ATOM     44  C   UNL     1      -1.713  10.719  13.518  1.00  0.00     0.074 A 
ATOM     45  C   UNL     1      -1.304   9.382  13.889  1.00  0.00     0.031 C 
ATOM     46  C   UNL     1      -1.736  10.498   7.098  1.00  0.00     0.029 A 
ATOM     47  C   UNL     1      -2.080  11.629   7.953  1.00  0.00     0.049 A 
ATOM     48  H   UNL     1      -2.022  11.712  10.033  1.00  0.00     0.167 HD
ATOM     49  C   UNL     1      -2.013  11.697  14.406  1.00  0.00     0.037 A 
ATOM     50  C   UNL     1      -2.502  12.832   7.519  1.00  0.00     0.037 A 
ATOM     51  C   UNL     1      -2.386  13.038  14.037  1.00  0.00     0.049 A 
ATOM     52  C   UNL     1      -2.811  13.907   8.522  1.00  0.00     0.074 A 
ATOM     53  C   UNL     1      -2.634  14.123  14.859  1.00  0.00     0.029 A 
ATOM     54  N   UNL     1      -2.565  13.475  12.733  1.00  0.00    -0.354 N 
ATOM     55  N   UNL     1      -2.744  13.860   9.830  1.00  0.00    -0.248 NA
ATOM     56  C   UNL     1      -3.247  15.204   7.987  1.00  0.00     0.031 C 
ATOM     57  C   UNL     1      -3.003  15.206  14.055  1.00  0.00     0.029 A 
ATOM     58  C   UNL     1      -2.942  14.809  12.729  1.00  0.00     0.049 A 
ATOM     59  H   UNL     1      -2.443  12.921  11.929  1.00  0.00     0.167 HD
ATOM     60  C   UNL     1      -3.107  15.125  10.274  1.00  0.00     0.074 A 
ATOM     61  C   UNL     1      -3.376  15.921   9.094  1.00  0.00     0.031 C 
ATOM     62  C   UNL     1      -3.208  15.586  11.545  1.00  0.00     0.037 A 
BRANCH  49  63
ATOM     63  C   UNL     1      -1.943  11.351  15.866  1.00  0.00     0.057 A 
ATOM     64  C   UNL     1      -0.723  11.107  16.511  1.00  0.00     0.134 A 
ATOM     65  C   UNL     1      -3.107  11.283  16.643  1.00  0.00     0.134 A 
ATOM     66  F   UNL     1       0.429  11.144  15.823  1.00  0.00    -0.206 F 
ATOM     67  C   UNL     1      -0.665  10.775  17.866  1.00  0.00     0.040 A 
ATOM     68  C   UNL     1      -3.059  10.981  18.005  1.00  0.00     0.040 A 
ATOM     69  F   UNL     1      -4.308  11.513  16.092  1.00  0.00    -0.206 F 
ATOM     70  C   UNL     1      -1.836  10.718  18.618  1.00  0.00     0.006 A 
ENDBRANCH  49  63
BRANCH  50  71
ATOM     71  C   UNL     1      -2.618  13.093   6.063  1.00  0.00     0.057 A 
ATOM     72  C   UNL     1      -1.712  13.938   5.411  1.00  0.00     0.134 A 
ATOM     73  C   UNL     1      -3.623  12.503   5.288  1.00  0.00     0.134 A 
ATOM     74  F   UNL     1      -0.738  14.546   6.105  1.00  0.00    -0.206 F 
ATOM     75  C   UNL     1      -1.808  14.198   4.044  1.00  0.00     0.040 A 
ATOM     76  C   UNL     1      -3.718  12.736   3.915  1.00  0.00     0.040 A 
ATOM     77  F   UNL     1      -4.517  11.678   5.853  1.00  0.00    -0.206 F 
ATOM     78  C   UNL     1      -2.811  13.590   3.291  1.00  0.00     0.006 A 
ENDBRANCH  50  71
BRANCH  62  79
ATOM     79  C   UNL     1      -3.603  17.022  11.720  1.00  0.00     0.057 A 
ATOM     80  C   UNL     1      -4.911  17.462  11.480  1.00  0.00     0.134 A 
ATOM     81  C   UNL     1      -2.671  17.970  12.161  1.00  0.00     0.134 A 
ATOM     82  F   UNL     1      -5.847  16.605  11.043  1.00  0.00    -0.206 F 
ATOM     83  C   UNL     1      -5.272  18.799  11.649  1.00  0.00     0.040 A 
ATOM     84  C   UNL     1      -3.027  19.305  12.358  1.00  0.00     0.040 A 
ATOM     85  F   UNL     1      -1.404  17.612  12.416  1.00  0.00    -0.206 F 
ATOM     86  C   UNL     1      -4.329  19.724  12.095  1.00  0.00     0.006 A 
ENDBRANCH  62  79
ENDBRANCH  36  37
ENDBRANCH  28  31
ENDBRANCH  26  27
ENDBRANCH  25  26
ENDBRANCH   1  25
TORSDOF 13
