REMARK SMILES Cc1cccc(C(=O)Nc2cc(C(=O)NCCCNC(=O)c3ccc(-c4c5nc(c(-c6c(F)cccc6F)c6ccc([nH]6)c(-c6c(F)cccc6F)c6nc(c(-c7c(F)cccc7F)c7ccc4[nH]7)C=C6)C=C5)cc3)ccc2N2CC[NH+](CC(=O)NC(C)(C)C)CC2)c1
REMARK SMILES IDX 16 1 15 2 13 3 14 4 12 6 10 7 11 8 78 9 77 10 76 11 9 12
REMARK SMILES IDX 7 13 8 14 6 16 1 17 2 18 3 19 93 20 4 21 5 22 79 23 80 24
REMARK SMILES IDX 92 25 81 26 91 27 82 28 83 30 84 31 85 32 86 33 87 35 88 36
REMARK SMILES IDX 89 37 90 38 17 39 18 40 19 41 20 42 21 44 22 45 23 46 75 47
REMARK SMILES IDX 24 48 74 49 25 50 26 51 27 52 68 53 28 54 73 55 67 56 69 57
REMARK SMILES IDX 29 58 72 59 66 60 65 61 30 63 56 64 39 65 55 66 40 67 43 68
REMARK SMILES IDX 54 69 70 70 41 71 42 72 53 74 71 75 44 76 31 77 32 78 37 79
REMARK SMILES IDX 33 80 34 81 36 82 38 83 35 84 57 85 58 86 63 87 59 88 60 89
REMARK SMILES IDX 62 90 64 91 61 92 45 93 46 94 51 95 47 96 48 97 50 98 52 99
REMARK SMILES IDX 49 100
REMARK H PARENT 15 5 9 15 82 29 86 34 19 43 69 62 43 73
REMARK Flexibility Score: inf
ROOT
ATOM      1  C   UNL     1       1.437   0.532  -3.029  1.00  0.00     0.118 C 
ENDROOT
BRANCH   1   2
ATOM      2  N   UNL     1       2.762   1.159  -2.987  1.00  0.00    -0.352 N 
ATOM      3  C   UNL     1       3.319   2.222  -2.299  1.00  0.00     0.251 C 
ATOM      4  O   UNL     1       4.543   2.349  -2.368  1.00  0.00    -0.269 OA
ATOM      5  H   UNL     1       3.406   0.721  -3.590  1.00  0.00     0.163 HD
BRANCH   3   6
ATOM      6  C   UNL     1       2.554   3.223  -1.496  1.00  0.00     0.042 A 
ATOM      7  C   UNL     1       0.471   4.069  -0.576  1.00  0.00     0.065 A 
ATOM      8  C   UNL     1       1.186   3.166  -1.348  1.00  0.00     0.042 A 
ATOM      9  C   UNL     1       1.107   5.158   0.061  1.00  0.00     0.061 A 
ATOM     10  C   UNL     1       2.496   5.242  -0.100  1.00  0.00     0.029 A 
ATOM     11  C   UNL     1       3.212   4.277  -0.848  1.00  0.00     0.016 A 
BRANCH   7  12
ATOM     12  N   UNL     1      -0.917   3.875  -0.442  1.00  0.00    -0.320 N 
ATOM     13  C   UNL     1      -1.652   2.737  -0.158  1.00  0.00     0.255 C 
ATOM     14  O   UNL     1      -2.877   2.846  -0.069  1.00  0.00    -0.269 OA
ATOM     15  H   UNL     1      -1.458   4.688  -0.573  1.00  0.00     0.170 HD
BRANCH  13  16
ATOM     16  C   UNL     1      -1.045   1.391   0.106  1.00  0.00     0.040 A 
ATOM     17  C   UNL     1       2.273  -0.285   0.948  1.00  0.00     0.044 C 
ATOM     18  C   UNL     1       0.809  -0.099   0.660  1.00  0.00    -0.050 A 
ATOM     19  C   UNL     1       0.030  -1.200   0.291  1.00  0.00     0.003 A 
ATOM     20  C   UNL     1       0.233   1.183   0.647  1.00  0.00     0.017 A 
ATOM     21  C   UNL     1      -1.289  -1.019  -0.121  1.00  0.00     0.001 A 
ATOM     22  C   UNL     1      -1.816   0.270  -0.232  1.00  0.00     0.014 A 
ENDBRANCH  13  16
ENDBRANCH   7  12
BRANCH   9  23
ATOM     23  N   UNL     1       0.385   6.013   0.880  1.00  0.00    -0.359 N 
ATOM     24  C   UNL     1       0.805   7.367   1.290  1.00  0.00     0.178 C 
ATOM     25  C   UNL     1      -0.437   5.382   1.911  1.00  0.00     0.178 C 
ATOM     26  C   UNL     1      -0.426   8.204   1.808  1.00  0.00     0.284 C 
ATOM     27  C   UNL     1      -1.742   6.182   2.030  1.00  0.00     0.284 C 
ATOM     28  N   UNL     1      -1.523   7.530   2.549  1.00  0.00    -0.324 N 
ATOM     29  H   UNL     1      -2.344   8.104   2.356  1.00  0.00     0.348 HD
BRANCH  28  30
ATOM     30  C   UNL     1      -1.479   7.585   4.023  1.00  0.00     0.363 C 
BRANCH  30  31
ATOM     31  C   UNL     1      -0.370   6.776   4.685  1.00  0.00     0.275 C 
ATOM     32  O   UNL     1       0.783   7.229   4.713  1.00  0.00    -0.268 OA
ATOM     33  N   UNL     1      -0.539   5.550   5.256  1.00  0.00    -0.347 N 
ATOM     34  H   UNL     1       0.283   5.283   5.728  1.00  0.00     0.164 HD
BRANCH  33  35
ATOM     35  C   UNL     1      -1.574   4.484   5.392  1.00  0.00     0.032 C 
ATOM     36  C   UNL     1      -1.462   3.432   4.271  1.00  0.00     0.034 C 
ATOM     37  C   UNL     1      -1.252   3.737   6.706  1.00  0.00     0.034 C 
ATOM     38  C   UNL     1      -3.016   4.987   5.488  1.00  0.00     0.034 C 
ENDBRANCH  33  35
ENDBRANCH  30  31
ENDBRANCH  28  30
ENDBRANCH   9  23
ENDBRANCH   3   6
ENDBRANCH   1   2
BRANCH   1  39
ATOM     39  C   UNL     1       0.374   1.332  -3.795  1.00  0.00     0.042 C 
BRANCH  39  40
ATOM     40  C   UNL     1      -0.029   0.730  -5.120  1.00  0.00     0.118 C 
BRANCH  40  41
ATOM     41  N   UNL     1      -1.322   0.047  -5.120  1.00  0.00    -0.352 N 
ATOM     42  C   UNL     1      -1.884  -0.683  -6.167  1.00  0.00     0.251 C 
ATOM     43  H   UNL     1      -1.853   0.110  -4.293  1.00  0.00     0.163 HD
ATOM     44  O   UNL     1      -2.955  -1.229  -6.069  1.00  0.00    -0.269 OA
BRANCH  42  45
ATOM     45  C   UNL     1      -1.031  -0.866  -7.370  1.00  0.00     0.039 A 
ATOM     46  C   UNL     1      -0.525  -2.151  -7.574  1.00  0.00     0.014 A 
ATOM     47  C   UNL     1      -0.419   0.253  -7.930  1.00  0.00     0.014 A 
ATOM     48  C   UNL     1       0.759  -2.286  -8.089  1.00  0.00     0.010 A 
ATOM     49  C   UNL     1       0.896   0.126  -8.336  1.00  0.00     0.010 A 
ATOM     50  C   UNL     1       1.508  -1.135  -8.340  1.00  0.00    -0.014 A 
BRANCH  50  51
ATOM     51  C   UNL     1       2.956  -1.171  -8.513  1.00  0.00     0.031 A 
ATOM     52  C   UNL     1       3.528  -0.969  -9.859  1.00  0.00     0.074 A 
ATOM     53  C   UNL     1       3.783  -1.393  -7.465  1.00  0.00     0.049 A 
ATOM     54  N   UNL     1       4.640  -1.484 -10.260  1.00  0.00    -0.248 NA
ATOM     55  C   UNL     1       2.845  -0.195 -10.887  1.00  0.00     0.031 C 
ATOM     56  C   UNL     1       5.240  -1.273  -7.451  1.00  0.00     0.029 A 
ATOM     57  N   UNL     1       3.473  -1.990  -6.236  1.00  0.00    -0.354 N 
ATOM     58  C   UNL     1       4.952  -0.911 -11.470  1.00  0.00     0.074 A 
ATOM     59  C   UNL     1       3.776  -0.158 -11.842  1.00  0.00     0.031 C 
ATOM     60  C   UNL     1       5.728  -2.021  -6.449  1.00  0.00     0.029 A 
ATOM     61  C   UNL     1       4.613  -2.736  -5.857  1.00  0.00     0.049 A 
ATOM     62  H   UNL     1       2.630  -1.907  -5.736  1.00  0.00     0.167 HD
ATOM     63  C   UNL     1       6.217  -1.026 -11.966  1.00  0.00     0.037 A 
ATOM     64  C   UNL     1       4.555  -4.084  -5.659  1.00  0.00     0.037 A 
ATOM     65  C   UNL     1       7.054  -1.859 -11.106  1.00  0.00     0.049 A 
ATOM     66  C   UNL     1       5.450  -4.877  -6.584  1.00  0.00     0.074 A 
ATOM     67  C   UNL     1       7.964  -1.553 -10.107  1.00  0.00     0.029 A 
ATOM     68  N   UNL     1       6.780  -3.217 -10.983  1.00  0.00    -0.354 N 
ATOM     69  N   UNL     1       6.013  -4.380  -7.650  1.00  0.00    -0.248 NA
ATOM     70  C   UNL     1       5.744  -6.299  -6.413  1.00  0.00     0.031 C 
ATOM     71  C   UNL     1       8.193  -2.723  -9.344  1.00  0.00     0.029 A 
ATOM     72  C   UNL     1       7.436  -3.746  -9.888  1.00  0.00     0.049 A 
ATOM     73  H   UNL     1       6.199  -3.730 -11.591  1.00  0.00     0.167 HD
ATOM     74  C   UNL     1       6.673  -5.374  -8.326  1.00  0.00     0.074 A 
ATOM     75  C   UNL     1       6.505  -6.549  -7.493  1.00  0.00     0.031 C 
ATOM     76  C   UNL     1       7.282  -5.147  -9.527  1.00  0.00     0.037 A 
BRANCH  63  77
ATOM     77  C   UNL     1       6.747  -0.113 -13.047  1.00  0.00     0.057 A 
ATOM     78  C   UNL     1       8.081   0.336 -13.032  1.00  0.00     0.134 A 
ATOM     79  C   UNL     1       5.969   0.417 -14.090  1.00  0.00     0.134 A 
ATOM     80  F   UNL     1       8.986  -0.165 -12.183  1.00  0.00    -0.206 F 
ATOM     81  C   UNL     1       8.557   1.336 -13.890  1.00  0.00     0.040 A 
ATOM     82  C   UNL     1       6.411   1.461 -14.916  1.00  0.00     0.040 A 
ATOM     83  F   UNL     1       4.761  -0.085 -14.382  1.00  0.00    -0.206 F 
ATOM     84  C   UNL     1       7.708   1.938 -14.805  1.00  0.00     0.006 A 
ENDBRANCH  63  77
BRANCH  64  85
ATOM     85  C   UNL     1       3.236  -4.529  -5.140  1.00  0.00     0.057 A 
ATOM     86  C   UNL     1       2.833  -4.066  -3.874  1.00  0.00     0.134 A 
ATOM     87  C   UNL     1       2.240  -5.008  -5.993  1.00  0.00     0.134 A 
ATOM     88  F   UNL     1       3.744  -3.601  -3.004  1.00  0.00    -0.206 F 
ATOM     89  C   UNL     1       1.485  -3.942  -3.530  1.00  0.00     0.040 A 
ATOM     90  C   UNL     1       0.887  -4.906  -5.649  1.00  0.00     0.040 A 
ATOM     91  F   UNL     1       2.546  -5.457  -7.218  1.00  0.00    -0.206 F 
ATOM     92  C   UNL     1       0.505  -4.326  -4.439  1.00  0.00     0.006 A 
ENDBRANCH  64  85
BRANCH  76  93
ATOM     93  C   UNL     1       7.862  -6.203 -10.435  1.00  0.00     0.057 A 
ATOM     94  C   UNL     1       7.363  -7.509 -10.545  1.00  0.00     0.134 A 
ATOM     95  C   UNL     1       8.886  -5.872 -11.350  1.00  0.00     0.134 A 
ATOM     96  F   UNL     1       6.316  -7.922  -9.818  1.00  0.00    -0.206 F 
ATOM     97  C   UNL     1       7.888  -8.438 -11.454  1.00  0.00     0.040 A 
ATOM     98  C   UNL     1       9.382  -6.774 -12.295  1.00  0.00     0.040 A 
ATOM     99  F   UNL     1       9.436  -4.649 -11.377  1.00  0.00    -0.206 F 
ATOM    100  C   UNL     1       8.893  -8.070 -12.339  1.00  0.00     0.006 A 
ENDBRANCH  76  93
ENDBRANCH  50  51
ENDBRANCH  42  45
ENDBRANCH  40  41
ENDBRANCH  39  40
ENDBRANCH   1  39
TORSDOF 16
