REMARK SMILES O=C(NCCCNC(=O)[C@@H](Cc1ccc(F)cc1)NC(=O)c1ccn(C2CCCC2)n1)c1ccc(-c2c3nc(c(-c4c(F)cccc4F)c4ccc([nH]4)c(-c4c(F)cccc4F)c4nc(c(-c5c(F)cccc5F)c5ccc2[nH]5)C=C4)C=C3)cc1
REMARK SMILES IDX 5 1 4 2 3 3 1 4 2 5 32 7 33 8 85 9 34 10 84 11 35 12 36 13
REMARK SMILES IDX 37 14 78 15 38 16 83 17 77 18 79 19 39 20 82 21 76 22 75 23
REMARK SMILES IDX 40 25 66 26 49 27 65 28 50 29 53 30 64 31 80 32 51 33 52 34
REMARK SMILES IDX 63 36 81 37 54 38 41 39 42 40 47 41 43 42 44 43 46 44 48 45
REMARK SMILES IDX 45 46 67 47 68 48 73 49 69 50 70 51 72 52 74 53 71 54 55 55
REMARK SMILES IDX 56 56 61 57 57 58 58 59 60 60 62 61 59 62 6 63 7 64 8 65
REMARK SMILES IDX 9 67 10 68 11 69 12 70 13 71 18 72 14 73 17 74 15 75 16 76
REMARK SMILES IDX 19 77 20 78 21 80 22 81 23 82 31 83 24 84 25 85 26 86 27 87
REMARK SMILES IDX 30 88 28 89 29 90
REMARK H PARENT 3 6 79 24 53 35 7 66 19 79
REMARK Flexibility Score: inf
ROOT
ATOM      1  C   UNL     1       4.290   1.698   1.157  1.00  0.00     0.042 C 
ENDROOT
BRANCH   1   2
ATOM      2  C   UNL     1       3.980   0.220   1.348  1.00  0.00     0.118 C 
BRANCH   2   3
ATOM      3  N   UNL     1       2.577  -0.110   1.252  1.00  0.00    -0.352 N 
ATOM      4  O   UNL     1       0.564  -0.652   0.548  1.00  0.00    -0.269 OA
ATOM      5  C   UNL     1       1.688  -0.256   0.224  1.00  0.00     0.251 C 
ATOM      6  H   UNL     1       2.165  -0.266   2.133  1.00  0.00     0.163 HD
BRANCH   5   7
ATOM      7  C   UNL     1       1.942   0.049  -1.217  1.00  0.00     0.039 A 
ATOM      8  C   UNL     1       3.185   0.209  -1.836  1.00  0.00     0.014 A 
ATOM      9  C   UNL     1       0.790   0.139  -2.021  1.00  0.00     0.014 A 
ATOM     10  C   UNL     1       3.268   0.477  -3.213  1.00  0.00     0.010 A 
ATOM     11  C   UNL     1       0.869   0.389  -3.389  1.00  0.00     0.010 A 
ATOM     12  C   UNL     1       2.111   0.576  -3.995  1.00  0.00    -0.014 A 
BRANCH  12  13
ATOM     13  C   UNL     1       2.217   0.744  -5.456  1.00  0.00     0.031 A 
ATOM     14  C   UNL     1       2.790  -0.402  -6.240  1.00  0.00     0.074 A 
ATOM     15  C   UNL     1       1.585   1.723  -6.141  1.00  0.00     0.049 A 
ATOM     16  N   UNL     1       3.686  -0.388  -7.180  1.00  0.00    -0.248 NA
ATOM     17  C   UNL     1       2.268  -1.746  -5.941  1.00  0.00     0.031 C 
ATOM     18  C   UNL     1       0.657   2.728  -5.616  1.00  0.00     0.029 A 
ATOM     19  N   UNL     1       1.541   1.938  -7.492  1.00  0.00    -0.354 N 
ATOM     20  C   UNL     1       3.746  -1.689  -7.686  1.00  0.00     0.074 A 
ATOM     21  C   UNL     1       2.899  -2.496  -6.845  1.00  0.00     0.031 C 
ATOM     22  C   UNL     1      -0.015   3.293  -6.644  1.00  0.00     0.029 A 
ATOM     23  C   UNL     1       0.523   2.789  -7.897  1.00  0.00     0.049 A 
ATOM     24  H   UNL     1       2.176   1.525  -8.121  1.00  0.00     0.167 HD
ATOM     25  C   UNL     1       4.380  -2.023  -8.845  1.00  0.00     0.037 A 
ATOM     26  C   UNL     1       0.103   3.019  -9.164  1.00  0.00     0.037 A 
ATOM     27  C   UNL     1       5.312  -1.025  -9.278  1.00  0.00     0.049 A 
ATOM     28  C   UNL     1       1.161   2.572 -10.097  1.00  0.00     0.074 A 
ATOM     29  C   UNL     1       6.463  -0.470  -8.755  1.00  0.00     0.029 A 
ATOM     30  N   UNL     1       4.979  -0.232 -10.345  1.00  0.00    -0.354 N 
ATOM     31  N   UNL     1       2.311   3.160 -10.263  1.00  0.00    -0.248 NA
ATOM     32  C   UNL     1       1.053   1.238 -10.667  1.00  0.00     0.031 C 
ATOM     33  C   UNL     1       6.471   0.877  -9.219  1.00  0.00     0.029 A 
ATOM     34  C   UNL     1       5.327   1.047  -9.999  1.00  0.00     0.049 A 
ATOM     35  H   UNL     1       4.570  -0.524 -11.191  1.00  0.00     0.167 HD
ATOM     36  C   UNL     1       3.185   2.137 -10.589  1.00  0.00     0.074 A 
ATOM     37  C   UNL     1       2.334   1.013 -10.958  1.00  0.00     0.031 C 
ATOM     38  C   UNL     1       4.508   2.207 -10.263  1.00  0.00     0.037 A 
BRANCH  25  39
ATOM     39  C   UNL     1       3.985  -3.180  -9.723  1.00  0.00     0.057 A 
ATOM     40  C   UNL     1       2.657  -3.637  -9.832  1.00  0.00     0.134 A 
ATOM     41  C   UNL     1       4.881  -3.701 -10.672  1.00  0.00     0.134 A 
ATOM     42  F   UNL     1       1.677  -3.131  -9.071  1.00  0.00    -0.206 F 
ATOM     43  C   UNL     1       2.255  -4.574 -10.789  1.00  0.00     0.040 A 
ATOM     44  C   UNL     1       4.481  -4.606 -11.665  1.00  0.00     0.040 A 
ATOM     45  F   UNL     1       6.162  -3.301 -10.702  1.00  0.00    -0.206 F 
ATOM     46  C   UNL     1       3.165  -5.050 -11.722  1.00  0.00     0.006 A 
ENDBRANCH  25  39
BRANCH  26  47
ATOM     47  C   UNL     1      -1.250   3.375  -9.651  1.00  0.00     0.057 A 
ATOM     48  C   UNL     1      -2.410   2.943  -8.987  1.00  0.00     0.134 A 
ATOM     49  C   UNL     1      -1.440   3.917 -10.931  1.00  0.00     0.134 A 
ATOM     50  F   UNL     1      -2.340   2.338  -7.792  1.00  0.00    -0.206 F 
ATOM     51  C   UNL     1      -3.681   3.031  -9.564  1.00  0.00     0.040 A 
ATOM     52  C   UNL     1      -2.706   4.000 -11.526  1.00  0.00     0.040 A 
ATOM     53  F   UNL     1      -0.392   4.322 -11.664  1.00  0.00    -0.206 F 
ATOM     54  C   UNL     1      -3.831   3.546 -10.845  1.00  0.00     0.006 A 
ENDBRANCH  26  47
BRANCH  38  55
ATOM     55  C   UNL     1       5.062   3.537  -9.834  1.00  0.00     0.057 A 
ATOM     56  C   UNL     1       6.165   4.064 -10.516  1.00  0.00     0.134 A 
ATOM     57  C   UNL     1       4.642   4.219  -8.683  1.00  0.00     0.134 A 
ATOM     58  F   UNL     1       6.662   3.432 -11.591  1.00  0.00    -0.206 F 
ATOM     59  C   UNL     1       6.817   5.220 -10.079  1.00  0.00     0.040 A 
ATOM     60  C   UNL     1       5.264   5.396  -8.256  1.00  0.00     0.040 A 
ATOM     61  F   UNL     1       3.664   3.735  -7.907  1.00  0.00    -0.206 F 
ATOM     62  C   UNL     1       6.361   5.896  -8.951  1.00  0.00     0.006 A 
ENDBRANCH  38  55
ENDBRANCH  12  13
ENDBRANCH   5   7
ENDBRANCH   2   3
ENDBRANCH   1   2
BRANCH   1  63
ATOM     63  C   UNL     1       3.877   2.625   2.303  1.00  0.00     0.117 C 
BRANCH  63  64
ATOM     64  N   UNL     1       4.804   2.537   3.418  1.00  0.00    -0.354 N 
ATOM     65  C   UNL     1       5.839   3.313   3.832  1.00  0.00     0.242 C 
ATOM     66  H   UNL     1       4.652   1.752   3.991  1.00  0.00     0.163 HD
ATOM     67  O   UNL     1       6.629   2.768   4.616  1.00  0.00    -0.273 OA
BRANCH  65  68
ATOM     68  C   UNL     1       6.151   4.744   3.327  1.00  0.00     0.176 C 
BRANCH  68  69
ATOM     69  C   UNL     1       7.082   4.800   2.096  1.00  0.00     0.070 C 
BRANCH  69  70
ATOM     70  C   UNL     1       6.557   4.375   0.744  1.00  0.00    -0.045 A 
ATOM     71  C   UNL     1       7.161   3.296   0.072  1.00  0.00     0.007 A 
ATOM     72  C   UNL     1       5.521   5.072   0.102  1.00  0.00     0.007 A 
ATOM     73  C   UNL     1       6.690   2.879  -1.175  1.00  0.00     0.039 A 
ATOM     74  C   UNL     1       5.047   4.650  -1.143  1.00  0.00     0.039 A 
ATOM     75  C   UNL     1       5.628   3.552  -1.765  1.00  0.00     0.123 A 
ATOM     76  F   UNL     1       5.153   3.129  -2.942  1.00  0.00    -0.207 F 
ENDBRANCH  69  70
ENDBRANCH  68  69
BRANCH  68  77
ATOM     77  N   UNL     1       5.018   5.665   3.260  1.00  0.00    -0.339 N 
ATOM     78  C   UNL     1       4.761   6.792   4.017  1.00  0.00     0.272 C 
ATOM     79  H   UNL     1       4.341   5.452   2.578  1.00  0.00     0.164 HD
ATOM     80  O   UNL     1       3.641   7.291   3.905  1.00  0.00    -0.267 OA
BRANCH  78  81
ATOM     81  C   UNL     1       5.803   7.360   4.894  1.00  0.00     0.150 A 
ATOM     82  C   UNL     1       7.174   7.606   4.602  1.00  0.00     0.056 A 
ATOM     83  N   UNL     1       5.516   7.776   6.144  1.00  0.00    -0.167 NA
ATOM     84  C   UNL     1       7.712   8.143   5.747  1.00  0.00     0.110 A 
ATOM     85  N   UNL     1       6.681   8.239   6.635  1.00  0.00    -0.269 N 
BRANCH  85  86
ATOM     86  C   UNL     1       6.760   8.790   7.971  1.00  0.00     0.107 C 
ATOM     87  C   UNL     1       5.920  10.047   8.189  1.00  0.00     0.027 C 
ATOM     88  C   UNL     1       6.275   7.860   9.083  1.00  0.00     0.027 C 
ATOM     89  C   UNL     1       5.908  10.202   9.704  1.00  0.00     0.002 C 
ATOM     90  C   UNL     1       6.006   8.784  10.271  1.00  0.00     0.002 C 
ENDBRANCH  85  86
ENDBRANCH  78  81
ENDBRANCH  68  77
ENDBRANCH  65  68
ENDBRANCH  63  64
ENDBRANCH   1  63
TORSDOF 15
