REMARK SMILES Cc1ccc(S(=O)(=O)Nc2cc(C(=O)NCCCNC(=O)c3ccc(-c4c5nc(c(-c6c(F)cccc6F)c6ccc([nH]6)c(-c6c(F)cccc6F)c6nc(c(-c7c(F)cccc7F)c7ccc4[nH]7)C=C6)C=C5)cc3)cnc2N2CCCC2)c(C)c1
REMARK SMILES IDX 16 1 15 2 13 3 14 4 12 6 10 7 11 8 78 9 77 10 76 11 9 12
REMARK SMILES IDX 6 14 7 15 8 16 5 17 1 18 2 19 3 20 86 21 4 22 84 23 85 24
REMARK SMILES IDX 79 25 80 26 83 27 81 28 82 29 17 30 18 31 19 32 20 33 21 35
REMARK SMILES IDX 22 36 23 37 75 38 24 39 74 40 25 41 26 42 27 43 68 44 28 45
REMARK SMILES IDX 73 46 67 47 69 48 29 49 72 50 66 51 65 52 30 54 56 55 39 56
REMARK SMILES IDX 55 57 40 58 43 59 54 60 70 61 41 62 42 63 53 65 71 66 44 67
REMARK SMILES IDX 31 68 32 69 37 70 33 71 34 72 36 73 38 74 35 75 57 76 58 77
REMARK SMILES IDX 63 78 59 79 60 80 62 81 64 82 61 83 45 84 46 85 51 86 47 87
REMARK SMILES IDX 48 88 50 89 52 90 49 91
REMARK H PARENT 15 5 9 13 19 34 69 53 43 64
REMARK Flexibility Score: inf
ROOT
ATOM      1  C   UNL     1       1.189  -1.707   2.579  1.00  0.00     0.118 C 
ENDROOT
BRANCH   1   2
ATOM      2  N   UNL     1       2.065  -2.864   2.638  1.00  0.00    -0.352 N 
ATOM      3  C   UNL     1       2.030  -4.077   1.996  1.00  0.00     0.252 C 
ATOM      4  O   UNL     1       2.972  -4.848   2.178  1.00  0.00    -0.269 OA
ATOM      5  H   UNL     1       2.825  -2.759   3.254  1.00  0.00     0.163 HD
BRANCH   3   6
ATOM      6  C   UNL     1       0.953  -4.476   1.060  1.00  0.00     0.060 A 
ATOM      7  C   UNL     1      -1.206  -4.320   0.029  1.00  0.00     0.092 A 
ATOM      8  C   UNL     1      -0.345  -3.983   1.068  1.00  0.00     0.046 A 
ATOM      9  C   UNL     1      -0.830  -5.314  -0.903  1.00  0.00     0.153 A 
ATOM     10  N   UNL     1       0.393  -5.876  -0.859  1.00  0.00    -0.236 NA
ATOM     11  C   UNL     1       1.262  -5.423   0.086  1.00  0.00     0.127 A 
BRANCH   7  12
ATOM     12  N   UNL     1      -2.475  -3.697  -0.131  1.00  0.00    -0.276 N 
ATOM     13  H   UNL     1      -3.236  -4.279  -0.358  1.00  0.00     0.180 HD
BRANCH  12  14
ATOM     14  S   UNL     1      -2.784  -2.069   0.031  1.00  0.00     0.262 S 
ATOM     15  O   UNL     1      -2.927  -1.831   1.458  1.00  0.00    -0.201 OA
ATOM     16  O   UNL     1      -3.865  -1.802  -0.889  1.00  0.00    -0.201 OA
BRANCH  14  17
ATOM     17  C   UNL     1      -1.398  -1.055  -0.496  1.00  0.00     0.090 A 
ATOM     18  C   UNL     1       2.341   1.094  -0.452  1.00  0.00     0.044 C 
ATOM     19  C   UNL     1       1.028   0.374  -0.554  1.00  0.00    -0.051 A 
ATOM     20  C   UNL     1       0.940  -0.895  -1.132  1.00  0.00     0.005 A 
ATOM     21  C   UNL     1      -0.143   0.985  -0.099  1.00  0.00     0.008 A 
ATOM     22  C   UNL     1      -0.272  -1.599  -1.122  1.00  0.00     0.023 A 
ATOM     23  C   UNL     1      -1.367   0.293  -0.078  1.00  0.00    -0.030 A 
ATOM     24  C   UNL     1      -2.578   1.062   0.381  1.00  0.00     0.046 C 
ENDBRANCH  14  17
ENDBRANCH  12  14
ENDBRANCH   7  12
BRANCH   9  25
ATOM     25  N   UNL     1      -1.733  -5.774  -1.824  1.00  0.00    -0.355 N 
ATOM     26  C   UNL     1      -2.276  -5.050  -2.956  1.00  0.00     0.118 C 
ATOM     27  C   UNL     1      -2.038  -7.194  -1.888  1.00  0.00     0.118 C 
ATOM     28  C   UNL     1      -3.555  -5.842  -3.211  1.00  0.00     0.023 C 
ATOM     29  C   UNL     1      -3.111  -7.285  -2.982  1.00  0.00     0.023 C 
ENDBRANCH   9  25
ENDBRANCH   3   6
ENDBRANCH   1   2
BRANCH   1  30
ATOM     30  C   UNL     1       0.201  -1.687   3.741  1.00  0.00     0.042 C 
BRANCH  30  31
ATOM     31  C   UNL     1       0.818  -1.170   5.032  1.00  0.00     0.118 C 
BRANCH  31  32
ATOM     32  N   UNL     1       1.054   0.266   4.984  1.00  0.00    -0.352 N 
ATOM     33  C   UNL     1       0.724   1.238   5.893  1.00  0.00     0.251 C 
ATOM     34  H   UNL     1       1.521   0.586   4.179  1.00  0.00     0.163 HD
ATOM     35  O   UNL     1       0.843   2.420   5.582  1.00  0.00    -0.269 OA
BRANCH  33  36
ATOM     36  C   UNL     1       0.215   0.877   7.235  1.00  0.00     0.039 A 
ATOM     37  C   UNL     1      -0.805   1.654   7.793  1.00  0.00     0.014 A 
ATOM     38  C   UNL     1       0.767  -0.179   7.966  1.00  0.00     0.014 A 
ATOM     39  C   UNL     1      -1.294   1.352   9.066  1.00  0.00     0.010 A 
ATOM     40  C   UNL     1       0.233  -0.522   9.206  1.00  0.00     0.010 A 
ATOM     41  C   UNL     1      -0.789   0.251   9.775  1.00  0.00    -0.014 A 
BRANCH  41  42
ATOM     42  C   UNL     1      -1.289  -0.077  11.132  1.00  0.00     0.031 A 
ATOM     43  C   UNL     1      -0.377   0.051  12.321  1.00  0.00     0.074 A 
ATOM     44  C   UNL     1      -2.544  -0.537  11.290  1.00  0.00     0.049 A 
ATOM     45  N   UNL     1      -0.607  -0.240  13.576  1.00  0.00    -0.248 NA
ATOM     46  C   UNL     1       0.985   0.546  12.059  1.00  0.00     0.031 C 
ATOM     47  C   UNL     1      -3.509  -0.754  10.210  1.00  0.00     0.029 A 
ATOM     48  N   UNL     1      -3.220  -0.913  12.422  1.00  0.00    -0.354 N 
ATOM     49  C   UNL     1       0.584   0.010  14.246  1.00  0.00     0.074 A 
ATOM     50  C   UNL     1       1.547   0.438  13.254  1.00  0.00     0.031 C 
ATOM     51  C   UNL     1      -4.660  -1.203  10.736  1.00  0.00     0.029 A 
ATOM     52  C   UNL     1      -4.507  -1.328  12.182  1.00  0.00     0.049 A 
ATOM     53  H   UNL     1      -2.821  -0.886  13.322  1.00  0.00     0.167 HD
ATOM     54  C   UNL     1       0.848  -0.089  15.570  1.00  0.00     0.037 A 
ATOM     55  C   UNL     1      -5.455  -1.757  13.035  1.00  0.00     0.037 A 
ATOM     56  C   UNL     1      -0.122  -0.469  16.562  1.00  0.00     0.049 A 
ATOM     57  C   UNL     1      -5.154  -1.811  14.505  1.00  0.00     0.074 A 
ATOM     58  C   UNL     1       0.029  -0.536  17.936  1.00  0.00     0.029 A 
ATOM     59  N   UNL     1      -1.428  -0.840  16.283  1.00  0.00    -0.354 N 
ATOM     60  N   UNL     1      -4.041  -1.519  15.131  1.00  0.00    -0.248 NA
ATOM     61  C   UNL     1      -6.246  -2.245  15.389  1.00  0.00     0.031 C 
ATOM     62  C   UNL     1      -1.183  -0.969  18.488  1.00  0.00     0.029 A 
ATOM     63  C   UNL     1      -2.094  -1.142  17.459  1.00  0.00     0.049 A 
ATOM     64  H   UNL     1      -1.824  -0.881  15.383  1.00  0.00     0.167 HD
ATOM     65  C   UNL     1      -4.302  -1.711  16.481  1.00  0.00     0.074 A 
ATOM     66  C   UNL     1      -5.684  -2.134  16.584  1.00  0.00     0.031 C 
ATOM     67  C   UNL     1      -3.472  -1.552  17.540  1.00  0.00     0.037 A 
BRANCH  54  68
ATOM     68  C   UNL     1       2.242   0.231  16.019  1.00  0.00     0.057 A 
ATOM     69  C   UNL     1       2.726   1.545  16.042  1.00  0.00     0.134 A 
ATOM     70  C   UNL     1       3.105  -0.784  16.450  1.00  0.00     0.134 A 
ATOM     71  F   UNL     1       1.953   2.561  15.627  1.00  0.00    -0.206 F 
ATOM     72  C   UNL     1       4.028   1.837  16.452  1.00  0.00     0.040 A 
ATOM     73  C   UNL     1       4.402  -0.503  16.884  1.00  0.00     0.040 A 
ATOM     74  F   UNL     1       2.703  -2.064  16.456  1.00  0.00    -0.206 F 
ATOM     75  C   UNL     1       4.868   0.811  16.880  1.00  0.00     0.006 A 
ENDBRANCH  54  68
BRANCH  55  76
ATOM     76  C   UNL     1      -6.795  -2.130  12.521  1.00  0.00     0.057 A 
ATOM     77  C   UNL     1      -7.899  -1.295  12.723  1.00  0.00     0.134 A 
ATOM     78  C   UNL     1      -7.003  -3.320  11.815  1.00  0.00     0.134 A 
ATOM     79  F   UNL     1      -7.762  -0.150  13.408  1.00  0.00    -0.206 F 
ATOM     80  C   UNL     1      -9.168  -1.635  12.252  1.00  0.00     0.040 A 
ATOM     81  C   UNL     1      -8.262  -3.664  11.322  1.00  0.00     0.040 A 
ATOM     82  F   UNL     1      -5.981  -4.158  11.585  1.00  0.00    -0.206 F 
ATOM     83  C   UNL     1      -9.350  -2.822  11.545  1.00  0.00     0.006 A 
ENDBRANCH  55  76
BRANCH  67  84
ATOM     84  C   UNL     1      -4.046  -1.808  18.900  1.00  0.00     0.057 A 
ATOM     85  C   UNL     1      -4.274  -3.108  19.368  1.00  0.00     0.134 A 
ATOM     86  C   UNL     1      -4.343  -0.745  19.760  1.00  0.00     0.134 A 
ATOM     87  F   UNL     1      -4.021  -4.167  18.584  1.00  0.00    -0.206 F 
ATOM     88  C   UNL     1      -4.795  -3.340  20.641  1.00  0.00     0.040 A 
ATOM     89  C   UNL     1      -4.846  -0.965  21.042  1.00  0.00     0.040 A 
ATOM     90  F   UNL     1      -4.141   0.523  19.371  1.00  0.00    -0.206 F 
ATOM     91  C   UNL     1      -5.078  -2.266  21.484  1.00  0.00     0.006 A 
ENDBRANCH  67  84
ENDBRANCH  41  42
ENDBRANCH  33  36
ENDBRANCH  31  32
ENDBRANCH  30  31
ENDBRANCH   1  30
TORSDOF 14
