REMARK SMILES COc1cccc(C(=O)N[C@H]2C=C[C@@H](C(=O)NCCCNC(=O)c3ccc(-c4c5nc(c(-c6c(F)cccc6F)c6ccc([nH]6)c(-c6c(F)cccc6F)c6nc(c(-c7c(F)cccc7F)c7ccc4[nH]7)C=C6)C=C5)cc3)C2)c1
REMARK SMILES IDX 18 1 17 2 15 3 16 4 14 6 11 7 12 8 78 9 13 10 10 11 8 12
REMARK SMILES IDX 9 13 7 15 3 16 4 17 79 18 5 19 6 20 2 21 1 22 19 23 20 24
REMARK SMILES IDX 21 25 22 26 23 28 24 29 25 30 77 31 26 32 76 33 27 34 28 35
REMARK SMILES IDX 29 36 70 37 30 38 75 39 69 40 71 41 31 42 74 43 68 44 67 45
REMARK SMILES IDX 32 47 58 48 41 49 57 50 42 51 45 52 56 53 72 54 43 55 44 56
REMARK SMILES IDX 55 58 73 59 46 60 33 61 34 62 39 63 35 64 36 65 38 66 40 67
REMARK SMILES IDX 37 68 59 69 60 70 65 71 61 72 62 73 64 74 66 75 63 76 47 77
REMARK SMILES IDX 48 78 53 79 49 80 50 81 52 82 54 83 51 84
REMARK H PARENT 17 5 10 14 21 27 71 46 45 57
REMARK Flexibility Score: inf
ROOT
ATOM      1  C   UNL     1       2.816   1.415   3.559  1.00  0.00     0.117 C 
ENDROOT
BRANCH   1   2
ATOM      2  N   UNL     1       2.907   2.478   2.591  1.00  0.00    -0.356 N 
ATOM      3  C   UNL     1       3.381   2.442   1.319  1.00  0.00     0.227 C 
ATOM      4  O   UNL     1       3.044   3.380   0.585  1.00  0.00    -0.274 OA
ATOM      5  H   UNL     1       2.579   3.355   2.895  1.00  0.00     0.163 HD
BRANCH   3   6
ATOM      6  C   UNL     1       4.256   1.312   0.744  1.00  0.00     0.103 C 
ATOM      7  C   UNL     1       4.844  -0.993   1.397  1.00  0.00     0.106 C 
ATOM      8  C   UNL     1       3.819  -0.975   0.335  1.00  0.00    -0.006 C 
ATOM      9  C   UNL     1       5.186   0.487   1.644  1.00  0.00     0.047 C 
ATOM     10  C   UNL     1       3.478   0.272  -0.010  1.00  0.00    -0.016 C 
BRANCH   7  11
ATOM     11  N   UNL     1       4.523  -1.820   2.558  1.00  0.00    -0.346 N 
ATOM     12  C   UNL     1       3.536  -2.155   3.445  1.00  0.00     0.251 C 
ATOM     13  O   UNL     1       3.928  -2.850   4.392  1.00  0.00    -0.269 OA
ATOM     14  H   UNL     1       5.328  -2.336   2.792  1.00  0.00     0.164 HD
BRANCH  12  15
ATOM     15  C   UNL     1       2.094  -1.759   3.453  1.00  0.00     0.043 A 
ATOM     16  C   UNL     1       0.037  -0.864   2.504  1.00  0.00     0.119 A 
ATOM     17  C   UNL     1      -0.548  -0.837   3.770  1.00  0.00     0.046 A 
ATOM     18  C   UNL     1       1.338  -1.363   2.346  1.00  0.00     0.060 A 
ATOM     19  C   UNL     1       0.148  -1.315   4.872  1.00  0.00     0.005 A 
ATOM     20  C   UNL     1       1.460  -1.764   4.714  1.00  0.00     0.014 A 
BRANCH  16  21
ATOM     21  O   UNL     1      -0.747  -0.325   1.521  1.00  0.00    -0.497 OA
ATOM     22  C   UNL     1      -0.393  -0.602   0.174  1.00  0.00     0.278 C 
ENDBRANCH  16  21
ENDBRANCH  12  15
ENDBRANCH   7  11
ENDBRANCH   3   6
ENDBRANCH   1   2
BRANCH   1  23
ATOM     23  C   UNL     1       3.738   1.569   4.756  1.00  0.00     0.042 C 
BRANCH  23  24
ATOM     24  C   UNL     1       3.256   2.598   5.760  1.00  0.00     0.118 C 
BRANCH  24  25
ATOM     25  N   UNL     1       2.072   2.168   6.494  1.00  0.00    -0.352 N 
ATOM     26  C   UNL     1       1.883   1.965   7.840  1.00  0.00     0.251 C 
ATOM     27  H   UNL     1       1.280   1.995   5.936  1.00  0.00     0.163 HD
ATOM     28  O   UNL     1       0.835   1.458   8.234  1.00  0.00    -0.269 OA
BRANCH  26  29
ATOM     29  C   UNL     1       2.943   2.313   8.815  1.00  0.00     0.039 A 
ATOM     30  C   UNL     1       3.169   1.462   9.901  1.00  0.00     0.014 A 
ATOM     31  C   UNL     1       3.719   3.464   8.668  1.00  0.00     0.014 A 
ATOM     32  C   UNL     1       4.223   1.721  10.781  1.00  0.00     0.010 A 
ATOM     33  C   UNL     1       4.837   3.656   9.472  1.00  0.00     0.010 A 
ATOM     34  C   UNL     1       5.099   2.793  10.545  1.00  0.00    -0.014 A 
BRANCH  34  35
ATOM     35  C   UNL     1       6.283   3.038  11.410  1.00  0.00     0.031 A 
ATOM     36  C   UNL     1       6.420   4.340  12.154  1.00  0.00     0.074 A 
ATOM     37  C   UNL     1       7.269   2.122  11.474  1.00  0.00     0.049 A 
ATOM     38  N   UNL     1       7.410   4.772  12.894  1.00  0.00    -0.248 NA
ATOM     39  C   UNL     1       5.311   5.299  12.021  1.00  0.00     0.031 C 
ATOM     40  C   UNL     1       7.285   0.841  10.764  1.00  0.00     0.029 A 
ATOM     41  N   UNL     1       8.455   2.131  12.165  1.00  0.00    -0.354 N 
ATOM     42  C   UNL     1       7.048   6.051  13.299  1.00  0.00     0.074 A 
ATOM     43  C   UNL     1       5.784   6.354  12.666  1.00  0.00     0.031 C 
ATOM     44  C   UNL     1       8.404   0.173  11.086  1.00  0.00     0.029 A 
ATOM     45  C   UNL     1       9.207   0.994  11.986  1.00  0.00     0.049 A 
ATOM     46  H   UNL     1       8.740   2.881  12.736  1.00  0.00     0.167 HD
ATOM     47  C   UNL     1       7.693   6.889  14.146  1.00  0.00     0.037 A 
ATOM     48  C   UNL     1      10.409   0.654  12.488  1.00  0.00     0.037 A 
ATOM     49  C   UNL     1       8.941   6.579  14.792  1.00  0.00     0.049 A 
ATOM     50  C   UNL     1      11.118   1.611  13.408  1.00  0.00     0.074 A 
ATOM     51  C   UNL     1       9.651   7.337  15.706  1.00  0.00     0.029 A 
ATOM     52  N   UNL     1       9.667   5.415  14.589  1.00  0.00    -0.354 N 
ATOM     53  N   UNL     1      10.733   2.789  13.834  1.00  0.00    -0.248 NA
ATOM     54  C   UNL     1      12.428   1.185  13.920  1.00  0.00     0.031 C 
ATOM     55  C   UNL     1      10.831   6.654  16.018  1.00  0.00     0.029 A 
ATOM     56  C   UNL     1      10.829   5.445  15.343  1.00  0.00     0.049 A 
ATOM     57  H   UNL     1       9.397   4.676  13.997  1.00  0.00     0.167 HD
ATOM     58  C   UNL     1      11.734   3.230  14.691  1.00  0.00     0.074 A 
ATOM     59  C   UNL     1      12.737   2.186  14.732  1.00  0.00     0.031 C 
ATOM     60  C   UNL     1      11.815   4.394  15.382  1.00  0.00     0.037 A 
BRANCH  47  61
ATOM     61  C   UNL     1       7.051   8.220  14.422  1.00  0.00     0.057 A 
ATOM     62  C   UNL     1       5.851   8.328  15.139  1.00  0.00     0.134 A 
ATOM     63  C   UNL     1       7.645   9.408  13.979  1.00  0.00     0.134 A 
ATOM     64  F   UNL     1       5.221   7.229  15.581  1.00  0.00    -0.206 F 
ATOM     65  C   UNL     1       5.247   9.565  15.372  1.00  0.00     0.040 A 
ATOM     66  C   UNL     1       7.068  10.653  14.235  1.00  0.00     0.040 A 
ATOM     67  F   UNL     1       8.798   9.381  13.294  1.00  0.00    -0.206 F 
ATOM     68  C   UNL     1       5.860  10.733  14.925  1.00  0.00     0.006 A 
ENDBRANCH  47  61
BRANCH  48  69
ATOM     69  C   UNL     1      11.010  -0.664  12.159  1.00  0.00     0.057 A 
ATOM     70  C   UNL     1      11.143  -1.658  13.137  1.00  0.00     0.134 A 
ATOM     71  C   UNL     1      11.478  -0.960  10.873  1.00  0.00     0.134 A 
ATOM     72  F   UNL     1      10.731  -1.427  14.393  1.00  0.00    -0.206 F 
ATOM     73  C   UNL     1      11.738  -2.889  12.855  1.00  0.00     0.040 A 
ATOM     74  C   UNL     1      12.050  -2.197  10.570  1.00  0.00     0.040 A 
ATOM     75  F   UNL     1      11.375  -0.055   9.889  1.00  0.00    -0.206 F 
ATOM     76  C   UNL     1      12.189  -3.163  11.566  1.00  0.00     0.006 A 
ENDBRANCH  48  69
BRANCH  60  77
ATOM     77  C   UNL     1      13.005   4.580  16.278  1.00  0.00     0.057 A 
ATOM     78  C   UNL     1      14.292   4.795  15.770  1.00  0.00     0.134 A 
ATOM     79  C   UNL     1      12.852   4.579  17.671  1.00  0.00     0.134 A 
ATOM     80  F   UNL     1      14.510   4.796  14.446  1.00  0.00    -0.206 F 
ATOM     81  C   UNL     1      15.389   4.975  16.615  1.00  0.00     0.040 A 
ATOM     82  C   UNL     1      13.935   4.788  18.525  1.00  0.00     0.040 A 
ATOM     83  F   UNL     1      11.645   4.388  18.224  1.00  0.00    -0.206 F 
ATOM     84  C   UNL     1      15.210   4.979  17.997  1.00  0.00     0.006 A 
ENDBRANCH  60  77
ENDBRANCH  34  35
ENDBRANCH  26  29
ENDBRANCH  24  25
ENDBRANCH  23  24
ENDBRANCH   1  23
TORSDOF 13
