REMARK SMILES CC(C)COc1cccc(C(=O)Nc2ccc(O)c(C(=O)NCCCNC(=O)c3ccc(-c4c5nc(c(-c6c(F)cccc6F)c6ccc([nH]6)c(-c6c(F)cccc6F)c6nc(c(-c7c(F)cccc7F)c7ccc4[nH]7)C=C6)C=C5)cc3)c2)c1
REMARK SMILES IDX 20 1 21 2 22 3 19 5 14 6 15 7 83 8 16 9 17 10 13 11 11 12
REMARK SMILES IDX 12 13 10 15 6 16 7 17 84 18 8 19 9 20 5 21 4 22 2 23 1 24
REMARK SMILES IDX 3 25 18 26 23 28 24 29 25 30 26 31 27 32 28 34 29 35 30 36
REMARK SMILES IDX 82 37 31 38 81 39 32 40 33 41 34 42 75 43 35 44 80 45 74 46
REMARK SMILES IDX 76 47 36 48 79 49 73 50 72 51 37 53 63 54 46 55 62 56 47 57
REMARK SMILES IDX 50 58 61 59 77 60 48 61 49 62 60 64 78 65 51 66 38 67 39 68
REMARK SMILES IDX 44 69 40 70 41 71 43 72 45 73 42 74 64 75 65 76 70 77 66 78
REMARK SMILES IDX 67 79 69 80 71 81 68 82 52 83 53 84 58 85 54 86 55 87 57 88
REMARK SMILES IDX 59 89 56 90
REMARK H PARENT 22 4 13 14 18 27 26 33 76 52 50 63
REMARK Flexibility Score: inf
ROOT
ATOM      1  C   UNL     1       1.452   3.269   0.363  1.00  0.00     0.255 C 
ATOM      2  O   UNL     1       1.587   4.163  -0.478  1.00  0.00    -0.269 OA
ATOM      3  N   UNL     1       0.457   3.451   1.285  1.00  0.00    -0.352 N 
ATOM      4  H   UNL     1      -0.071   4.271   1.146  1.00  0.00     0.163 HD
ENDROOT
BRANCH   1   5
ATOM      5  C   UNL     1       2.312   2.046   0.245  1.00  0.00     0.083 A 
ATOM      6  C   UNL     1       3.057  -0.176   0.948  1.00  0.00     0.042 A 
ATOM      7  C   UNL     1       3.783  -0.317  -0.235  1.00  0.00     0.030 A 
ATOM      8  C   UNL     1       2.423   1.041   1.220  1.00  0.00     0.043 A 
ATOM      9  C   UNL     1       3.747   0.692  -1.196  1.00  0.00     0.049 A 
ATOM     10  C   UNL     1       2.992   1.843  -0.971  1.00  0.00     0.128 A 
BRANCH   6  11
ATOM     11  N   UNL     1       2.979  -1.290   1.805  1.00  0.00    -0.322 N 
ATOM     12  C   UNL     1       2.025  -1.718   2.713  1.00  0.00     0.255 C 
ATOM     13  O   UNL     1       2.364  -2.558   3.550  1.00  0.00    -0.269 OA
ATOM     14  H   UNL     1       3.761  -1.884   1.747  1.00  0.00     0.170 HD
BRANCH  12  15
ATOM     15  C   UNL     1       0.584  -1.310   2.674  1.00  0.00     0.043 A 
ATOM     16  C   UNL     1      -1.348  -0.343   1.544  1.00  0.00     0.120 A 
ATOM     17  C   UNL     1      -2.084  -0.442   2.725  1.00  0.00     0.046 A 
ATOM     18  C   UNL     1      -0.046  -0.844   1.513  1.00  0.00     0.060 A 
ATOM     19  C   UNL     1      -1.515  -1.020   3.862  1.00  0.00     0.005 A 
ATOM     20  C   UNL     1      -0.179  -1.432   3.843  1.00  0.00     0.014 A 
BRANCH  16  21
ATOM     21  O   UNL     1      -1.826   0.532   0.605  1.00  0.00    -0.493 OA
BRANCH  21  22
ATOM     22  C   UNL     1      -1.862   0.151  -0.778  1.00  0.00     0.232 C 
BRANCH  22  23
ATOM     23  C   UNL     1      -0.611   0.565  -1.587  1.00  0.00     0.020 C 
ATOM     24  C   UNL     1       0.319  -0.624  -1.865  1.00  0.00     0.011 C 
ATOM     25  C   UNL     1      -0.980   1.178  -2.942  1.00  0.00     0.011 C 
ENDBRANCH  22  23
ENDBRANCH  21  22
ENDBRANCH  16  21
ENDBRANCH  12  15
ENDBRANCH   6  11
BRANCH  10  26
ATOM     26  O   UNL     1       2.934   2.714  -2.030  1.00  0.00    -0.507 OA
ATOM     27  H   UNL     1       3.408   2.528  -2.817  1.00  0.00     0.293 HD
ENDBRANCH  10  26
ENDBRANCH   1   5
BRANCH   3  28
ATOM     28  C   UNL     1       0.034   2.671   2.424  1.00  0.00     0.118 C 
BRANCH  28  29
ATOM     29  C   UNL     1       0.874   2.999   3.645  1.00  0.00     0.042 C 
BRANCH  29  30
ATOM     30  C   UNL     1       0.361   4.252   4.321  1.00  0.00     0.118 C 
BRANCH  30  31
ATOM     31  N   UNL     1      -0.856   3.979   5.073  1.00  0.00    -0.352 N 
ATOM     32  C   UNL     1      -1.113   4.236   6.392  1.00  0.00     0.251 C 
ATOM     33  H   UNL     1      -1.587   3.556   4.567  1.00  0.00     0.163 HD
ATOM     34  O   UNL     1      -2.091   3.729   6.944  1.00  0.00    -0.269 OA
BRANCH  32  35
ATOM     35  C   UNL     1      -0.199   5.110   7.149  1.00  0.00     0.039 A 
ATOM     36  C   UNL     1       0.143   4.768   8.458  1.00  0.00     0.014 A 
ATOM     37  C   UNL     1       0.328   6.264   6.559  1.00  0.00     0.014 A 
ATOM     38  C   UNL     1       1.037   5.571   9.165  1.00  0.00     0.010 A 
ATOM     39  C   UNL     1       1.300   6.997   7.222  1.00  0.00     0.010 A 
ATOM     40  C   UNL     1       1.636   6.680   8.545  1.00  0.00    -0.014 A 
BRANCH  40  41
ATOM     41  C   UNL     1       2.564   7.566   9.284  1.00  0.00     0.031 A 
ATOM     42  C   UNL     1       2.194   9.009   9.503  1.00  0.00     0.074 A 
ATOM     43  C   UNL     1       3.747   7.091   9.714  1.00  0.00     0.049 A 
ATOM     44  N   UNL     1       2.882   9.963  10.076  1.00  0.00    -0.248 NA
ATOM     45  C   UNL     1       0.889   9.447   8.978  1.00  0.00     0.031 C 
ATOM     46  C   UNL     1       4.236   5.725   9.516  1.00  0.00     0.029 A 
ATOM     47  N   UNL     1       4.757   7.709  10.405  1.00  0.00    -0.354 N 
ATOM     48  C   UNL     1       2.104  11.108   9.962  1.00  0.00     0.074 A 
ATOM     49  C   UNL     1       0.927  10.750   9.206  1.00  0.00     0.031 C 
ATOM     50  C   UNL     1       5.437   5.600  10.103  1.00  0.00     0.029 A 
ATOM     51  C   UNL     1       5.819   6.883  10.682  1.00  0.00     0.049 A 
ATOM     52  H   UNL     1       4.724   8.654  10.677  1.00  0.00     0.167 HD
ATOM     53  C   UNL     1       2.335  12.342  10.470  1.00  0.00     0.037 A 
ATOM     54  C   UNL     1       6.970   7.138  11.332  1.00  0.00     0.037 A 
ATOM     55  C   UNL     1       3.495  12.683  11.247  1.00  0.00     0.049 A 
ATOM     56  C   UNL     1       7.200   8.515  11.892  1.00  0.00     0.074 A 
ATOM     57  C   UNL     1       3.806  13.888  11.850  1.00  0.00     0.029 A 
ATOM     58  N   UNL     1       4.537  11.812  11.529  1.00  0.00    -0.354 N 
ATOM     59  N   UNL     1       6.429   9.574  11.831  1.00  0.00    -0.248 NA
ATOM     60  C   UNL     1       8.456   8.728  12.623  1.00  0.00     0.031 C 
ATOM     61  C   UNL     1       5.058  13.759  12.460  1.00  0.00     0.029 A 
ATOM     62  C   UNL     1       5.499  12.457  12.287  1.00  0.00     0.049 A 
ATOM     63  H   UNL     1       4.585  10.873  11.234  1.00  0.00     0.167 HD
ATOM     64  C   UNL     1       7.085  10.565  12.550  1.00  0.00     0.074 A 
ATOM     65  C   UNL     1       8.313   9.976  13.044  1.00  0.00     0.031 C 
ATOM     66  C   UNL     1       6.706  11.846  12.784  1.00  0.00     0.037 A 
BRANCH  53  67
ATOM     67  C   UNL     1       1.306  13.403  10.201  1.00  0.00     0.057 A 
ATOM     68  C   UNL     1       0.025  13.355  10.769  1.00  0.00     0.134 A 
ATOM     69  C   UNL     1       1.605  14.497   9.379  1.00  0.00     0.134 A 
ATOM     70  F   UNL     1      -0.334  12.327  11.553  1.00  0.00    -0.206 F 
ATOM     71  C   UNL     1      -0.931  14.337  10.503  1.00  0.00     0.040 A 
ATOM     72  C   UNL     1       0.668  15.502   9.132  1.00  0.00     0.040 A 
ATOM     73  F   UNL     1       2.812  14.610   8.806  1.00  0.00    -0.206 F 
ATOM     74  C   UNL     1      -0.607  15.419   9.687  1.00  0.00     0.006 A 
ENDBRANCH  53  67
BRANCH  54  75
ATOM     75  C   UNL     1       7.974   6.061  11.521  1.00  0.00     0.057 A 
ATOM     76  C   UNL     1       8.230   5.527  12.790  1.00  0.00     0.134 A 
ATOM     77  C   UNL     1       8.709   5.547  10.446  1.00  0.00     0.134 A 
ATOM     78  F   UNL     1       7.569   5.987  13.862  1.00  0.00    -0.206 F 
ATOM     79  C   UNL     1       9.198   4.542  12.988  1.00  0.00     0.040 A 
ATOM     80  C   UNL     1       9.661   4.542  10.625  1.00  0.00     0.040 A 
ATOM     81  F   UNL     1       8.503   6.007   9.203  1.00  0.00    -0.206 F 
ATOM     82  C   UNL     1       9.915   4.043  11.902  1.00  0.00     0.006 A 
ENDBRANCH  54  75
BRANCH  66  83
ATOM     83  C   UNL     1       7.597  12.675  13.663  1.00  0.00     0.057 A 
ATOM     84  C   UNL     1       8.855  13.123  13.240  1.00  0.00     0.134 A 
ATOM     85  C   UNL     1       7.171  13.055  14.943  1.00  0.00     0.134 A 
ATOM     86  F   UNL     1       9.326  12.786  12.030  1.00  0.00    -0.206 F 
ATOM     87  C   UNL     1       9.671  13.891  14.072  1.00  0.00     0.040 A 
ATOM     88  C   UNL     1       7.964  13.849  15.770  1.00  0.00     0.040 A 
ATOM     89  F   UNL     1       5.972  12.670  15.404  1.00  0.00    -0.206 F 
ATOM     90  C   UNL     1       9.223  14.262  15.339  1.00  0.00     0.006 A 
ENDBRANCH  66  83
ENDBRANCH  40  41
ENDBRANCH  32  35
ENDBRANCH  30  31
ENDBRANCH  29  30
ENDBRANCH  28  29
ENDBRANCH   3  28
TORSDOF 16
