REMARK SMILES CC[C@H](Oc1cccc(/C=C2\SC(=S)N(NC(=O)c3cccc(O)c3)C2=O)c1)C(=O)NCCCNC(=O)c1ccc(-c2c3nc(c(-c4c(F)cccc4F)c4ccc([nH]4)c(-c4c(F)cccc4F)c4nc(c(-c5c(F)cccc5F)c5ccc2[nH]5)C=C4)C=C3)cc1
REMARK SMILES IDX 29 1 30 2 31 3 3 5 2 6 1 7 4 8 5 9 6 10 28 11 7 12 9 13 8 14
REMARK SMILES IDX 10 15 11 16 12 17 26 18 13 19 15 20 27 21 14 22 16 23 17 24
REMARK SMILES IDX 18 26 19 27 20 28 25 29 21 30 23 31 22 32 24 33 32 35 33 36
REMARK SMILES IDX 34 37 35 38 36 39 37 41 38 42 39 43 91 44 40 45 90 46 41 47
REMARK SMILES IDX 42 48 43 49 84 50 44 51 89 52 83 53 85 54 45 55 88 56 82 57
REMARK SMILES IDX 81 58 46 60 72 61 55 62 71 63 56 64 59 65 70 66 86 67 57 68
REMARK SMILES IDX 58 69 69 71 87 72 60 73 47 74 48 75 53 76 49 77 50 78 52 79
REMARK SMILES IDX 54 80 51 81 73 82 74 83 79 84 75 85 76 86 78 87 80 88 77 89
REMARK SMILES IDX 61 90 62 91 67 92 63 93 64 94 66 95 68 96 65 97
REMARK H PARENT 31 4 16 25 24 34 35 40 85 59 59 70
REMARK Flexibility Score: inf
ROOT
ATOM      1  C   UNL     1       0.616  -2.355  -2.699  1.00  0.00     0.261 C 
ATOM      2  O   UNL     1       1.435  -2.562  -3.598  1.00  0.00    -0.271 OA
ATOM      3  N   UNL     1      -0.720  -2.364  -3.031  1.00  0.00    -0.353 N 
ATOM      4  H   UNL     1      -0.914  -2.513  -3.985  1.00  0.00     0.163 HD
ENDROOT
BRANCH   1   5
ATOM      5  C   UNL     1       1.058  -2.157  -1.231  1.00  0.00     0.261 C 
BRANCH   5   6
ATOM      6  C   UNL     1       0.542  -3.407  -0.475  1.00  0.00     0.052 C 
ATOM      7  C   UNL     1       1.157  -3.733   0.874  1.00  0.00     0.008 C 
ENDBRANCH   5   6
BRANCH   5   8
ATOM      8  O   UNL     1       0.548  -0.844  -0.978  1.00  0.00    -0.481 OA
BRANCH   8   9
ATOM      9  C   UNL     1       0.443  -0.303   0.257  1.00  0.00     0.121 A 
ATOM     10  C   UNL     1       1.153  -0.667   1.383  1.00  0.00     0.046 A 
ATOM     11  C   UNL     1      -0.511   0.713   0.350  1.00  0.00     0.054 A 
ATOM     12  C   UNL     1       0.765  -0.181   2.631  1.00  0.00     0.004 A 
ATOM     13  C   UNL     1      -0.925   1.210   1.588  1.00  0.00    -0.021 A 
ATOM     14  C   UNL     1      -0.284   0.732   2.735  1.00  0.00     0.008 A 
BRANCH  13  15
ATOM     15  C   UNL     1      -1.983   2.214   1.768  1.00  0.00     0.029 C 
ATOM     16  C   UNL     1      -3.060   2.457   1.012  1.00  0.00     0.082 C 
ATOM     17  S   UNL     1      -3.531   1.797  -0.498  1.00  0.00    -0.052 SA
ATOM     18  C   UNL     1      -3.980   3.567   1.362  1.00  0.00     0.285 C 
ATOM     19  C   UNL     1      -4.368   3.274  -0.951  1.00  0.00     0.168 C 
ATOM     20  N   UNL     1      -4.497   4.066   0.171  1.00  0.00    -0.198 N 
ATOM     21  O   UNL     1      -4.206   3.931   2.499  1.00  0.00    -0.266 OA
ATOM     22  S   UNL     1      -4.858   3.590  -2.507  1.00  0.00    -0.050 S 
BRANCH  20  23
ATOM     23  N   UNL     1      -5.255   5.244   0.155  1.00  0.00    -0.255 N 
ATOM     24  C   UNL     1      -5.026   6.343   0.957  1.00  0.00     0.270 C 
ATOM     25  H   UNL     1      -6.008   5.291  -0.477  1.00  0.00     0.192 HD
ATOM     26  O   UNL     1      -5.960   7.095   1.228  1.00  0.00    -0.267 OA
BRANCH  24  27
ATOM     27  C   UNL     1      -3.695   6.642   1.540  1.00  0.00     0.045 A 
ATOM     28  C   UNL     1      -3.686   7.260   2.801  1.00  0.00     0.014 A 
ATOM     29  C   UNL     1      -2.488   6.317   0.910  1.00  0.00     0.060 A 
ATOM     30  C   UNL     1      -2.483   7.491   3.463  1.00  0.00     0.005 A 
ATOM     31  C   UNL     1      -1.296   6.527   1.599  1.00  0.00     0.116 A 
ATOM     32  C   UNL     1      -1.286   7.105   2.866  1.00  0.00     0.046 A 
BRANCH  31  33
ATOM     33  O   UNL     1      -0.092   6.158   1.074  1.00  0.00    -0.508 OA
ATOM     34  H   UNL     1       0.696   6.310   1.557  1.00  0.00     0.293 HD
ENDBRANCH  31  33
ENDBRANCH  24  27
ENDBRANCH  20  23
ENDBRANCH  13  15
ENDBRANCH   8   9
ENDBRANCH   5   8
ENDBRANCH   1   5
BRANCH   3  35
ATOM     35  C   UNL     1      -1.890  -2.185  -2.179  1.00  0.00     0.118 C 
BRANCH  35  36
ATOM     36  C   UNL     1      -2.853  -1.128  -2.693  1.00  0.00     0.042 C 
BRANCH  36  37
ATOM     37  C   UNL     1      -3.580  -1.503  -3.975  1.00  0.00     0.118 C 
BRANCH  37  38
ATOM     38  N   UNL     1      -4.527  -2.594  -3.786  1.00  0.00    -0.352 N 
ATOM     39  C   UNL     1      -5.898  -2.623  -3.878  1.00  0.00     0.251 C 
ATOM     40  H   UNL     1      -4.115  -3.457  -3.553  1.00  0.00     0.163 HD
ATOM     41  O   UNL     1      -6.501  -3.623  -3.498  1.00  0.00    -0.269 OA
BRANCH  39  42
ATOM     42  C   UNL     1      -6.663  -1.462  -4.394  1.00  0.00     0.039 A 
ATOM     43  C   UNL     1      -7.884  -1.143  -3.790  1.00  0.00     0.014 A 
ATOM     44  C   UNL     1      -6.215  -0.702  -5.476  1.00  0.00     0.014 A 
ATOM     45  C   UNL     1      -8.601  -0.018  -4.210  1.00  0.00     0.010 A 
ATOM     46  C   UNL     1      -6.883   0.470  -5.832  1.00  0.00     0.010 A 
ATOM     47  C   UNL     1      -8.080   0.835  -5.196  1.00  0.00    -0.014 A 
BRANCH  47  48
ATOM     48  C   UNL     1      -8.744   2.121  -5.545  1.00  0.00     0.031 A 
ATOM     49  C   UNL     1      -9.209   2.396  -6.954  1.00  0.00     0.074 A 
ATOM     50  C   UNL     1      -8.865   3.090  -4.613  1.00  0.00     0.049 A 
ATOM     51  N   UNL     1      -9.697   3.502  -7.462  1.00  0.00    -0.248 NA
ATOM     52  C   UNL     1      -9.107   1.290  -7.918  1.00  0.00     0.031 C 
ATOM     53  C   UNL     1      -8.451   2.991  -3.211  1.00  0.00     0.029 A 
ATOM     54  N   UNL     1      -9.343   4.373  -4.722  1.00  0.00    -0.354 N 
ATOM     55  C   UNL     1      -9.973   3.221  -8.794  1.00  0.00     0.074 A 
ATOM     56  C   UNL     1      -9.537   1.861  -9.035  1.00  0.00     0.031 C 
ATOM     57  C   UNL     1      -8.655   4.172  -2.604  1.00  0.00     0.029 A 
ATOM     58  C   UNL     1      -9.185   5.115  -3.578  1.00  0.00     0.049 A 
ATOM     59  H   UNL     1      -9.758   4.727  -5.542  1.00  0.00     0.167 HD
ATOM     60  C   UNL     1     -10.565   4.008  -9.724  1.00  0.00     0.037 A 
ATOM     61  C   UNL     1      -9.403   6.420  -3.348  1.00  0.00     0.037 A 
ATOM     62  C   UNL     1     -11.015   5.358  -9.495  1.00  0.00     0.049 A 
ATOM     63  C   UNL     1      -9.952   7.301  -4.428  1.00  0.00     0.074 A 
ATOM     64  C   UNL     1     -11.710   6.191 -10.357  1.00  0.00     0.029 A 
ATOM     65  N   UNL     1     -10.801   6.079  -8.333  1.00  0.00    -0.354 N 
ATOM     66  N   UNL     1     -10.265   7.002  -5.662  1.00  0.00    -0.248 NA
ATOM     67  C   UNL     1     -10.192   8.707  -4.066  1.00  0.00     0.031 C 
ATOM     68  C   UNL     1     -11.862   7.437  -9.740  1.00  0.00     0.029 A 
ATOM     69  C   UNL     1     -11.314   7.360  -8.473  1.00  0.00     0.049 A 
ATOM     70  H   UNL     1     -10.352   5.734  -7.528  1.00  0.00     0.167 HD
ATOM     71  C   UNL     1     -10.772   8.171  -6.211  1.00  0.00     0.074 A 
ATOM     72  C   UNL     1     -10.723   9.184  -5.180  1.00  0.00     0.031 C 
ATOM     73  C   UNL     1     -11.252   8.376  -7.458  1.00  0.00     0.037 A 
BRANCH  60  74
ATOM     74  C   UNL     1     -10.793   3.431 -11.090  1.00  0.00     0.057 A 
ATOM     75  C   UNL     1     -11.770   2.453 -11.319  1.00  0.00     0.134 A 
ATOM     76  C   UNL     1     -10.102   3.929 -12.202  1.00  0.00     0.134 A 
ATOM     77  F   UNL     1     -12.464   1.932 -10.296  1.00  0.00    -0.206 F 
ATOM     78  C   UNL     1     -12.044   1.983 -12.604  1.00  0.00     0.040 A 
ATOM     79  C   UNL     1     -10.386   3.486 -13.495  1.00  0.00     0.040 A 
ATOM     80  F   UNL     1      -9.163   4.875 -12.053  1.00  0.00    -0.206 F 
ATOM     81  C   UNL     1     -11.358   2.509 -13.698  1.00  0.00     0.006 A 
ENDBRANCH  60  74
BRANCH  61  82
ATOM     82  C   UNL     1      -9.043   7.048  -2.060  1.00  0.00     0.057 A 
ATOM     83  C   UNL     1     -10.016   7.358  -1.104  1.00  0.00     0.134 A 
ATOM     84  C   UNL     1      -7.747   7.534  -1.869  1.00  0.00     0.134 A 
ATOM     85  F   UNL     1     -11.282   6.950  -1.273  1.00  0.00    -0.206 F 
ATOM     86  C   UNL     1      -9.718   8.164  -0.007  1.00  0.00     0.040 A 
ATOM     87  C   UNL     1      -7.449   8.365  -0.796  1.00  0.00     0.040 A 
ATOM     88  F   UNL     1      -6.774   7.240  -2.742  1.00  0.00    -0.206 F 
ATOM     89  C   UNL     1      -8.432   8.678   0.141  1.00  0.00     0.006 A 
ENDBRANCH  61  82
BRANCH  73  90
ATOM     90  C   UNL     1     -11.808   9.735  -7.756  1.00  0.00     0.057 A 
ATOM     91  C   UNL     1     -10.987  10.863  -7.885  1.00  0.00     0.134 A 
ATOM     92  C   UNL     1     -13.189   9.920  -7.898  1.00  0.00     0.134 A 
ATOM     93  F   UNL     1      -9.658  10.758  -7.730  1.00  0.00    -0.206 F 
ATOM     94  C   UNL     1     -11.523  12.130  -8.117  1.00  0.00     0.040 A 
ATOM     95  C   UNL     1     -13.734  11.177  -8.160  1.00  0.00     0.040 A 
ATOM     96  F   UNL     1     -14.031   8.882  -7.782  1.00  0.00    -0.206 F 
ATOM     97  C   UNL     1     -12.900  12.288  -8.262  1.00  0.00     0.006 A 
ENDBRANCH  73  90
ENDBRANCH  47  48
ENDBRANCH  39  42
ENDBRANCH  37  38
ENDBRANCH  36  37
ENDBRANCH  35  36
ENDBRANCH   3  35
TORSDOF 17
