REMARK SMILES CS(=O)(=O)c1ccc(N2N=C(C(=O)NCCCNC(=O)c3ccc(-c4c5nc(c(-c6c(F)cccc6F)c6ccc([nH]6)c(-c6c(F)cccc6F)c6nc(c(-c7c(F)cccc7F)c7ccc4[nH]7)C=C6)C=C5)cc3)C[C@H]2c2ccco2)cc1
REMARK SMILES IDX 16 1 15 2 14 3 12 4 13 5 11 7 9 8 10 9 76 10 75 11 8 12 5 13
REMARK SMILES IDX 6 14 83 15 7 16 82 17 2 18 1 19 3 20 4 21 77 22 78 23 81 24
REMARK SMILES IDX 79 25 80 26 17 27 18 28 19 29 20 31 21 32 22 33 74 34 23 35
REMARK SMILES IDX 73 36 24 37 25 38 26 39 67 40 27 41 72 42 66 43 68 44 28 45
REMARK SMILES IDX 71 46 65 47 64 48 29 50 55 51 38 52 54 53 39 54 42 55 53 56
REMARK SMILES IDX 69 57 40 58 41 59 52 61 70 62 43 63 30 64 31 65 36 66 32 67
REMARK SMILES IDX 33 68 35 69 37 70 34 71 56 72 57 73 62 74 58 75 59 76 61 77
REMARK SMILES IDX 63 78 60 79 44 80 45 81 50 82 46 83 47 84 49 85 51 86 48 87
REMARK H PARENT 14 6 18 30 68 49 42 60
REMARK Flexibility Score: inf
ROOT
ATOM      1  C   UNL     1       4.785  10.957  -4.241  1.00  0.00     0.042 C 
ENDROOT
BRANCH   1   2
ATOM      2  C   UNL     1       3.366  10.467  -4.493  1.00  0.00     0.118 C 
BRANCH   2   3
ATOM      3  N   UNL     1       3.334   9.440  -5.519  1.00  0.00    -0.351 N 
ATOM      4  C   UNL     1       3.155   8.079  -5.521  1.00  0.00     0.267 C 
ATOM      5  O   UNL     1       3.292   7.495  -6.593  1.00  0.00    -0.268 OA
ATOM      6  H   UNL     1       3.471   9.804  -6.423  1.00  0.00     0.163 HD
BRANCH   4   7
ATOM      7  C   UNL     1       2.756   7.272  -4.296  1.00  0.00     0.128 C 
ATOM      8  N   UNL     1       1.968   5.649  -3.167  1.00  0.00    -0.254 N 
ATOM      9  N   UNL     1       2.433   6.016  -4.390  1.00  0.00    -0.171 NA
ATOM     10  C   UNL     1       2.161   6.657  -2.122  1.00  0.00     0.180 C 
ATOM     11  C   UNL     1       2.665   7.854  -2.929  1.00  0.00     0.099 C 
BRANCH   8  12
ATOM     12  C   UNL     1       1.637   4.329  -2.898  1.00  0.00     0.060 A 
ATOM     13  C   UNL     1       0.955   1.695  -2.217  1.00  0.00     0.067 A 
ATOM     14  C   UNL     1       2.215   1.966  -2.755  1.00  0.00     0.022 A 
ATOM     15  C   UNL     1       0.011   2.709  -2.072  1.00  0.00     0.022 A 
ATOM     16  C   UNL     1       2.546   3.283  -3.099  1.00  0.00     0.029 A 
ATOM     17  C   UNL     1       0.358   4.013  -2.418  1.00  0.00     0.029 A 
BRANCH  13  18
ATOM     18  S   UNL     1       0.522   0.041  -1.740  1.00  0.00     0.175 S 
ATOM     19  C   UNL     1       1.119  -0.060  -0.072  1.00  0.00     0.163 C 
ATOM     20  O   UNL     1       1.302  -0.873  -2.556  1.00  0.00    -0.224 OA
ATOM     21  O   UNL     1      -0.923  -0.043  -1.699  1.00  0.00    -0.224 OA
ENDBRANCH  13  18
ENDBRANCH   8  12
BRANCH  10  22
ATOM     22  C   UNL     1       0.984   7.009  -1.255  1.00  0.00     0.128 A 
ATOM     23  C   UNL     1       0.436   6.421  -0.130  1.00  0.00     0.048 A 
ATOM     24  O   UNL     1       0.254   8.119  -1.581  1.00  0.00    -0.467 OA
ATOM     25  C   UNL     1      -0.695   7.196   0.225  1.00  0.00     0.042 A 
ATOM     26  C   UNL     1      -0.750   8.228  -0.679  1.00  0.00     0.195 A 
ENDBRANCH  10  22
ENDBRANCH   4   7
ENDBRANCH   2   3
ENDBRANCH   1   2
BRANCH   1  27
ATOM     27  C   UNL     1       5.299  11.865  -5.350  1.00  0.00     0.118 C 
BRANCH  27  28
ATOM     28  N   UNL     1       4.541  13.109  -5.432  1.00  0.00    -0.352 N 
ATOM     29  C   UNL     1       4.918  14.401  -5.163  1.00  0.00     0.251 C 
ATOM     30  H   UNL     1       3.608  13.005  -5.729  1.00  0.00     0.163 HD
ATOM     31  O   UNL     1       4.059  15.271  -5.052  1.00  0.00    -0.269 OA
BRANCH  29  32
ATOM     32  C   UNL     1       6.344  14.746  -4.997  1.00  0.00     0.039 A 
ATOM     33  C   UNL     1       6.707  15.684  -4.026  1.00  0.00     0.014 A 
ATOM     34  C   UNL     1       7.321  14.174  -5.815  1.00  0.00     0.014 A 
ATOM     35  C   UNL     1       8.054  15.994  -3.833  1.00  0.00     0.010 A 
ATOM     36  C   UNL     1       8.666  14.410  -5.557  1.00  0.00     0.010 A 
ATOM     37  C   UNL     1       9.047  15.329  -4.570  1.00  0.00    -0.014 A 
BRANCH  37  38
ATOM     38  C   UNL     1      10.490  15.583  -4.330  1.00  0.00     0.031 A 
ATOM     39  C   UNL     1      11.351  16.140  -5.432  1.00  0.00     0.074 A 
ATOM     40  C   UNL     1      11.037  15.245  -3.146  1.00  0.00     0.049 A 
ATOM     41  N   UNL     1      12.642  16.352  -5.444  1.00  0.00    -0.248 NA
ATOM     42  C   UNL     1      10.678  16.476  -6.698  1.00  0.00     0.031 C 
ATOM     43  C   UNL     1      10.316  14.653  -2.017  1.00  0.00     0.029 A 
ATOM     44  N   UNL     1      12.330  15.340  -2.699  1.00  0.00    -0.354 N 
ATOM     45  C   UNL     1      12.936  16.824  -6.717  1.00  0.00     0.074 A 
ATOM     46  C   UNL     1      11.700  16.819  -7.467  1.00  0.00     0.031 C 
ATOM     47  C   UNL     1      11.170  14.464  -0.999  1.00  0.00     0.029 A 
ATOM     48  C   UNL     1      12.505  14.877  -1.417  1.00  0.00     0.049 A 
ATOM     49  H   UNL     1      13.064  15.705  -3.244  1.00  0.00     0.167 HD
ATOM     50  C   UNL     1      14.125  17.246  -7.208  1.00  0.00     0.037 A 
ATOM     51  C   UNL     1      13.620  14.786  -0.667  1.00  0.00     0.037 A 
ATOM     52  C   UNL     1      15.346  17.280  -6.447  1.00  0.00     0.049 A 
ATOM     53  C   UNL     1      14.929  15.252  -1.244  1.00  0.00     0.074 A 
ATOM     54  C   UNL     1      16.587  17.756  -6.832  1.00  0.00     0.029 A 
ATOM     55  N   UNL     1      15.479  16.818  -5.147  1.00  0.00    -0.354 N 
ATOM     56  N   UNL     1      15.177  15.769  -2.423  1.00  0.00    -0.248 NA
ATOM     57  C   UNL     1      16.113  15.128  -0.383  1.00  0.00     0.031 C 
ATOM     58  C   UNL     1      17.484  17.534  -5.783  1.00  0.00     0.029 A 
ATOM     59  C   UNL     1      16.789  16.973  -4.724  1.00  0.00     0.049 A 
ATOM     60  H   UNL     1      14.751  16.437  -4.604  1.00  0.00     0.167 HD
ATOM     61  C   UNL     1      16.534  16.063  -2.432  1.00  0.00     0.074 A 
ATOM     62  C   UNL     1      17.053  15.681  -1.135  1.00  0.00     0.031 C 
ATOM     63  C   UNL     1      17.285  16.602  -3.424  1.00  0.00     0.037 A 
BRANCH  50  64
ATOM     64  C   UNL     1      14.168  17.710  -8.635  1.00  0.00     0.057 A 
ATOM     65  C   UNL     1      13.566  18.907  -9.044  1.00  0.00     0.134 A 
ATOM     66  C   UNL     1      14.870  16.979  -9.602  1.00  0.00     0.134 A 
ATOM     67  F   UNL     1      12.868  19.650  -8.171  1.00  0.00    -0.206 F 
ATOM     68  C   UNL     1      13.644  19.351 -10.365  1.00  0.00     0.040 A 
ATOM     69  C   UNL     1      14.979  17.426 -10.920  1.00  0.00     0.040 A 
ATOM     70  F   UNL     1      15.476  15.826  -9.279  1.00  0.00    -0.206 F 
ATOM     71  C   UNL     1      14.361  18.613 -11.306  1.00  0.00     0.006 A 
ENDBRANCH  50  64
BRANCH  51  72
ATOM     72  C   UNL     1      13.556  14.246   0.716  1.00  0.00     0.057 A 
ATOM     73  C   UNL     1      13.799  15.068   1.823  1.00  0.00     0.134 A 
ATOM     74  C   UNL     1      13.284  12.896   0.965  1.00  0.00     0.134 A 
ATOM     75  F   UNL     1      14.082  16.368   1.649  1.00  0.00    -0.206 F 
ATOM     76  C   UNL     1      13.808  14.562   3.123  1.00  0.00     0.040 A 
ATOM     77  C   UNL     1      13.261  12.382   2.263  1.00  0.00     0.040 A 
ATOM     78  F   UNL     1      13.032  12.056  -0.050  1.00  0.00    -0.206 F 
ATOM     79  C   UNL     1      13.535  13.214   3.346  1.00  0.00     0.006 A 
ENDBRANCH  51  72
BRANCH  63  80
ATOM     80  C   UNL     1      18.735  16.855  -3.129  1.00  0.00     0.057 A 
ATOM     81  C   UNL     1      19.661  15.812  -3.003  1.00  0.00     0.134 A 
ATOM     82  C   UNL     1      19.216  18.165  -3.010  1.00  0.00     0.134 A 
ATOM     83  F   UNL     1      19.262  14.534  -3.094  1.00  0.00    -0.206 F 
ATOM     84  C   UNL     1      21.009  16.062  -2.743  1.00  0.00     0.040 A 
ATOM     85  C   UNL     1      20.567  18.428  -2.780  1.00  0.00     0.040 A 
ATOM     86  F   UNL     1      18.384  19.211  -3.130  1.00  0.00    -0.206 F 
ATOM     87  C   UNL     1      21.466  17.374  -2.638  1.00  0.00     0.006 A 
ENDBRANCH  63  80
ENDBRANCH  37  38
ENDBRANCH  29  32
ENDBRANCH  27  28
ENDBRANCH   1  27
TORSDOF 13
