REMARK SMILES O=C(N[C@]1(C(=O)NCCCNC(=O)c2ccc(-c3c4nc(c(-c5c(F)cccc5F)c5ccc([nH]5)c(-c5c(F)cccc5F)c5nc(c(-c6c(F)cccc6F)c6ccc3[nH]6)C=C5)C=C4)cc2)CC[C@H](c2ccccc2)CC1)OCC1c2ccccc2-c2ccccc21
REMARK SMILES IDX 8 1 7 2 5 3 6 4 4 6 68 7 78 8 69 9 77 10 70 11 3 12 1 13
REMARK SMILES IDX 2 14 79 16 80 17 81 18 82 19 93 20 83 21 87 22 88 23 92 24
REMARK SMILES IDX 84 25 86 26 89 27 91 28 85 29 90 30 71 31 72 32 76 33 73 34
REMARK SMILES IDX 75 35 74 36 9 37 10 38 11 39 12 40 13 42 14 43 15 44 67 45
REMARK SMILES IDX 16 46 66 47 17 48 18 49 19 50 60 51 20 52 65 53 59 54 61 55
REMARK SMILES IDX 21 56 64 57 58 58 57 59 22 61 48 62 31 63 47 64 32 65 35 66
REMARK SMILES IDX 46 67 62 68 33 69 34 70 45 72 63 73 36 74 23 75 24 76 29 77
REMARK SMILES IDX 25 78 26 79 28 80 30 81 27 82 49 83 50 84 55 85 51 86 52 87
REMARK SMILES IDX 54 88 56 89 53 90 37 91 38 92 43 93 39 94 40 95 42 96 44 97
REMARK SMILES IDX 41 98
REMARK H PARENT 7 5 3 15 11 41 61 60 35 71
REMARK Flexibility Score: inf
ROOT
ATOM      1  C   UNL     1       7.827  -0.258   0.473  1.00  0.00     0.117 C 
ENDROOT
BRANCH   1   2
ATOM      2  N   UNL     1       6.442  -0.578   0.651  1.00  0.00    -0.354 N 
ATOM      3  C   UNL     1       5.624   0.511   0.771  1.00  0.00     0.245 C 
ATOM      4  O   UNL     1       5.916   1.556   0.187  1.00  0.00    -0.272 OA
ATOM      5  H   UNL     1       6.108  -1.504   0.684  1.00  0.00     0.163 HD
BRANCH   3   6
ATOM      6  C   UNL     1       4.448   0.424   1.785  1.00  0.00     0.122 C 
ATOM      7  C   UNL     1       4.424   1.795   2.493  1.00  0.00     0.039 C 
ATOM      8  C   UNL     1       4.708  -0.631   2.881  1.00  0.00     0.039 C 
ATOM      9  C   UNL     1       5.800   2.103   3.124  1.00  0.00     0.011 C 
ATOM     10  C   UNL     1       6.004  -0.434   3.663  1.00  0.00     0.011 C 
ATOM     11  C   UNL     1       6.329   1.018   4.089  1.00  0.00     0.019 C 
BRANCH   6  12
ATOM     12  N   UNL     1       3.171   0.071   1.148  1.00  0.00    -0.307 N 
ATOM     13  O   UNL     1       1.589   0.116  -0.458  1.00  0.00    -0.225 OA
ATOM     14  C   UNL     1       2.671   0.509  -0.038  1.00  0.00     0.408 C 
ATOM     15  H   UNL     1       2.605  -0.564   1.644  1.00  0.00     0.168 HD
BRANCH  14  16
ATOM     16  O   UNL     1       3.541   1.266  -0.726  1.00  0.00    -0.449 OA
BRANCH  16  17
ATOM     17  C   UNL     1       3.603   0.979  -2.124  1.00  0.00     0.248 C 
BRANCH  17  18
ATOM     18  C   UNL     1       4.556   1.913  -2.885  1.00  0.00     0.088 C 
ATOM     19  C   UNL     1       6.037   1.533  -2.951  1.00  0.00    -0.029 A 
ATOM     20  C   UNL     1       4.625   3.361  -2.413  1.00  0.00    -0.029 A 
ATOM     21  C   UNL     1       6.624   0.308  -3.234  1.00  0.00     0.005 A 
ATOM     22  C   UNL     1       6.832   2.682  -2.732  1.00  0.00    -0.014 A 
ATOM     23  C   UNL     1       5.968   3.800  -2.413  1.00  0.00    -0.014 A 
ATOM     24  C   UNL     1       3.599   4.202  -2.011  1.00  0.00     0.005 A 
ATOM     25  C   UNL     1       8.021   0.236  -3.286  1.00  0.00     0.000 A 
ATOM     26  C   UNL     1       8.217   2.608  -2.780  1.00  0.00     0.009 A 
ATOM     27  C   UNL     1       6.285   5.108  -2.080  1.00  0.00     0.009 A 
ATOM     28  C   UNL     1       3.924   5.509  -1.641  1.00  0.00     0.000 A 
ATOM     29  C   UNL     1       8.811   1.376  -3.061  1.00  0.00     0.001 A 
ATOM     30  C   UNL     1       5.252   5.965  -1.696  1.00  0.00     0.001 A 
ENDBRANCH  17  18
ENDBRANCH  16  17
ENDBRANCH  14  16
ENDBRANCH   6  12
BRANCH  11  31
ATOM     31  C   UNL     1       6.021   1.243   5.561  1.00  0.00    -0.045 A 
ATOM     32  C   UNL     1       5.206   2.281   6.026  1.00  0.00     0.004 A 
ATOM     33  C   UNL     1       6.642   0.412   6.513  1.00  0.00     0.004 A 
ATOM     34  C   UNL     1       5.015   2.481   7.393  1.00  0.00     0.000 A 
ATOM     35  C   UNL     1       6.425   0.590   7.877  1.00  0.00     0.000 A 
ATOM     36  C   UNL     1       5.614   1.630   8.316  1.00  0.00     0.000 A 
ENDBRANCH  11  31
ENDBRANCH   3   6
ENDBRANCH   1   2
BRANCH   1  37
ATOM     37  C   UNL     1       8.771  -1.321   0.980  1.00  0.00     0.042 C 
BRANCH  37  38
ATOM     38  C   UNL     1       9.869  -1.536  -0.035  1.00  0.00     0.118 C 
BRANCH  38  39
ATOM     39  N   UNL     1      10.577  -0.314  -0.414  1.00  0.00    -0.352 N 
ATOM     40  C   UNL     1      11.841  -0.215  -0.944  1.00  0.00     0.251 C 
ATOM     41  H   UNL     1      10.095   0.532  -0.273  1.00  0.00     0.163 HD
ATOM     42  O   UNL     1      12.333   0.863  -1.249  1.00  0.00    -0.269 OA
BRANCH  40  43
ATOM     43  C   UNL     1      12.608  -1.462  -1.069  1.00  0.00     0.039 A 
ATOM     44  C   UNL     1      13.786  -1.587  -0.333  1.00  0.00     0.014 A 
ATOM     45  C   UNL     1      12.039  -2.552  -1.731  1.00  0.00     0.014 A 
ATOM     46  C   UNL     1      14.350  -2.849  -0.181  1.00  0.00     0.010 A 
ATOM     47  C   UNL     1      12.538  -3.818  -1.483  1.00  0.00     0.010 A 
ATOM     48  C   UNL     1      13.695  -3.976  -0.706  1.00  0.00    -0.014 A 
BRANCH  48  49
ATOM     49  C   UNL     1      14.207  -5.339  -0.455  1.00  0.00     0.031 A 
ATOM     50  C   UNL     1      14.652  -6.177  -1.617  1.00  0.00     0.074 A 
ATOM     51  C   UNL     1      14.191  -5.832   0.798  1.00  0.00     0.049 A 
ATOM     52  N   UNL     1      15.068  -7.415  -1.631  1.00  0.00    -0.248 NA
ATOM     53  C   UNL     1      14.572  -5.554  -2.950  1.00  0.00     0.031 C 
ATOM     54  C   UNL     1      13.695  -5.125   1.984  1.00  0.00     0.029 A 
ATOM     55  N   UNL     1      14.599  -7.045   1.286  1.00  0.00    -0.354 N 
ATOM     56  C   UNL     1      15.272  -7.723  -2.969  1.00  0.00     0.074 A 
ATOM     57  C   UNL     1      14.868  -6.571  -3.742  1.00  0.00     0.031 C 
ATOM     58  C   UNL     1      13.867  -5.902   3.065  1.00  0.00     0.029 A 
ATOM     59  C   UNL     1      14.459  -7.168   2.648  1.00  0.00     0.049 A 
ATOM     60  H   UNL     1      14.959  -7.762   0.715  1.00  0.00     0.167 HD
ATOM     61  C   UNL     1      15.787  -8.855  -3.501  1.00  0.00     0.037 A 
ATOM     62  C   UNL     1      14.789  -8.188   3.461  1.00  0.00     0.037 A 
ATOM     63  C   UNL     1      16.231  -9.969  -2.710  1.00  0.00     0.049 A 
ATOM     64  C   UNL     1      15.425  -9.407   2.854  1.00  0.00     0.074 A 
ATOM     65  C   UNL     1      16.829 -11.143  -3.126  1.00  0.00     0.029 A 
ATOM     66  N   UNL     1      16.134 -10.032  -1.326  1.00  0.00    -0.354 N 
ATOM     67  N   UNL     1      15.682  -9.661   1.592  1.00  0.00    -0.248 NA
ATOM     68  C   UNL     1      15.831 -10.474   3.778  1.00  0.00     0.031 C 
ATOM     69  C   UNL     1      17.075 -11.927  -1.994  1.00  0.00     0.029 A 
ATOM     70  C   UNL     1      16.660 -11.226  -0.871  1.00  0.00     0.049 A 
ATOM     71  H   UNL     1      15.748  -9.330  -0.754  1.00  0.00     0.167 HD
ATOM     72  C   UNL     1      16.299 -10.903   1.571  1.00  0.00     0.074 A 
ATOM     73  C   UNL     1      16.393 -11.343   2.950  1.00  0.00     0.031 C 
ATOM     74  C   UNL     1      16.745 -11.621   0.512  1.00  0.00     0.037 A 
BRANCH  61  75
ATOM     75  C   UNL     1      15.908  -8.918  -4.995  1.00  0.00     0.057 A 
ATOM     76  C   UNL     1      16.823  -8.119  -5.695  1.00  0.00     0.134 A 
ATOM     77  C   UNL     1      15.095  -9.776  -5.745  1.00  0.00     0.134 A 
ATOM     78  F   UNL     1      17.616  -7.259  -5.038  1.00  0.00    -0.206 F 
ATOM     79  C   UNL     1      16.901  -8.145  -7.088  1.00  0.00     0.040 A 
ATOM     80  C   UNL     1      15.184  -9.832  -7.138  1.00  0.00     0.040 A 
ATOM     81  F   UNL     1      14.197 -10.568  -5.140  1.00  0.00    -0.206 F 
ATOM     82  C   UNL     1      16.082  -9.008  -7.814  1.00  0.00     0.006 A 
ENDBRANCH  61  75
BRANCH  62  83
ATOM     83  C   UNL     1      14.582  -8.074   4.927  1.00  0.00     0.057 A 
ATOM     84  C   UNL     1      15.669  -7.932   5.798  1.00  0.00     0.134 A 
ATOM     85  C   UNL     1      13.303  -8.094   5.495  1.00  0.00     0.134 A 
ATOM     86  F   UNL     1      16.921  -7.917   5.316  1.00  0.00    -0.206 F 
ATOM     87  C   UNL     1      15.495  -7.835   7.180  1.00  0.00     0.040 A 
ATOM     88  C   UNL     1      13.112  -7.976   6.873  1.00  0.00     0.040 A 
ATOM     89  F   UNL     1      12.218  -8.213   4.716  1.00  0.00    -0.206 F 
ATOM     90  C   UNL     1      14.211  -7.853   7.721  1.00  0.00     0.006 A 
ENDBRANCH  62  83
BRANCH  74  91
ATOM     91  C   UNL     1      17.393 -12.937   0.812  1.00  0.00     0.057 A 
ATOM     92  C   UNL     1      16.641 -14.057   1.183  1.00  0.00     0.134 A 
ATOM     93  C   UNL     1      18.778 -13.094   0.679  1.00  0.00     0.134 A 
ATOM     94  F   UNL     1      15.312 -13.963   1.338  1.00  0.00    -0.206 F 
ATOM     95  C   UNL     1      17.248 -15.288   1.430  1.00  0.00     0.040 A 
ATOM     96  C   UNL     1      19.393 -14.325   0.900  1.00  0.00     0.040 A 
ATOM     97  F   UNL     1      19.550 -12.058   0.317  1.00  0.00    -0.206 F 
ATOM     98  C   UNL     1      18.628 -15.426   1.282  1.00  0.00     0.006 A 
ENDBRANCH  74  91
ENDBRANCH  48  49
ENDBRANCH  40  43
ENDBRANCH  38  39
ENDBRANCH  37  38
ENDBRANCH   1  37
TORSDOF 15
