REMARK SMILES Cn1cccc1C[NH2+]Cc1ccc(C(=O)NCCCNC(=O)c2ccc(-c3c4nc(c(-c5c(F)cccc5F)c5ccc([nH]5)c(-c5c(F)cccc5F)c5nc(c(-c6c(F)cccc6F)c6ccc3[nH]6)C=C5)C=C4)cc2)cc1
REMARK SMILES IDX 17 1 16 2 14 3 15 4 13 6 10 7 11 8 78 9 12 10 77 11 9 12
REMARK SMILES IDX 8 13 7 16 6 17 1 18 2 19 3 20 4 21 5 22 18 23 19 24 20 25
REMARK SMILES IDX 21 26 22 28 23 29 24 30 76 31 25 32 75 33 26 34 27 35 28 36
REMARK SMILES IDX 69 37 29 38 74 39 68 40 70 41 30 42 73 43 67 44 66 45 31 47
REMARK SMILES IDX 57 48 40 49 56 50 41 51 44 52 55 53 71 54 42 55 43 56 54 58
REMARK SMILES IDX 72 59 45 60 32 61 33 62 38 63 34 64 35 65 37 66 39 67 36 68
REMARK SMILES IDX 58 69 59 70 64 71 60 72 61 73 63 74 65 75 62 76 46 77 47 78
REMARK SMILES IDX 52 79 48 80 49 81 51 82 53 83 50 84
REMARK H PARENT 16 5 8 14 8 15 20 27 70 46 44 57
REMARK Flexibility Score: inf
ROOT
ATOM      1  C   UNL     1       6.440  -2.161   1.062  1.00  0.00     0.118 C 
ENDROOT
BRANCH   1   2
ATOM      2  N   UNL     1       6.858  -3.460   1.562  1.00  0.00    -0.352 N 
ATOM      3  C   UNL     1       6.122  -4.583   1.853  1.00  0.00     0.251 C 
ATOM      4  O   UNL     1       6.708  -5.624   2.138  1.00  0.00    -0.269 OA
ATOM      5  H   UNL     1       7.826  -3.550   1.717  1.00  0.00     0.163 HD
BRANCH   3   6
ATOM      6  C   UNL     1       4.643  -4.577   1.769  1.00  0.00     0.039 A 
ATOM      7  C   UNL     1       1.845  -4.597   1.443  1.00  0.00     0.006 A 
ATOM      8  C   UNL     1       2.627  -5.670   0.988  1.00  0.00     0.010 A 
ATOM      9  C   UNL     1       2.478  -3.567   2.155  1.00  0.00     0.010 A 
ATOM     10  C   UNL     1       4.015  -5.661   1.148  1.00  0.00     0.014 A 
ATOM     11  C   UNL     1       3.864  -3.559   2.319  1.00  0.00     0.014 A 
BRANCH   7  12
ATOM     12  C   UNL     1       0.348  -4.615   1.204  1.00  0.00     0.297 C 
BRANCH  12  13
ATOM     13  N   UNL     1      -0.273  -3.307   1.014  1.00  0.00    -0.338 N 
ATOM     14  H   UNL     1      -1.285  -3.431   0.998  1.00  0.00     0.346 HD
ATOM     15  H   UNL     1       0.036  -2.717   1.787  1.00  0.00     0.346 HD
BRANCH  13  16
ATOM     16  C   UNL     1       0.129  -2.638  -0.218  1.00  0.00     0.316 C 
BRANCH  16  17
ATOM     17  C   UNL     1      -0.286  -1.200  -0.135  1.00  0.00     0.072 A 
ATOM     18  C   UNL     1       2.019  -0.122  -0.081  1.00  0.00     0.149 C 
ATOM     19  N   UNL     1       0.572  -0.122  -0.073  1.00  0.00    -0.350 N 
ATOM     20  C   UNL     1      -0.158   1.042   0.003  1.00  0.00     0.085 A 
ATOM     21  C   UNL     1      -1.493   0.716  -0.007  1.00  0.00     0.020 A 
ATOM     22  C   UNL     1      -1.575  -0.689  -0.097  1.00  0.00     0.029 A 
ENDBRANCH  16  17
ENDBRANCH  13  16
ENDBRANCH  12  13
ENDBRANCH   7  12
ENDBRANCH   3   6
ENDBRANCH   1   2
BRANCH   1  23
ATOM     23  C   UNL     1       6.505  -1.088   2.147  1.00  0.00     0.042 C 
BRANCH  23  24
ATOM     24  C   UNL     1       7.925  -0.704   2.553  1.00  0.00     0.118 C 
BRANCH  24  25
ATOM     25  N   UNL     1       8.604   0.060   1.520  1.00  0.00    -0.352 N 
ATOM     26  C   UNL     1       9.221   1.283   1.583  1.00  0.00     0.251 C 
ATOM     27  H   UNL     1       8.624  -0.369   0.634  1.00  0.00     0.163 HD
ATOM     28  O   UNL     1       9.557   1.832   0.536  1.00  0.00    -0.269 OA
BRANCH  26  29
ATOM     29  C   UNL     1       9.483   1.957   2.877  1.00  0.00     0.039 A 
ATOM     30  C   UNL     1       9.396   3.353   2.925  1.00  0.00     0.014 A 
ATOM     31  C   UNL     1       9.888   1.253   4.015  1.00  0.00     0.014 A 
ATOM     32  C   UNL     1       9.690   4.035   4.108  1.00  0.00     0.010 A 
ATOM     33  C   UNL     1      10.114   1.928   5.216  1.00  0.00     0.010 A 
ATOM     34  C   UNL     1      10.040   3.328   5.269  1.00  0.00    -0.014 A 
BRANCH  34  35
ATOM     35  C   UNL     1      10.370   4.050   6.524  1.00  0.00     0.031 A 
ATOM     36  C   UNL     1      11.771   4.015   7.075  1.00  0.00     0.074 A 
ATOM     37  C   UNL     1       9.407   4.722   7.182  1.00  0.00     0.049 A 
ATOM     38  N   UNL     1      12.251   4.585   8.152  1.00  0.00    -0.248 NA
ATOM     39  C   UNL     1      12.757   3.217   6.330  1.00  0.00     0.031 C 
ATOM     40  C   UNL     1       8.001   4.794   6.781  1.00  0.00     0.029 A 
ATOM     41  N   UNL     1       9.465   5.476   8.327  1.00  0.00    -0.354 N 
ATOM     42  C   UNL     1      13.585   4.203   8.221  1.00  0.00     0.074 A 
ATOM     43  C   UNL     1      13.826   3.313   7.106  1.00  0.00     0.031 C 
ATOM     44  C   UNL     1       7.336   5.572   7.650  1.00  0.00     0.029 A 
ATOM     45  C   UNL     1       8.262   6.036   8.679  1.00  0.00     0.049 A 
ATOM     46  H   UNL     1      10.292   5.603   8.847  1.00  0.00     0.167 HD
ATOM     47  C   UNL     1      14.530   4.576   9.117  1.00  0.00     0.037 A 
ATOM     48  C   UNL     1       7.944   6.842   9.709  1.00  0.00     0.037 A 
ATOM     49  C   UNL     1      14.299   5.484  10.210  1.00  0.00     0.049 A 
ATOM     50  C   UNL     1       9.018   7.272  10.668  1.00  0.00     0.074 A 
ATOM     51  C   UNL     1      15.203   5.960  11.144  1.00  0.00     0.029 A 
ATOM     52  N   UNL     1      13.074   6.059  10.511  1.00  0.00    -0.354 N 
ATOM     53  N   UNL     1      10.289   6.951  10.684  1.00  0.00    -0.248 NA
ATOM     54  C   UNL     1       8.616   8.191  11.742  1.00  0.00     0.031 C 
ATOM     55  C   UNL     1      14.518   6.803  12.027  1.00  0.00     0.029 A 
ATOM     56  C   UNL     1      13.197   6.880  11.619  1.00  0.00     0.049 A 
ATOM     57  H   UNL     1      12.240   5.905  10.010  1.00  0.00     0.167 HD
ATOM     58  C   UNL     1      10.843   7.649  11.749  1.00  0.00     0.074 A 
ATOM     59  C   UNL     1       9.773   8.422  12.345  1.00  0.00     0.031 C 
ATOM     60  C   UNL     1      12.124   7.651  12.193  1.00  0.00     0.037 A 
BRANCH  47  61
ATOM     61  C   UNL     1      15.907   4.003   8.944  1.00  0.00     0.057 A 
ATOM     62  C   UNL     1      16.744   4.402   7.894  1.00  0.00     0.134 A 
ATOM     63  C   UNL     1      16.410   3.059   9.848  1.00  0.00     0.134 A 
ATOM     64  F   UNL     1      16.318   5.293   6.986  1.00  0.00    -0.206 F 
ATOM     65  C   UNL     1      18.023   3.864   7.734  1.00  0.00     0.040 A 
ATOM     66  C   UNL     1      17.696   2.532   9.713  1.00  0.00     0.040 A 
ATOM     67  F   UNL     1      15.663   2.637  10.879  1.00  0.00    -0.206 F 
ATOM     68  C   UNL     1      18.503   2.930   8.649  1.00  0.00     0.006 A 
ENDBRANCH  47  61
BRANCH  48  69
ATOM     69  C   UNL     1       6.553   7.336   9.860  1.00  0.00     0.057 A 
ATOM     70  C   UNL     1       6.231   8.673   9.596  1.00  0.00     0.134 A 
ATOM     71  C   UNL     1       5.518   6.492  10.275  1.00  0.00     0.134 A 
ATOM     72  F   UNL     1       7.186   9.533   9.212  1.00  0.00    -0.206 F 
ATOM     73  C   UNL     1       4.933   9.158   9.758  1.00  0.00     0.040 A 
ATOM     74  C   UNL     1       4.210   6.958  10.420  1.00  0.00     0.040 A 
ATOM     75  F   UNL     1       5.762   5.199  10.536  1.00  0.00    -0.206 F 
ATOM     76  C   UNL     1       3.917   8.297  10.168  1.00  0.00     0.006 A 
ENDBRANCH  48  69
BRANCH  60  77
ATOM     77  C   UNL     1      12.440   8.545  13.355  1.00  0.00     0.057 A 
ATOM     78  C   UNL     1      12.018   8.246  14.656  1.00  0.00     0.134 A 
ATOM     79  C   UNL     1      13.189   9.714  13.168  1.00  0.00     0.134 A 
ATOM     80  F   UNL     1      11.286   7.148  14.898  1.00  0.00    -0.206 F 
ATOM     81  C   UNL     1      12.304   9.094  15.727  1.00  0.00     0.040 A 
ATOM     82  C   UNL     1      13.502  10.557  14.235  1.00  0.00     0.040 A 
ATOM     83  F   UNL     1      13.630  10.054  11.948  1.00  0.00    -0.206 F 
ATOM     84  C   UNL     1      13.052  10.251  15.518  1.00  0.00     0.006 A 
ENDBRANCH  60  77
ENDBRANCH  34  35
ENDBRANCH  26  29
ENDBRANCH  24  25
ENDBRANCH  23  24
ENDBRANCH   1  23
TORSDOF 14
