REMARK SMILES COc1cccc(C(=O)/C=C(/Nc2cc(C)c(C)cc2[N+](=O)[O-])C(=O)NCCCNC(=O)c2ccc(-c3c4nc(c(-c5c(F)cccc5F)c5ccc([nH]5)c(-c5c(F)cccc5F)c5nc(c(-c6c(F)cccc6F)c6ccc3[nH]6)C=C5)C=C4)cc2)c1
REMARK SMILES IDX 27 1 26 2 24 3 25 4 11 6 10 7 8 8 9 9 7 10 3 11 4 12 87 13
REMARK SMILES IDX 5 14 6 15 2 16 1 17 12 18 13 20 14 21 20 22 15 23 19 24
REMARK SMILES IDX 16 25 17 26 18 27 21 28 22 29 23 30 28 31 29 32 30 33 31 34
REMARK SMILES IDX 32 36 33 37 34 38 86 39 35 40 85 41 36 42 37 43 38 44 79 45
REMARK SMILES IDX 39 46 84 47 78 48 80 49 40 50 83 51 77 52 76 53 41 55 67 56
REMARK SMILES IDX 50 57 66 58 51 59 54 60 65 61 81 62 52 63 53 64 64 66 82 67
REMARK SMILES IDX 55 68 42 69 43 70 48 71 44 72 45 73 47 74 49 75 46 76 68 77
REMARK SMILES IDX 69 78 74 79 70 80 71 81 73 82 75 83 72 84 56 85 57 86 62 87
REMARK SMILES IDX 58 88 59 89 61 90 63 91 60 92
REMARK H PARENT 26 5 12 19 30 35 80 54 54 65
REMARK Flexibility Score: inf
ROOT
ATOM      1  C   UNL     1       3.689   0.760  -0.203  1.00  0.00     0.118 C 
ENDROOT
BRANCH   1   2
ATOM      2  N   UNL     1       2.995  -0.424   0.253  1.00  0.00    -0.351 N 
ATOM      3  C   UNL     1       3.482  -1.705   0.318  1.00  0.00     0.267 C 
ATOM      4  O   UNL     1       2.863  -2.563   0.938  1.00  0.00    -0.268 OA
ATOM      5  H   UNL     1       2.066  -0.296   0.551  1.00  0.00     0.163 HD
BRANCH   3   6
ATOM      6  C   UNL     1       4.755  -2.047  -0.397  1.00  0.00     0.108 C 
ATOM      7  C   UNL     1       4.660  -2.828  -1.492  1.00  0.00     0.084 C 
BRANCH   7   8
ATOM      8  C   UNL     1       3.578  -3.531  -2.250  1.00  0.00     0.188 C 
ATOM      9  O   UNL     1       3.909  -4.163  -3.256  1.00  0.00    -0.289 OA
BRANCH   8  10
ATOM     10  C   UNL     1       2.157  -3.573  -1.862  1.00  0.00     0.026 A 
ATOM     11  C   UNL     1       0.033  -2.521  -1.373  1.00  0.00     0.119 A 
ATOM     12  C   UNL     1      -0.521  -3.787  -1.156  1.00  0.00     0.046 A 
ATOM     13  C   UNL     1       1.367  -2.418  -1.776  1.00  0.00     0.058 A 
ATOM     14  C   UNL     1       0.234  -4.943  -1.337  1.00  0.00     0.005 A 
ATOM     15  C   UNL     1       1.576  -4.836  -1.688  1.00  0.00     0.012 A 
BRANCH  11  16
ATOM     16  O   UNL     1      -0.845  -1.505  -1.135  1.00  0.00    -0.497 OA
ATOM     17  C   UNL     1      -0.457  -0.163  -1.351  1.00  0.00     0.278 C 
ENDBRANCH  11  16
ENDBRANCH   8  10
ENDBRANCH   7   8
BRANCH   6  18
ATOM     18  N   UNL     1       5.994  -1.551   0.048  1.00  0.00    -0.345 N 
ATOM     19  H   UNL     1       6.788  -1.950  -0.376  1.00  0.00     0.167 HD
BRANCH  18  20
ATOM     20  C   UNL     1       6.257  -0.558   1.021  1.00  0.00     0.118 A 
ATOM     21  C   UNL     1       6.889   0.616   0.556  1.00  0.00     0.037 A 
ATOM     22  C   UNL     1       5.734  -0.523   2.321  1.00  0.00     0.292 A 
ATOM     23  C   UNL     1       6.840   1.831   1.274  1.00  0.00    -0.046 A 
ATOM     24  C   UNL     1       5.680   0.675   3.057  1.00  0.00     0.091 A 
ATOM     25  C   UNL     1       7.390   3.066   0.608  1.00  0.00     0.045 C 
ATOM     26  C   UNL     1       6.164   1.872   2.507  1.00  0.00    -0.041 A 
ATOM     27  C   UNL     1       5.901   3.165   3.232  1.00  0.00     0.045 C 
BRANCH  22  28
ATOM     28  N   UNL     1       5.260  -1.739   2.974  1.00  0.00     0.064 N 
ATOM     29  O   UNL     1       4.274  -1.632   3.718  1.00  0.00    -0.258 OA
ATOM     30  O   UNL     1       5.915  -2.776   2.798  1.00  0.00    -0.258 OA
ENDBRANCH  22  28
ENDBRANCH  18  20
ENDBRANCH   6  18
ENDBRANCH   3   6
ENDBRANCH   1   2
BRANCH   1  31
ATOM     31  C   UNL     1       2.846   1.871  -0.784  1.00  0.00     0.042 C 
BRANCH  31  32
ATOM     32  C   UNL     1       1.754   2.431   0.114  1.00  0.00     0.118 C 
BRANCH  32  33
ATOM     33  N   UNL     1       2.116   2.664   1.507  1.00  0.00    -0.352 N 
ATOM     34  C   UNL     1       2.085   3.797   2.282  1.00  0.00     0.251 C 
ATOM     35  H   UNL     1       2.441   1.863   1.978  1.00  0.00     0.163 HD
ATOM     36  O   UNL     1       2.415   3.729   3.464  1.00  0.00    -0.269 OA
BRANCH  34  37
ATOM     37  C   UNL     1       1.758   5.115   1.694  1.00  0.00     0.039 A 
ATOM     38  C   UNL     1       2.553   6.211   2.045  1.00  0.00     0.014 A 
ATOM     39  C   UNL     1       0.735   5.274   0.762  1.00  0.00     0.014 A 
ATOM     40  C   UNL     1       2.421   7.415   1.351  1.00  0.00     0.010 A 
ATOM     41  C   UNL     1       0.687   6.429  -0.011  1.00  0.00     0.010 A 
ATOM     42  C   UNL     1       1.546   7.505   0.259  1.00  0.00    -0.014 A 
BRANCH  42  43
ATOM     43  C   UNL     1       1.526   8.691  -0.636  1.00  0.00     0.031 A 
ATOM     44  C   UNL     1       0.249   9.457  -0.844  1.00  0.00     0.074 A 
ATOM     45  C   UNL     1       2.626   9.011  -1.349  1.00  0.00     0.049 A 
ATOM     46  N   UNL     1      -0.017  10.404  -1.707  1.00  0.00    -0.248 NA
ATOM     47  C   UNL     1      -0.894   9.075  -0.000  1.00  0.00     0.031 C 
ATOM     48  C   UNL     1       3.914   8.314  -1.288  1.00  0.00     0.029 A 
ATOM     49  N   UNL     1       2.831   9.998  -2.281  1.00  0.00    -0.354 N 
ATOM     50  C   UNL     1      -1.362  10.701  -1.536  1.00  0.00     0.074 A 
ATOM     51  C   UNL     1      -1.870   9.802  -0.523  1.00  0.00     0.031 C 
ATOM     52  C   UNL     1       4.779   8.912  -2.123  1.00  0.00     0.029 A 
ATOM     53  C   UNL     1       4.098  10.001  -2.813  1.00  0.00     0.049 A 
ATOM     54  H   UNL     1       2.135  10.642  -2.545  1.00  0.00     0.167 HD
ATOM     55  C   UNL     1      -2.104  11.654  -2.149  1.00  0.00     0.037 A 
ATOM     56  C   UNL     1       4.647  10.784  -3.761  1.00  0.00     0.037 A 
ATOM     57  C   UNL     1      -1.585  12.587  -3.112  1.00  0.00     0.049 A 
ATOM     58  C   UNL     1       3.812  11.853  -4.405  1.00  0.00     0.074 A 
ATOM     59  C   UNL     1      -2.235  13.644  -3.725  1.00  0.00     0.029 A 
ATOM     60  N   UNL     1      -0.286  12.581  -3.594  1.00  0.00    -0.354 N 
ATOM     61  N   UNL     1       2.554  12.157  -4.194  1.00  0.00    -0.248 NA
ATOM     62  C   UNL     1       4.470  12.685  -5.423  1.00  0.00     0.031 C 
ATOM     63  C   UNL     1      -1.335  14.261  -4.601  1.00  0.00     0.029 A 
ATOM     64  C   UNL     1      -0.117  13.607  -4.508  1.00  0.00     0.049 A 
ATOM     65  H   UNL     1       0.414  11.942  -3.326  1.00  0.00     0.167 HD
ATOM     66  C   UNL     1       2.275  13.225  -5.036  1.00  0.00     0.074 A 
ATOM     67  C   UNL     1       3.499  13.526  -5.751  1.00  0.00     0.031 C 
ATOM     68  C   UNL     1       1.109  13.894  -5.206  1.00  0.00     0.037 A 
BRANCH  55  69
ATOM     69  C   UNL     1      -3.556  11.737  -1.782  1.00  0.00     0.057 A 
ATOM     70  C   UNL     1      -3.974  12.210  -0.531  1.00  0.00     0.134 A 
ATOM     71  C   UNL     1      -4.547  11.355  -2.694  1.00  0.00     0.134 A 
ATOM     72  F   UNL     1      -3.073  12.576   0.393  1.00  0.00    -0.206 F 
ATOM     73  C   UNL     1      -5.326  12.271  -0.189  1.00  0.00     0.040 A 
ATOM     74  C   UNL     1      -5.903  11.436  -2.373  1.00  0.00     0.040 A 
ATOM     75  F   UNL     1      -4.215  10.897  -3.910  1.00  0.00    -0.206 F 
ATOM     76  C   UNL     1      -6.295  11.888  -1.114  1.00  0.00     0.006 A 
ENDBRANCH  55  69
BRANCH  56  77
ATOM     77  C   UNL     1       6.068  10.601  -4.148  1.00  0.00     0.057 A 
ATOM     78  C   UNL     1       7.038  11.539  -3.776  1.00  0.00     0.134 A 
ATOM     79  C   UNL     1       6.490   9.500  -4.901  1.00  0.00     0.134 A 
ATOM     80  F   UNL     1       6.690  12.624  -3.070  1.00  0.00    -0.206 F 
ATOM     81  C   UNL     1       8.374  11.399  -4.154  1.00  0.00     0.040 A 
ATOM     82  C   UNL     1       7.827   9.335  -5.269  1.00  0.00     0.040 A 
ATOM     83  F   UNL     1       5.610   8.562  -5.281  1.00  0.00    -0.206 F 
ATOM     84  C   UNL     1       8.772  10.291  -4.900  1.00  0.00     0.006 A 
ENDBRANCH  56  77
BRANCH  68  85
ATOM     85  C   UNL     1       1.108  15.028  -6.185  1.00  0.00     0.057 A 
ATOM     86  C   UNL     1       1.106  14.804  -7.567  1.00  0.00     0.134 A 
ATOM     87  C   UNL     1       1.066  16.355  -5.741  1.00  0.00     0.134 A 
ATOM     88  F   UNL     1       1.161  13.555  -8.054  1.00  0.00    -0.206 F 
ATOM     89  C   UNL     1       1.076  15.863  -8.475  1.00  0.00     0.040 A 
ATOM     90  C   UNL     1       1.014  17.421  -6.638  1.00  0.00     0.040 A 
ATOM     91  F   UNL     1       1.060  16.634  -4.429  1.00  0.00    -0.206 F 
ATOM     92  C   UNL     1       1.023  17.177  -8.010  1.00  0.00     0.006 A 
ENDBRANCH  68  85
ENDBRANCH  42  43
ENDBRANCH  34  37
ENDBRANCH  32  33
ENDBRANCH  31  32
ENDBRANCH   1  31
TORSDOF 16
