REMARK SMILES Cc1cc2c(c(C)c1Cl)C=C(C(=O)NCCCNC(=O)c1ccc(-c3c4nc(c(-c5c(F)cccc5F)c5ccc([nH]5)c(-c5c(F)cccc5F)c5nc(c(-c6c(F)cccc6F)c6ccc3[nH]6)C=C5)C=C4)cc1)[C@@H](C(F)(F)F)O2
REMARK SMILES IDX 16 1 15 2 14 3 12 4 13 5 11 7 1 8 2 9 3 10 8 11 4 12 6 13
REMARK SMILES IDX 9 14 5 15 80 16 7 17 10 18 75 19 76 20 77 21 78 22 79 23
REMARK SMILES IDX 17 24 18 25 19 26 20 28 21 29 22 30 74 31 23 32 73 33 24 34
REMARK SMILES IDX 25 35 26 36 67 37 27 38 72 39 66 40 68 41 28 42 71 43 65 44
REMARK SMILES IDX 64 45 29 47 55 48 38 49 54 50 39 51 42 52 53 53 69 54 40 55
REMARK SMILES IDX 41 56 52 58 70 59 43 60 30 61 31 62 36 63 32 64 33 65 35 66
REMARK SMILES IDX 37 67 34 68 56 69 57 70 62 71 58 72 59 73 61 74 63 75 60 76
REMARK SMILES IDX 44 77 45 78 50 79 46 80 47 81 49 82 51 83 48 84
REMARK H PARENT 14 6 18 27 68 46 42 57
REMARK Flexibility Score: inf
ROOT
ATOM      1  C   UNL     1       0.798  -9.751   0.150  1.00  0.00     0.042 C 
ENDROOT
BRANCH   1   2
ATOM      2  C   UNL     1       1.406  -9.012  -1.031  1.00  0.00     0.118 C 
BRANCH   2   3
ATOM      3  N   UNL     1       0.384  -8.553  -1.960  1.00  0.00    -0.352 N 
ATOM      4  C   UNL     1      -0.184  -7.379  -2.316  1.00  0.00     0.251 C 
ATOM      5  O   UNL     1      -1.076  -7.466  -3.166  1.00  0.00    -0.270 OA
ATOM      6  H   UNL     1      -0.000  -9.304  -2.468  1.00  0.00     0.163 HD
BRANCH   4   7
ATOM      7  C   UNL     1       0.191  -6.043  -1.769  1.00  0.00     0.067 C 
ATOM      8  C   UNL     1       0.940   0.186  -0.090  1.00  0.00     0.046 C 
ATOM      9  C   UNL     1       0.507  -1.110  -0.720  1.00  0.00    -0.028 A 
ATOM     10  C   UNL     1       1.026  -2.284  -0.164  1.00  0.00     0.052 A 
ATOM     11  C   UNL     1      -0.410  -1.212  -1.786  1.00  0.00     0.047 A 
ATOM     12  C   UNL     1       0.678  -3.526  -0.679  1.00  0.00     0.128 A 
ATOM     13  C   UNL     1      -0.775  -2.476  -2.320  1.00  0.00    -0.021 A 
ATOM     14  Cl  UNL     1      -1.106   0.243  -2.433  1.00  0.00    -0.084 Cl
ATOM     15  C   UNL     1      -0.213  -3.644  -1.750  1.00  0.00     0.022 A 
ATOM     16  O   UNL     1       1.231  -4.599  -0.041  1.00  0.00    -0.475 OA
ATOM     17  C   UNL     1      -1.742  -2.607  -3.475  1.00  0.00     0.047 C 
ATOM     18  C   UNL     1      -0.543  -5.001  -2.201  1.00  0.00     0.026 C 
ATOM     19  C   UNL     1       1.328  -5.817  -0.820  1.00  0.00     0.314 C 
BRANCH  19  20
ATOM     20  C   UNL     1       2.706  -5.882  -1.506  1.00  0.00     0.429 C 
ATOM     21  F   UNL     1       3.683  -6.063  -0.581  1.00  0.00    -0.167 F 
ATOM     22  F   UNL     1       2.808  -6.915  -2.375  1.00  0.00    -0.167 F 
ATOM     23  F   UNL     1       3.003  -4.759  -2.195  1.00  0.00    -0.167 F 
ENDBRANCH  19  20
ENDBRANCH   4   7
ENDBRANCH   2   3
ENDBRANCH   1   2
BRANCH   1  24
ATOM     24  C   UNL     1       0.348 -11.155  -0.231  1.00  0.00     0.118 C 
BRANCH  24  25
ATOM     25  N   UNL     1       1.480 -12.005  -0.590  1.00  0.00    -0.352 N 
ATOM     26  C   UNL     1       2.144 -12.951   0.150  1.00  0.00     0.251 C 
ATOM     27  H   UNL     1       1.820 -11.880  -1.505  1.00  0.00     0.163 HD
ATOM     28  O   UNL     1       3.249 -13.351  -0.213  1.00  0.00    -0.269 OA
BRANCH  26  29
ATOM     29  C   UNL     1       1.534 -13.483   1.381  1.00  0.00     0.039 A 
ATOM     30  C   UNL     1       2.334 -13.719   2.502  1.00  0.00     0.014 A 
ATOM     31  C   UNL     1       0.169 -13.772   1.418  1.00  0.00     0.014 A 
ATOM     32  C   UNL     1       1.747 -14.186   3.678  1.00  0.00     0.010 A 
ATOM     33  C   UNL     1      -0.431 -14.126   2.617  1.00  0.00     0.010 A 
ATOM     34  C   UNL     1       0.355 -14.361   3.752  1.00  0.00    -0.014 A 
BRANCH  34  35
ATOM     35  C   UNL     1      -0.297 -14.836   4.994  1.00  0.00     0.031 A 
ATOM     36  C   UNL     1      -1.019 -16.154   5.001  1.00  0.00     0.074 A 
ATOM     37  C   UNL     1      -0.274 -14.064   6.096  1.00  0.00     0.049 A 
ATOM     38  N   UNL     1      -1.663 -16.737   5.979  1.00  0.00    -0.248 NA
ATOM     39  C   UNL     1      -1.046 -16.904   3.734  1.00  0.00     0.031 C 
ATOM     40  C   UNL     1       0.358 -12.747   6.192  1.00  0.00     0.029 A 
ATOM     41  N   UNL     1      -0.784 -14.282   7.349  1.00  0.00    -0.354 N 
ATOM     42  C   UNL     1      -2.165 -17.916   5.444  1.00  0.00     0.074 A 
ATOM     43  C   UNL     1      -1.833 -17.924   4.038  1.00  0.00     0.031 C 
ATOM     44  C   UNL     1       0.249 -12.301   7.453  1.00  0.00     0.029 A 
ATOM     45  C   UNL     1      -0.490 -13.281   8.242  1.00  0.00     0.049 A 
ATOM     46  H   UNL     1      -1.310 -15.079   7.587  1.00  0.00     0.167 HD
ATOM     47  C   UNL     1      -2.804 -18.927   6.077  1.00  0.00     0.037 A 
ATOM     48  C   UNL     1      -0.773 -13.177   9.554  1.00  0.00     0.037 A 
ATOM     49  C   UNL     1      -3.116 -18.922   7.479  1.00  0.00     0.049 A 
ATOM     50  C   UNL     1      -1.530 -14.286  10.229  1.00  0.00     0.074 A 
ATOM     51  C   UNL     1      -3.727 -19.908   8.231  1.00  0.00     0.029 A 
ATOM     52  N   UNL     1      -2.839 -17.870   8.341  1.00  0.00    -0.354 N 
ATOM     53  N   UNL     1      -1.947 -15.423   9.727  1.00  0.00    -0.248 NA
ATOM     54  C   UNL     1      -1.861 -14.095  11.648  1.00  0.00     0.031 C 
ATOM     55  C   UNL     1      -3.860 -19.435   9.540  1.00  0.00     0.029 A 
ATOM     56  C   UNL     1      -3.292 -18.172   9.613  1.00  0.00     0.049 A 
ATOM     57  H   UNL     1      -2.387 -17.034   8.086  1.00  0.00     0.167 HD
ATOM     58  C   UNL     1      -2.575 -16.092  10.769  1.00  0.00     0.074 A 
ATOM     59  C   UNL     1      -2.472 -15.237  11.935  1.00  0.00     0.031 C 
ATOM     60  C   UNL     1      -3.184 -17.303  10.759  1.00  0.00     0.037 A 
BRANCH  47  61
ATOM     61  C   UNL     1      -3.178 -20.123   5.252  1.00  0.00     0.057 A 
ATOM     62  C   UNL     1      -2.204 -20.986   4.728  1.00  0.00     0.134 A 
ATOM     63  C   UNL     1      -4.517 -20.420   4.974  1.00  0.00     0.134 A 
ATOM     64  F   UNL     1      -0.900 -20.750   4.943  1.00  0.00    -0.206 F 
ATOM     65  C   UNL     1      -2.546 -22.077   3.929  1.00  0.00     0.040 A 
ATOM     66  C   UNL     1      -4.874 -21.527   4.201  1.00  0.00     0.040 A 
ATOM     67  F   UNL     1      -5.501 -19.640   5.447  1.00  0.00    -0.206 F 
ATOM     68  C   UNL     1      -3.886 -22.353   3.667  1.00  0.00     0.006 A 
ENDBRANCH  47  61
BRANCH  48  69
ATOM     69  C   UNL     1      -0.271 -12.008  10.318  1.00  0.00     0.057 A 
ATOM     70  C   UNL     1       0.792 -12.150  11.217  1.00  0.00     0.134 A 
ATOM     71  C   UNL     1      -0.791 -10.722  10.131  1.00  0.00     0.134 A 
ATOM     72  F   UNL     1       1.324 -13.360  11.446  1.00  0.00    -0.206 F 
ATOM     73  C   UNL     1       1.323 -11.056  11.901  1.00  0.00     0.040 A 
ATOM     74  C   UNL     1      -0.258  -9.615  10.794  1.00  0.00     0.040 A 
ATOM     75  F   UNL     1      -1.803 -10.519   9.275  1.00  0.00    -0.206 F 
ATOM     76  C   UNL     1       0.803  -9.781  11.683  1.00  0.00     0.006 A 
ENDBRANCH  48  69
BRANCH  60  77
ATOM     77  C   UNL     1      -3.795 -17.785  12.040  1.00  0.00     0.057 A 
ATOM     78  C   UNL     1      -5.003 -17.259  12.514  1.00  0.00     0.134 A 
ATOM     79  C   UNL     1      -3.229 -18.854  12.746  1.00  0.00     0.134 A 
ATOM     80  F   UNL     1      -5.588 -16.228  11.887  1.00  0.00    -0.206 F 
ATOM     81  C   UNL     1      -5.628 -17.782  13.646  1.00  0.00     0.040 A 
ATOM     82  C   UNL     1      -3.857 -19.401  13.865  1.00  0.00     0.040 A 
ATOM     83  F   UNL     1      -2.078 -19.408  12.336  1.00  0.00    -0.206 F 
ATOM     84  C   UNL     1      -5.062 -18.865  14.317  1.00  0.00     0.006 A 
ENDBRANCH  60  77
ENDBRANCH  34  35
ENDBRANCH  26  29
ENDBRANCH  24  25
ENDBRANCH   1  24
TORSDOF 11
