REMARK SMILES COc1cccc(N2C(=O)/C(=C/c3ccccc3C(=O)NCCCNC(=O)c3ccc(-c4c5nc(c(-c6c(F)cccc6F)c6ccc([nH]6)c(-c6c(F)cccc6F)c6nc(c(-c7c(F)cccc7F)c7ccc4[nH]7)C=C6)C=C5)cc3)SC2=S)c1
REMARK SMILES IDX 22 1 21 2 19 3 20 4 18 6 13 7 14 8 15 9 17 10 16 11 12 12
REMARK SMILES IDX 8 13 9 14 83 15 10 16 11 17 82 18 84 19 7 20 3 21 4 22 85 23
REMARK SMILES IDX 5 24 6 25 2 26 1 27 23 28 24 29 25 30 26 31 27 33 28 34
REMARK SMILES IDX 29 35 81 36 30 37 80 38 31 39 32 40 33 41 74 42 34 43 79 44
REMARK SMILES IDX 73 45 75 46 35 47 78 48 72 49 71 50 36 52 62 53 45 54 61 55
REMARK SMILES IDX 46 56 49 57 60 58 76 59 47 60 48 61 59 63 77 64 50 65 37 66
REMARK SMILES IDX 38 67 43 68 39 69 40 70 42 71 44 72 41 73 63 74 64 75 69 76
REMARK SMILES IDX 65 77 66 78 68 79 70 80 67 81 51 82 52 83 57 84 53 85 54 86
REMARK SMILES IDX 56 87 58 88 55 89
REMARK H PARENT 21 5 25 32 75 51 49 62
REMARK Flexibility Score: inf
ROOT
ATOM      1  C   UNL     1       5.901   3.084  -6.465  1.00  0.00     0.118 C 
ENDROOT
BRANCH   1   2
ATOM      2  N   UNL     1       6.719   2.039  -7.019  1.00  0.00    -0.352 N 
ATOM      3  C   UNL     1       7.982   1.672  -6.597  1.00  0.00     0.251 C 
ATOM      4  O   UNL     1       8.508   0.683  -7.104  1.00  0.00    -0.269 OA
ATOM      5  H   UNL     1       6.342   1.535  -7.776  1.00  0.00     0.163 HD
BRANCH   3   6
ATOM      6  C   UNL     1       8.772   2.519  -5.649  1.00  0.00     0.047 A 
ATOM      7  C   UNL     1       8.354   3.032  -4.398  1.00  0.00    -0.012 A 
ATOM      8  C   UNL     1       9.176   3.988  -3.767  1.00  0.00     0.009 A 
ATOM      9  C   UNL     1      10.415   4.353  -4.300  1.00  0.00     0.001 A 
ATOM     10  C   UNL     1      10.050   2.854  -6.142  1.00  0.00     0.014 A 
ATOM     11  C   UNL     1      10.867   3.761  -5.471  1.00  0.00     0.001 A 
BRANCH   7  12
ATOM     12  C   UNL     1       7.076   2.762  -3.702  1.00  0.00     0.030 C 
ATOM     13  N   UNL     1       4.543   0.261  -3.291  1.00  0.00    -0.261 N 
ATOM     14  C   UNL     1       5.056   1.522  -3.006  1.00  0.00     0.270 C 
ATOM     15  C   UNL     1       5.466  -0.700  -3.681  1.00  0.00     0.152 C 
ATOM     16  O   UNL     1       4.459   2.513  -2.600  1.00  0.00    -0.268 OA
ATOM     17  C   UNL     1       6.489   1.585  -3.432  1.00  0.00     0.081 C 
ATOM     18  S   UNL     1       7.077   0.012  -3.749  1.00  0.00    -0.054 SA
ATOM     19  S   UNL     1       5.235  -2.327  -3.991  1.00  0.00    -0.051 S 
BRANCH  13  20
ATOM     20  C   UNL     1       3.138   0.016  -3.242  1.00  0.00     0.054 A 
ATOM     21  C   UNL     1       1.051  -0.113  -2.007  1.00  0.00     0.120 A 
ATOM     22  C   UNL     1       0.387  -0.493  -3.177  1.00  0.00     0.046 A 
ATOM     23  C   UNL     1       2.418   0.189  -2.051  1.00  0.00     0.073 A 
ATOM     24  C   UNL     1       1.082  -0.620  -4.377  1.00  0.00     0.006 A 
ATOM     25  C   UNL     1       2.458  -0.395  -4.403  1.00  0.00     0.027 A 
BRANCH  21  26
ATOM     26  O   UNL     1       0.254  -0.097  -0.895  1.00  0.00    -0.497 OA
ATOM     27  C   UNL     1       0.887   0.149   0.352  1.00  0.00     0.278 C 
ENDBRANCH  21  26
ENDBRANCH  13  20
ENDBRANCH   7  12
ENDBRANCH   3   6
ENDBRANCH   1   2
BRANCH   1  28
ATOM     28  C   UNL     1       4.785   3.637  -7.325  1.00  0.00     0.042 C 
BRANCH  28  29
ATOM     29  C   UNL     1       3.470   2.861  -7.260  1.00  0.00     0.118 C 
BRANCH  29  30
ATOM     30  N   UNL     1       2.975   2.633  -5.904  1.00  0.00    -0.352 N 
ATOM     31  C   UNL     1       1.744   2.721  -5.310  1.00  0.00     0.251 C 
ATOM     32  H   UNL     1       3.683   2.354  -5.279  1.00  0.00     0.163 HD
ATOM     33  O   UNL     1       1.693   2.631  -4.085  1.00  0.00    -0.269 OA
BRANCH  31  34
ATOM     34  C   UNL     1       0.509   3.030  -6.046  1.00  0.00     0.039 A 
ATOM     35  C   UNL     1      -0.529   3.614  -5.308  1.00  0.00     0.014 A 
ATOM     36  C   UNL     1       0.409   2.926  -7.427  1.00  0.00     0.014 A 
ATOM     37  C   UNL     1      -1.525   4.316  -5.966  1.00  0.00     0.010 A 
ATOM     38  C   UNL     1      -0.491   3.744  -8.085  1.00  0.00     0.010 A 
ATOM     39  C   UNL     1      -1.407   4.503  -7.346  1.00  0.00    -0.014 A 
BRANCH  39  40
ATOM     40  C   UNL     1      -2.115   5.617  -8.000  1.00  0.00     0.031 A 
ATOM     41  C   UNL     1      -3.079   5.339  -9.103  1.00  0.00     0.074 A 
ATOM     42  C   UNL     1      -1.769   6.874  -7.648  1.00  0.00     0.049 A 
ATOM     43  N   UNL     1      -3.740   6.186  -9.842  1.00  0.00    -0.248 NA
ATOM     44  C   UNL     1      -3.302   3.925  -9.451  1.00  0.00     0.031 C 
ATOM     45  C   UNL     1      -0.753   7.227  -6.646  1.00  0.00     0.029 A 
ATOM     46  N   UNL     1      -2.218   8.089  -8.091  1.00  0.00    -0.354 N 
ATOM     47  C   UNL     1      -4.445   5.412 -10.750  1.00  0.00     0.074 A 
ATOM     48  C   UNL     1      -4.091   4.032 -10.510  1.00  0.00     0.031 C 
ATOM     49  C   UNL     1      -0.686   8.561  -6.526  1.00  0.00     0.029 A 
ATOM     50  C   UNL     1      -1.612   9.160  -7.475  1.00  0.00     0.049 A 
ATOM     51  H   UNL     1      -2.909   8.188  -8.784  1.00  0.00     0.167 HD
ATOM     52  C   UNL     1      -5.328   5.830 -11.683  1.00  0.00     0.037 A 
ATOM     53  C   UNL     1      -1.782  10.480  -7.670  1.00  0.00     0.037 A 
ATOM     54  C   UNL     1      -5.672   7.212 -11.876  1.00  0.00     0.049 A 
ATOM     55  C   UNL     1      -2.789  10.908  -8.700  1.00  0.00     0.074 A 
ATOM     56  C   UNL     1      -6.617   7.753 -12.726  1.00  0.00     0.029 A 
ATOM     57  N   UNL     1      -5.072   8.273 -11.210  1.00  0.00    -0.354 N 
ATOM     58  N   UNL     1      -3.542  10.162  -9.473  1.00  0.00    -0.248 NA
ATOM     59  C   UNL     1      -2.974  12.351  -8.887  1.00  0.00     0.031 C 
ATOM     60  C   UNL     1      -6.549   9.144 -12.617  1.00  0.00     0.029 A 
ATOM     61  C   UNL     1      -5.600   9.470 -11.659  1.00  0.00     0.049 A 
ATOM     62  H   UNL     1      -4.375   8.185 -10.520  1.00  0.00     0.167 HD
ATOM     63  C   UNL     1      -4.300  11.042 -10.229  1.00  0.00     0.074 A 
ATOM     64  C   UNL     1      -3.937  12.378  -9.796  1.00  0.00     0.031 C 
ATOM     65  C   UNL     1      -5.207  10.778 -11.201  1.00  0.00     0.037 A 
BRANCH  52  66
ATOM     66  C   UNL     1      -5.970   4.792 -12.550  1.00  0.00     0.057 A 
ATOM     67  C   UNL     1      -6.906   3.879 -12.044  1.00  0.00     0.134 A 
ATOM     68  C   UNL     1      -5.675   4.724 -13.916  1.00  0.00     0.134 A 
ATOM     69  F   UNL     1      -7.217   3.876 -10.739  1.00  0.00    -0.206 F 
ATOM     70  C   UNL     1      -7.514   2.928 -12.864  1.00  0.00     0.040 A 
ATOM     71  C   UNL     1      -6.296   3.795 -14.752  1.00  0.00     0.040 A 
ATOM     72  F   UNL     1      -4.783   5.564 -14.463  1.00  0.00    -0.206 F 
ATOM     73  C   UNL     1      -7.217   2.891 -14.225  1.00  0.00     0.006 A 
ENDBRANCH  52  66
BRANCH  53  74
ATOM     74  C   UNL     1      -0.993  11.474  -6.895  1.00  0.00     0.057 A 
ATOM     75  C   UNL     1      -1.608  12.339  -5.981  1.00  0.00     0.134 A 
ATOM     76  C   UNL     1       0.392  11.603  -7.064  1.00  0.00     0.134 A 
ATOM     77  F   UNL     1      -2.932  12.275  -5.779  1.00  0.00    -0.206 F 
ATOM     78  C   UNL     1      -0.884  13.315  -5.293  1.00  0.00     0.040 A 
ATOM     79  C   UNL     1       1.133  12.554  -6.359  1.00  0.00     0.040 A 
ATOM     80  F   UNL     1       1.050  10.798  -7.912  1.00  0.00    -0.206 F 
ATOM     81  C   UNL     1       0.492  13.424  -5.480  1.00  0.00     0.006 A 
ENDBRANCH  53  74
BRANCH  65  82
ATOM     82  C   UNL     1      -5.862  11.959 -11.848  1.00  0.00     0.057 A 
ATOM     83  C   UNL     1      -5.164  12.793 -12.730  1.00  0.00     0.134 A 
ATOM     84  C   UNL     1      -7.217  12.232 -11.626  1.00  0.00     0.134 A 
ATOM     85  F   UNL     1      -3.860  12.590 -12.970  1.00  0.00    -0.206 F 
ATOM     86  C   UNL     1      -5.788  13.871 -13.356  1.00  0.00     0.040 A 
ATOM     87  C   UNL     1      -7.860  13.288 -12.270  1.00  0.00     0.040 A 
ATOM     88  F   UNL     1      -7.941  11.463 -10.799  1.00  0.00    -0.206 F 
ATOM     89  C   UNL     1      -7.143  14.114 -13.133  1.00  0.00     0.006 A 
ENDBRANCH  65  82
ENDBRANCH  39  40
ENDBRANCH  31  34
ENDBRANCH  29  30
ENDBRANCH  28  29
ENDBRANCH   1  28
TORSDOF 13
