REMARK SMILES Cc1ccc2c(c1)O[C@@H](C(=O)NCCCNC(=O)c1ccc(-c3c4nc(c(-c5c(F)cccc5F)c5ccc([nH]5)c(-c5c(F)cccc5F)c5nc(c(-c6c(F)cccc6F)c6ccc3[nH]6)C=C5)C=C4)cc1)CC2=O
REMARK SMILES IDX 15 1 14 2 13 3 12 4 10 5 11 6 9 8 1 9 2 10 3 11 7 12 4 13
REMARK SMILES IDX 6 14 5 15 8 16 74 17 73 18 75 19 16 20 17 21 18 23 19 24
REMARK SMILES IDX 20 25 72 26 21 27 71 28 22 29 23 30 24 31 65 32 25 33 70 34
REMARK SMILES IDX 64 35 66 36 26 37 69 38 63 39 62 40 27 42 53 43 36 44 52 45
REMARK SMILES IDX 37 46 40 47 51 48 67 49 38 50 39 51 50 53 68 54 41 55 28 56
REMARK SMILES IDX 29 57 34 58 30 59 31 60 33 61 35 62 32 63 54 64 55 65 60 66
REMARK SMILES IDX 56 67 57 68 59 69 61 70 58 71 42 72 43 73 48 74 44 75 45 76
REMARK SMILES IDX 47 77 49 78 46 79
REMARK H PARENT 12 7 16 22 66 41 40 52
REMARK Flexibility Score: inf
ROOT
ATOM      1  C   UNL     1      -3.374  -3.616   3.067  1.00  0.00     0.118 C 
ENDROOT
BRANCH   1   2
ATOM      2  C   UNL     1      -2.378  -2.608   3.619  1.00  0.00     0.042 C 
BRANCH   2   3
ATOM      3  C   UNL     1      -2.805  -1.164   3.391  1.00  0.00     0.118 C 
BRANCH   3   4
ATOM      4  N   UNL     1      -3.320  -0.549   4.598  1.00  0.00    -0.353 N 
ATOM      5  C   UNL     1      -2.742   0.212   5.563  1.00  0.00     0.261 C 
ATOM      6  O   UNL     1      -3.502   0.620   6.451  1.00  0.00    -0.271 OA
ATOM      7  H   UNL     1      -4.279  -0.716   4.747  1.00  0.00     0.163 HD
BRANCH   5   8
ATOM      8  C   UNL     1      -1.225   0.525   5.653  1.00  0.00     0.269 C 
ATOM      9  C   UNL     1       1.140   0.169   0.089  1.00  0.00     0.044 C 
ATOM     10  C   UNL     1       1.010  -0.225   1.531  1.00  0.00    -0.047 A 
ATOM     11  C   UNL     1       1.428  -1.493   1.952  1.00  0.00     0.004 A 
ATOM     12  C   UNL     1       0.429   0.647   2.460  1.00  0.00     0.050 A 
ATOM     13  C   UNL     1       1.239  -1.893   3.276  1.00  0.00     0.016 A 
ATOM     14  C   UNL     1       0.182   0.225   3.769  1.00  0.00     0.131 A 
ATOM     15  C   UNL     1       0.595  -1.037   4.175  1.00  0.00     0.060 A 
ATOM     16  O   UNL     1      -0.566   1.075   4.525  1.00  0.00    -0.479 OA
ATOM     17  C   UNL     1       0.248  -1.505   5.524  1.00  0.00     0.170 C 
ATOM     18  C   UNL     1      -0.461  -0.543   6.423  1.00  0.00     0.136 C 
ATOM     19  O   UNL     1       0.558  -2.634   5.892  1.00  0.00    -0.294 OA
ENDBRANCH   5   8
ENDBRANCH   3   4
ENDBRANCH   2   3
ENDBRANCH   1   2
BRANCH   1  20
ATOM     20  N   UNL     1      -3.369  -3.662   1.606  1.00  0.00    -0.352 N 
ATOM     21  C   UNL     1      -3.129  -4.704   0.740  1.00  0.00     0.251 C 
ATOM     22  H   UNL     1      -3.571  -2.804   1.168  1.00  0.00     0.163 HD
ATOM     23  O   UNL     1      -3.008  -4.471  -0.462  1.00  0.00    -0.269 OA
BRANCH  21  24
ATOM     24  C   UNL     1      -2.983  -6.092   1.236  1.00  0.00     0.039 A 
ATOM     25  C   UNL     1      -3.741  -6.554   2.308  1.00  0.00     0.014 A 
ATOM     26  C   UNL     1      -2.073  -6.956   0.614  1.00  0.00     0.014 A 
ATOM     27  C   UNL     1      -3.438  -7.776   2.892  1.00  0.00     0.010 A 
ATOM     28  C   UNL     1      -1.863  -8.243   1.125  1.00  0.00     0.010 A 
ATOM     29  C   UNL     1      -2.502  -8.645   2.307  1.00  0.00    -0.014 A 
BRANCH  29  30
ATOM     30  C   UNL     1      -2.239  -9.955   2.964  1.00  0.00     0.031 A 
ATOM     31  C   UNL     1      -0.872 -10.306   3.491  1.00  0.00     0.074 A 
ATOM     32  C   UNL     1      -3.275 -10.792   3.176  1.00  0.00     0.049 A 
ATOM     33  N   UNL     1      -0.499 -11.361   4.175  1.00  0.00    -0.248 NA
ATOM     34  C   UNL     1       0.221  -9.364   3.208  1.00  0.00     0.031 C 
ATOM     35  C   UNL     1      -4.646 -10.572   2.706  1.00  0.00     0.029 A 
ATOM     36  N   UNL     1      -3.354 -11.964   3.884  1.00  0.00    -0.354 N 
ATOM     37  C   UNL     1       0.868 -11.218   4.383  1.00  0.00     0.074 A 
ATOM     38  C   UNL     1       1.266  -9.993   3.725  1.00  0.00     0.031 C 
ATOM     39  C   UNL     1      -5.444 -11.519   3.217  1.00  0.00     0.029 A 
ATOM     40  C   UNL     1      -4.634 -12.455   3.986  1.00  0.00     0.049 A 
ATOM     41  H   UNL     1      -2.571 -12.410   4.280  1.00  0.00     0.167 HD
ATOM     42  C   UNL     1       1.712 -12.026   5.072  1.00  0.00     0.037 A 
ATOM     43  C   UNL     1      -5.107 -13.539   4.627  1.00  0.00     0.037 A 
ATOM     44  C   UNL     1       1.310 -13.232   5.749  1.00  0.00     0.049 A 
ATOM     45  C   UNL     1      -4.149 -14.418   5.375  1.00  0.00     0.074 A 
ATOM     46  C   UNL     1       2.089 -14.114   6.480  1.00  0.00     0.029 A 
ATOM     47  N   UNL     1       0.014 -13.724   5.785  1.00  0.00    -0.354 N 
ATOM     48  N   UNL     1      -2.861 -14.265   5.562  1.00  0.00    -0.248 NA
ATOM     49  C   UNL     1      -4.711 -15.626   5.992  1.00  0.00     0.031 C 
ATOM     50  C   UNL     1       1.269 -15.157   6.928  1.00  0.00     0.029 A 
ATOM     51  C   UNL     1      -0.028 -14.902   6.515  1.00  0.00     0.049 A 
ATOM     52  H   UNL     1      -0.763 -13.298   5.355  1.00  0.00     0.167 HD
ATOM     53  C   UNL     1      -2.460 -15.349   6.330  1.00  0.00     0.074 A 
ATOM     54  C   UNL     1      -3.648 -16.135   6.596  1.00  0.00     0.031 C 
ATOM     55  C   UNL     1      -1.219 -15.671   6.769  1.00  0.00     0.037 A 
BRANCH  42  56
ATOM     56  C   UNL     1       3.163 -11.636   5.111  1.00  0.00     0.057 A 
ATOM     57  C   UNL     1       4.121 -12.378   4.409  1.00  0.00     0.134 A 
ATOM     58  C   UNL     1       3.617 -10.542   5.860  1.00  0.00     0.134 A 
ATOM     59  F   UNL     1       3.757 -13.442   3.677  1.00  0.00    -0.206 F 
ATOM     60  C   UNL     1       5.477 -12.046   4.448  1.00  0.00     0.040 A 
ATOM     61  C   UNL     1       4.967 -10.184   5.887  1.00  0.00     0.040 A 
ATOM     62  F   UNL     1       2.751  -9.781   6.546  1.00  0.00    -0.206 F 
ATOM     63  C   UNL     1       5.902 -10.941   5.183  1.00  0.00     0.006 A 
ENDBRANCH  42  56
BRANCH  43  64
ATOM     64  C   UNL     1      -6.558 -13.853   4.590  1.00  0.00     0.057 A 
ATOM     65  C   UNL     1      -7.188 -14.251   3.405  1.00  0.00     0.134 A 
ATOM     66  C   UNL     1      -7.346 -13.772   5.743  1.00  0.00     0.134 A 
ATOM     67  F   UNL     1      -6.488 -14.341   2.264  1.00  0.00    -0.206 F 
ATOM     68  C   UNL     1      -8.550 -14.545   3.364  1.00  0.00     0.040 A 
ATOM     69  C   UNL     1      -8.705 -14.092   5.724  1.00  0.00     0.040 A 
ATOM     70  F   UNL     1      -6.797 -13.414   6.914  1.00  0.00    -0.206 F 
ATOM     71  C   UNL     1      -9.311 -14.475   4.529  1.00  0.00     0.006 A 
ENDBRANCH  43  64
BRANCH  55  72
ATOM     72  C   UNL     1      -1.103 -16.910   7.606  1.00  0.00     0.057 A 
ATOM     73  C   UNL     1      -0.866 -16.819   8.983  1.00  0.00     0.134 A 
ATOM     74  C   UNL     1      -1.239 -18.190   7.055  1.00  0.00     0.134 A 
ATOM     75  F   UNL     1      -0.720 -15.622   9.572  1.00  0.00    -0.206 F 
ATOM     76  C   UNL     1      -0.778 -17.958   9.784  1.00  0.00     0.040 A 
ATOM     77  C   UNL     1      -1.180 -19.336   7.850  1.00  0.00     0.040 A 
ATOM     78  F   UNL     1      -1.485 -18.344   5.745  1.00  0.00    -0.206 F 
ATOM     79  C   UNL     1      -0.946 -19.221   9.219  1.00  0.00     0.006 A 
ENDBRANCH  55  72
ENDBRANCH  29  30
ENDBRANCH  21  24
ENDBRANCH   1  20
TORSDOF 10
