REMARK SMILES Cc1cc(=O)oc2cc(O[C@@H](C)C(=O)N[C@H](CC(C)C)C(=O)NCCCNC(=O)c3ccc(-c4c5nc(c(-c6c(F)cccc6F)c6ccc([nH]6)c(-c6c(F)cccc6F)c6nc(c(-c7c(F)cccc7F)c7ccc4[nH]7)C=C6)C=C5)cc3)ccc12
REMARK SMILES IDX 24 1 23 2 21 3 22 4 16 6 15 7 13 8 14 9 11 11 12 12 10 13
REMARK SMILES IDX 9 14 1 15 2 16 3 17 86 18 4 19 7 20 85 21 5 22 6 23 8 24
REMARK SMILES IDX 84 25 17 26 18 27 19 28 20 29 25 30 26 31 27 32 28 33 29 35
REMARK SMILES IDX 30 36 31 37 83 38 32 39 82 40 33 41 34 42 35 43 76 44 36 45
REMARK SMILES IDX 81 46 75 47 77 48 37 49 80 50 74 51 73 52 38 54 64 55 47 56
REMARK SMILES IDX 63 57 48 58 51 59 62 60 78 61 49 62 50 63 61 65 79 66 52 67
REMARK SMILES IDX 39 68 40 69 45 70 41 71 42 72 44 73 46 74 43 75 65 76 66 77
REMARK SMILES IDX 71 78 67 79 68 80 70 81 72 82 69 83 53 84 54 85 59 86 55 87
REMARK SMILES IDX 56 88 58 89 60 90 57 91
REMARK H PARENT 23 5 15 10 27 34 77 53 51 64
REMARK Flexibility Score: inf
ROOT
ATOM      1  C   UNL     1      -1.567   2.638   2.705  1.00  0.00     0.117 C 
ENDROOT
BRANCH   1   2
ATOM      2  N   UNL     1      -0.903   3.232   1.558  1.00  0.00    -0.354 N 
ATOM      3  C   UNL     1       0.392   3.129   1.161  1.00  0.00     0.242 C 
ATOM      4  O   UNL     1       0.960   4.152   0.783  1.00  0.00    -0.273 OA
ATOM      5  H   UNL     1      -1.475   3.791   0.985  1.00  0.00     0.163 HD
BRANCH   3   6
ATOM      6  C   UNL     1       1.212   1.893   1.448  1.00  0.00     0.171 C 
BRANCH   6   7
ATOM      7  N   UNL     1       0.313   0.747   1.412  1.00  0.00    -0.341 N 
ATOM      8  C   UNL     1      -0.559   0.308   0.445  1.00  0.00     0.261 C 
ATOM      9  O   UNL     1      -1.136  -0.753   0.738  1.00  0.00    -0.271 OA
ATOM     10  H   UNL     1       0.334   0.190   2.223  1.00  0.00     0.164 HD
BRANCH   8  11
ATOM     11  C   UNL     1      -0.877   0.970  -0.990  1.00  0.00     0.258 C 
ATOM     12  C   UNL     1       0.211   0.607  -1.996  1.00  0.00     0.064 C 
BRANCH  11  13
ATOM     13  O   UNL     1      -1.637   2.155  -1.273  1.00  0.00    -0.481 OA
BRANCH  13  14
ATOM     14  C   UNL     1      -1.148   3.400  -1.540  1.00  0.00     0.124 A 
ATOM     15  C   UNL     1       0.035   7.958   0.567  1.00  0.00     0.045 C 
ATOM     16  C   UNL     1       0.709   6.980  -0.351  1.00  0.00    -0.033 A 
ATOM     17  C   UNL     1       2.045   6.847  -0.336  1.00  0.00     0.098 A 
ATOM     18  C   UNL     1      -0.069   5.960  -1.087  1.00  0.00     0.021 A 
ATOM     19  C   UNL     1       2.769   5.802  -1.086  1.00  0.00     0.336 A 
ATOM     20  C   UNL     1       0.638   4.976  -1.787  1.00  0.00     0.142 A 
ATOM     21  C   UNL     1      -1.434   5.741  -0.888  1.00  0.00     0.016 A 
ATOM     22  O   UNL     1       3.967   5.638  -0.939  1.00  0.00    -0.246 OA
ATOM     23  O   UNL     1       2.026   5.077  -2.002  1.00  0.00    -0.423 OA
ATOM     24  C   UNL     1       0.098   3.710  -2.051  1.00  0.00     0.094 A 
ATOM     25  C   UNL     1      -1.972   4.462  -1.127  1.00  0.00     0.047 A 
ENDBRANCH  13  14
ENDBRANCH  11  13
ENDBRANCH   8  11
ENDBRANCH   6   7
BRANCH   6  26
ATOM     26  C   UNL     1       1.825   2.383   2.792  1.00  0.00     0.038 C 
BRANCH  26  27
ATOM     27  C   UNL     1       2.861   1.677   3.654  1.00  0.00    -0.015 C 
ATOM     28  C   UNL     1       4.050   1.151   2.870  1.00  0.00     0.007 C 
ATOM     29  C   UNL     1       3.347   2.736   4.676  1.00  0.00     0.007 C 
ENDBRANCH  26  27
ENDBRANCH   6  26
ENDBRANCH   3   6
ENDBRANCH   1   2
BRANCH   1  30
ATOM     30  C   UNL     1      -1.923   3.771   3.657  1.00  0.00     0.042 C 
BRANCH  30  31
ATOM     31  C   UNL     1      -3.086   4.593   3.117  1.00  0.00     0.118 C 
BRANCH  31  32
ATOM     32  N   UNL     1      -4.349   3.901   3.313  1.00  0.00    -0.352 N 
ATOM     33  C   UNL     1      -5.379   4.243   4.150  1.00  0.00     0.251 C 
ATOM     34  H   UNL     1      -4.481   3.086   2.779  1.00  0.00     0.163 HD
ATOM     35  O   UNL     1      -6.253   3.430   4.427  1.00  0.00    -0.269 OA
BRANCH  33  36
ATOM     36  C   UNL     1      -5.414   5.601   4.725  1.00  0.00     0.039 A 
ATOM     37  C   UNL     1      -5.674   5.753   6.087  1.00  0.00     0.014 A 
ATOM     38  C   UNL     1      -5.185   6.719   3.915  1.00  0.00     0.014 A 
ATOM     39  C   UNL     1      -5.663   7.030   6.648  1.00  0.00     0.010 A 
ATOM     40  C   UNL     1      -5.096   7.981   4.490  1.00  0.00     0.010 A 
ATOM     41  C   UNL     1      -5.349   8.149   5.859  1.00  0.00    -0.014 A 
BRANCH  41  42
ATOM     42  C   UNL     1      -5.304   9.510   6.445  1.00  0.00     0.031 A 
ATOM     43  C   UNL     1      -6.292  10.551   5.999  1.00  0.00     0.074 A 
ATOM     44  C   UNL     1      -4.342   9.822   7.334  1.00  0.00     0.049 A 
ATOM     45  N   UNL     1      -6.375  11.811   6.342  1.00  0.00    -0.248 NA
ATOM     46  C   UNL     1      -7.303  10.128   5.018  1.00  0.00     0.031 C 
ATOM     47  C   UNL     1      -3.300   8.910   7.811  1.00  0.00     0.029 A 
ATOM     48  N   UNL     1      -4.082  10.997   7.991  1.00  0.00    -0.354 N 
ATOM     49  C   UNL     1      -7.433  12.332   5.609  1.00  0.00     0.074 A 
ATOM     50  C   UNL     1      -7.930  11.267   4.765  1.00  0.00     0.031 C 
ATOM     51  C   UNL     1      -2.527   9.554   8.701  1.00  0.00     0.029 A 
ATOM     52  C   UNL     1      -2.998  10.929   8.832  1.00  0.00     0.049 A 
ATOM     53  H   UNL     1      -4.620  11.812   7.871  1.00  0.00     0.167 HD
ATOM     54  C   UNL     1      -7.959  13.579   5.653  1.00  0.00     0.037 A 
ATOM     55  C   UNL     1      -2.446  11.873   9.617  1.00  0.00     0.037 A 
ATOM     56  C   UNL     1      -7.485  14.626   6.518  1.00  0.00     0.049 A 
ATOM     57  C   UNL     1      -3.054  13.247   9.653  1.00  0.00     0.074 A 
ATOM     58  C   UNL     1      -7.988  15.905   6.678  1.00  0.00     0.029 A 
ATOM     59  N   UNL     1      -6.399  14.511   7.372  1.00  0.00    -0.354 N 
ATOM     60  N   UNL     1      -4.090  13.709   8.997  1.00  0.00    -0.248 NA
ATOM     61  C   UNL     1      -2.417  14.229  10.542  1.00  0.00     0.031 C 
ATOM     62  C   UNL     1      -7.185  16.576   7.606  1.00  0.00     0.029 A 
ATOM     63  C   UNL     1      -6.207  15.702   8.052  1.00  0.00     0.049 A 
ATOM     64  H   UNL     1      -5.847  13.703   7.479  1.00  0.00     0.167 HD
ATOM     65  C   UNL     1      -4.248  15.024   9.413  1.00  0.00     0.074 A 
ATOM     66  C   UNL     1      -3.207  15.282  10.387  1.00  0.00     0.031 C 
ATOM     67  C   UNL     1      -5.171  15.936   9.025  1.00  0.00     0.037 A 
BRANCH  54  68
ATOM     68  C   UNL     1      -9.116  13.872   4.744  1.00  0.00     0.057 A 
ATOM     69  C   UNL     1     -10.388  13.333   4.974  1.00  0.00     0.134 A 
ATOM     70  C   UNL     1      -8.964  14.729   3.647  1.00  0.00     0.134 A 
ATOM     71  F   UNL     1     -10.596  12.493   5.999  1.00  0.00    -0.206 F 
ATOM     72  C   UNL     1     -11.464  13.618   4.131  1.00  0.00     0.040 A 
ATOM     73  C   UNL     1     -10.039  15.041   2.812  1.00  0.00     0.040 A 
ATOM     74  F   UNL     1      -7.773  15.282   3.373  1.00  0.00    -0.206 F 
ATOM     75  C   UNL     1     -11.292  14.480   3.051  1.00  0.00     0.006 A 
ENDBRANCH  54  68
BRANCH  55  76
ATOM     76  C   UNL     1      -1.267  11.544  10.455  1.00  0.00     0.057 A 
ATOM     77  C   UNL     1      -1.379  11.441  11.846  1.00  0.00     0.134 A 
ATOM     78  C   UNL     1      -0.004  11.333   9.891  1.00  0.00     0.134 A 
ATOM     79  F   UNL     1      -2.561  11.649  12.444  1.00  0.00    -0.206 F 
ATOM     80  C   UNL     1      -0.274  11.159  12.650  1.00  0.00     0.040 A 
ATOM     81  C   UNL     1       1.106  11.028  10.680  1.00  0.00     0.040 A 
ATOM     82  F   UNL     1       0.167  11.409   8.563  1.00  0.00    -0.206 F 
ATOM     83  C   UNL     1       0.974  10.948  12.065  1.00  0.00     0.006 A 
ENDBRANCH  55  76
BRANCH  67  84
ATOM     84  C   UNL     1      -5.117  17.284   9.678  1.00  0.00     0.057 A 
ATOM     85  C   UNL     1      -4.128  18.221   9.356  1.00  0.00     0.134 A 
ATOM     86  C   UNL     1      -6.091  17.662  10.611  1.00  0.00     0.134 A 
ATOM     87  F   UNL     1      -3.160  17.913   8.479  1.00  0.00    -0.206 F 
ATOM     88  C   UNL     1      -4.096  19.481   9.956  1.00  0.00     0.040 A 
ATOM     89  C   UNL     1      -6.083  18.927  11.200  1.00  0.00     0.040 A 
ATOM     90  F   UNL     1      -7.071  16.813  10.956  1.00  0.00    -0.206 F 
ATOM     91  C   UNL     1      -5.080  19.838  10.876  1.00  0.00     0.006 A 
ENDBRANCH  67  84
ENDBRANCH  41  42
ENDBRANCH  33  36
ENDBRANCH  31  32
ENDBRANCH  30  31
ENDBRANCH   1  30
TORSDOF 16
