REMARK SMILES COc1ccc(/C=C2\SC(=S)N(c3cc(C(=O)NCCCNC(=O)c4ccc(-c5c6nc(c(-c7c(F)cccc7F)c7ccc([nH]7)c(-c7c(F)cccc7F)c7nc(c(-c8c(F)cccc8F)c8ccc5[nH]8)C=C7)C=C6)cc4)ccc3C)C2=O)cc1
REMARK SMILES IDX 19 1 18 2 16 3 17 4 15 6 13 7 14 8 81 9 80 10 82 11 79 12
REMARK SMILES IDX 12 13 7 14 8 15 9 16 83 17 10 18 84 19 11 20 6 21 3 22 4 23
REMARK SMILES IDX 86 24 5 25 85 26 2 27 1 28 20 29 21 30 22 31 23 32 24 34
REMARK SMILES IDX 25 35 26 36 78 37 27 38 77 39 28 40 29 41 30 42 71 43 31 44
REMARK SMILES IDX 76 45 70 46 72 47 32 48 75 49 69 50 68 51 33 53 59 54 42 55
REMARK SMILES IDX 58 56 43 57 46 58 57 59 73 60 44 61 45 62 56 64 74 65 47 66
REMARK SMILES IDX 34 67 35 68 40 69 36 70 37 71 39 72 41 73 38 74 60 75 61 76
REMARK SMILES IDX 66 77 62 78 63 79 65 80 67 81 64 82 48 83 49 84 54 85 50 86
REMARK SMILES IDX 51 87 53 88 55 89 52 90
REMARK H PARENT 18 5 22 33 72 52 46 63
REMARK Flexibility Score: inf
ROOT
ATOM      1  C   UNL     1       6.549  12.374  -8.473  1.00  0.00     0.118 C 
ENDROOT
BRANCH   1   2
ATOM      2  N   UNL     1       6.686  12.007  -7.072  1.00  0.00    -0.352 N 
ATOM      3  C   UNL     1       6.567  10.804  -6.416  1.00  0.00     0.251 C 
ATOM      4  O   UNL     1       6.706  10.793  -5.194  1.00  0.00    -0.269 OA
ATOM      5  H   UNL     1       6.907  12.763  -6.482  1.00  0.00     0.163 HD
BRANCH   3   6
ATOM      6  C   UNL     1       6.228   9.538  -7.119  1.00  0.00     0.041 A 
ATOM      7  C   UNL     1       5.118   7.369  -7.051  1.00  0.00     0.054 A 
ATOM      8  C   UNL     1       5.508   8.560  -6.417  1.00  0.00     0.041 A 
ATOM      9  C   UNL     1       5.302   7.244  -8.443  1.00  0.00    -0.027 A 
ATOM     10  C   UNL     1       6.114   8.170  -9.104  1.00  0.00     0.006 A 
ATOM     11  C   UNL     1       4.587   6.221  -9.285  1.00  0.00     0.046 C 
ATOM     12  C   UNL     1       6.642   9.261  -8.420  1.00  0.00     0.014 A 
BRANCH   7  13
ATOM     13  N   UNL     1       4.625   6.283  -6.271  1.00  0.00    -0.261 N 
ATOM     14  C   UNL     1       2.252   5.052  -3.824  1.00  0.00     0.029 C 
ATOM     15  C   UNL     1       3.241   5.165  -4.722  1.00  0.00     0.081 C 
ATOM     16  S   UNL     1       4.253   3.914  -5.317  1.00  0.00    -0.054 SA
ATOM     17  C   UNL     1       3.576   6.462  -5.379  1.00  0.00     0.270 C 
ATOM     18  C   UNL     1       5.216   5.022  -6.281  1.00  0.00     0.152 C 
ATOM     19  O   UNL     1       2.962   7.498  -5.147  1.00  0.00    -0.268 OA
ATOM     20  S   UNL     1       6.661   4.515  -6.962  1.00  0.00    -0.051 S 
BRANCH  14  21
ATOM     21  C   UNL     1       1.829   3.813  -3.158  1.00  0.00    -0.024 A 
ATOM     22  C   UNL     1       0.960   1.460  -1.894  1.00  0.00     0.118 A 
ATOM     23  C   UNL     1       0.073   2.218  -2.658  1.00  0.00     0.047 A 
ATOM     24  C   UNL     1       2.288   1.866  -1.775  1.00  0.00     0.047 A 
ATOM     25  C   UNL     1       0.500   3.396  -3.277  1.00  0.00     0.012 A 
ATOM     26  C   UNL     1       2.716   3.045  -2.393  1.00  0.00     0.012 A 
BRANCH  22  27
ATOM     27  O   UNL     1       0.446   0.317  -1.345  1.00  0.00    -0.497 OA
ATOM     28  C   UNL     1       0.963  -0.005  -0.057  1.00  0.00     0.278 C 
ENDBRANCH  22  27
ENDBRANCH  14  21
ENDBRANCH   7  13
ENDBRANCH   3   6
ENDBRANCH   1   2
BRANCH   1  29
ATOM     29  C   UNL     1       5.494  13.434  -8.737  1.00  0.00     0.042 C 
BRANCH  29  30
ATOM     30  C   UNL     1       5.771  14.786  -8.106  1.00  0.00     0.118 C 
BRANCH  30  31
ATOM     31  N   UNL     1       7.021  15.381  -8.556  1.00  0.00    -0.352 N 
ATOM     32  C   UNL     1       7.280  16.482  -9.335  1.00  0.00     0.251 C 
ATOM     33  H   UNL     1       7.828  14.909  -8.246  1.00  0.00     0.163 HD
ATOM     34  O   UNL     1       8.428  16.672  -9.731  1.00  0.00    -0.269 OA
BRANCH  32  35
ATOM     35  C   UNL     1       6.209  17.428  -9.725  1.00  0.00     0.039 A 
ATOM     36  C   UNL     1       6.293  18.058 -10.971  1.00  0.00     0.014 A 
ATOM     37  C   UNL     1       5.152  17.744  -8.870  1.00  0.00     0.014 A 
ATOM     38  C   UNL     1       5.295  18.947 -11.373  1.00  0.00     0.010 A 
ATOM     39  C   UNL     1       4.096  18.534  -9.320  1.00  0.00     0.010 A 
ATOM     40  C   UNL     1       4.165  19.164 -10.568  1.00  0.00    -0.014 A 
BRANCH  40  41
ATOM     41  C   UNL     1       3.067  20.058 -11.021  1.00  0.00     0.031 A 
ATOM     42  C   UNL     1       2.701  21.289 -10.233  1.00  0.00     0.074 A 
ATOM     43  C   UNL     1       2.376  19.741 -12.134  1.00  0.00     0.049 A 
ATOM     44  N   UNL     1       1.796  22.198 -10.495  1.00  0.00    -0.248 NA
ATOM     45  C   UNL     1       3.423  21.516  -8.970  1.00  0.00     0.031 C 
ATOM     46  C   UNL     1       2.578  18.535 -12.941  1.00  0.00     0.029 A 
ATOM     47  N   UNL     1       1.369  20.409 -12.784  1.00  0.00    -0.354 N 
ATOM     48  C   UNL     1       1.834  23.091  -9.431  1.00  0.00     0.074 A 
ATOM     49  C   UNL     1       2.801  22.581  -8.486  1.00  0.00     0.031 C 
ATOM     50  C   UNL     1       1.758  18.574 -14.003  1.00  0.00     0.029 A 
ATOM     51  C   UNL     1       0.948  19.785 -13.934  1.00  0.00     0.049 A 
ATOM     52  H   UNL     1       0.985  21.255 -12.458  1.00  0.00     0.167 HD
ATOM     53  C   UNL     1       1.148  24.248  -9.268  1.00  0.00     0.037 A 
ATOM     54  C   UNL     1       0.020  20.153 -14.836  1.00  0.00     0.037 A 
ATOM     55  C   UNL     1       0.203  24.767 -10.222  1.00  0.00     0.049 A 
ATOM     56  C   UNL     1      -0.705  21.456 -14.647  1.00  0.00     0.074 A 
ATOM     57  C   UNL     1      -0.493  25.962 -10.185  1.00  0.00     0.029 A 
ATOM     58  N   UNL     1      -0.182  24.116 -11.385  1.00  0.00    -0.354 N 
ATOM     59  N   UNL     1      -0.590  22.335 -13.682  1.00  0.00    -0.248 NA
ATOM     60  C   UNL     1      -1.677  21.824 -15.684  1.00  0.00     0.031 C 
ATOM     61  C   UNL     1      -1.339  26.011 -11.299  1.00  0.00     0.029 A 
ATOM     62  C   UNL     1      -1.125  24.874 -12.061  1.00  0.00     0.049 A 
ATOM     63  H   UNL     1       0.163  23.244 -11.685  1.00  0.00     0.167 HD
ATOM     64  C   UNL     1      -1.457  23.371 -14.006  1.00  0.00     0.074 A 
ATOM     65  C   UNL     1      -2.065  23.022 -15.273  1.00  0.00     0.031 C 
ATOM     66  C   UNL     1      -1.729  24.507 -13.317  1.00  0.00     0.037 A 
BRANCH  53  67
ATOM     67  C   UNL     1       1.401  25.036  -8.012  1.00  0.00     0.057 A 
ATOM     68  C   UNL     1       2.623  25.681  -7.774  1.00  0.00     0.134 A 
ATOM     69  C   UNL     1       0.399  25.181  -7.045  1.00  0.00     0.134 A 
ATOM     70  F   UNL     1       3.631  25.573  -8.652  1.00  0.00    -0.206 F 
ATOM     71  C   UNL     1       2.847  26.419  -6.610  1.00  0.00     0.040 A 
ATOM     72  C   UNL     1       0.600  25.942  -5.891  1.00  0.00     0.040 A 
ATOM     73  F   UNL     1      -0.797  24.596  -7.209  1.00  0.00    -0.206 F 
ATOM     74  C   UNL     1       1.830  26.558  -5.668  1.00  0.00     0.006 A 
ENDBRANCH  53  67
BRANCH  54  75
ATOM     75  C   UNL     1      -0.252  19.294 -16.018  1.00  0.00     0.057 A 
ATOM     76  C   UNL     1       0.093  19.708 -17.311  1.00  0.00     0.134 A 
ATOM     77  C   UNL     1      -0.875  18.047 -15.887  1.00  0.00     0.134 A 
ATOM     78  F   UNL     1       0.677  20.899 -17.505  1.00  0.00    -0.206 F 
ATOM     79  C   UNL     1      -0.196  18.927 -18.431  1.00  0.00     0.040 A 
ATOM     80  C   UNL     1      -1.142  17.243 -16.995  1.00  0.00     0.040 A 
ATOM     81  F   UNL     1      -1.220  17.587 -14.675  1.00  0.00    -0.206 F 
ATOM     82  C   UNL     1      -0.811  17.687 -18.274  1.00  0.00     0.006 A 
ENDBRANCH  54  75
BRANCH  66  83
ATOM     83  C   UNL     1      -2.710  25.459 -13.940  1.00  0.00     0.057 A 
ATOM     84  C   UNL     1      -4.071  25.149 -14.061  1.00  0.00     0.134 A 
ATOM     85  C   UNL     1      -2.285  26.700 -14.432  1.00  0.00     0.134 A 
ATOM     86  F   UNL     1      -4.543  23.973 -13.621  1.00  0.00    -0.206 F 
ATOM     87  C   UNL     1      -4.965  26.017 -14.690  1.00  0.00     0.040 A 
ATOM     88  C   UNL     1      -3.175  27.592 -15.032  1.00  0.00     0.040 A 
ATOM     89  F   UNL     1      -0.999  27.068 -14.337  1.00  0.00    -0.206 F 
ATOM     90  C   UNL     1      -4.517  27.245 -15.175  1.00  0.00     0.006 A 
ENDBRANCH  66  83
ENDBRANCH  40  41
ENDBRANCH  32  35
ENDBRANCH  30  31
ENDBRANCH  29  30
ENDBRANCH   1  29
TORSDOF 13
