REMARK SMILES C[C@@H](C(=O)NCCCNC(=O)c1ccc(-c2c3nc(c(-c4c(F)cccc4F)c4ccc([nH]4)c(-c4c(F)cccc4F)c4nc(c(-c5c(F)cccc5F)c5ccc2[nH]5)C=C4)C=C3)cc1)c1ccc(C[C@H]2CCC[C@H]2O)cc1
REMARK SMILES IDX 6 1 5 2 3 3 4 4 2 6 1 7 66 8 67 9 78 10 68 11 77 12 69 13
REMARK SMILES IDX 70 14 71 15 72 16 75 17 73 18 74 19 76 20 7 22 8 23 9 24
REMARK SMILES IDX 10 25 11 27 12 28 13 29 65 30 14 31 64 32 15 33 16 34 17 35
REMARK SMILES IDX 58 36 18 37 63 38 57 39 59 40 19 41 62 42 56 43 55 44 20 46
REMARK SMILES IDX 46 47 29 48 45 49 30 50 33 51 44 52 60 53 31 54 32 55 43 57
REMARK SMILES IDX 61 58 34 59 21 60 22 61 27 62 23 63 24 64 26 65 28 66 25 67
REMARK SMILES IDX 47 68 48 69 53 70 49 71 50 72 52 73 54 74 51 75 35 76 36 77
REMARK SMILES IDX 41 78 37 79 38 80 40 81 42 82 39 83
REMARK H PARENT 5 5 76 21 9 26 59 45 33 56
REMARK Flexibility Score: inf
ROOT
ATOM      1  C   UNL     1       3.503   0.396  -2.123  1.00  0.00     0.117 C 
ENDROOT
BRANCH   1   2
ATOM      2  N   UNL     1       2.493  -0.402  -2.792  1.00  0.00    -0.356 N 
ATOM      3  C   UNL     1       1.166  -0.564  -2.513  1.00  0.00     0.227 C 
ATOM      4  O   UNL     1       0.564  -1.417  -3.167  1.00  0.00    -0.274 OA
ATOM      5  H   UNL     1       2.816  -0.907  -3.572  1.00  0.00     0.163 HD
BRANCH   3   6
ATOM      6  C   UNL     1       0.506   0.304  -1.438  1.00  0.00     0.105 C 
ATOM      7  C   UNL     1       0.895  -0.144  -0.024  1.00  0.00     0.023 C 
BRANCH   6   8
ATOM      8  C   UNL     1      -1.012   0.352  -1.564  1.00  0.00    -0.036 A 
ATOM      9  C   UNL     1      -1.643   1.535  -1.966  1.00  0.00     0.005 A 
ATOM     10  C   UNL     1      -1.807  -0.755  -1.232  1.00  0.00     0.005 A 
ATOM     11  C   UNL     1      -3.034   1.636  -1.944  1.00  0.00     0.004 A 
ATOM     12  C   UNL     1      -3.196  -0.645  -1.193  1.00  0.00     0.004 A 
ATOM     13  C   UNL     1      -3.819   0.572  -1.488  1.00  0.00    -0.048 A 
BRANCH  13  14
ATOM     14  C   UNL     1      -5.300   0.746  -1.263  1.00  0.00     0.041 C 
BRANCH  14  15
ATOM     15  C   UNL     1      -5.737   1.246   0.128  1.00  0.00     0.022 C 
ATOM     16  C   UNL     1      -5.178   0.482   1.342  1.00  0.00     0.007 C 
ATOM     17  C   UNL     1      -5.500   2.727   0.466  1.00  0.00     0.117 C 
ATOM     18  C   UNL     1      -5.114   1.493   2.491  1.00  0.00     0.003 C 
ATOM     19  C   UNL     1      -5.764   2.770   1.968  1.00  0.00     0.032 C 
BRANCH  17  20
ATOM     20  O   UNL     1      -4.182   3.189   0.227  1.00  0.00    -0.393 OA
ATOM     21  H   UNL     1      -3.556   2.666   0.751  1.00  0.00     0.210 HD
ENDBRANCH  17  20
ENDBRANCH  14  15
ENDBRANCH  13  14
ENDBRANCH   6   8
ENDBRANCH   3   6
ENDBRANCH   1   2
BRANCH   1  22
ATOM     22  C   UNL     1       4.406  -0.464  -1.240  1.00  0.00     0.042 C 
BRANCH  22  23
ATOM     23  C   UNL     1       5.159  -1.565  -1.983  1.00  0.00     0.118 C 
BRANCH  23  24
ATOM     24  N   UNL     1       6.054  -1.047  -3.002  1.00  0.00    -0.352 N 
ATOM     25  C   UNL     1       7.388  -1.279  -3.218  1.00  0.00     0.251 C 
ATOM     26  H   UNL     1       5.635  -0.428  -3.643  1.00  0.00     0.163 HD
ATOM     27  O   UNL     1       7.985  -0.601  -4.049  1.00  0.00    -0.269 OA
BRANCH  25  28
ATOM     28  C   UNL     1       8.123  -2.314  -2.455  1.00  0.00     0.039 A 
ATOM     29  C   UNL     1       9.434  -2.031  -2.060  1.00  0.00     0.014 A 
ATOM     30  C   UNL     1       7.569  -3.567  -2.175  1.00  0.00     0.014 A 
ATOM     31  C   UNL     1      10.168  -2.980  -1.345  1.00  0.00     0.010 A 
ATOM     32  C   UNL     1       8.279  -4.489  -1.404  1.00  0.00     0.010 A 
ATOM     33  C   UNL     1       9.587  -4.207  -0.986  1.00  0.00    -0.014 A 
BRANCH  33  34
ATOM     34  C   UNL     1      10.345  -5.182  -0.162  1.00  0.00     0.031 A 
ATOM     35  C   UNL     1      10.772  -6.506  -0.731  1.00  0.00     0.074 A 
ATOM     36  C   UNL     1      10.632  -4.877   1.118  1.00  0.00     0.049 A 
ATOM     37  N   UNL     1      11.462  -7.463  -0.163  1.00  0.00    -0.248 NA
ATOM     38  C   UNL     1      10.354  -6.804  -2.109  1.00  0.00     0.031 C 
ATOM     39  C   UNL     1      10.224  -3.650   1.806  1.00  0.00     0.029 A 
ATOM     40  N   UNL     1      11.337  -5.572   2.068  1.00  0.00    -0.354 N 
ATOM     41  C   UNL     1      11.557  -8.475  -1.109  1.00  0.00     0.074 A 
ATOM     42  C   UNL     1      10.811  -8.037  -2.270  1.00  0.00     0.031 C 
ATOM     43  C   UNL     1      10.712  -3.666   3.057  1.00  0.00     0.029 A 
ATOM     44  C   UNL     1      11.445  -4.910   3.266  1.00  0.00     0.049 A 
ATOM     45  H   UNL     1      11.728  -6.461   1.905  1.00  0.00     0.167 HD
ATOM     46  C   UNL     1      12.225  -9.652  -1.028  1.00  0.00     0.037 A 
ATOM     47  C   UNL     1      12.071  -5.262   4.404  1.00  0.00     0.037 A 
ATOM     48  C   UNL     1      12.981 -10.081   0.119  1.00  0.00     0.049 A 
ATOM     49  C   UNL     1      12.821  -6.562   4.461  1.00  0.00     0.074 A 
ATOM     50  C   UNL     1      13.736 -11.232   0.275  1.00  0.00     0.029 A 
ATOM     51  N   UNL     1      13.079  -9.377   1.309  1.00  0.00    -0.354 N 
ATOM     52  N   UNL     1      12.961  -7.476   3.533  1.00  0.00    -0.248 NA
ATOM     53  C   UNL     1      13.510  -6.872   5.722  1.00  0.00     0.031 C 
ATOM     54  C   UNL     1      14.262 -11.239   1.572  1.00  0.00     0.029 A 
ATOM     55  C   UNL     1      13.866 -10.075   2.211  1.00  0.00     0.049 A 
ATOM     56  H   UNL     1      12.651  -8.508   1.488  1.00  0.00     0.167 HD
ATOM     57  C   UNL     1      13.765  -8.462   4.089  1.00  0.00     0.074 A 
ATOM     58  C   UNL     1      14.101  -8.022   5.428  1.00  0.00     0.031 C 
ATOM     59  C   UNL     1      14.184  -9.629   3.542  1.00  0.00     0.037 A 
BRANCH  46  60
ATOM     60  C   UNL     1      12.173 -10.557  -2.224  1.00  0.00     0.057 A 
ATOM     61  C   UNL     1      12.864 -10.254  -3.405  1.00  0.00     0.134 A 
ATOM     62  C   UNL     1      11.457 -11.759  -2.185  1.00  0.00     0.134 A 
ATOM     63  F   UNL     1      13.560  -9.112  -3.512  1.00  0.00    -0.206 F 
ATOM     64  C   UNL     1      12.825 -11.104  -4.513  1.00  0.00     0.040 A 
ATOM     65  C   UNL     1      11.429 -12.628  -3.278  1.00  0.00     0.040 A 
ATOM     66  F   UNL     1      10.778 -12.113  -1.083  1.00  0.00    -0.206 F 
ATOM     67  C   UNL     1      12.110 -12.298  -4.448  1.00  0.00     0.006 A 
ENDBRANCH  46  60
BRANCH  47  68
ATOM     68  C   UNL     1      12.045  -4.349   5.573  1.00  0.00     0.057 A 
ATOM     69  C   UNL     1      13.188  -3.643   5.962  1.00  0.00     0.134 A 
ATOM     70  C   UNL     1      10.880  -4.161   6.326  1.00  0.00     0.134 A 
ATOM     71  F   UNL     1      14.338  -3.797   5.289  1.00  0.00    -0.206 F 
ATOM     72  C   UNL     1      13.180  -2.793   7.069  1.00  0.00     0.040 A 
ATOM     73  C   UNL     1      10.852  -3.298   7.422  1.00  0.00     0.040 A 
ATOM     74  F   UNL     1       9.750  -4.805   5.997  1.00  0.00    -0.206 F 
ATOM     75  C   UNL     1      12.007  -2.615   7.800  1.00  0.00     0.006 A 
ENDBRANCH  47  68
BRANCH  59  76
ATOM     76  C   UNL     1      15.058 -10.501   4.394  1.00  0.00     0.057 A 
ATOM     77  C   UNL     1      14.545 -11.218   5.482  1.00  0.00     0.134 A 
ATOM     78  C   UNL     1      16.424 -10.633   4.116  1.00  0.00     0.134 A 
ATOM     79  F   UNL     1      13.247 -11.121   5.808  1.00  0.00    -0.206 F 
ATOM     80  C   UNL     1      15.366 -12.014   6.283  1.00  0.00     0.040 A 
ATOM     81  C   UNL     1      17.250 -11.445   4.895  1.00  0.00     0.040 A 
ATOM     82  F   UNL     1      16.977  -9.979   3.084  1.00  0.00    -0.206 F 
ATOM     83  C   UNL     1      16.722 -12.132   5.987  1.00  0.00     0.006 A 
ENDBRANCH  59  76
ENDBRANCH  33  34
ENDBRANCH  25  28
ENDBRANCH  23  24
ENDBRANCH  22  23
ENDBRANCH   1  22
TORSDOF 14
