REMARK SMILES CC(C)(C)[NH2+]CC(=O)N[C@](C)(C(=O)NCCCNC(=O)c1ccc(-c2c3nc(c(-c4c(F)cccc4F)c4ccc([nH]4)c(-c4c(F)cccc4F)c4nc(c(-c5c(F)cccc5F)c5ccc2[nH]5)C=C4)C=C3)cc1)C1CC1
REMARK SMILES IDX 15 1 14 2 12 3 13 4 10 6 11 7 9 8 7 9 8 10 6 12 5 13 2 16
REMARK SMILES IDX 1 17 3 18 4 19 75 20 76 21 77 22 16 23 17 24 18 25 19 26
REMARK SMILES IDX 20 28 21 29 22 30 74 31 23 32 73 33 24 34 25 35 26 36 67 37
REMARK SMILES IDX 27 38 72 39 66 40 68 41 28 42 71 43 65 44 64 45 29 47 55 48
REMARK SMILES IDX 38 49 54 50 39 51 42 52 53 53 69 54 40 55 41 56 52 58 70 59
REMARK SMILES IDX 43 60 30 61 31 62 36 63 32 64 33 65 35 66 37 67 34 68 56 69
REMARK SMILES IDX 57 70 62 71 58 72 59 73 61 74 63 75 60 76 44 77 45 78 50 79
REMARK SMILES IDX 46 80 47 81 49 82 51 83 48 84
REMARK H PARENT 14 5 9 11 5 14 5 15 18 27 68 46 42 57
REMARK Flexibility Score: inf
ROOT
ATOM      1  C   UNL     1       2.985   1.408   4.551  1.00  0.00     0.117 C 
ENDROOT
BRANCH   1   2
ATOM      2  N   UNL     1       3.534   0.942   3.280  1.00  0.00    -0.354 N 
ATOM      3  C   UNL     1       3.034   0.262   2.207  1.00  0.00     0.245 C 
ATOM      4  O   UNL     1       3.876   0.064   1.321  1.00  0.00    -0.272 OA
ATOM      5  H   UNL     1       4.486   1.171   3.172  1.00  0.00     0.163 HD
BRANCH   3   6
ATOM      6  C   UNL     1       1.597  -0.391   2.155  1.00  0.00     0.119 C 
ATOM      7  C   UNL     1       1.645  -1.520   3.218  1.00  0.00     0.046 C 
BRANCH   6   8
ATOM      8  N   UNL     1       0.524   0.561   2.582  1.00  0.00    -0.337 N 
ATOM      9  C   UNL     1      -0.156   1.625   2.073  1.00  0.00     0.275 C 
ATOM     10  O   UNL     1      -0.834   2.250   2.904  1.00  0.00    -0.268 OA
ATOM     11  H   UNL     1       0.222   0.358   3.497  1.00  0.00     0.164 HD
BRANCH   9  12
ATOM     12  C   UNL     1      -0.162   2.102   0.609  1.00  0.00     0.362 C 
BRANCH  12  13
ATOM     13  N   UNL     1       0.430   3.443   0.387  1.00  0.00    -0.334 N 
ATOM     14  H   UNL     1       0.146   3.751  -0.543  1.00  0.00     0.347 HD
ATOM     15  H   UNL     1       0.084   4.010   1.160  1.00  0.00     0.347 HD
BRANCH  13  16
ATOM     16  C   UNL     1       1.895   3.562   0.462  1.00  0.00     0.088 C 
ATOM     17  C   UNL     1       2.623   2.459  -0.323  1.00  0.00     0.078 C 
ATOM     18  C   UNL     1       2.318   3.625   1.927  1.00  0.00     0.078 C 
ATOM     19  C   UNL     1       2.334   4.902  -0.155  1.00  0.00     0.078 C 
ENDBRANCH  13  16
ENDBRANCH  12  13
ENDBRANCH   9  12
ENDBRANCH   6   8
BRANCH   6  20
ATOM     20  C   UNL     1       1.256  -1.016   0.788  1.00  0.00     0.024 C 
ATOM     21  C   UNL     1       2.234  -1.891   0.026  1.00  0.00     0.007 C 
ATOM     22  C   UNL     1       0.963  -2.489   0.543  1.00  0.00     0.007 C 
ENDBRANCH   6  20
ENDBRANCH   3   6
ENDBRANCH   1   2
BRANCH   1  23
ATOM     23  C   UNL     1       4.088   1.955   5.461  1.00  0.00     0.042 C 
BRANCH  23  24
ATOM     24  C   UNL     1       4.770   3.222   4.938  1.00  0.00     0.118 C 
BRANCH  24  25
ATOM     25  N   UNL     1       4.120   4.450   5.373  1.00  0.00    -0.352 N 
ATOM     26  C   UNL     1       4.549   5.406   6.272  1.00  0.00     0.251 C 
ATOM     27  H   UNL     1       3.242   4.625   4.964  1.00  0.00     0.163 HD
ATOM     28  O   UNL     1       3.802   6.307   6.617  1.00  0.00    -0.269 OA
BRANCH  26  29
ATOM     29  C   UNL     1       5.910   5.316   6.854  1.00  0.00     0.039 A 
ATOM     30  C   UNL     1       6.059   5.420   8.240  1.00  0.00     0.014 A 
ATOM     31  C   UNL     1       7.030   5.118   6.046  1.00  0.00     0.014 A 
ATOM     32  C   UNL     1       7.317   5.224   8.820  1.00  0.00     0.010 A 
ATOM     33  C   UNL     1       8.266   4.842   6.629  1.00  0.00     0.010 A 
ATOM     34  C   UNL     1       8.422   4.880   8.024  1.00  0.00    -0.014 A 
BRANCH  34  35
ATOM     35  C   UNL     1       9.736   4.531   8.631  1.00  0.00     0.031 A 
ATOM     36  C   UNL     1      10.964   5.343   8.314  1.00  0.00     0.074 A 
ATOM     37  C   UNL     1       9.845   3.428   9.400  1.00  0.00     0.049 A 
ATOM     38  N   UNL     1      12.207   5.138   8.675  1.00  0.00    -0.248 NA
ATOM     39  C   UNL     1      10.779   6.520   7.451  1.00  0.00     0.031 C 
ATOM     40  C   UNL     1       8.750   2.511   9.729  1.00  0.00     0.029 A 
ATOM     41  N   UNL     1      10.934   2.877  10.030  1.00  0.00    -0.354 N 
ATOM     42  C   UNL     1      12.950   6.138   8.060  1.00  0.00     0.074 A 
ATOM     43  C   UNL     1      12.028   6.925   7.271  1.00  0.00     0.031 C 
ATOM     44  C   UNL     1       9.219   1.525  10.510  1.00  0.00     0.029 A 
ATOM     45  C   UNL     1      10.652   1.716  10.710  1.00  0.00     0.049 A 
ATOM     46  H   UNL     1      11.834   3.277   9.999  1.00  0.00     0.167 HD
ATOM     47  C   UNL     1      14.277   6.390   8.160  1.00  0.00     0.037 A 
ATOM     48  C   UNL     1      11.456   0.891  11.409  1.00  0.00     0.037 A 
ATOM     49  C   UNL     1      15.186   5.643   8.988  1.00  0.00     0.049 A 
ATOM     50  C   UNL     1      12.918   1.221  11.538  1.00  0.00     0.074 A 
ATOM     51  C   UNL     1      16.526   5.888   9.234  1.00  0.00     0.029 A 
ATOM     52  N   UNL     1      14.849   4.506   9.705  1.00  0.00    -0.354 N 
ATOM     53  N   UNL     1      13.586   2.227  11.028  1.00  0.00    -0.248 NA
ATOM     54  C   UNL     1      13.737   0.307  12.348  1.00  0.00     0.031 C 
ATOM     55  C   UNL     1      17.011   4.875  10.067  1.00  0.00     0.029 A 
ATOM     56  C   UNL     1      15.962   4.025  10.375  1.00  0.00     0.049 A 
ATOM     57  H   UNL     1      13.952   4.101   9.734  1.00  0.00     0.167 HD
ATOM     58  C   UNL     1      14.892   2.082  11.477  1.00  0.00     0.074 A 
ATOM     59  C   UNL     1      14.921   0.902  12.314  1.00  0.00     0.031 C 
ATOM     60  C   UNL     1      15.973   2.857  11.216  1.00  0.00     0.037 A 
BRANCH  47  61
ATOM     61  C   UNL     1      14.835   7.532   7.362  1.00  0.00     0.057 A 
ATOM     62  C   UNL     1      14.575   8.867   7.698  1.00  0.00     0.134 A 
ATOM     63  C   UNL     1      15.694   7.294   6.281  1.00  0.00     0.134 A 
ATOM     64  F   UNL     1      13.753   9.164   8.716  1.00  0.00    -0.206 F 
ATOM     65  C   UNL     1      15.134   9.923   6.977  1.00  0.00     0.040 A 
ATOM     66  C   UNL     1      16.280   8.341   5.569  1.00  0.00     0.040 A 
ATOM     67  F   UNL     1      15.991   6.039   5.911  1.00  0.00    -0.206 F 
ATOM     68  C   UNL     1      15.997   9.661   5.915  1.00  0.00     0.006 A 
ENDBRANCH  47  61
BRANCH  48  69
ATOM     69  C   UNL     1      10.903  -0.328  12.054  1.00  0.00     0.057 A 
ATOM     70  C   UNL     1      10.813  -0.432  13.448  1.00  0.00     0.134 A 
ATOM     71  C   UNL     1      10.482  -1.428  11.298  1.00  0.00     0.134 A 
ATOM     72  F   UNL     1      11.219   0.581  14.227  1.00  0.00    -0.206 F 
ATOM     73  C   UNL     1      10.354  -1.596  14.067  1.00  0.00     0.040 A 
ATOM     74  C   UNL     1       9.996  -2.589  11.903  1.00  0.00     0.040 A 
ATOM     75  F   UNL     1      10.534  -1.390   9.959  1.00  0.00    -0.206 F 
ATOM     76  C   UNL     1       9.941  -2.678  13.293  1.00  0.00     0.006 A 
ENDBRANCH  48  69
BRANCH  60  77
ATOM     77  C   UNL     1      17.267   2.476  11.871  1.00  0.00     0.057 A 
ATOM     78  C   UNL     1      18.005   1.360  11.456  1.00  0.00     0.134 A 
ATOM     79  C   UNL     1      17.802   3.259  12.902  1.00  0.00     0.134 A 
ATOM     80  F   UNL     1      17.542   0.562  10.483  1.00  0.00    -0.206 F 
ATOM     81  C   UNL     1      19.219   1.025  12.059  1.00  0.00     0.040 A 
ATOM     82  C   UNL     1      19.026   2.949  13.494  1.00  0.00     0.040 A 
ATOM     83  F   UNL     1      17.148   4.346  13.340  1.00  0.00    -0.206 F 
ATOM     84  C   UNL     1      19.736   1.826  13.076  1.00  0.00     0.006 A 
ENDBRANCH  60  77
ENDBRANCH  34  35
ENDBRANCH  26  29
ENDBRANCH  24  25
ENDBRANCH  23  24
ENDBRANCH   1  23
TORSDOF 15
