REMARK SMILES Cc1ccc(NC(=O)C[C@@H]2C[NH2+]CCO2)c(C(=O)NCCCNC(=O)c2ccc(-c3c4nc(c(-c5c(F)cccc5F)c5ccc([nH]5)c(-c5c(F)cccc5F)c5nc(c(-c6c(F)cccc6F)c6ccc3[nH]6)C=C5)C=C4)cc2)c1
REMARK SMILES IDX 20 1 19 2 17 3 18 4 16 6 1 7 2 8 3 9 80 10 4 11 5 12 6 13
REMARK SMILES IDX 7 14 8 16 9 17 10 18 11 19 15 20 12 21 14 22 13 23 21 26
REMARK SMILES IDX 22 27 23 28 24 29 25 31 26 32 27 33 79 34 28 35 78 36 29 37
REMARK SMILES IDX 30 38 31 39 72 40 32 41 77 42 71 43 73 44 33 45 76 46 70 47
REMARK SMILES IDX 69 48 34 50 60 51 43 52 59 53 44 54 47 55 58 56 74 57 45 58
REMARK SMILES IDX 46 59 57 61 75 62 48 63 35 64 36 65 41 66 37 67 38 68 40 69
REMARK SMILES IDX 42 70 39 71 61 72 62 73 67 74 63 75 64 76 66 77 68 78 65 79
REMARK SMILES IDX 49 80 50 81 55 82 51 83 52 84 54 85 56 86 53 87
REMARK H PARENT 19 5 6 15 12 24 12 25 23 30 73 49 47 60
REMARK Flexibility Score: inf
ROOT
ATOM      1  C   UNL     1       0.217   3.862   0.675  1.00  0.00     0.118 C 
ENDROOT
BRANCH   1   2
ATOM      2  N   UNL     1      -1.082   3.472   0.139  1.00  0.00    -0.352 N 
ATOM      3  C   UNL     1      -1.659   2.235  -0.058  1.00  0.00     0.253 C 
ATOM      4  O   UNL     1      -2.837   2.221  -0.417  1.00  0.00    -0.269 OA
ATOM      5  H   UNL     1      -1.649   4.230  -0.132  1.00  0.00     0.163 HD
BRANCH   3   6
ATOM      6  C   UNL     1      -0.945   0.946   0.220  1.00  0.00     0.063 A 
ATOM      7  C   UNL     1       2.625  -0.397   0.080  1.00  0.00     0.044 C 
ATOM      8  C   UNL     1       1.157  -0.312   0.371  1.00  0.00    -0.050 A 
ATOM      9  C   UNL     1       0.469  -1.375   0.938  1.00  0.00     0.005 A 
ATOM     10  C   UNL     1       0.437   0.831   0.015  1.00  0.00     0.019 A 
ATOM     11  C   UNL     1      -0.923  -1.323   1.052  1.00  0.00     0.027 A 
ATOM     12  C   UNL     1      -1.652  -0.215   0.598  1.00  0.00     0.054 A 
BRANCH  12  13
ATOM     13  N   UNL     1      -3.057  -0.261   0.429  1.00  0.00    -0.325 N 
ATOM     14  C   UNL     1      -3.887  -1.269   0.019  1.00  0.00     0.227 C 
ATOM     15  H   UNL     1      -3.518   0.582   0.644  1.00  0.00     0.169 HD
ATOM     16  O   UNL     1      -5.092  -1.018  -0.107  1.00  0.00    -0.275 OA
BRANCH  14  17
ATOM     17  C   UNL     1      -3.397  -2.666  -0.306  1.00  0.00     0.138 C 
BRANCH  17  18
ATOM     18  C   UNL     1      -2.581  -2.829  -1.600  1.00  0.00     0.182 C 
ATOM     19  C   UNL     1      -1.723  -4.119  -1.489  1.00  0.00     0.293 C 
ATOM     20  O   UNL     1      -1.748  -1.691  -1.849  1.00  0.00    -0.366 OA
ATOM     21  N   UNL     1      -0.796  -4.323  -2.617  1.00  0.00    -0.342 N 
ATOM     22  C   UNL     1      -0.882  -1.870  -2.970  1.00  0.00     0.222 C 
ATOM     23  C   UNL     1       0.010  -3.100  -2.778  1.00  0.00     0.289 C 
ATOM     24  H   UNL     1      -1.325  -4.502  -3.470  1.00  0.00     0.346 HD
ATOM     25  H   UNL     1      -0.190  -5.122  -2.434  1.00  0.00     0.346 HD
ENDBRANCH  17  18
ENDBRANCH  14  17
ENDBRANCH  12  13
ENDBRANCH   3   6
ENDBRANCH   1   2
BRANCH   1  26
ATOM     26  C   UNL     1       1.247   4.051  -0.441  1.00  0.00     0.042 C 
BRANCH  26  27
ATOM     27  C   UNL     1       1.355   5.476  -0.950  1.00  0.00     0.118 C 
BRANCH  27  28
ATOM     28  N   UNL     1       2.567   6.167  -0.524  1.00  0.00    -0.352 N 
ATOM     29  C   UNL     1       2.947   7.477  -0.774  1.00  0.00     0.251 C 
ATOM     30  H   UNL     1       3.199   5.633   0.010  1.00  0.00     0.163 HD
ATOM     31  O   UNL     1       3.995   7.917  -0.334  1.00  0.00    -0.269 OA
BRANCH  29  32
ATOM     32  C   UNL     1       1.982   8.370  -1.459  1.00  0.00     0.039 A 
ATOM     33  C   UNL     1       1.624   9.550  -0.802  1.00  0.00     0.014 A 
ATOM     34  C   UNL     1       1.251   7.913  -2.552  1.00  0.00     0.014 A 
ATOM     35  C   UNL     1       0.381  10.115  -1.063  1.00  0.00     0.010 A 
ATOM     36  C   UNL     1      -0.026   8.403  -2.733  1.00  0.00     0.010 A 
ATOM     37  C   UNL     1      -0.485   9.455  -1.933  1.00  0.00    -0.014 A 
BRANCH  37  38
ATOM     38  C   UNL     1      -1.918   9.719  -1.970  1.00  0.00     0.031 A 
ATOM     39  C   UNL     1      -2.511  10.444  -3.109  1.00  0.00     0.074 A 
ATOM     40  C   UNL     1      -2.704   9.231  -0.984  1.00  0.00     0.049 A 
ATOM     41  N   UNL     1      -3.641  11.064  -3.070  1.00  0.00    -0.248 NA
ATOM     42  C   UNL     1      -1.830  10.569  -4.391  1.00  0.00     0.031 C 
ATOM     43  C   UNL     1      -4.162   9.143  -0.969  1.00  0.00     0.029 A 
ATOM     44  N   UNL     1      -2.322   8.907   0.327  1.00  0.00    -0.354 N 
ATOM     45  C   UNL     1      -3.961  11.439  -4.356  1.00  0.00     0.074 A 
ATOM     46  C   UNL     1      -2.775  11.156  -5.131  1.00  0.00     0.031 C 
ATOM     47  C   UNL     1      -4.577   9.080   0.306  1.00  0.00     0.029 A 
ATOM     48  C   UNL     1      -3.409   9.284   1.146  1.00  0.00     0.049 A 
ATOM     49  H   UNL     1      -1.472   8.502   0.616  1.00  0.00     0.167 HD
ATOM     50  C   UNL     1      -5.238  11.827  -4.641  1.00  0.00     0.037 A 
ATOM     51  C   UNL     1      -3.289  10.260   2.092  1.00  0.00     0.037 A 
ATOM     52  C   UNL     1      -6.055  11.873  -3.432  1.00  0.00     0.049 A 
ATOM     53  C   UNL     1      -4.251  11.409   1.909  1.00  0.00     0.074 A 
ATOM     54  C   UNL     1      -6.924  10.960  -2.856  1.00  0.00     0.029 A 
ATOM     55  N   UNL     1      -5.800  12.838  -2.466  1.00  0.00    -0.354 N 
ATOM     56  N   UNL     1      -4.840  11.690   0.779  1.00  0.00    -0.248 NA
ATOM     57  C   UNL     1      -4.599  12.351   2.970  1.00  0.00     0.031 C 
ATOM     58  C   UNL     1      -7.143  11.349  -1.512  1.00  0.00     0.029 A 
ATOM     59  C   UNL     1      -6.428  12.510  -1.280  1.00  0.00     0.049 A 
ATOM     60  H   UNL     1      -5.248  13.642  -2.606  1.00  0.00     0.167 HD
ATOM     61  C   UNL     1      -5.604  12.818   0.932  1.00  0.00     0.074 A 
ATOM     62  C   UNL     1      -5.436  13.184   2.325  1.00  0.00     0.031 C 
ATOM     63  C   UNL     1      -6.299  13.362  -0.109  1.00  0.00     0.037 A 
BRANCH  50  64
ATOM     64  C   UNL     1      -5.809  11.858  -6.042  1.00  0.00     0.057 A 
ATOM     65  C   UNL     1      -7.168  11.564  -6.275  1.00  0.00     0.134 A 
ATOM     66  C   UNL     1      -5.066  12.101  -7.209  1.00  0.00     0.134 A 
ATOM     67  F   UNL     1      -8.044  11.429  -5.271  1.00  0.00    -0.206 F 
ATOM     68  C   UNL     1      -7.704  11.389  -7.558  1.00  0.00     0.040 A 
ATOM     69  C   UNL     1      -5.573  11.874  -8.498  1.00  0.00     0.040 A 
ATOM     70  F   UNL     1      -3.835  12.624  -7.159  1.00  0.00    -0.206 F 
ATOM     71  C   UNL     1      -6.895  11.498  -8.676  1.00  0.00     0.006 A 
ENDBRANCH  50  64
BRANCH  51  72
ATOM     72  C   UNL     1      -1.916  10.386   2.647  1.00  0.00     0.057 A 
ATOM     73  C   UNL     1      -1.363   9.296   3.345  1.00  0.00     0.134 A 
ATOM     74  C   UNL     1      -1.032  11.375   2.210  1.00  0.00     0.134 A 
ATOM     75  F   UNL     1      -2.156   8.310   3.793  1.00  0.00    -0.206 F 
ATOM     76  C   UNL     1       0.017   9.140   3.498  1.00  0.00     0.040 A 
ATOM     77  C   UNL     1       0.353  11.236   2.371  1.00  0.00     0.040 A 
ATOM     78  F   UNL     1      -1.478  12.435   1.521  1.00  0.00    -0.206 F 
ATOM     79  C   UNL     1       0.881  10.098   2.981  1.00  0.00     0.006 A 
ENDBRANCH  51  72
BRANCH  63  80
ATOM     80  C   UNL     1      -6.985  14.704  -0.112  1.00  0.00     0.057 A 
ATOM     81  C   UNL     1      -6.544  15.814   0.622  1.00  0.00     0.134 A 
ATOM     82  C   UNL     1      -8.048  14.959  -1.008  1.00  0.00     0.134 A 
ATOM     83  F   UNL     1      -5.480  15.740   1.433  1.00  0.00    -0.206 F 
ATOM     84  C   UNL     1      -7.146  17.075   0.509  1.00  0.00     0.040 A 
ATOM     85  C   UNL     1      -8.621  16.224  -1.166  1.00  0.00     0.040 A 
ATOM     86  F   UNL     1      -8.560  13.994  -1.786  1.00  0.00    -0.206 F 
ATOM     87  C   UNL     1      -8.178  17.287  -0.397  1.00  0.00     0.006 A 
ENDBRANCH  63  80
ENDBRANCH  37  38
ENDBRANCH  29  32
ENDBRANCH  27  28
ENDBRANCH  26  27
ENDBRANCH   1  26
TORSDOF 13
