REMARK SMILES O=C(CSc1nc(-c2ccccc2)cc(-c2ccccc2)n1)NCCCNC(=O)c1ccc(-c2c3nc(c(-c4c(F)cccc4F)c4ccc([nH]4)c(-c4c(F)cccc4F)c4nc(c(-c5c(F)cccc5F)c5ccc2[nH]5)C=C4)C=C3)cc1
REMARK SMILES IDX 24 1 23 2 1 3 2 4 3 6 4 7 5 8 6 9 22 10 7 11 15 12 14 13
REMARK SMILES IDX 8 14 9 15 13 16 10 17 12 18 11 19 16 20 17 21 21 22 18 23
REMARK SMILES IDX 20 24 19 25 25 26 26 27 27 28 28 29 29 31 30 32 31 33 83 34
REMARK SMILES IDX 32 35 82 36 33 37 34 38 35 39 76 40 36 41 81 42 75 43 77 44
REMARK SMILES IDX 37 45 80 46 74 47 73 48 38 50 64 51 47 52 63 53 48 54 51 55
REMARK SMILES IDX 62 56 78 57 49 58 50 59 61 61 79 62 52 63 39 64 40 65 45 66
REMARK SMILES IDX 41 67 42 68 44 69 46 70 43 71 65 72 66 73 71 74 67 75 68 76
REMARK SMILES IDX 70 77 72 78 69 79 53 80 54 81 59 82 55 83 56 84 58 85 60 86
REMARK SMILES IDX 57 87
REMARK H PARENT 23 5 27 30 77 49 51 60
REMARK Flexibility Score: inf
ROOT
ATOM      1  C   UNL     1       2.183   0.314   2.418  1.00  0.00     0.117 C 
ENDROOT
BRANCH   1   2
ATOM      2  N   UNL     1       2.811   0.387   1.117  1.00  0.00    -0.355 N 
ATOM      3  O   UNL     1       1.021  -0.440  -0.039  1.00  0.00    -0.274 OA
ATOM      4  C   UNL     1       2.142   0.068  -0.046  1.00  0.00     0.230 C 
ATOM      5  H   UNL     1       3.751   0.675   1.060  1.00  0.00     0.163 HD
BRANCH   4   6
ATOM      6  C   UNL     1       2.920   0.260  -1.341  1.00  0.00     0.178 C 
BRANCH   6   7
ATOM      7  S   UNL     1       4.159   1.594  -1.272  1.00  0.00    -0.076 SA
BRANCH   7   8
ATOM      8  C   UNL     1       3.104   3.024  -1.244  1.00  0.00     0.189 A 
ATOM      9  N   UNL     1       1.788   2.856  -1.077  1.00  0.00    -0.222 NA
ATOM     10  N   UNL     1       3.716   4.210  -1.359  1.00  0.00    -0.222 NA
ATOM     11  C   UNL     1       1.026   3.967  -1.044  1.00  0.00     0.075 A 
ATOM     12  C   UNL     1       2.938   5.309  -1.293  1.00  0.00     0.075 A 
ATOM     13  C   UNL     1       1.569   5.232  -1.142  1.00  0.00     0.058 A 
BRANCH  11  14
ATOM     14  C   UNL     1      -0.419   3.753  -0.880  1.00  0.00     0.000 A 
ATOM     15  C   UNL     1      -0.908   2.915   0.137  1.00  0.00     0.010 A 
ATOM     16  C   UNL     1      -1.353   4.378  -1.725  1.00  0.00     0.010 A 
ATOM     17  C   UNL     1      -2.281   2.731   0.321  1.00  0.00     0.001 A 
ATOM     18  C   UNL     1      -2.726   4.185  -1.549  1.00  0.00     0.001 A 
ATOM     19  C   UNL     1      -3.189   3.367  -0.522  1.00  0.00     0.000 A 
ENDBRANCH  11  14
BRANCH  12  20
ATOM     20  C   UNL     1       3.632   6.598  -1.389  1.00  0.00     0.000 A 
ATOM     21  C   UNL     1       4.445   6.896  -2.495  1.00  0.00     0.010 A 
ATOM     22  C   UNL     1       3.499   7.573  -0.384  1.00  0.00     0.010 A 
ATOM     23  C   UNL     1       5.086   8.133  -2.604  1.00  0.00     0.001 A 
ATOM     24  C   UNL     1       4.148   8.806  -0.488  1.00  0.00     0.001 A 
ATOM     25  C   UNL     1       4.937   9.087  -1.600  1.00  0.00     0.000 A 
ENDBRANCH  12  20
ENDBRANCH   7   8
ENDBRANCH   6   7
ENDBRANCH   4   6
ENDBRANCH   1   2
BRANCH   1  26
ATOM     26  C   UNL     1       2.477  -0.987   3.158  1.00  0.00     0.042 C 
BRANCH  26  27
ATOM     27  C   UNL     1       3.950  -1.228   3.480  1.00  0.00     0.118 C 
BRANCH  27  28
ATOM     28  N   UNL     1       4.538  -0.190   4.315  1.00  0.00    -0.352 N 
ATOM     29  C   UNL     1       5.258  -0.264   5.479  1.00  0.00     0.251 C 
ATOM     30  H   UNL     1       4.393   0.726   3.985  1.00  0.00     0.163 HD
ATOM     31  O   UNL     1       5.549   0.783   6.061  1.00  0.00    -0.269 OA
BRANCH  29  32
ATOM     32  C   UNL     1       5.672  -1.557   6.071  1.00  0.00     0.039 A 
ATOM     33  C   UNL     1       5.656  -1.678   7.465  1.00  0.00     0.014 A 
ATOM     34  C   UNL     1       6.125  -2.628   5.295  1.00  0.00     0.014 A 
ATOM     35  C   UNL     1       6.028  -2.880   8.073  1.00  0.00     0.010 A 
ATOM     36  C   UNL     1       6.434  -3.850   5.898  1.00  0.00     0.010 A 
ATOM     37  C   UNL     1       6.386  -3.990   7.292  1.00  0.00    -0.014 A 
BRANCH  37  38
ATOM     38  C   UNL     1       6.677  -5.301   7.931  1.00  0.00     0.031 A 
ATOM     39  C   UNL     1       8.052  -5.906   7.871  1.00  0.00     0.074 A 
ATOM     40  C   UNL     1       5.679  -5.974   8.537  1.00  0.00     0.049 A 
ATOM     41  N   UNL     1       8.477  -7.042   8.368  1.00  0.00    -0.248 NA
ATOM     42  C   UNL     1       9.080  -5.149   7.141  1.00  0.00     0.031 C 
ATOM     43  C   UNL     1       4.286  -5.528   8.618  1.00  0.00     0.029 A 
ATOM     44  N   UNL     1       5.681  -7.176   9.200  1.00  0.00    -0.354 N 
ATOM     45  C   UNL     1       9.813  -7.141   8.002  1.00  0.00     0.074 A 
ATOM     46  C   UNL     1      10.118  -5.971   7.205  1.00  0.00     0.031 C 
ATOM     47  C   UNL     1       3.576  -6.429   9.315  1.00  0.00     0.029 A 
ATOM     48  C   UNL     1       4.454  -7.527   9.707  1.00  0.00     0.049 A 
ATOM     49  H   UNL     1       6.486  -7.734   9.301  1.00  0.00     0.167 HD
ATOM     50  C   UNL     1      10.710  -8.107   8.316  1.00  0.00     0.037 A 
ATOM     51  C   UNL     1       4.077  -8.609  10.414  1.00  0.00     0.037 A 
ATOM     52  C   UNL     1      10.418  -9.261   9.128  1.00  0.00     0.049 A 
ATOM     53  C   UNL     1       5.097  -9.651  10.774  1.00  0.00     0.074 A 
ATOM     54  C   UNL     1      11.277 -10.263   9.545  1.00  0.00     0.029 A 
ATOM     55  N   UNL     1       9.169  -9.566   9.647  1.00  0.00    -0.354 N 
ATOM     56  N   UNL     1       6.372  -9.696  10.477  1.00  0.00    -0.248 NA
ATOM     57  C   UNL     1       4.625 -10.787  11.579  1.00  0.00     0.031 C 
ATOM     58  C   UNL     1      10.542 -11.192  10.291  1.00  0.00     0.029 A 
ATOM     59  C   UNL     1       9.233 -10.747  10.370  1.00  0.00     0.049 A 
ATOM     60  H   UNL     1       8.357  -9.024   9.521  1.00  0.00     0.167 HD
ATOM     61  C   UNL     1       6.861 -10.848  11.077  1.00  0.00     0.074 A 
ATOM     62  C   UNL     1       5.748 -11.465  11.769  1.00  0.00     0.031 C 
ATOM     63  C   UNL     1       8.120 -11.350  11.057  1.00  0.00     0.037 A 
BRANCH  50  64
ATOM     64  C   UNL     1      12.105  -7.953   7.783  1.00  0.00     0.057 A 
ATOM     65  C   UNL     1      12.985  -6.990   8.293  1.00  0.00     0.134 A 
ATOM     66  C   UNL     1      12.586  -8.801   6.777  1.00  0.00     0.134 A 
ATOM     67  F   UNL     1      12.583  -6.141   9.251  1.00  0.00    -0.206 F 
ATOM     68  C   UNL     1      14.287  -6.861   7.806  1.00  0.00     0.040 A 
ATOM     69  C   UNL     1      13.893  -8.696   6.299  1.00  0.00     0.040 A 
ATOM     70  F   UNL     1      11.797  -9.749   6.250  1.00  0.00    -0.206 F 
ATOM     71  C   UNL     1      14.746  -7.720   6.810  1.00  0.00     0.006 A 
ENDBRANCH  50  64
BRANCH  51  72
ATOM     72  C   UNL     1       2.671  -8.742  10.865  1.00  0.00     0.057 A 
ATOM     73  C   UNL     1       2.329  -8.574  12.212  1.00  0.00     0.134 A 
ATOM     74  C   UNL     1       1.640  -9.042   9.968  1.00  0.00     0.134 A 
ATOM     75  F   UNL     1       3.278  -8.305  13.120  1.00  0.00    -0.206 F 
ATOM     76  C   UNL     1       1.014  -8.716  12.655  1.00  0.00     0.040 A 
ATOM     77  C   UNL     1       0.316  -9.165  10.393  1.00  0.00     0.040 A 
ATOM     78  F   UNL     1       1.904  -9.207   8.664  1.00  0.00    -0.206 F 
ATOM     79  C   UNL     1       0.002  -9.008  11.742  1.00  0.00     0.006 A 
ENDBRANCH  51  72
BRANCH  63  80
ATOM     80  C   UNL     1       8.362 -12.611  11.831  1.00  0.00     0.057 A 
ATOM     81  C   UNL     1       7.889 -13.853  11.388  1.00  0.00     0.134 A 
ATOM     82  C   UNL     1       9.084 -12.584  13.031  1.00  0.00     0.134 A 
ATOM     83  F   UNL     1       7.177 -13.944  10.254  1.00  0.00    -0.206 F 
ATOM     84  C   UNL     1       8.102 -15.019  12.125  1.00  0.00     0.040 A 
ATOM     85  C   UNL     1       9.324 -13.747  13.764  1.00  0.00     0.040 A 
ATOM     86  F   UNL     1       9.570 -11.428  13.508  1.00  0.00    -0.206 F 
ATOM     87  C   UNL     1       8.825 -14.968  13.315  1.00  0.00     0.006 A 
ENDBRANCH  63  80
ENDBRANCH  37  38
ENDBRANCH  29  32
ENDBRANCH  27  28
ENDBRANCH  26  27
ENDBRANCH   1  26
TORSDOF 14
