REMARK SMILES C[C@H]1N=c2ccc(C(=O)NCCCNC(=O)c3ccc(-c4c5nc(c(-c6c(F)cccc6F)c6ccc([nH]6)c(-c6c(F)cccc6F)c6nc(c(-c7c(F)cccc7F)c7ccc4[nH]7)C=C6)C=C5)cc3)cc2=N1
REMARK SMILES IDX 13 1 12 2 11 3 10 4 8 5 9 6 7 8 1 9 2 10 3 11 73 12 4 13
REMARK SMILES IDX 72 14 5 15 71 16 6 17 14 18 15 19 16 21 17 22 18 23 70 24
REMARK SMILES IDX 19 25 69 26 20 27 21 28 22 29 63 30 23 31 68 32 62 33 64 34
REMARK SMILES IDX 24 35 67 36 61 37 60 38 25 40 51 41 34 42 50 43 35 44 38 45
REMARK SMILES IDX 49 46 65 47 36 48 37 49 48 51 66 52 39 53 26 54 27 55 32 56
REMARK SMILES IDX 28 57 29 58 31 59 33 60 30 61 52 62 53 63 58 64 54 65 55 66
REMARK SMILES IDX 57 67 59 68 56 69 40 70 41 71 46 72 42 73 43 74 45 75 47 76
REMARK SMILES IDX 44 77
REMARK H PARENT 10 7 14 20 64 39 38 50
REMARK Flexibility Score: inf
ROOT
ATOM      1  C   UNL     1      -2.474   6.846   6.689  1.00  0.00     0.118 C 
ENDROOT
BRANCH   1   2
ATOM      2  C   UNL     1      -2.570   5.741   5.641  1.00  0.00     0.042 C 
BRANCH   2   3
ATOM      3  C   UNL     1      -2.641   6.279   4.213  1.00  0.00     0.118 C 
BRANCH   3   4
ATOM      4  N   UNL     1      -1.328   6.687   3.751  1.00  0.00    -0.352 N 
ATOM      5  C   UNL     1      -0.344   6.069   3.047  1.00  0.00     0.251 C 
ATOM      6  O   UNL     1       0.684   6.726   2.861  1.00  0.00    -0.269 OA
ATOM      7  H   UNL     1      -1.100   7.612   4.002  1.00  0.00     0.163 HD
BRANCH   5   8
ATOM      8  C   UNL     1      -0.481   4.689   2.461  1.00  0.00     0.042 A 
ATOM      9  C   UNL     1       1.319   0.209  -0.157  1.00  0.00     0.059 C 
ATOM     10  C   UNL     1       0.386   1.369  -0.477  1.00  0.00     0.218 C 
ATOM     11  N   UNL     1      -0.844   1.195   0.338  1.00  0.00    -0.257 NA
ATOM     12  N   UNL     1       1.055   2.654  -0.142  1.00  0.00    -0.257 NA
ATOM     13  C   UNL     1      -0.815   2.228   1.103  1.00  0.00     0.085 A 
ATOM     14  C   UNL     1       0.298   3.138   0.778  1.00  0.00     0.086 A 
ATOM     15  C   UNL     1      -1.674   2.535   2.243  1.00  0.00     0.031 A 
ATOM     16  C   UNL     1       0.399   4.423   1.474  1.00  0.00     0.044 A 
ATOM     17  C   UNL     1      -1.431   3.676   2.904  1.00  0.00     0.016 A 
ENDBRANCH   5   8
ENDBRANCH   3   4
ENDBRANCH   2   3
ENDBRANCH   1   2
BRANCH   1  18
ATOM     18  N   UNL     1      -3.714   7.604   6.806  1.00  0.00    -0.352 N 
ATOM     19  C   UNL     1      -4.541   7.804   7.887  1.00  0.00     0.251 C 
ATOM     20  H   UNL     1      -4.007   8.046   5.976  1.00  0.00     0.163 HD
ATOM     21  O   UNL     1      -5.646   8.304   7.718  1.00  0.00    -0.269 OA
BRANCH  19  22
ATOM     22  C   UNL     1      -4.112   7.400   9.245  1.00  0.00     0.039 A 
ATOM     23  C   UNL     1      -2.794   7.578   9.661  1.00  0.00     0.014 A 
ATOM     24  C   UNL     1      -5.051   6.850  10.125  1.00  0.00     0.014 A 
ATOM     25  C   UNL     1      -2.374   7.038  10.869  1.00  0.00     0.010 A 
ATOM     26  C   UNL     1      -4.647   6.407  11.389  1.00  0.00     0.010 A 
ATOM     27  C   UNL     1      -3.293   6.448  11.752  1.00  0.00    -0.014 A 
BRANCH  27  28
ATOM     28  C   UNL     1      -2.792   5.895  13.039  1.00  0.00     0.031 A 
ATOM     29  C   UNL     1      -2.898   4.425  13.348  1.00  0.00     0.074 A 
ATOM     30  C   UNL     1      -2.158   6.717  13.898  1.00  0.00     0.049 A 
ATOM     31  N   UNL     1      -2.418   3.760  14.370  1.00  0.00    -0.248 NA
ATOM     32  C   UNL     1      -3.643   3.591  12.393  1.00  0.00     0.031 C 
ATOM     33  C   UNL     1      -2.001   8.164  13.720  1.00  0.00     0.029 A 
ATOM     34  N   UNL     1      -1.492   6.455  15.068  1.00  0.00    -0.354 N 
ATOM     35  C   UNL     1      -2.811   2.439  14.187  1.00  0.00     0.074 A 
ATOM     36  C   UNL     1      -3.605   2.403  12.978  1.00  0.00     0.031 C 
ATOM     37  C   UNL     1      -1.227   8.647  14.702  1.00  0.00     0.029 A 
ATOM     38  C   UNL     1      -0.889   7.562  15.614  1.00  0.00     0.049 A 
ATOM     39  H   UNL     1      -1.451   5.560  15.476  1.00  0.00     0.167 HD
ATOM     40  C   UNL     1      -2.526   1.353  14.947  1.00  0.00     0.037 A 
ATOM     41  C   UNL     1      -0.150   7.691  16.731  1.00  0.00     0.037 A 
ATOM     42  C   UNL     1      -1.730   1.390  16.149  1.00  0.00     0.049 A 
ATOM     43  C   UNL     1       0.117   6.476  17.572  1.00  0.00     0.074 A 
ATOM     44  C   UNL     1      -1.362   0.341  16.974  1.00  0.00     0.029 A 
ATOM     45  N   UNL     1      -1.187   2.540  16.703  1.00  0.00    -0.354 N 
ATOM     46  N   UNL     1      -0.227   5.229  17.361  1.00  0.00    -0.248 NA
ATOM     47  C   UNL     1       0.876   6.692  18.811  1.00  0.00     0.031 C 
ATOM     48  C   UNL     1      -0.644   0.863  18.056  1.00  0.00     0.029 A 
ATOM     49  C   UNL     1      -0.512   2.230  17.874  1.00  0.00     0.049 A 
ATOM     50  H   UNL     1      -1.270   3.444  16.322  1.00  0.00     0.167 HD
ATOM     51  C   UNL     1       0.289   4.509  18.430  1.00  0.00     0.074 A 
ATOM     52  C   UNL     1       1.000   5.455  19.266  1.00  0.00     0.031 C 
ATOM     53  C   UNL     1       0.180   3.184  18.702  1.00  0.00     0.037 A 
BRANCH  40  54
ATOM     54  C   UNL     1      -3.099   0.033  14.512  1.00  0.00     0.057 A 
ATOM     55  C   UNL     1      -4.099  -0.594  15.267  1.00  0.00     0.134 A 
ATOM     56  C   UNL     1      -2.650  -0.631  13.362  1.00  0.00     0.134 A 
ATOM     57  F   UNL     1      -4.571  -0.020  16.383  1.00  0.00    -0.206 F 
ATOM     58  C   UNL     1      -4.631  -1.830  14.894  1.00  0.00     0.040 A 
ATOM     59  C   UNL     1      -3.195  -1.854  12.963  1.00  0.00     0.040 A 
ATOM     60  F   UNL     1      -1.704  -0.082  12.584  1.00  0.00    -0.206 F 
ATOM     61  C   UNL     1      -4.185  -2.460  13.735  1.00  0.00     0.006 A 
ENDBRANCH  40  54
BRANCH  41  62
ATOM     62  C   UNL     1       0.379   9.021  17.132  1.00  0.00     0.057 A 
ATOM     63  C   UNL     1      -0.478  10.053  17.535  1.00  0.00     0.134 A 
ATOM     64  C   UNL     1       1.754   9.278  17.161  1.00  0.00     0.134 A 
ATOM     65  F   UNL     1      -1.808   9.873  17.523  1.00  0.00    -0.206 F 
ATOM     66  C   UNL     1       0.011  11.291  17.950  1.00  0.00     0.040 A 
ATOM     67  C   UNL     1       2.260  10.501  17.607  1.00  0.00     0.040 A 
ATOM     68  F   UNL     1       2.628   8.325  16.805  1.00  0.00    -0.206 F 
ATOM     69  C   UNL     1       1.386  11.512  18.000  1.00  0.00     0.006 A 
ENDBRANCH  41  62
BRANCH  53  70
ATOM     70  C   UNL     1       0.873   2.694  19.942  1.00  0.00     0.057 A 
ATOM     71  C   UNL     1       2.009   1.881  19.850  1.00  0.00     0.134 A 
ATOM     72  C   UNL     1       0.436   3.049  21.226  1.00  0.00     0.134 A 
ATOM     73  F   UNL     1       2.477   1.495  18.654  1.00  0.00    -0.206 F 
ATOM     74  C   UNL     1       2.694   1.452  20.988  1.00  0.00     0.040 A 
ATOM     75  C   UNL     1       1.132   2.655  22.370  1.00  0.00     0.040 A 
ATOM     76  F   UNL     1      -0.637   3.839  21.385  1.00  0.00    -0.206 F 
ATOM     77  C   UNL     1       2.265   1.852  22.252  1.00  0.00     0.006 A 
ENDBRANCH  53  70
ENDBRANCH  27  28
ENDBRANCH  19  22
ENDBRANCH   1  18
TORSDOF 10
