REMARK SMILES Cc1c(I)c(C(=O)NCCCNC(=O)c2ccc(-c3c4nc(c(-c5c(F)cccc5F)c5ccc([nH]5)c(-c5c(F)cccc5F)c5nc(c(-c6c(F)cccc6F)c6ccc3[nH]6)C=C5)C=C4)cc2)nn1C(F)F
REMARK SMILES IDX 10 1 9 2 8 3 6 4 7 5 5 7 1 8 2 9 3 10 70 11 4 12 69 13 71 14
REMARK SMILES IDX 72 15 73 16 11 17 12 18 13 19 14 21 15 22 16 23 68 24 17 25
REMARK SMILES IDX 67 26 18 27 19 28 20 29 61 30 21 31 66 32 60 33 62 34 22 35
REMARK SMILES IDX 65 36 59 37 58 38 23 40 49 41 32 42 48 43 33 44 36 45 47 46
REMARK SMILES IDX 63 47 34 48 35 49 46 51 64 52 37 53 24 54 25 55 30 56 26 57
REMARK SMILES IDX 27 58 29 59 31 60 28 61 50 62 51 63 56 64 52 65 53 66 55 67
REMARK SMILES IDX 57 68 54 69 38 70 39 71 44 72 40 73 41 74 43 75 45 76 42 77
REMARK H PARENT 8 6 12 20 62 39 36 50
REMARK Flexibility Score: inf
ROOT
ATOM      1  C   UNL     1      -2.000   2.139   5.972  1.00  0.00     0.042 C 
ENDROOT
BRANCH   1   2
ATOM      2  C   UNL     1      -0.691   1.355   6.117  1.00  0.00     0.118 C 
BRANCH   2   3
ATOM      3  N   UNL     1      -0.879  -0.080   5.957  1.00  0.00    -0.351 N 
ATOM      4  C   UNL     1      -0.704  -0.895   4.855  1.00  0.00     0.272 C 
ATOM      5  O   UNL     1      -0.880  -2.101   5.037  1.00  0.00    -0.267 OA
ATOM      6  H   UNL     1      -1.180  -0.548   6.769  1.00  0.00     0.163 HD
BRANCH   4   7
ATOM      7  C   UNL     1      -0.308  -0.335   3.543  1.00  0.00     0.163 A 
ATOM      8  C   UNL     1       1.001  -0.165   0.055  1.00  0.00     0.068 C 
ATOM      9  C   UNL     1       0.456  -0.060   1.435  1.00  0.00     0.056 A 
ATOM     10  C   UNL     1       0.172  -1.018   2.391  1.00  0.00     0.067 A 
ATOM     11  N   UNL     1       0.171   1.139   2.051  1.00  0.00    -0.207 N 
ATOM     12  I   UNL     1       0.477  -3.017   2.142  1.00  0.00    -0.040 I 
ATOM     13  N   UNL     1      -0.379   0.982   3.274  1.00  0.00    -0.161 NA
BRANCH  11  14
ATOM     14  C   UNL     1       0.438   2.494   1.565  1.00  0.00     0.465 C 
ATOM     15  F   UNL     1      -0.698   3.240   1.501  1.00  0.00    -0.184 F 
ATOM     16  F   UNL     1       1.300   3.153   2.388  1.00  0.00    -0.184 F 
ENDBRANCH  11  14
ENDBRANCH   4   7
ENDBRANCH   2   3
ENDBRANCH   1   2
BRANCH   1  17
ATOM     17  C   UNL     1      -2.850   2.063   7.234  1.00  0.00     0.118 C 
BRANCH  17  18
ATOM     18  N   UNL     1      -2.254   2.793   8.357  1.00  0.00    -0.352 N 
ATOM     19  C   UNL     1      -2.700   2.914   9.660  1.00  0.00     0.251 C 
ATOM     20  H   UNL     1      -1.414   3.265   8.154  1.00  0.00     0.163 HD
ATOM     21  O   UNL     1      -2.274   3.797  10.385  1.00  0.00    -0.269 OA
BRANCH  19  22
ATOM     22  C   UNL     1      -3.715   1.968  10.161  1.00  0.00     0.039 A 
ATOM     23  C   UNL     1      -4.755   2.410  10.982  1.00  0.00     0.014 A 
ATOM     24  C   UNL     1      -3.630   0.632   9.783  1.00  0.00     0.014 A 
ATOM     25  C   UNL     1      -5.762   1.515  11.336  1.00  0.00     0.010 A 
ATOM     26  C   UNL     1      -4.694  -0.208  10.005  1.00  0.00     0.010 A 
ATOM     27  C   UNL     1      -5.743   0.211  10.815  1.00  0.00    -0.014 A 
BRANCH  27  28
ATOM     28  C   UNL     1      -6.893  -0.672  10.996  1.00  0.00     0.031 A 
ATOM     29  C   UNL     1      -8.197  -0.079  10.585  1.00  0.00     0.074 A 
ATOM     30  C   UNL     1      -6.787  -1.989  11.281  1.00  0.00     0.049 A 
ATOM     31  N   UNL     1      -9.218   0.177  11.334  1.00  0.00    -0.248 NA
ATOM     32  C   UNL     1      -8.342   0.401   9.200  1.00  0.00     0.031 C 
ATOM     33  C   UNL     1      -5.568  -2.797  11.397  1.00  0.00     0.029 A 
ATOM     34  N   UNL     1      -7.771  -2.921  11.409  1.00  0.00    -0.354 N 
ATOM     35  C   UNL     1     -10.212   0.650  10.481  1.00  0.00     0.074 A 
ATOM     36  C   UNL     1      -9.564   0.937   9.228  1.00  0.00     0.031 C 
ATOM     37  C   UNL     1      -5.886  -4.108  11.326  1.00  0.00     0.029 A 
ATOM     38  C   UNL     1      -7.332  -4.238  11.329  1.00  0.00     0.049 A 
ATOM     39  H   UNL     1      -8.716  -2.682  11.547  1.00  0.00     0.167 HD
ATOM     40  C   UNL     1     -11.530   0.514  10.800  1.00  0.00     0.037 A 
ATOM     41  C   UNL     1      -8.100  -5.353  11.240  1.00  0.00     0.037 A 
ATOM     42  C   UNL     1     -11.700   0.265  12.211  1.00  0.00     0.049 A 
ATOM     43  C   UNL     1      -9.461  -4.987  11.704  1.00  0.00     0.074 A 
ATOM     44  C   UNL     1     -11.298   0.910  13.366  1.00  0.00     0.029 A 
ATOM     45  N   UNL     1     -12.045  -1.006  12.607  1.00  0.00    -0.354 N 
ATOM     46  N   UNL     1      -9.757  -4.703  12.941  1.00  0.00    -0.248 NA
ATOM     47  C   UNL     1     -10.401  -4.495  10.707  1.00  0.00     0.031 C 
ATOM     48  C   UNL     1     -10.921  -0.138  14.258  1.00  0.00     0.029 A 
ATOM     49  C   UNL     1     -11.196  -1.350  13.625  1.00  0.00     0.049 A 
ATOM     50  H   UNL     1     -12.765  -1.562  12.230  1.00  0.00     0.167 HD
ATOM     51  C   UNL     1     -10.636  -3.636  12.852  1.00  0.00     0.074 A 
ATOM     52  C   UNL     1     -11.071  -3.615  11.456  1.00  0.00     0.031 C 
ATOM     53  C   UNL     1     -10.704  -2.691  13.835  1.00  0.00     0.037 A 
BRANCH  40  54
ATOM     54  C   UNL     1     -12.615   0.197   9.794  1.00  0.00     0.057 A 
ATOM     55  C   UNL     1     -13.954   0.158  10.226  1.00  0.00     0.134 A 
ATOM     56  C   UNL     1     -12.383  -0.373   8.525  1.00  0.00     0.134 A 
ATOM     57  F   UNL     1     -14.309   0.662  11.418  1.00  0.00    -0.206 F 
ATOM     58  C   UNL     1     -14.961  -0.489   9.499  1.00  0.00     0.040 A 
ATOM     59  C   UNL     1     -13.392  -0.974   7.767  1.00  0.00     0.040 A 
ATOM     60  F   UNL     1     -11.162  -0.478   7.991  1.00  0.00    -0.206 F 
ATOM     61  C   UNL     1     -14.679  -1.068   8.269  1.00  0.00     0.006 A 
ENDBRANCH  40  54
BRANCH  41  62
ATOM     62  C   UNL     1      -7.821  -6.642  10.565  1.00  0.00     0.057 A 
ATOM     63  C   UNL     1      -8.624  -7.769  10.798  1.00  0.00     0.134 A 
ATOM     64  C   UNL     1      -6.941  -6.733   9.472  1.00  0.00     0.134 A 
ATOM     65  F   UNL     1      -9.521  -7.772  11.794  1.00  0.00    -0.206 F 
ATOM     66  C   UNL     1      -8.582  -8.902   9.973  1.00  0.00     0.040 A 
ATOM     67  C   UNL     1      -6.881  -7.862   8.647  1.00  0.00     0.040 A 
ATOM     68  F   UNL     1      -6.172  -5.696   9.111  1.00  0.00    -0.206 F 
ATOM     69  C   UNL     1      -7.717  -8.945   8.885  1.00  0.00     0.006 A 
ENDBRANCH  41  62
BRANCH  53  70
ATOM     70  C   UNL     1     -10.004  -2.958  15.138  1.00  0.00     0.057 A 
ATOM     71  C   UNL     1      -8.621  -3.156  15.271  1.00  0.00     0.134 A 
ATOM     72  C   UNL     1     -10.741  -2.853  16.323  1.00  0.00     0.134 A 
ATOM     73  F   UNL     1      -7.812  -3.171  14.205  1.00  0.00    -0.206 F 
ATOM     74  C   UNL     1      -8.011  -3.286  16.524  1.00  0.00     0.040 A 
ATOM     75  C   UNL     1     -10.139  -2.944  17.580  1.00  0.00     0.040 A 
ATOM     76  F   UNL     1     -12.061  -2.609  16.279  1.00  0.00    -0.206 F 
ATOM     77  C   UNL     1      -8.770  -3.171  17.683  1.00  0.00     0.006 A 
ENDBRANCH  53  70
ENDBRANCH  27  28
ENDBRANCH  19  22
ENDBRANCH  17  18
ENDBRANCH   1  17
TORSDOF 11
