REMARK SMILES CN1C(=O)C[C@@H](C(=O)NCCCNC(=O)c2ccc(-c3c4nc(c(-c5c(F)cccc5F)c5ccc([nH]5)c(-c5c(F)cccc5F)c5nc(c(-c6c(F)cccc6F)c6ccc3[nH]6)C=C5)C=C4)cc2)C12CCN(C(=O)c1cccc3ccccc13)CC2
REMARK SMILES IDX 11 1 10 2 9 3 7 4 8 5 6 7 1 8 2 9 3 10 70 11 4 12 5 13 71 14
REMARK SMILES IDX 87 15 72 16 86 17 73 18 74 19 75 20 76 21 77 22 85 23 78 24
REMARK SMILES IDX 80 25 84 26 79 27 81 28 83 29 82 30 12 31 13 32 14 33 15 35
REMARK SMILES IDX 16 36 17 37 69 38 18 39 68 40 19 41 20 42 21 43 62 44 22 45
REMARK SMILES IDX 67 46 61 47 63 48 23 49 66 50 60 51 59 52 24 54 50 55 33 56
REMARK SMILES IDX 49 57 34 58 37 59 48 60 64 61 35 62 36 63 47 65 65 66 38 67
REMARK SMILES IDX 25 68 26 69 31 70 27 71 28 72 30 73 32 74 29 75 51 76 52 77
REMARK SMILES IDX 57 78 53 79 54 80 56 81 58 82 55 83 39 84 40 85 45 86 41 87
REMARK SMILES IDX 42 88 44 89 46 90 43 91
REMARK H PARENT 9 6 13 34 63 53 37 64
REMARK Flexibility Score: inf
ROOT
ATOM      1  C   UNL     1       1.466   1.528  -3.637  1.00  0.00     0.042 C 
ENDROOT
BRANCH   1   2
ATOM      2  C   UNL     1       0.225   0.695  -3.961  1.00  0.00     0.117 C 
BRANCH   2   3
ATOM      3  N   UNL     1       0.504  -0.557  -4.652  1.00  0.00    -0.356 N 
ATOM      4  C   UNL     1       0.444  -1.866  -4.304  1.00  0.00     0.226 C 
ATOM      5  O   UNL     1       0.686  -2.675  -5.209  1.00  0.00    -0.275 OA
ATOM      6  H   UNL     1       0.802  -0.423  -5.581  1.00  0.00     0.163 HD
BRANCH   4   7
ATOM      7  C   UNL     1       0.173  -2.403  -2.899  1.00  0.00     0.113 C 
ATOM      8  C   UNL     1       1.153  -0.178  -0.038  1.00  0.00     0.147 C 
ATOM      9  N   UNL     1       0.558  -0.956  -1.108  1.00  0.00    -0.339 N 
ATOM     10  C   UNL     1      -0.825  -0.961  -1.276  1.00  0.00     0.223 C 
ATOM     11  C   UNL     1       1.222  -2.068  -1.811  1.00  0.00     0.058 C 
ATOM     12  O   UNL     1      -1.629  -0.267  -0.683  1.00  0.00    -0.275 OA
ATOM     13  C   UNL     1      -1.177  -1.959  -2.345  1.00  0.00     0.116 C 
ATOM     14  C   UNL     1       2.605  -1.710  -2.402  1.00  0.00     0.051 C 
ATOM     15  C   UNL     1       1.413  -3.242  -0.802  1.00  0.00     0.051 C 
ATOM     16  C   UNL     1       3.332  -2.919  -2.992  1.00  0.00     0.122 C 
ATOM     17  C   UNL     1       2.296  -4.376  -1.328  1.00  0.00     0.122 C 
ATOM     18  N   UNL     1       3.534  -3.865  -1.918  1.00  0.00    -0.338 N 
ATOM     19  C   UNL     1       4.761  -4.208  -1.362  1.00  0.00     0.254 C 
ATOM     20  O   UNL     1       4.846  -4.830  -0.302  1.00  0.00    -0.269 OA
BRANCH  19  21
ATOM     21  C   UNL     1       6.044  -3.971  -2.084  1.00  0.00     0.047 A 
ATOM     22  C   UNL     1       6.645  -5.152  -2.553  1.00  0.00     0.014 A 
ATOM     23  C   UNL     1       6.759  -2.738  -2.108  1.00  0.00    -0.006 A 
ATOM     24  C   UNL     1       7.967  -5.151  -2.980  1.00  0.00     0.001 A 
ATOM     25  C   UNL     1       8.121  -2.770  -2.507  1.00  0.00    -0.018 A 
ATOM     26  C   UNL     1       6.229  -1.470  -1.770  1.00  0.00     0.009 A 
ATOM     27  C   UNL     1       8.709  -3.975  -2.917  1.00  0.00     0.009 A 
ATOM     28  C   UNL     1       8.896  -1.597  -2.493  1.00  0.00     0.009 A 
ATOM     29  C   UNL     1       6.981  -0.294  -1.870  1.00  0.00     0.001 A 
ATOM     30  C   UNL     1       8.325  -0.362  -2.201  1.00  0.00     0.001 A 
ENDBRANCH  19  21
ENDBRANCH   4   7
ENDBRANCH   2   3
ENDBRANCH   1   2
BRANCH   1  31
ATOM     31  C   UNL     1       2.248   1.956  -4.872  1.00  0.00     0.118 C 
BRANCH  31  32
ATOM     32  N   UNL     1       1.521   2.967  -5.626  1.00  0.00    -0.352 N 
ATOM     33  C   UNL     1       1.760   4.315  -5.724  1.00  0.00     0.251 C 
ATOM     34  H   UNL     1       0.748   2.636  -6.138  1.00  0.00     0.163 HD
ATOM     35  O   UNL     1       0.868   5.065  -6.108  1.00  0.00    -0.269 OA
BRANCH  33  36
ATOM     36  C   UNL     1       3.087   4.863  -5.374  1.00  0.00     0.039 A 
ATOM     37  C   UNL     1       3.166   6.094  -4.718  1.00  0.00     0.014 A 
ATOM     38  C   UNL     1       4.256   4.189  -5.738  1.00  0.00     0.014 A 
ATOM     39  C   UNL     1       4.416   6.626  -4.390  1.00  0.00     0.010 A 
ATOM     40  C   UNL     1       5.495   4.674  -5.331  1.00  0.00     0.010 A 
ATOM     41  C   UNL     1       5.590   5.907  -4.670  1.00  0.00    -0.014 A 
BRANCH  41  42
ATOM     42  C   UNL     1       6.928   6.438  -4.306  1.00  0.00     0.031 A 
ATOM     43  C   UNL     1       7.942   6.729  -5.380  1.00  0.00     0.074 A 
ATOM     44  C   UNL     1       7.252   6.602  -3.009  1.00  0.00     0.049 A 
ATOM     45  N   UNL     1       9.183   7.127  -5.261  1.00  0.00    -0.248 NA
ATOM     46  C   UNL     1       7.513   6.515  -6.772  1.00  0.00     0.031 C 
ATOM     47  C   UNL     1       6.374   6.314  -1.873  1.00  0.00     0.029 A 
ATOM     48  N   UNL     1       8.413   7.044  -2.426  1.00  0.00    -0.354 N 
ATOM     49  C   UNL     1       9.684   7.194  -6.556  1.00  0.00     0.074 A 
ATOM     50  C   UNL     1       8.636   6.737  -7.440  1.00  0.00     0.031 C 
ATOM     51  C   UNL     1       7.016   6.613  -0.733  1.00  0.00     0.029 A 
ATOM     52  C   UNL     1       8.364   7.072  -1.053  1.00  0.00     0.049 A 
ATOM     53  H   UNL     1       9.206   7.316  -2.942  1.00  0.00     0.167 HD
ATOM     54  C   UNL     1      10.899   7.624  -6.974  1.00  0.00     0.037 A 
ATOM     55  C   UNL     1       9.304   7.420  -0.153  1.00  0.00     0.037 A 
ATOM     56  C   UNL     1      11.931   8.103  -6.092  1.00  0.00     0.049 A 
ATOM     57  C   UNL     1      10.649   7.882  -0.642  1.00  0.00     0.074 A 
ATOM     58  C   UNL     1      13.174   8.614  -6.418  1.00  0.00     0.029 A 
ATOM     59  N   UNL     1      11.838   8.127  -4.708  1.00  0.00    -0.354 N 
ATOM     60  N   UNL     1      11.086   8.002  -1.872  1.00  0.00    -0.248 NA
ATOM     61  C   UNL     1      11.631   8.261   0.384  1.00  0.00     0.031 C 
ATOM     62  C   UNL     1      13.855   8.897  -5.230  1.00  0.00     0.029 A 
ATOM     63  C   UNL     1      13.013   8.620  -4.165  1.00  0.00     0.049 A 
ATOM     64  H   UNL     1      11.053   7.837  -4.189  1.00  0.00     0.167 HD
ATOM     65  C   UNL     1      12.379   8.502  -1.770  1.00  0.00     0.074 A 
ATOM     66  C   UNL     1      12.649   8.675  -0.358  1.00  0.00     0.031 C 
ATOM     67  C   UNL     1      13.262   8.793  -2.756  1.00  0.00     0.037 A 
BRANCH  54  68
ATOM     68  C   UNL     1      11.176   7.597  -8.451  1.00  0.00     0.057 A 
ATOM     69  C   UNL     1      10.521   8.456  -9.344  1.00  0.00     0.134 A 
ATOM     70  C   UNL     1      12.133   6.724  -8.983  1.00  0.00     0.134 A 
ATOM     71  F   UNL     1       9.584   9.310  -8.903  1.00  0.00    -0.206 F 
ATOM     72  C   UNL     1      10.785   8.426 -10.715  1.00  0.00     0.040 A 
ATOM     73  C   UNL     1      12.428   6.707 -10.348  1.00  0.00     0.040 A 
ATOM     74  F   UNL     1      12.803   5.878  -8.186  1.00  0.00    -0.206 F 
ATOM     75  C   UNL     1      11.748   7.555 -11.219  1.00  0.00     0.006 A 
ENDBRANCH  54  68
BRANCH  55  76
ATOM     76  C   UNL     1       9.001   7.366   1.300  1.00  0.00     0.057 A 
ATOM     77  C   UNL     1       8.901   8.536   2.062  1.00  0.00     0.134 A 
ATOM     78  C   UNL     1       8.813   6.147   1.964  1.00  0.00     0.134 A 
ATOM     79  F   UNL     1       9.087   9.733   1.487  1.00  0.00    -0.206 F 
ATOM     80  C   UNL     1       8.652   8.497   3.435  1.00  0.00     0.040 A 
ATOM     81  C   UNL     1       8.535   6.094   3.331  1.00  0.00     0.040 A 
ATOM     82  F   UNL     1       8.884   4.990   1.290  1.00  0.00    -0.206 F 
ATOM     83  C   UNL     1       8.463   7.272   4.072  1.00  0.00     0.006 A 
ENDBRANCH  55  76
BRANCH  67  84
ATOM     84  C   UNL     1      14.588   9.367  -2.346  1.00  0.00     0.057 A 
ATOM     85  C   UNL     1      15.564   8.598  -1.701  1.00  0.00     0.134 A 
ATOM     86  C   UNL     1      14.905  10.701  -2.638  1.00  0.00     0.134 A 
ATOM     87  F   UNL     1      15.319   7.317  -1.381  1.00  0.00    -0.206 F 
ATOM     88  C   UNL     1      16.797   9.140  -1.338  1.00  0.00     0.040 A 
ATOM     89  C   UNL     1      16.146  11.245  -2.309  1.00  0.00     0.040 A 
ATOM     90  F   UNL     1      14.019  11.491  -3.264  1.00  0.00    -0.206 F 
ATOM     91  C   UNL     1      17.094  10.466  -1.649  1.00  0.00     0.006 A 
ENDBRANCH  67  84
ENDBRANCH  41  42
ENDBRANCH  33  36
ENDBRANCH  31  32
ENDBRANCH   1  31
TORSDOF 11
