REMARK SMILES C[C@@H](C(=O)NCCCNC(=O)c1ccc(-c2c3nc(c(-c4c(F)cccc4F)c4ccc([nH]4)c(-c4c(F)cccc4F)c4nc(c(-c5c(F)cccc5F)c5ccc2[nH]5)C=C4)C=C3)cc1)c1ccc(=O)n(C(F)F)c1
REMARK SMILES IDX 7 1 6 2 5 3 3 4 4 5 2 7 1 8 66 9 67 10 75 11 68 12 71 13
REMARK SMILES IDX 69 14 70 15 72 16 73 17 74 18 8 19 9 20 10 21 11 23 12 24
REMARK SMILES IDX 13 25 65 26 14 27 64 28 15 29 16 30 17 31 58 32 18 33 63 34
REMARK SMILES IDX 57 35 59 36 19 37 62 38 56 39 55 40 20 42 46 43 29 44 45 45
REMARK SMILES IDX 30 46 33 47 44 48 60 49 31 50 32 51 43 53 61 54 34 55 21 56
REMARK SMILES IDX 22 57 27 58 23 59 24 60 26 61 28 62 25 63 47 64 48 65 53 66
REMARK SMILES IDX 49 67 50 68 52 69 54 70 51 71 35 72 36 73 41 74 37 75 38 76
REMARK SMILES IDX 40 77 42 78 39 79
REMARK H PARENT 5 6 9 22 59 41 33 52
REMARK Flexibility Score: inf
ROOT
ATOM      1  C   UNL     1       4.327  -0.307   1.331  1.00  0.00     0.042 C 
ENDROOT
BRANCH   1   2
ATOM      2  C   UNL     1       3.402  -1.510   1.514  1.00  0.00     0.117 C 
BRANCH   2   3
ATOM      3  N   UNL     1       2.308  -1.214   2.421  1.00  0.00    -0.356 N 
ATOM      4  C   UNL     1       1.009  -0.880   2.163  1.00  0.00     0.227 C 
ATOM      5  O   UNL     1       0.314  -0.559   3.128  1.00  0.00    -0.274 OA
ATOM      6  H   UNL     1       2.539  -1.261   3.376  1.00  0.00     0.163 HD
BRANCH   4   7
ATOM      7  C   UNL     1       0.473  -0.918   0.720  1.00  0.00     0.107 C 
ATOM      8  C   UNL     1       1.036   0.239  -0.113  1.00  0.00     0.023 C 
BRANCH   7   9
ATOM      9  C   UNL     1      -1.053  -0.931   0.730  1.00  0.00    -0.019 A 
ATOM     10  C   UNL     1      -1.718  -2.222   0.734  1.00  0.00     0.012 A 
ATOM     11  C   UNL     1      -1.818   0.176   0.706  1.00  0.00     0.099 A 
ATOM     12  C   UNL     1      -3.053  -2.311   0.666  1.00  0.00     0.072 A 
ATOM     13  N   UNL     1      -3.200   0.114   0.644  1.00  0.00    -0.258 N 
ATOM     14  C   UNL     1      -3.889  -1.083   0.585  1.00  0.00     0.254 A 
ATOM     15  O   UNL     1      -5.107  -1.208   0.469  1.00  0.00    -0.269 OA
BRANCH  13  16
ATOM     16  C   UNL     1      -3.975   1.325   0.562  1.00  0.00     0.451 C 
ATOM     17  F   UNL     1      -4.544   1.446  -0.663  1.00  0.00    -0.185 F 
ATOM     18  F   UNL     1      -4.963   1.353   1.488  1.00  0.00    -0.185 F 
ENDBRANCH  13  16
ENDBRANCH   7   9
ENDBRANCH   4   7
ENDBRANCH   2   3
ENDBRANCH   1   2
BRANCH   1  19
ATOM     19  C   UNL     1       5.084   0.106   2.592  1.00  0.00     0.118 C 
BRANCH  19  20
ATOM     20  N   UNL     1       6.063  -0.885   3.009  1.00  0.00    -0.352 N 
ATOM     21  C   UNL     1       7.414  -0.765   3.215  1.00  0.00     0.251 C 
ATOM     22  H   UNL     1       5.698  -1.785   3.169  1.00  0.00     0.163 HD
ATOM     23  O   UNL     1       8.085  -1.779   3.398  1.00  0.00    -0.269 OA
BRANCH  21  24
ATOM     24  C   UNL     1       8.079   0.557   3.200  1.00  0.00     0.039 A 
ATOM     25  C   UNL     1       9.328   0.670   2.580  1.00  0.00     0.014 A 
ATOM     26  C   UNL     1       7.515   1.671   3.830  1.00  0.00     0.014 A 
ATOM     27  C   UNL     1       9.981   1.905   2.540  1.00  0.00     0.010 A 
ATOM     28  C   UNL     1       8.137   2.916   3.734  1.00  0.00     0.010 A 
ATOM     29  C   UNL     1       9.376   3.046   3.090  1.00  0.00    -0.014 A 
BRANCH  29  30
ATOM     30  C   UNL     1      10.024   4.379   2.993  1.00  0.00     0.031 A 
ATOM     31  C   UNL     1      10.492   5.091   4.232  1.00  0.00     0.074 A 
ATOM     32  C   UNL     1      10.136   4.979   1.792  1.00  0.00     0.049 A 
ATOM     33  N   UNL     1      11.009   6.288   4.352  1.00  0.00    -0.248 NA
ATOM     34  C   UNL     1      10.336   4.373   5.506  1.00  0.00     0.031 C 
ATOM     35  C   UNL     1       9.687   4.413   0.518  1.00  0.00     0.029 A 
ATOM     36  N   UNL     1      10.652   6.203   1.448  1.00  0.00    -0.354 N 
ATOM     37  C   UNL     1      11.226   6.473   5.712  1.00  0.00     0.074 A 
ATOM     38  C   UNL     1      10.745   5.282   6.380  1.00  0.00     0.031 C 
ATOM     39  C   UNL     1       9.961   5.281  -0.469  1.00  0.00     0.029 A 
ATOM     40  C   UNL     1      10.573   6.476   0.104  1.00  0.00     0.049 A 
ATOM     41  H   UNL     1      11.042   6.827   2.102  1.00  0.00     0.167 HD
ATOM     42  C   UNL     1      11.790   7.529   6.344  1.00  0.00     0.037 A 
ATOM     43  C   UNL     1      10.943   7.569  -0.589  1.00  0.00     0.037 A 
ATOM     44  C   UNL     1      12.295   8.701   5.678  1.00  0.00     0.049 A 
ATOM     45  C   UNL     1      11.566   8.729   0.136  1.00  0.00     0.074 A 
ATOM     46  C   UNL     1      12.940   9.796   6.229  1.00  0.00     0.029 A 
ATOM     47  N   UNL     1      12.210   8.932   4.314  1.00  0.00    -0.354 N 
ATOM     48  N   UNL     1      11.817   8.864   1.415  1.00  0.00    -0.248 NA
ATOM     49  C   UNL     1      11.959   9.886  -0.680  1.00  0.00     0.031 C 
ATOM     50  C   UNL     1      13.213  10.706   5.202  1.00  0.00     0.029 A 
ATOM     51  C   UNL     1      12.774  10.160   4.007  1.00  0.00     0.049 A 
ATOM     52  H   UNL     1      11.809   8.315   3.660  1.00  0.00     0.167 HD
ATOM     53  C   UNL     1      12.419  10.107   1.555  1.00  0.00     0.074 A 
ATOM     54  C   UNL     1      12.507  10.682   0.229  1.00  0.00     0.031 C 
ATOM     55  C   UNL     1      12.859  10.718   2.682  1.00  0.00     0.037 A 
BRANCH  42  56
ATOM     56  C   UNL     1      11.896   7.463   7.840  1.00  0.00     0.057 A 
ATOM     57  C   UNL     1      12.806   6.611   8.477  1.00  0.00     0.134 A 
ATOM     58  C   UNL     1      11.104   8.287   8.650  1.00  0.00     0.134 A 
ATOM     59  F   UNL     1      13.585   5.788   7.758  1.00  0.00    -0.206 F 
ATOM     60  C   UNL     1      12.909   6.562   9.869  1.00  0.00     0.040 A 
ATOM     61  C   UNL     1      11.216   8.264  10.042  1.00  0.00     0.040 A 
ATOM     62  F   UNL     1      10.217   9.131   8.104  1.00  0.00    -0.206 F 
ATOM     63  C   UNL     1      12.116   7.396  10.655  1.00  0.00     0.006 A 
ENDBRANCH  42  56
BRANCH  43  64
ATOM     64  C   UNL     1      10.752   7.613  -2.060  1.00  0.00     0.057 A 
ATOM     65  C   UNL     1      11.845   7.537  -2.930  1.00  0.00     0.134 A 
ATOM     66  C   UNL     1       9.479   7.737  -2.629  1.00  0.00     0.134 A 
ATOM     67  F   UNL     1      13.090   7.437  -2.442  1.00  0.00    -0.206 F 
ATOM     68  C   UNL     1      11.682   7.598  -4.315  1.00  0.00     0.040 A 
ATOM     69  C   UNL     1       9.300   7.777  -4.013  1.00  0.00     0.040 A 
ATOM     70  F   UNL     1       8.391   7.808  -1.848  1.00  0.00    -0.206 F 
ATOM     71  C   UNL     1      10.405   7.714  -4.859  1.00  0.00     0.006 A 
ENDBRANCH  43  64
BRANCH  55  72
ATOM     72  C   UNL     1      13.499  12.064   2.525  1.00  0.00     0.057 A 
ATOM     73  C   UNL     1      12.745  13.213   2.253  1.00  0.00     0.134 A 
ATOM     74  C   UNL     1      14.883  12.219   2.681  1.00  0.00     0.134 A 
ATOM     75  F   UNL     1      11.418  13.128   2.079  1.00  0.00    -0.206 F 
ATOM     76  C   UNL     1      13.348  14.465   2.124  1.00  0.00     0.040 A 
ATOM     77  C   UNL     1      15.493  13.469   2.576  1.00  0.00     0.040 A 
ATOM     78  F   UNL     1      15.661  11.159   2.949  1.00  0.00    -0.206 F 
ATOM     79  C   UNL     1      14.725  14.596   2.292  1.00  0.00     0.006 A 
ENDBRANCH  55  72
ENDBRANCH  29  30
ENDBRANCH  21  24
ENDBRANCH  19  20
ENDBRANCH   1  19
TORSDOF 12
