REMARK SMILES CCOc1ccccc1[C@H](C(=O)NCCCNC(=O)c1ccc(-c2c3nc(c(-c4c(F)cccc4F)c4ccc([nH]4)c(-c4c(F)cccc4F)c4nc(c(-c5c(F)cccc5F)c5ccc2[nH]5)C=C4)C=C3)cc1)[NH+]1CCC([NH+]2CCSCC2)CC1
REMARK SMILES IDX 14 1 13 2 11 3 12 4 10 6 9 7 4 8 5 9 6 10 8 11 7 12 3 13
REMARK SMILES IDX 2 14 1 15 74 16 75 17 85 18 76 20 84 21 77 22 78 23 79 24
REMARK SMILES IDX 83 25 80 27 82 28 81 29 15 30 16 31 17 32 18 33 19 35 20 36
REMARK SMILES IDX 21 37 73 38 22 39 72 40 23 41 24 42 25 43 66 44 26 45 71 46
REMARK SMILES IDX 65 47 67 48 27 49 70 50 64 51 63 52 28 54 54 55 37 56 53 57
REMARK SMILES IDX 38 58 41 59 52 60 68 61 39 62 40 63 51 65 69 66 42 67 29 68
REMARK SMILES IDX 30 69 35 70 31 71 32 72 34 73 36 74 33 75 55 76 56 77 61 78
REMARK SMILES IDX 57 79 58 80 60 81 62 82 59 83 43 84 44 85 49 86 45 87 46 88
REMARK SMILES IDX 48 89 50 90 47 91
REMARK H PARENT 13 5 74 19 78 26 17 34 67 53 41 64
REMARK Flexibility Score: inf
ROOT
ATOM      1  C   UNL     1       1.292  -3.542   0.155  1.00  0.00     0.118 C 
ENDROOT
BRANCH   1   2
ATOM      2  N   UNL     1       1.584  -2.554  -0.883  1.00  0.00    -0.351 N 
ATOM      3  C   UNL     1       2.201  -1.325  -0.861  1.00  0.00     0.283 C 
ATOM      4  O   UNL     1       2.301  -0.799  -1.977  1.00  0.00    -0.268 OA
ATOM      5  H   UNL     1       1.277  -2.823  -1.779  1.00  0.00     0.163 HD
BRANCH   3   6
ATOM      6  C   UNL     1       2.567  -0.580   0.465  1.00  0.00     0.309 C 
BRANCH   6   7
ATOM      7  C   UNL     1       3.045  -1.457   1.622  1.00  0.00     0.061 A 
ATOM      8  C   UNL     1       4.022  -2.469   1.481  1.00  0.00     0.128 A 
ATOM      9  C   UNL     1       4.458  -3.185   2.596  1.00  0.00     0.047 A 
ATOM     10  C   UNL     1       3.941  -2.890   3.862  1.00  0.00     0.004 A 
ATOM     11  C   UNL     1       2.555  -1.163   2.910  1.00  0.00     0.014 A 
ATOM     12  C   UNL     1       2.990  -1.884   4.019  1.00  0.00     0.001 A 
BRANCH   8  13
ATOM     13  O   UNL     1       4.312  -2.952   0.232  1.00  0.00    -0.493 OA
BRANCH  13  14
ATOM     14  C   UNL     1       5.594  -2.643  -0.304  1.00  0.00     0.226 C 
ATOM     15  C   UNL     1       5.378  -2.205  -1.748  1.00  0.00     0.049 C 
ENDBRANCH  13  14
ENDBRANCH   8  13
ENDBRANCH   6   7
BRANCH   6  16
ATOM     16  N   UNL     1       3.402   0.681   0.377  1.00  0.00    -0.320 N 
ATOM     17  C   UNL     1       4.832   0.529   0.625  1.00  0.00     0.269 C 
ATOM     18  C   UNL     1       3.179   1.570  -0.769  1.00  0.00     0.269 C 
ATOM     19  H   UNL     1       2.999   1.163   1.181  1.00  0.00     0.349 HD
ATOM     20  C   UNL     1       5.473   1.857   0.988  1.00  0.00     0.126 C 
ATOM     21  C   UNL     1       3.836   2.957  -0.550  1.00  0.00     0.126 C 
ATOM     22  C   UNL     1       5.334   2.849  -0.169  1.00  0.00     0.195 C 
BRANCH  22  23
ATOM     23  N   UNL     1       6.022   4.154   0.069  1.00  0.00    -0.331 N 
ATOM     24  C   UNL     1       7.483   3.953   0.257  1.00  0.00     0.273 C 
ATOM     25  C   UNL     1       5.454   4.920   1.198  1.00  0.00     0.273 C 
ATOM     26  H   UNL     1       5.863   4.715  -0.768  1.00  0.00     0.348 HD
ATOM     27  C   UNL     1       8.321   5.235   0.344  1.00  0.00     0.131 C 
ATOM     28  C   UNL     1       6.059   6.320   1.382  1.00  0.00     0.131 C 
ATOM     29  S   UNL     1       7.835   6.265   1.758  1.00  0.00    -0.150 SA
ENDBRANCH  22  23
ENDBRANCH   6  16
ENDBRANCH   3   6
ENDBRANCH   1   2
BRANCH   1  30
ATOM     30  C   UNL     1       0.864  -4.894  -0.409  1.00  0.00     0.042 C 
BRANCH  30  31
ATOM     31  C   UNL     1       1.894  -5.527  -1.350  1.00  0.00     0.118 C 
BRANCH  31  32
ATOM     32  N   UNL     1       2.980  -6.245  -0.688  1.00  0.00    -0.352 N 
ATOM     33  C   UNL     1       3.208  -7.593  -0.515  1.00  0.00     0.251 C 
ATOM     34  H   UNL     1       3.671  -5.663  -0.296  1.00  0.00     0.163 HD
ATOM     35  O   UNL     1       4.195  -7.975   0.112  1.00  0.00    -0.269 OA
BRANCH  33  36
ATOM     36  C   UNL     1       2.235  -8.593  -1.012  1.00  0.00     0.039 A 
ATOM     37  C   UNL     1       1.819  -9.614  -0.152  1.00  0.00     0.014 A 
ATOM     38  C   UNL     1       1.691  -8.507  -2.292  1.00  0.00     0.014 A 
ATOM     39  C   UNL     1       0.753 -10.441  -0.519  1.00  0.00     0.010 A 
ATOM     40  C   UNL     1       0.558  -9.251  -2.611  1.00  0.00     0.010 A 
ATOM     41  C   UNL     1       0.057 -10.207  -1.716  1.00  0.00    -0.014 A 
BRANCH  41  42
ATOM     42  C   UNL     1      -1.229 -10.893  -2.019  1.00  0.00     0.031 A 
ATOM     43  C   UNL     1      -1.389 -11.711  -3.270  1.00  0.00     0.074 A 
ATOM     44  C   UNL     1      -2.294 -10.687  -1.217  1.00  0.00     0.049 A 
ATOM     45  N   UNL     1      -2.460 -12.293  -3.748  1.00  0.00    -0.248 NA
ATOM     46  C   UNL     1      -0.196 -11.864  -4.117  1.00  0.00     0.031 C 
ATOM     47  C   UNL     1      -2.298  -9.861  -0.007  1.00  0.00     0.029 A 
ATOM     48  N   UNL     1      -3.586 -11.146  -1.304  1.00  0.00    -0.354 N 
ATOM     49  C   UNL     1      -2.077 -12.857  -4.958  1.00  0.00     0.074 A 
ATOM     50  C   UNL     1      -0.691 -12.499  -5.168  1.00  0.00     0.031 C 
ATOM     51  C   UNL     1      -3.516  -9.906   0.555  1.00  0.00     0.029 A 
ATOM     52  C   UNL     1      -4.394 -10.720  -0.278  1.00  0.00     0.049 A 
ATOM     53  H   UNL     1      -3.903 -11.727  -2.033  1.00  0.00     0.167 HD
ATOM     54  C   UNL     1      -2.805 -13.624  -5.806  1.00  0.00     0.037 A 
ATOM     55  C   UNL     1      -5.698 -10.950  -0.035  1.00  0.00     0.037 A 
ATOM     56  C   UNL     1      -4.175 -14.005  -5.580  1.00  0.00     0.049 A 
ATOM     57  C   UNL     1      -6.488 -11.794  -0.993  1.00  0.00     0.074 A 
ATOM     58  C   UNL     1      -4.968 -14.855  -6.330  1.00  0.00     0.029 A 
ATOM     59  N   UNL     1      -4.958 -13.551  -4.529  1.00  0.00    -0.354 N 
ATOM     60  N   UNL     1      -6.089 -12.392  -2.088  1.00  0.00    -0.248 NA
ATOM     61  C   UNL     1      -7.912 -11.990  -0.684  1.00  0.00     0.031 C 
ATOM     62  C   UNL     1      -6.247 -14.875  -5.762  1.00  0.00     0.029 A 
ATOM     63  C   UNL     1      -6.237 -14.074  -4.631  1.00  0.00     0.049 A 
ATOM     64  H   UNL     1      -4.650 -12.947  -3.815  1.00  0.00     0.167 HD
ATOM     65  C   UNL     1      -7.204 -13.049  -2.591  1.00  0.00     0.074 A 
ATOM     66  C   UNL     1      -8.292 -12.790  -1.670  1.00  0.00     0.031 C 
ATOM     67  C   UNL     1      -7.315 -13.799  -3.715  1.00  0.00     0.037 A 
BRANCH  54  68
ATOM     68  C   UNL     1      -2.125 -14.097  -7.059  1.00  0.00     0.057 A 
ATOM     69  C   UNL     1      -1.085 -15.037  -7.029  1.00  0.00     0.134 A 
ATOM     70  C   UNL     1      -2.518 -13.613  -8.312  1.00  0.00     0.134 A 
ATOM     71  F   UNL     1      -0.651 -15.534  -5.861  1.00  0.00    -0.206 F 
ATOM     72  C   UNL     1      -0.434 -15.445  -8.195  1.00  0.00     0.040 A 
ATOM     73  C   UNL     1      -1.895 -14.036  -9.488  1.00  0.00     0.040 A 
ATOM     74  F   UNL     1      -3.513 -12.718  -8.417  1.00  0.00    -0.206 F 
ATOM     75  C   UNL     1      -0.842 -14.947  -9.430  1.00  0.00     0.006 A 
ENDBRANCH  54  68
BRANCH  55  76
ATOM     76  C   UNL     1      -6.330 -10.396   1.190  1.00  0.00     0.057 A 
ATOM     77  C   UNL     1      -6.682 -11.235   2.254  1.00  0.00     0.134 A 
ATOM     78  C   UNL     1      -6.580  -9.027   1.337  1.00  0.00     0.134 A 
ATOM     79  F   UNL     1      -6.484 -12.558   2.163  1.00  0.00    -0.206 F 
ATOM     80  C   UNL     1      -7.266 -10.734   3.418  1.00  0.00     0.040 A 
ATOM     81  C   UNL     1      -7.144  -8.509   2.505  1.00  0.00     0.040 A 
ATOM     82  F   UNL     1      -6.260  -8.170   0.356  1.00  0.00    -0.206 F 
ATOM     83  C   UNL     1      -7.492  -9.365   3.548  1.00  0.00     0.006 A 
ENDBRANCH  55  76
BRANCH  67  84
ATOM     84  C   UNL     1      -8.659 -14.399  -4.007  1.00  0.00     0.057 A 
ATOM     85  C   UNL     1      -9.733 -13.617  -4.451  1.00  0.00     0.134 A 
ATOM     86  C   UNL     1      -8.870 -15.778  -3.881  1.00  0.00     0.134 A 
ATOM     87  F   UNL     1      -9.600 -12.289  -4.578  1.00  0.00    -0.206 F 
ATOM     88  C   UNL     1     -10.975 -14.184  -4.742  1.00  0.00     0.040 A 
ATOM     89  C   UNL     1     -10.100 -16.359  -4.193  1.00  0.00     0.040 A 
ATOM     90  F   UNL     1      -7.881 -16.584  -3.466  1.00  0.00    -0.206 F 
ATOM     91  C   UNL     1     -11.159 -15.560  -4.620  1.00  0.00     0.006 A 
ENDBRANCH  67  84
ENDBRANCH  41  42
ENDBRANCH  33  36
ENDBRANCH  31  32
ENDBRANCH  30  31
ENDBRANCH   1  30
TORSDOF 15
