REMARK SMILES O=C(NCCCNC(=O)[C@H]1CC=CC[C@H]1C(=O)N[C@@H]1CCN(c2cccc(Cl)c2)C1)c1ccc(-c2c3nc(c(-c4c(F)cccc4F)c4ccc([nH]4)c(-c4c(F)cccc4F)c4nc(c(-c5c(F)cccc5F)c5ccc2[nH]5)C=C4)C=C3)cc1
REMARK SMILES IDX 5 1 4 2 3 3 1 4 2 5 31 7 32 8 84 9 33 10 83 11 34 12 35 13
REMARK SMILES IDX 36 14 77 15 37 16 82 17 76 18 78 19 38 20 81 21 75 22 74 23
REMARK SMILES IDX 39 25 65 26 48 27 64 28 49 29 52 30 63 31 79 32 50 33 51 34
REMARK SMILES IDX 62 36 80 37 53 38 40 39 41 40 46 41 42 42 43 43 45 44 47 45
REMARK SMILES IDX 44 46 66 47 67 48 72 49 68 50 69 51 71 52 73 53 70 54 54 55
REMARK SMILES IDX 55 56 60 57 56 58 57 59 59 60 61 61 58 62 6 63 7 64 8 65
REMARK SMILES IDX 9 67 10 68 11 69 15 70 12 71 14 72 13 73 16 74 17 75 18 76
REMARK SMILES IDX 19 78 20 79 30 80 21 81 22 82 23 83 24 84 29 85 25 86 27 87
REMARK SMILES IDX 26 88 28 89
REMARK H PARENT 3 6 78 24 52 35 7 66 18 77
REMARK Flexibility Score: inf
ROOT
ATOM      1  C   UNL     1       4.877  -0.571   2.352  1.00  0.00     0.042 C 
ENDROOT
BRANCH   1   2
ATOM      2  C   UNL     1       4.511  -1.053   0.951  1.00  0.00     0.118 C 
BRANCH   2   3
ATOM      3  N   UNL     1       3.078  -1.018   0.690  1.00  0.00    -0.352 N 
ATOM      4  O   UNL     1       1.091  -0.229   0.005  1.00  0.00    -0.269 OA
ATOM      5  C   UNL     1       2.323  -0.178  -0.081  1.00  0.00     0.251 C 
ATOM      6  H   UNL     1       2.564  -1.722   1.148  1.00  0.00     0.163 HD
BRANCH   5   7
ATOM      7  C   UNL     1       2.945   0.800  -0.993  1.00  0.00     0.039 A 
ATOM      8  C   UNL     1       4.026   0.453  -1.806  1.00  0.00     0.014 A 
ATOM      9  C   UNL     1       2.388   2.080  -1.083  1.00  0.00     0.014 A 
ATOM     10  C   UNL     1       4.631   1.417  -2.610  1.00  0.00     0.010 A 
ATOM     11  C   UNL     1       2.947   3.024  -1.945  1.00  0.00     0.010 A 
ATOM     12  C   UNL     1       4.092   2.709  -2.694  1.00  0.00    -0.014 A 
BRANCH  12  13
ATOM     13  C   UNL     1       4.694   3.720  -3.597  1.00  0.00     0.031 A 
ATOM     14  C   UNL     1       5.311   4.970  -3.039  1.00  0.00     0.074 A 
ATOM     15  C   UNL     1       4.645   3.526  -4.928  1.00  0.00     0.049 A 
ATOM     16  N   UNL     1       5.790   6.010  -3.672  1.00  0.00    -0.248 NA
ATOM     17  C   UNL     1       5.388   5.069  -1.574  1.00  0.00     0.031 C 
ATOM     18  C   UNL     1       4.068   2.354  -5.588  1.00  0.00     0.029 A 
ATOM     19  N   UNL     1       5.069   4.319  -5.963  1.00  0.00    -0.354 N 
ATOM     20  C   UNL     1       6.201   6.898  -2.687  1.00  0.00     0.074 A 
ATOM     21  C   UNL     1       5.894   6.284  -1.413  1.00  0.00     0.031 C 
ATOM     22  C   UNL     1       4.176   2.502  -6.916  1.00  0.00     0.029 A 
ATOM     23  C   UNL     1       4.773   3.803  -7.201  1.00  0.00     0.049 A 
ATOM     24  H   UNL     1       5.540   5.173  -5.833  1.00  0.00     0.167 HD
ATOM     25  C   UNL     1       6.783   8.112  -2.835  1.00  0.00     0.037 A 
ATOM     26  C   UNL     1       4.927   4.331  -8.429  1.00  0.00     0.037 A 
ATOM     27  C   UNL     1       7.090   8.711  -4.108  1.00  0.00     0.049 A 
ATOM     28  C   UNL     1       5.538   5.694  -8.571  1.00  0.00     0.074 A 
ATOM     29  C   UNL     1       7.720   9.917  -4.365  1.00  0.00     0.029 A 
ATOM     30  N   UNL     1       6.778   8.154  -5.340  1.00  0.00    -0.354 N 
ATOM     31  N   UNL     1       5.958   6.509  -7.633  1.00  0.00    -0.248 NA
ATOM     32  C   UNL     1       5.699   6.212  -9.936  1.00  0.00     0.031 C 
ATOM     33  C   UNL     1       7.741  10.113  -5.750  1.00  0.00     0.029 A 
ATOM     34  C   UNL     1       7.176   9.003  -6.359  1.00  0.00     0.049 A 
ATOM     35  H   UNL     1       6.338   7.283  -5.471  1.00  0.00     0.167 HD
ATOM     36  C   UNL     1       6.456   7.624  -8.293  1.00  0.00     0.074 A 
ATOM     37  C   UNL     1       6.287   7.380  -9.711  1.00  0.00     0.031 C 
ATOM     38  C   UNL     1       7.009   8.744  -7.768  1.00  0.00     0.037 A 
BRANCH  25  39
ATOM     39  C   UNL     1       7.091   8.887  -1.585  1.00  0.00     0.057 A 
ATOM     40  C   UNL     1       8.100   8.496  -0.695  1.00  0.00     0.134 A 
ATOM     41  C   UNL     1       6.375  10.050  -1.275  1.00  0.00     0.134 A 
ATOM     42  F   UNL     1       8.818   7.386  -0.925  1.00  0.00    -0.206 F 
ATOM     43  C   UNL     1       8.360   9.212   0.476  1.00  0.00     0.040 A 
ATOM     44  C   UNL     1       6.644  10.790  -0.123  1.00  0.00     0.040 A 
ATOM     45  F   UNL     1       5.401  10.488  -2.088  1.00  0.00    -0.206 F 
ATOM     46  C   UNL     1       7.633  10.366   0.762  1.00  0.00     0.006 A 
ENDBRANCH  25  39
BRANCH  26  47
ATOM     47  C   UNL     1       4.473   3.557  -9.610  1.00  0.00     0.057 A 
ATOM     48  C   UNL     1       5.390   2.960 -10.479  1.00  0.00     0.134 A 
ATOM     49  C   UNL     1       3.111   3.347  -9.859  1.00  0.00     0.134 A 
ATOM     50  F   UNL     1       6.707   3.137 -10.298  1.00  0.00    -0.206 F 
ATOM     51  C   UNL     1       4.970   2.179 -11.557  1.00  0.00     0.040 A 
ATOM     52  C   UNL     1       2.677   2.549 -10.918  1.00  0.00     0.040 A 
ATOM     53  F   UNL     1       2.184   3.885  -9.053  1.00  0.00    -0.206 F 
ATOM     54  C   UNL     1       3.609   1.963 -11.772  1.00  0.00     0.006 A 
ENDBRANCH  26  47
BRANCH  38  55
ATOM     55  C   UNL     1       7.516   9.780  -8.727  1.00  0.00     0.057 A 
ATOM     56  C   UNL     1       6.651  10.625  -9.431  1.00  0.00     0.134 A 
ATOM     57  C   UNL     1       8.894   9.978  -8.890  1.00  0.00     0.134 A 
ATOM     58  F   UNL     1       5.322  10.477  -9.328  1.00  0.00    -0.206 F 
ATOM     59  C   UNL     1       7.139  11.630 -10.269  1.00  0.00     0.040 A 
ATOM     60  C   UNL     1       9.393  10.994  -9.706  1.00  0.00     0.040 A 
ATOM     61  F   UNL     1       9.775   9.204  -8.238  1.00  0.00    -0.206 F 
ATOM     62  C   UNL     1       8.514  11.822 -10.399  1.00  0.00     0.006 A 
ENDBRANCH  38  55
ENDBRANCH  12  13
ENDBRANCH   5   7
ENDBRANCH   2   3
ENDBRANCH   1   2
BRANCH   1  63
ATOM     63  C   UNL     1       4.151  -1.288   3.484  1.00  0.00     0.117 C 
BRANCH  63  64
ATOM     64  N   UNL     1       4.255  -2.734   3.417  1.00  0.00    -0.356 N 
ATOM     65  C   UNL     1       4.822  -3.602   4.303  1.00  0.00     0.224 C 
ATOM     66  H   UNL     1       3.860  -3.148   2.617  1.00  0.00     0.163 HD
ATOM     67  O   UNL     1       4.495  -4.786   4.219  1.00  0.00    -0.275 OA
BRANCH  65  68
ATOM     68  C   UNL     1       5.768  -3.069   5.365  1.00  0.00     0.095 C 
ATOM     69  C   UNL     1       4.907  -2.819   6.625  1.00  0.00     0.041 C 
ATOM     70  C   UNL     1       6.947  -3.993   5.724  1.00  0.00     0.095 C 
ATOM     71  C   UNL     1       4.647  -4.064   7.430  1.00  0.00    -0.030 C 
ATOM     72  C   UNL     1       6.545  -5.318   6.372  1.00  0.00     0.041 C 
ATOM     73  C   UNL     1       5.373  -5.185   7.307  1.00  0.00    -0.030 C 
BRANCH  70  74
ATOM     74  C   UNL     1       8.103  -4.039   4.716  1.00  0.00     0.224 C 
ATOM     75  O   UNL     1       9.115  -3.362   4.948  1.00  0.00    -0.275 OA
ATOM     76  N   UNL     1       8.141  -4.741   3.557  1.00  0.00    -0.351 N 
ATOM     77  H   UNL     1       8.997  -4.657   3.078  1.00  0.00     0.163 HD
BRANCH  76  78
ATOM     78  C   UNL     1       7.178  -5.596   2.874  1.00  0.00     0.103 C 
ATOM     79  C   UNL     1       7.080  -7.003   3.472  1.00  0.00     0.048 C 
ATOM     80  C   UNL     1       7.447  -5.805   1.359  1.00  0.00     0.141 C 
ATOM     81  C   UNL     1       7.382  -7.978   2.349  1.00  0.00     0.119 C 
ATOM     82  N   UNL     1       7.130  -7.210   1.148  1.00  0.00    -0.369 N 
BRANCH  82  83
ATOM     83  C   UNL     1       6.455  -7.692   0.059  1.00  0.00     0.038 A 
ATOM     84  C   UNL     1       5.321  -8.507   0.203  1.00  0.00     0.026 A 
ATOM     85  C   UNL     1       6.881  -7.404  -1.241  1.00  0.00     0.046 A 
ATOM     86  C   UNL     1       4.652  -9.043  -0.901  1.00  0.00     0.004 A 
ATOM     87  C   UNL     1       6.230  -7.957  -2.348  1.00  0.00     0.043 A 
ATOM     88  C   UNL     1       5.118  -8.778  -2.184  1.00  0.00     0.020 A 
ATOM     89  Cl  UNL     1       6.824  -7.640  -3.933  1.00  0.00    -0.084 Cl
ENDBRANCH  82  83
ENDBRANCH  76  78
ENDBRANCH  70  74
ENDBRANCH  65  68
ENDBRANCH  63  64
ENDBRANCH   1  63
TORSDOF 13
