REMARK SMILES Cc1ccc2c(=O)c3cccc(CC(=O)NCCCNC(=O)c4ccc(-c5c6nc(c(-c7c(F)cccc7F)c7ccc([nH]7)c(-c7c(F)cccc7F)c7nc(c(-c8c(F)cccc8F)c8ccc5[nH]8)C=C7)C=C6)cc4)c3oc2c1C
REMARK SMILES IDX 18 1 17 2 16 3 14 4 15 5 13 7 12 8 1 9 2 10 3 11 80 12 4 13
REMARK SMILES IDX 79 14 81 15 5 16 78 17 6 18 77 19 7 20 8 21 9 22 11 23 10 24
REMARK SMILES IDX 19 25 20 26 21 27 22 29 23 30 24 31 76 32 25 33 75 34 26 35
REMARK SMILES IDX 27 36 28 37 69 38 29 39 74 40 68 41 70 42 30 43 73 44 67 45
REMARK SMILES IDX 66 46 31 48 57 49 40 50 56 51 41 52 44 53 55 54 71 55 42 56
REMARK SMILES IDX 43 57 54 59 72 60 45 61 32 62 33 63 38 64 34 65 35 66 37 67
REMARK SMILES IDX 39 68 36 69 58 70 59 71 64 72 60 73 61 74 63 75 65 76 62 77
REMARK SMILES IDX 46 78 47 79 52 80 48 81 49 82 51 83 53 84 50 85
REMARK H PARENT 16 6 20 28 70 47 44 58
REMARK Flexibility Score: inf
ROOT
ATOM      1  C   UNL     1      -4.985   2.442  -6.308  1.00  0.00     0.042 C 
ENDROOT
BRANCH   1   2
ATOM      2  C   UNL     1      -4.422   3.859  -6.258  1.00  0.00     0.117 C 
BRANCH   2   3
ATOM      3  N   UNL     1      -3.666   4.110  -5.045  1.00  0.00    -0.356 N 
ATOM      4  C   UNL     1      -2.317   4.094  -4.841  1.00  0.00     0.224 C 
ATOM      5  O   UNL     1      -1.903   4.354  -3.709  1.00  0.00    -0.275 OA
ATOM      6  H   UNL     1      -4.207   4.324  -4.252  1.00  0.00     0.163 HD
BRANCH   4   7
ATOM      7  C   UNL     1      -1.363   3.833  -5.995  1.00  0.00     0.139 C 
BRANCH   7   8
ATOM      8  C   UNL     1      -1.375   2.418  -6.530  1.00  0.00     0.005 A 
ATOM      9  C   UNL     1       0.902   0.064   0.007  1.00  0.00     0.045 C 
ATOM     10  C   UNL     1       0.451  -0.198  -1.406  1.00  0.00    -0.044 A 
ATOM     11  C   UNL     1       0.421  -1.529  -1.855  1.00  0.00     0.005 A 
ATOM     12  C   UNL     1       0.105   0.846  -2.295  1.00  0.00    -0.005 A 
ATOM     13  C   UNL     1       0.025  -1.835  -3.155  1.00  0.00     0.016 A 
ATOM     14  C   UNL     1      -0.313   0.523  -3.605  1.00  0.00     0.141 A 
ATOM     15  C   UNL     1       0.129   2.294  -1.873  1.00  0.00     0.049 C 
ATOM     16  C   UNL     1      -0.344  -0.807  -4.021  1.00  0.00     0.066 A 
ATOM     17  O   UNL     1      -0.681   1.569  -4.422  1.00  0.00    -0.455 OA
ATOM     18  C   UNL     1      -0.761  -1.113  -5.395  1.00  0.00     0.200 A 
ATOM     19  C   UNL     1      -1.048   1.314  -5.721  1.00  0.00     0.142 A 
ATOM     20  O   UNL     1      -0.820  -2.264  -5.809  1.00  0.00    -0.288 OA
ATOM     21  C   UNL     1      -1.098   0.027  -6.256  1.00  0.00     0.066 A 
ATOM     22  C   UNL     1      -1.454  -0.185  -7.591  1.00  0.00     0.016 A 
ATOM     23  C   UNL     1      -1.698   2.196  -7.882  1.00  0.00     0.008 A 
ATOM     24  C   UNL     1      -1.747   0.904  -8.406  1.00  0.00     0.001 A 
ENDBRANCH   7   8
ENDBRANCH   4   7
ENDBRANCH   2   3
ENDBRANCH   1   2
BRANCH   1  25
ATOM     25  C   UNL     1      -6.045   2.152  -5.249  1.00  0.00     0.118 C 
BRANCH  25  26
ATOM     26  N   UNL     1      -7.287   2.884  -5.464  1.00  0.00    -0.352 N 
ATOM     27  C   UNL     1      -8.580   2.424  -5.557  1.00  0.00     0.251 C 
ATOM     28  H   UNL     1      -7.185   3.859  -5.557  1.00  0.00     0.163 HD
ATOM     29  O   UNL     1      -9.478   3.197  -5.881  1.00  0.00    -0.269 OA
BRANCH  27  30
ATOM     30  C   UNL     1      -8.892   0.998  -5.310  1.00  0.00     0.039 A 
ATOM     31  C   UNL     1      -8.315   0.306  -4.244  1.00  0.00     0.014 A 
ATOM     32  C   UNL     1      -9.778   0.339  -6.169  1.00  0.00     0.014 A 
ATOM     33  C   UNL     1      -8.476  -1.073  -4.147  1.00  0.00     0.010 A 
ATOM     34  C   UNL     1     -10.006  -1.032  -6.019  1.00  0.00     0.010 A 
ATOM     35  C   UNL     1      -9.310  -1.761  -5.042  1.00  0.00    -0.014 A 
BRANCH  35  36
ATOM     36  C   UNL     1      -9.406  -3.243  -4.960  1.00  0.00     0.031 A 
ATOM     37  C   UNL     1      -8.887  -4.107  -6.080  1.00  0.00     0.074 A 
ATOM     38  C   UNL     1      -9.898  -3.817  -3.845  1.00  0.00     0.049 A 
ATOM     39  N   UNL     1      -8.849  -5.415  -6.167  1.00  0.00    -0.248 NA
ATOM     40  C   UNL     1      -8.343  -3.416  -7.259  1.00  0.00     0.031 C 
ATOM     41  C   UNL     1     -10.426  -3.095  -2.686  1.00  0.00     0.029 A 
ATOM     42  N   UNL     1     -10.010  -5.138  -3.493  1.00  0.00    -0.354 N 
ATOM     43  C   UNL     1      -8.293  -5.699  -7.408  1.00  0.00     0.074 A 
ATOM     44  C   UNL     1      -8.043  -4.430  -8.057  1.00  0.00     0.031 C 
ATOM     45  C   UNL     1     -10.756  -3.978  -1.732  1.00  0.00     0.029 A 
ATOM     46  C   UNL     1     -10.514  -5.328  -2.230  1.00  0.00     0.049 A 
ATOM     47  H   UNL     1      -9.753  -5.879  -4.089  1.00  0.00     0.167 HD
ATOM     48  C   UNL     1      -8.002  -6.904  -7.954  1.00  0.00     0.037 A 
ATOM     49  C   UNL     1     -10.760  -6.463  -1.549  1.00  0.00     0.037 A 
ATOM     50  C   UNL     1      -8.227  -8.169  -7.303  1.00  0.00     0.049 A 
ATOM     51  C   UNL     1     -10.464  -7.787  -2.194  1.00  0.00     0.074 A 
ATOM     52  C   UNL     1      -7.944  -9.442  -7.768  1.00  0.00     0.029 A 
ATOM     53  N   UNL     1      -8.787  -8.319  -6.044  1.00  0.00    -0.354 N 
ATOM     54  N   UNL     1      -9.928  -8.037  -3.363  1.00  0.00    -0.248 NA
ATOM     55  C   UNL     1     -10.816  -8.988  -1.424  1.00  0.00     0.031 C 
ATOM     56  C   UNL     1      -8.367 -10.365  -6.803  1.00  0.00     0.029 A 
ATOM     57  C   UNL     1      -8.876  -9.664  -5.723  1.00  0.00     0.049 A 
ATOM     58  H   UNL     1      -9.077  -7.579  -5.463  1.00  0.00     0.167 HD
ATOM     59  C   UNL     1      -9.864  -9.420  -3.463  1.00  0.00     0.074 A 
ATOM     60  C   UNL     1     -10.396  -9.954  -2.227  1.00  0.00     0.031 C 
ATOM     61  C   UNL     1      -9.409 -10.180  -4.489  1.00  0.00     0.037 A 
BRANCH  48  62
ATOM     62  C   UNL     1      -7.413  -6.912  -9.335  1.00  0.00     0.057 A 
ATOM     63  C   UNL     1      -8.168  -7.349 -10.431  1.00  0.00     0.134 A 
ATOM     64  C   UNL     1      -6.092  -6.515  -9.578  1.00  0.00     0.134 A 
ATOM     65  F   UNL     1      -9.438  -7.749 -10.268  1.00  0.00    -0.206 F 
ATOM     66  C   UNL     1      -7.629  -7.390 -11.719  1.00  0.00     0.040 A 
ATOM     67  C   UNL     1      -5.549  -6.529 -10.864  1.00  0.00     0.040 A 
ATOM     68  F   UNL     1      -5.320  -6.073  -8.573  1.00  0.00    -0.206 F 
ATOM     69  C   UNL     1      -6.318  -6.973 -11.939  1.00  0.00     0.006 A 
ENDBRANCH  48  62
BRANCH  49  70
ATOM     70  C   UNL     1     -11.322  -6.401  -0.178  1.00  0.00     0.057 A 
ATOM     71  C   UNL     1     -12.638  -5.984   0.052  1.00  0.00     0.134 A 
ATOM     72  C   UNL     1     -10.559  -6.774   0.934  1.00  0.00     0.134 A 
ATOM     73  F   UNL     1     -13.419  -5.611  -0.973  1.00  0.00    -0.206 F 
ATOM     74  C   UNL     1     -13.174  -5.934   1.339  1.00  0.00     0.040 A 
ATOM     75  C   UNL     1     -11.090  -6.753   2.224  1.00  0.00     0.040 A 
ATOM     76  F   UNL     1      -9.297  -7.202   0.775  1.00  0.00    -0.206 F 
ATOM     77  C   UNL     1     -12.401  -6.327   2.429  1.00  0.00     0.006 A 
ENDBRANCH  49  70
BRANCH  61  78
ATOM     78  C   UNL     1      -9.450 -11.667  -4.301  1.00  0.00     0.057 A 
ATOM     79  C   UNL     1      -8.272 -12.392  -4.082  1.00  0.00     0.134 A 
ATOM     80  C   UNL     1     -10.653 -12.382  -4.347  1.00  0.00     0.134 A 
ATOM     81  F   UNL     1      -7.086 -11.767  -4.032  1.00  0.00    -0.206 F 
ATOM     82  C   UNL     1      -8.291 -13.777  -3.913  1.00  0.00     0.040 A 
ATOM     83  C   UNL     1     -10.687 -13.764  -4.156  1.00  0.00     0.040 A 
ATOM     84  F   UNL     1     -11.817 -11.742  -4.537  1.00  0.00    -0.206 F 
ATOM     85  C   UNL     1      -9.502 -14.466  -3.942  1.00  0.00     0.006 A 
ENDBRANCH  61  78
ENDBRANCH  35  36
ENDBRANCH  27  30
ENDBRANCH  25  26
ENDBRANCH   1  25
TORSDOF 11
