REMARK SMILES CC[NH2+][C@@]1(C(=O)NCCCNC(=O)c2ccc(-c3c4nc(c(-c5c(F)cccc5F)c5ccc([nH]5)c(-c5c(F)cccc5F)c5nc(c(-c6c(F)cccc6F)c6ccc3[nH]6)C=C5)C=C4)cc2)CCC[C@@H](Sc2ncc(C)cn2)C1
REMARK SMILES IDX 9 1 8 2 7 3 5 4 6 5 4 7 68 8 80 9 69 10 71 11 70 12 3 13
REMARK SMILES IDX 2 16 1 17 72 18 73 19 74 20 79 21 75 22 78 23 76 24 77 25
REMARK SMILES IDX 10 26 11 27 12 28 13 30 14 31 15 32 67 33 16 34 66 35 17 36
REMARK SMILES IDX 18 37 19 38 60 39 20 40 65 41 59 42 61 43 21 44 64 45 58 46
REMARK SMILES IDX 57 47 22 49 48 50 31 51 47 52 32 53 35 54 46 55 62 56 33 57
REMARK SMILES IDX 34 58 45 60 63 61 36 62 23 63 24 64 29 65 25 66 26 67 28 68
REMARK SMILES IDX 30 69 27 70 49 71 50 72 55 73 51 74 52 75 54 76 56 77 53 78
REMARK SMILES IDX 37 79 38 80 43 81 39 82 40 83 42 84 44 85 41 86
REMARK H PARENT 7 6 3 14 3 15 11 29 61 48 35 59
REMARK Flexibility Score: inf
ROOT
ATOM      1  C   UNL     1      -1.393  -6.073  -3.347  1.00  0.00     0.042 C 
ENDROOT
BRANCH   1   2
ATOM      2  C   UNL     1       0.050  -5.838  -2.927  1.00  0.00     0.118 C 
BRANCH   2   3
ATOM      3  N   UNL     1       0.426  -4.443  -2.943  1.00  0.00    -0.351 N 
ATOM      4  C   UNL     1       0.941  -3.621  -1.997  1.00  0.00     0.281 C 
ATOM      5  O   UNL     1       1.733  -2.785  -2.468  1.00  0.00    -0.268 OA
ATOM      6  H   UNL     1       0.280  -4.003  -3.812  1.00  0.00     0.163 HD
BRANCH   4   7
ATOM      7  C   UNL     1       0.642  -3.637  -0.430  1.00  0.00     0.176 C 
ATOM      8  C   UNL     1       1.533  -4.657   0.320  1.00  0.00     0.079 C 
ATOM      9  C   UNL     1      -0.834  -3.762   0.008  1.00  0.00     0.094 C 
ATOM     10  C   UNL     1       1.003  -6.080   0.469  1.00  0.00     0.008 C 
ATOM     11  C   UNL     1      -1.363  -5.191   0.025  1.00  0.00     0.061 C 
ATOM     12  C   UNL     1      -0.487  -6.176   0.801  1.00  0.00     0.015 C 
BRANCH   7  13
ATOM     13  N   UNL     1       1.159  -2.304   0.088  1.00  0.00    -0.334 N 
ATOM     14  H   UNL     1       1.115  -2.327   1.107  1.00  0.00     0.347 HD
ATOM     15  H   UNL     1       2.103  -2.211  -0.287  1.00  0.00     0.347 HD
BRANCH  13  16
ATOM     16  C   UNL     1       0.433  -1.110  -0.365  1.00  0.00     0.257 C 
ATOM     17  C   UNL     1       1.060   0.123   0.274  1.00  0.00     0.071 C 
ENDBRANCH  13  16
ENDBRANCH   7  13
BRANCH  11  18
ATOM     18  S   UNL     1      -3.164  -5.288   0.363  1.00  0.00    -0.083 SA
BRANCH  18  19
ATOM     19  C   UNL     1      -3.168  -5.354   2.123  1.00  0.00     0.187 A 
ATOM     20  N   UNL     1      -2.748  -4.269   2.790  1.00  0.00    -0.231 NA
ATOM     21  N   UNL     1      -3.559  -6.508   2.685  1.00  0.00    -0.231 NA
ATOM     22  C   UNL     1      -2.723  -4.373   4.130  1.00  0.00     0.119 A 
ATOM     23  C   UNL     1      -3.516  -6.557   4.027  1.00  0.00     0.119 A 
ATOM     24  C   UNL     1      -3.095  -5.509   4.817  1.00  0.00    -0.014 A 
ATOM     25  C   UNL     1      -3.055  -5.606   6.301  1.00  0.00     0.048 C 
ENDBRANCH  18  19
ENDBRANCH  11  18
ENDBRANCH   4   7
ENDBRANCH   2   3
ENDBRANCH   1   2
BRANCH   1  26
ATOM     26  C   UNL     1      -1.561  -6.197  -4.846  1.00  0.00     0.118 C 
BRANCH  26  27
ATOM     27  N   UNL     1      -0.941  -7.412  -5.365  1.00  0.00    -0.352 N 
ATOM     28  C   UNL     1      -1.508  -8.565  -5.843  1.00  0.00     0.251 C 
ATOM     29  H   UNL     1       0.044  -7.402  -5.374  1.00  0.00     0.163 HD
ATOM     30  O   UNL     1      -0.808  -9.569  -5.991  1.00  0.00    -0.269 OA
BRANCH  28  31
ATOM     31  C   UNL     1      -2.947  -8.616  -6.169  1.00  0.00     0.039 A 
ATOM     32  C   UNL     1      -3.666  -9.791  -5.935  1.00  0.00     0.014 A 
ATOM     33  C   UNL     1      -3.588  -7.510  -6.730  1.00  0.00     0.014 A 
ATOM     34  C   UNL     1      -5.035  -9.830  -6.207  1.00  0.00     0.010 A 
ATOM     35  C   UNL     1      -4.968  -7.506  -6.871  1.00  0.00     0.010 A 
ATOM     36  C   UNL     1      -5.704  -8.675  -6.642  1.00  0.00    -0.014 A 
BRANCH  36  37
ATOM     37  C   UNL     1      -7.162  -8.670  -6.913  1.00  0.00     0.031 A 
ATOM     38  C   UNL     1      -7.662  -8.320  -8.291  1.00  0.00     0.074 A 
ATOM     39  C   UNL     1      -8.030  -8.907  -5.911  1.00  0.00     0.049 A 
ATOM     40  N   UNL     1      -8.892  -8.166  -8.711  1.00  0.00    -0.248 NA
ATOM     41  C   UNL     1      -6.644  -8.071  -9.328  1.00  0.00     0.031 C 
ATOM     42  C   UNL     1      -7.667  -9.195  -4.521  1.00  0.00     0.029 A 
ATOM     43  N   UNL     1      -9.402  -8.933  -5.905  1.00  0.00    -0.354 N 
ATOM     44  C   UNL     1      -8.790  -7.779 -10.042  1.00  0.00     0.074 A 
ATOM     45  C   UNL     1      -7.383  -7.657 -10.345  1.00  0.00     0.031 C 
ATOM     46  C   UNL     1      -8.784  -9.401  -3.807  1.00  0.00     0.029 A 
ATOM     47  C   UNL     1      -9.943  -9.215  -4.673  1.00  0.00     0.049 A 
ATOM     48  H   UNL     1      -9.947  -8.766  -6.707  1.00  0.00     0.167 HD
ATOM     49  C   UNL     1      -9.781  -7.575 -10.941  1.00  0.00     0.037 A 
ATOM     50  C   UNL     1     -11.230  -9.303  -4.289  1.00  0.00     0.037 A 
ATOM     51  C   UNL     1     -11.177  -7.746 -10.644  1.00  0.00     0.049 A 
ATOM     52  C   UNL     1     -12.310  -9.083  -5.312  1.00  0.00     0.074 A 
ATOM     53  C   UNL     1     -12.258  -7.639 -11.500  1.00  0.00     0.029 A 
ATOM     54  N   UNL     1     -11.683  -8.066  -9.394  1.00  0.00    -0.354 N 
ATOM     55  N   UNL     1     -12.197  -8.794  -6.587  1.00  0.00    -0.248 NA
ATOM     56  C   UNL     1     -13.698  -9.208  -4.847  1.00  0.00     0.031 C 
ATOM     57  C   UNL     1     -13.423  -7.846 -10.756  1.00  0.00     0.029 A 
ATOM     58  C   UNL     1     -13.063  -8.138  -9.450  1.00  0.00     0.049 A 
ATOM     59  H   UNL     1     -11.140  -8.219  -8.586  1.00  0.00     0.167 HD
ATOM     60  C   UNL     1     -13.494  -8.736  -7.080  1.00  0.00     0.074 A 
ATOM     61  C   UNL     1     -14.376  -9.037  -5.972  1.00  0.00     0.031 C 
ATOM     62  C   UNL     1     -13.919  -8.457  -8.337  1.00  0.00     0.037 A 
BRANCH  49  63
ATOM     63  C   UNL     1      -9.392  -7.163 -12.331  1.00  0.00     0.057 A 
ATOM     64  C   UNL     1      -8.745  -8.041 -13.211  1.00  0.00     0.134 A 
ATOM     65  C   UNL     1      -9.713  -5.888 -12.813  1.00  0.00     0.134 A 
ATOM     66  F   UNL     1      -8.396  -9.273 -12.809  1.00  0.00    -0.206 F 
ATOM     67  C   UNL     1      -8.415  -7.660 -14.513  1.00  0.00     0.040 A 
ATOM     68  C   UNL     1      -9.414  -5.505 -14.122  1.00  0.00     0.040 A 
ATOM     69  F   UNL     1     -10.334  -4.997 -12.026  1.00  0.00    -0.206 F 
ATOM     70  C   UNL     1      -8.758  -6.391 -14.975  1.00  0.00     0.006 A 
ENDBRANCH  49  63
BRANCH  50  71
ATOM     71  C   UNL     1     -11.574  -9.628  -2.880  1.00  0.00     0.057 A 
ATOM     72  C   UNL     1     -12.191 -10.841  -2.548  1.00  0.00     0.134 A 
ATOM     73  C   UNL     1     -11.326  -8.727  -1.838  1.00  0.00     0.134 A 
ATOM     74  F   UNL     1     -12.470 -11.740  -3.503  1.00  0.00    -0.206 F 
ATOM     75  C   UNL     1     -12.579 -11.132  -1.239  1.00  0.00     0.040 A 
ATOM     76  C   UNL     1     -11.680  -9.018  -0.519  1.00  0.00     0.040 A 
ATOM     77  F   UNL     1     -10.730  -7.552  -2.086  1.00  0.00    -0.206 F 
ATOM     78  C   UNL     1     -12.320 -10.219  -0.219  1.00  0.00     0.006 A 
ENDBRANCH  50  71
BRANCH  62  79
ATOM     79  C   UNL     1     -15.397  -8.511  -8.589  1.00  0.00     0.057 A 
ATOM     80  C   UNL     1     -16.271  -7.540  -8.086  1.00  0.00     0.134 A 
ATOM     81  C   UNL     1     -15.944  -9.527  -9.384  1.00  0.00     0.134 A 
ATOM     82  F   UNL     1     -15.811  -6.548  -7.308  1.00  0.00    -0.206 F 
ATOM     83  C   UNL     1     -17.642  -7.591  -8.342  1.00  0.00     0.040 A 
ATOM     84  C   UNL     1     -17.308  -9.571  -9.674  1.00  0.00     0.040 A 
ATOM     85  F   UNL     1     -15.159 -10.481  -9.907  1.00  0.00    -0.206 F 
ATOM     86  C   UNL     1     -18.162  -8.605  -9.146  1.00  0.00     0.006 A 
ENDBRANCH  62  79
ENDBRANCH  36  37
ENDBRANCH  28  31
ENDBRANCH  26  27
ENDBRANCH   1  26
TORSDOF 14
