REMARK SMILES O=C(CCC(=O)N1CCC[C@@]2(CCC(=O)N(Cc3ccncc3)C2)C1)NCCCNC(=O)c1ccc(-c2c3nc(c(-c4c(F)cccc4F)c4ccc([nH]4)c(-c4c(F)cccc4F)c4nc(c(-c5c(F)cccc5F)c5ccc2[nH]5)C=C4)C=C3)cc1
REMARK SMILES IDX 1 1 2 2 26 3 3 5 4 6 5 7 6 8 7 9 8 10 25 11 9 12 11 13 10 14
REMARK SMILES IDX 12 15 24 16 13 17 16 18 14 19 15 20 17 21 18 22 19 23 23 24
REMARK SMILES IDX 20 25 22 26 21 27 27 28 28 29 29 30 30 31 31 32 32 34 33 35
REMARK SMILES IDX 34 36 86 37 35 38 85 39 36 40 37 41 38 42 79 43 39 44 84 45
REMARK SMILES IDX 78 46 80 47 40 48 83 49 77 50 76 51 41 53 67 54 50 55 66 56
REMARK SMILES IDX 51 57 54 58 65 59 81 60 52 61 53 62 64 64 82 65 55 66 42 67
REMARK SMILES IDX 43 68 48 69 44 70 45 71 47 72 49 73 46 74 68 75 69 76 74 77
REMARK SMILES IDX 70 78 71 79 73 80 75 81 72 82 56 83 57 84 62 85 58 86 59 87
REMARK SMILES IDX 61 88 63 89 60 90
REMARK H PARENT 26 4 30 33 80 52 54 63
REMARK Flexibility Score: inf
ROOT
ATOM      1  O   UNL     1       0.761  -0.342  -0.195  1.00  0.00    -0.275 OA
ATOM      2  C   UNL     1       1.809   0.297  -0.119  1.00  0.00     0.220 C 
ATOM      3  N   UNL     1       2.303   1.052  -1.174  1.00  0.00    -0.356 N 
ATOM      4  H   UNL     1       3.118   1.592  -1.061  1.00  0.00     0.163 HD
ENDROOT
BRANCH   2   5
ATOM      5  C   UNL     1       2.637   0.302   1.154  1.00  0.00     0.110 C 
BRANCH   5   6
ATOM      6  C   UNL     1       2.933  -1.132   1.639  1.00  0.00     0.110 C 
BRANCH   6   7
ATOM      7  C   UNL     1       4.229  -1.578   1.006  1.00  0.00     0.223 C 
ATOM      8  O   UNL     1       5.282  -1.011   1.308  1.00  0.00    -0.275 OA
BRANCH   7   9
ATOM      9  N   UNL     1       4.131  -2.384  -0.112  1.00  0.00    -0.342 N 
ATOM     10  C   UNL     1       4.834  -1.901  -1.271  1.00  0.00     0.119 C 
ATOM     11  C   UNL     1       3.445  -3.704  -0.230  1.00  0.00     0.128 C 
ATOM     12  C   UNL     1       3.854  -1.838  -2.421  1.00  0.00     0.022 C 
ATOM     13  C   UNL     1       3.087  -4.083  -1.712  1.00  0.00     0.006 C 
ATOM     14  C   UNL     1       2.672  -2.768  -2.365  1.00  0.00     0.012 C 
ATOM     15  C   UNL     1       4.259  -4.795  -2.434  1.00  0.00     0.020 C 
ATOM     16  C   UNL     1       1.916  -5.064  -1.863  1.00  0.00     0.128 C 
ATOM     17  C   UNL     1       3.987  -4.991  -3.917  1.00  0.00     0.101 C 
ATOM     18  N   UNL     1       1.595  -5.280  -3.287  1.00  0.00    -0.338 N 
ATOM     19  C   UNL     1       2.564  -5.353  -4.287  1.00  0.00     0.222 C 
ATOM     20  O   UNL     1       2.297  -5.574  -5.469  1.00  0.00    -0.275 OA
BRANCH  18  21
ATOM     21  C   UNL     1       0.201  -5.189  -3.715  1.00  0.00     0.155 C 
BRANCH  21  22
ATOM     22  C   UNL     1      -0.318  -6.433  -4.385  1.00  0.00    -0.026 A 
ATOM     23  C   UNL     1      -0.354  -7.654  -3.713  1.00  0.00     0.025 A 
ATOM     24  C   UNL     1      -0.754  -6.390  -5.714  1.00  0.00     0.025 A 
ATOM     25  C   UNL     1      -0.820  -8.768  -4.393  1.00  0.00     0.111 A 
ATOM     26  C   UNL     1      -1.200  -7.559  -6.307  1.00  0.00     0.111 A 
ATOM     27  N   UNL     1      -1.255  -8.748  -5.672  1.00  0.00    -0.265 NA
ENDBRANCH  21  22
ENDBRANCH  18  21
ENDBRANCH   7   9
ENDBRANCH   6   7
ENDBRANCH   5   6
ENDBRANCH   2   5
BRANCH   3  28
ATOM     28  C   UNL     1       1.600   1.034  -2.447  1.00  0.00     0.117 C 
BRANCH  28  29
ATOM     29  C   UNL     1       2.168   1.849  -3.614  1.00  0.00     0.042 C 
BRANCH  29  30
ATOM     30  C   UNL     1       3.665   1.828  -3.941  1.00  0.00     0.118 C 
BRANCH  30  31
ATOM     31  N   UNL     1       4.231   0.519  -4.230  1.00  0.00    -0.352 N 
ATOM     32  C   UNL     1       4.704  -0.068  -5.381  1.00  0.00     0.251 C 
ATOM     33  H   UNL     1       4.286  -0.066  -3.441  1.00  0.00     0.163 HD
ATOM     34  O   UNL     1       4.824  -1.274  -5.511  1.00  0.00    -0.269 OA
BRANCH  32  35
ATOM     35  C   UNL     1       5.250   0.817  -6.402  1.00  0.00     0.039 A 
ATOM     36  C   UNL     1       5.025   0.585  -7.758  1.00  0.00     0.014 A 
ATOM     37  C   UNL     1       6.019   1.888  -5.949  1.00  0.00     0.014 A 
ATOM     38  C   UNL     1       5.443   1.547  -8.669  1.00  0.00     0.010 A 
ATOM     39  C   UNL     1       6.346   2.880  -6.834  1.00  0.00     0.010 A 
ATOM     40  C   UNL     1       6.022   2.731  -8.190  1.00  0.00    -0.014 A 
BRANCH  40  41
ATOM     41  C   UNL     1       6.212   3.930  -9.019  1.00  0.00     0.031 A 
ATOM     42  C   UNL     1       7.581   4.522  -9.112  1.00  0.00     0.074 A 
ATOM     43  C   UNL     1       5.108   4.596  -9.404  1.00  0.00     0.049 A 
ATOM     44  N   UNL     1       7.933   5.733  -9.445  1.00  0.00    -0.248 NA
ATOM     45  C   UNL     1       8.696   3.658  -8.684  1.00  0.00     0.031 C 
ATOM     46  C   UNL     1       3.727   4.126  -9.240  1.00  0.00     0.029 A 
ATOM     47  N   UNL     1       4.970   5.840  -9.954  1.00  0.00    -0.354 N 
ATOM     48  C   UNL     1       9.301   5.793  -9.221  1.00  0.00     0.074 A 
ATOM     49  C   UNL     1       9.707   4.514  -8.680  1.00  0.00     0.031 C 
ATOM     50  C   UNL     1       2.884   5.068  -9.687  1.00  0.00     0.029 A 
ATOM     51  C   UNL     1       3.660   6.220 -10.119  1.00  0.00     0.049 A 
ATOM     52  H   UNL     1       5.734   6.408 -10.207  1.00  0.00     0.167 HD
ATOM     53  C   UNL     1      10.135   6.830  -9.460  1.00  0.00     0.037 A 
ATOM     54  C   UNL     1       3.152   7.385 -10.555  1.00  0.00     0.037 A 
ATOM     55  C   UNL     1       9.696   8.070 -10.039  1.00  0.00     0.049 A 
ATOM     56  C   UNL     1       4.109   8.479 -10.917  1.00  0.00     0.074 A 
ATOM     57  C   UNL     1      10.448   9.166 -10.415  1.00  0.00     0.029 A 
ATOM     58  N   UNL     1       8.371   8.366 -10.338  1.00  0.00    -0.354 N 
ATOM     59  N   UNL     1       5.413   8.511 -10.770  1.00  0.00    -0.248 NA
ATOM     60  C   UNL     1       3.536   9.690 -11.513  1.00  0.00     0.031 C 
ATOM     61  C   UNL     1       9.576  10.131 -10.932  1.00  0.00     0.029 A 
ATOM     62  C   UNL     1       8.286   9.624 -10.905  1.00  0.00     0.049 A 
ATOM     63  H   UNL     1       7.607   7.768 -10.171  1.00  0.00     0.167 HD
ATOM     64  C   UNL     1       5.823   9.730 -11.287  1.00  0.00     0.074 A 
ATOM     65  C   UNL     1       4.627  10.407 -11.751  1.00  0.00     0.031 C 
ATOM     66  C   UNL     1       7.073  10.245 -11.374  1.00  0.00     0.037 A 
BRANCH  53  67
ATOM     67  C   UNL     1      11.583   6.646  -9.116  1.00  0.00     0.057 A 
ATOM     68  C   UNL     1      12.400   5.751  -9.821  1.00  0.00     0.134 A 
ATOM     69  C   UNL     1      12.171   7.365  -8.069  1.00  0.00     0.134 A 
ATOM     70  F   UNL     1      11.896   5.016 -10.824  1.00  0.00    -0.206 F 
ATOM     71  C   UNL     1      13.738   5.554  -9.476  1.00  0.00     0.040 A 
ATOM     72  C   UNL     1      13.516   7.198  -7.733  1.00  0.00     0.040 A 
ATOM     73  F   UNL     1      11.448   8.239  -7.351  1.00  0.00    -0.206 F 
ATOM     74  C   UNL     1      14.301   6.283  -8.432  1.00  0.00     0.006 A 
ENDBRANCH  53  67
BRANCH  54  75
ATOM     75  C   UNL     1       1.688   7.533 -10.728  1.00  0.00     0.057 A 
ATOM     76  C   UNL     1       1.121   7.504 -12.007  1.00  0.00     0.134 A 
ATOM     77  C   UNL     1       0.818   7.654  -9.639  1.00  0.00     0.134 A 
ATOM     78  F   UNL     1       1.907   7.390 -13.088  1.00  0.00    -0.206 F 
ATOM     79  C   UNL     1      -0.256   7.610 -12.201  1.00  0.00     0.040 A 
ATOM     80  C   UNL     1      -0.565   7.742  -9.816  1.00  0.00     0.040 A 
ATOM     81  F   UNL     1       1.296   7.661  -8.386  1.00  0.00    -0.206 F 
ATOM     82  C   UNL     1      -1.105   7.725 -11.102  1.00  0.00     0.006 A 
ENDBRANCH  54  75
BRANCH  66  83
ATOM     83  C   UNL     1       7.205  11.576 -12.043  1.00  0.00     0.057 A 
ATOM     84  C   UNL     1       6.865  12.765 -11.389  1.00  0.00     0.134 A 
ATOM     85  C   UNL     1       7.734  11.665 -13.336  1.00  0.00     0.134 A 
ATOM     86  F   UNL     1       6.341  12.737 -10.155  1.00  0.00    -0.206 F 
ATOM     87  C   UNL     1       7.038  14.003 -12.006  1.00  0.00     0.040 A 
ATOM     88  C   UNL     1       7.931  12.897 -13.955  1.00  0.00     0.040 A 
ATOM     89  F   UNL     1       8.082  10.556 -14.007  1.00  0.00    -0.206 F 
ATOM     90  C   UNL     1       7.580  14.071 -13.290  1.00  0.00     0.006 A 
ENDBRANCH  66  83
ENDBRANCH  40  41
ENDBRANCH  32  35
ENDBRANCH  30  31
ENDBRANCH  29  30
ENDBRANCH  28  29
ENDBRANCH   3  28
TORSDOF 15
