REMARK SMILES O=C(Cn1nc(-c2cccs2)ccc1=O)N[C@H](Cc1ccccc1)C(=O)NCCCNC(=O)c1ccc(-c2c3nc(c(-c4c(F)cccc4F)c4ccc([nH]4)c(-c4c(F)cccc4F)c4nc(c(-c5c(F)cccc5F)c5ccc2[nH]5)C=C4)C=C3)cc1
REMARK SMILES IDX 28 1 27 2 25 3 26 4 17 6 16 7 1 8 2 9 3 11 4 12 5 13 14 14
REMARK SMILES IDX 6 15 13 16 15 17 12 18 7 19 8 20 11 21 9 22 10 23 18 24
REMARK SMILES IDX 19 25 20 26 24 27 21 28 23 29 22 30 29 31 30 32 31 33 32 34
REMARK SMILES IDX 33 36 34 37 35 38 87 39 36 40 86 41 37 42 38 43 39 44 80 45
REMARK SMILES IDX 40 46 85 47 79 48 81 49 41 50 84 51 78 52 77 53 42 55 68 56
REMARK SMILES IDX 51 57 67 58 52 59 55 60 66 61 82 62 53 63 54 64 65 66 83 67
REMARK SMILES IDX 56 68 43 69 44 70 49 71 45 72 46 73 48 74 50 75 47 76 69 77
REMARK SMILES IDX 70 78 75 79 71 80 72 81 74 82 76 83 73 84 57 85 58 86 63 87
REMARK SMILES IDX 59 88 60 89 62 90 64 91 61 92
REMARK H PARENT 27 5 16 10 31 35 81 54 55 65
REMARK Flexibility Score: inf
ROOT
ATOM      1  C   UNL     1       5.351  -0.896  -3.443  1.00  0.00     0.117 C 
ENDROOT
BRANCH   1   2
ATOM      2  N   UNL     1       4.233  -1.777  -3.721  1.00  0.00    -0.354 N 
ATOM      3  C   UNL     1       2.919  -1.701  -3.358  1.00  0.00     0.242 C 
ATOM      4  O   UNL     1       2.208  -2.678  -3.615  1.00  0.00    -0.273 OA
ATOM      5  H   UNL     1       4.461  -2.565  -4.264  1.00  0.00     0.163 HD
BRANCH   3   6
ATOM      6  C   UNL     1       2.377  -0.503  -2.555  1.00  0.00     0.175 C 
BRANCH   6   7
ATOM      7  N   UNL     1       2.818   0.720  -3.261  1.00  0.00    -0.342 N 
ATOM      8  O   UNL     1       1.730   0.173  -5.183  1.00  0.00    -0.273 OA
ATOM      9  C   UNL     1       2.559   0.874  -4.608  1.00  0.00     0.242 C 
ATOM     10  H   UNL     1       3.297   1.425  -2.769  1.00  0.00     0.164 HD
BRANCH   9  11
ATOM     11  C   UNL     1       3.506   1.841  -5.331  1.00  0.00     0.248 C 
BRANCH  11  12
ATOM     12  N   UNL     1       2.760   2.394  -6.436  1.00  0.00    -0.220 N 
ATOM     13  N   UNL     1       2.264   3.664  -6.277  1.00  0.00    -0.168 NA
ATOM     14  C   UNL     1       2.530   1.604  -7.556  1.00  0.00     0.267 A 
ATOM     15  C   UNL     1       1.325   4.027  -7.096  1.00  0.00     0.101 A 
ATOM     16  C   UNL     1       1.325   1.972  -8.327  1.00  0.00     0.075 A 
ATOM     17  O   UNL     1       3.189   0.618  -7.875  1.00  0.00    -0.268 OA
ATOM     18  C   UNL     1       0.697   3.125  -8.086  1.00  0.00     0.037 A 
BRANCH  15  19
ATOM     19  C   UNL     1       0.917   5.408  -7.072  1.00  0.00     0.054 A 
ATOM     20  C   UNL     1       1.696   6.498  -7.407  1.00  0.00     0.022 A 
ATOM     21  S   UNL     1      -0.645   5.864  -6.565  1.00  0.00    -0.142 S 
ATOM     22  C   UNL     1       0.987   7.723  -7.270  1.00  0.00     0.012 A 
ATOM     23  C   UNL     1      -0.293   7.524  -6.802  1.00  0.00     0.065 A 
ENDBRANCH  15  19
ENDBRANCH  11  12
ENDBRANCH   9  11
ENDBRANCH   6   7
BRANCH   6  24
ATOM     24  C   UNL     1       2.841  -0.448  -1.082  1.00  0.00     0.070 C 
BRANCH  24  25
ATOM     25  C   UNL     1       2.934  -1.641  -0.146  1.00  0.00    -0.045 A 
ATOM     26  C   UNL     1       2.986  -1.368   1.235  1.00  0.00     0.004 A 
ATOM     27  C   UNL     1       3.119  -2.972  -0.538  1.00  0.00     0.004 A 
ATOM     28  C   UNL     1       3.219  -2.378   2.174  1.00  0.00     0.000 A 
ATOM     29  C   UNL     1       3.354  -3.985   0.399  1.00  0.00     0.000 A 
ATOM     30  C   UNL     1       3.410  -3.689   1.754  1.00  0.00     0.000 A 
ENDBRANCH  24  25
ENDBRANCH   6  24
ENDBRANCH   3   6
ENDBRANCH   1   2
BRANCH   1  31
ATOM     31  C   UNL     1       6.313  -1.499  -2.437  1.00  0.00     0.042 C 
BRANCH  31  32
ATOM     32  C   UNL     1       6.856  -2.849  -2.871  1.00  0.00     0.118 C 
BRANCH  32  33
ATOM     33  N   UNL     1       7.598  -2.777  -4.126  1.00  0.00    -0.352 N 
ATOM     34  C   UNL     1       8.937  -2.956  -4.375  1.00  0.00     0.251 C 
ATOM     35  H   UNL     1       7.053  -2.568  -4.919  1.00  0.00     0.163 HD
ATOM     36  O   UNL     1       9.410  -2.648  -5.463  1.00  0.00    -0.269 OA
BRANCH  34  37
ATOM     37  C   UNL     1       9.809  -3.491  -3.312  1.00  0.00     0.039 A 
ATOM     38  C   UNL     1       9.362  -4.530  -2.497  1.00  0.00     0.014 A 
ATOM     39  C   UNL     1      11.072  -2.930  -3.106  1.00  0.00     0.014 A 
ATOM     40  C   UNL     1      10.069  -4.849  -1.349  1.00  0.00     0.010 A 
ATOM     41  C   UNL     1      11.844  -3.348  -2.019  1.00  0.00     0.010 A 
ATOM     42  C   UNL     1      11.323  -4.270  -1.098  1.00  0.00    -0.014 A 
BRANCH  42  43
ATOM     43  C   UNL     1      12.055  -4.660   0.134  1.00  0.00     0.031 A 
ATOM     44  C   UNL     1      12.384  -3.645   1.196  1.00  0.00     0.074 A 
ATOM     45  C   UNL     1      12.349  -5.960   0.327  1.00  0.00     0.049 A 
ATOM     46  N   UNL     1      12.984  -3.822   2.347  1.00  0.00    -0.248 NA
ATOM     47  C   UNL     1      12.002  -2.249   0.931  1.00  0.00     0.031 C 
ATOM     48  C   UNL     1      12.075  -7.037  -0.629  1.00  0.00     0.029 A 
ATOM     49  N   UNL     1      12.904  -6.605   1.401  1.00  0.00    -0.354 N 
ATOM     50  C   UNL     1      13.072  -2.564   2.930  1.00  0.00     0.074 A 
ATOM     51  C   UNL     1      12.492  -1.626   1.994  1.00  0.00     0.031 C 
ATOM     52  C   UNL     1      12.392  -8.213  -0.070  1.00  0.00     0.029 A 
ATOM     53  C   UNL     1      12.962  -7.968   1.249  1.00  0.00     0.049 A 
ATOM     54  H   UNL     1      13.229  -6.136   2.204  1.00  0.00     0.167 HD
ATOM     55  C   UNL     1      13.581  -2.224   4.139  1.00  0.00     0.037 A 
ATOM     56  C   UNL     1      13.436  -8.919   2.074  1.00  0.00     0.037 A 
ATOM     57  C   UNL     1      14.139  -3.164   5.077  1.00  0.00     0.049 A 
ATOM     58  C   UNL     1      14.015  -8.510   3.394  1.00  0.00     0.074 A 
ATOM     59  C   UNL     1      14.673  -2.921   6.331  1.00  0.00     0.029 A 
ATOM     60  N   UNL     1      14.230  -4.532   4.864  1.00  0.00    -0.354 N 
ATOM     61  N   UNL     1      14.097  -7.315   3.926  1.00  0.00    -0.248 NA
ATOM     62  C   UNL     1      14.578  -9.582   4.223  1.00  0.00     0.031 C 
ATOM     63  C   UNL     1      15.118  -4.138   6.862  1.00  0.00     0.029 A 
ATOM     64  C   UNL     1      14.824  -5.144   5.956  1.00  0.00     0.049 A 
ATOM     65  H   UNL     1      13.919  -4.999   4.055  1.00  0.00     0.167 HD
ATOM     66  C   UNL     1      14.717  -7.490   5.154  1.00  0.00     0.074 A 
ATOM     67  C   UNL     1      14.959  -8.912   5.301  1.00  0.00     0.031 C 
ATOM     68  C   UNL     1      15.066  -6.559   6.075  1.00  0.00     0.037 A 
BRANCH  55  69
ATOM     69  C   UNL     1      13.573  -0.767   4.504  1.00  0.00     0.057 A 
ATOM     70  C   UNL     1      14.766  -0.035   4.545  1.00  0.00     0.134 A 
ATOM     71  C   UNL     1      12.390  -0.091   4.832  1.00  0.00     0.134 A 
ATOM     72  F   UNL     1      15.936  -0.621   4.247  1.00  0.00    -0.206 F 
ATOM     73  C   UNL     1      14.784   1.316   4.896  1.00  0.00     0.040 A 
ATOM     74  C   UNL     1      12.392   1.266   5.162  1.00  0.00     0.040 A 
ATOM     75  F   UNL     1      11.211  -0.729   4.798  1.00  0.00    -0.206 F 
ATOM     76  C   UNL     1      13.592   1.972   5.199  1.00  0.00     0.006 A 
ENDBRANCH  55  69
BRANCH  56  77
ATOM     77  C   UNL     1      13.397 -10.343   1.662  1.00  0.00     0.057 A 
ATOM     78  C   UNL     1      14.198 -10.821   0.618  1.00  0.00     0.134 A 
ATOM     79  C   UNL     1      12.558 -11.260   2.305  1.00  0.00     0.134 A 
ATOM     80  F   UNL     1      15.018  -9.989  -0.042  1.00  0.00    -0.206 F 
ATOM     81  C   UNL     1      14.158 -12.156   0.218  1.00  0.00     0.040 A 
ATOM     82  C   UNL     1      12.528 -12.605   1.934  1.00  0.00     0.040 A 
ATOM     83  F   UNL     1      11.781 -10.865   3.324  1.00  0.00    -0.206 F 
ATOM     84  C   UNL     1      13.326 -13.055   0.883  1.00  0.00     0.006 A 
ENDBRANCH  56  77
BRANCH  68  85
ATOM     85  C   UNL     1      15.731  -7.066   7.319  1.00  0.00     0.057 A 
ATOM     86  C   UNL     1      15.042  -7.098   8.537  1.00  0.00     0.134 A 
ATOM     87  C   UNL     1      17.050  -7.538   7.307  1.00  0.00     0.134 A 
ATOM     88  F   UNL     1      13.777  -6.656   8.616  1.00  0.00    -0.206 F 
ATOM     89  C   UNL     1      15.639  -7.588   9.699  1.00  0.00     0.040 A 
ATOM     90  C   UNL     1      17.649  -8.054   8.457  1.00  0.00     0.040 A 
ATOM     91  F   UNL     1      17.757  -7.551   6.166  1.00  0.00    -0.206 F 
ATOM     92  C   UNL     1      16.943  -8.078   9.658  1.00  0.00     0.006 A 
ENDBRANCH  68  85
ENDBRANCH  42  43
ENDBRANCH  34  37
ENDBRANCH  32  33
ENDBRANCH  31  32
ENDBRANCH   1  31
TORSDOF 16
