REMARK SMILES Cc1cscc1-c1nc(C)c(C(=O)NCCCNC(=O)c2ccc(-c3c4nc(c(-c5c(F)cccc5F)c5ccc([nH]5)c(-c5c(F)cccc5F)c5nc(c(-c6c(F)cccc6F)c6ccc3[nH]6)C=C5)C=C4)cc2)c(C)n1
REMARK SMILES IDX 16 1 15 2 14 3 12 4 13 5 11 7 7 8 8 9 77 10 9 11 75 12 10 13
REMARK SMILES IDX 76 14 6 15 1 16 2 17 3 18 4 19 5 20 17 21 18 22 19 23 20 25
REMARK SMILES IDX 21 26 22 27 74 28 23 29 73 30 24 31 25 32 26 33 67 34 27 35
REMARK SMILES IDX 72 36 66 37 68 38 28 39 71 40 65 41 64 42 29 44 55 45 38 46
REMARK SMILES IDX 54 47 39 48 42 49 53 50 69 51 40 52 41 53 52 55 70 56 43 57
REMARK SMILES IDX 30 58 31 59 36 60 32 61 33 62 35 63 37 64 34 65 56 66 57 67
REMARK SMILES IDX 62 68 58 69 59 70 61 71 63 72 60 73 44 74 45 75 50 76 46 77
REMARK SMILES IDX 47 78 49 79 51 80 48 81
REMARK H PARENT 14 6 18 24 68 43 42 54
REMARK Flexibility Score: inf
ROOT
ATOM      1  C   UNL     1       4.990   6.080  -3.163  1.00  0.00     0.042 C 
ENDROOT
BRANCH   1   2
ATOM      2  C   UNL     1       5.402   5.666  -1.748  1.00  0.00     0.118 C 
BRANCH   2   3
ATOM      3  N   UNL     1       4.503   6.245  -0.777  1.00  0.00    -0.352 N 
ATOM      4  C   UNL     1       3.361   5.889  -0.117  1.00  0.00     0.254 C 
ATOM      5  O   UNL     1       2.905   6.833   0.537  1.00  0.00    -0.269 OA
ATOM      6  H   UNL     1       4.795   7.149  -0.518  1.00  0.00     0.163 HD
BRANCH   4   7
ATOM      7  C   UNL     1       2.652   4.564  -0.071  1.00  0.00     0.082 A 
ATOM      8  C   UNL     1       1.147   2.274   0.227  1.00  0.00     0.160 A 
ATOM      9  N   UNL     1       1.938   2.387  -0.835  1.00  0.00    -0.232 NA
ATOM     10  N   UNL     1       1.023   3.198   1.171  1.00  0.00    -0.232 NA
ATOM     11  C   UNL     1       2.646   3.530  -1.009  1.00  0.00     0.054 A 
ATOM     12  C   UNL     1       1.788   4.320   1.029  1.00  0.00     0.054 A 
ATOM     13  C   UNL     1       3.318   3.459  -2.333  1.00  0.00     0.068 C 
ATOM     14  C   UNL     1       1.601   5.269   2.186  1.00  0.00     0.068 C 
BRANCH   8  15
ATOM     15  C   UNL     1       0.413   1.029   0.318  1.00  0.00     0.033 A 
ATOM     16  C   UNL     1       2.433  -0.587   0.087  1.00  0.00     0.046 C 
ATOM     17  C   UNL     1       0.970  -0.298   0.199  1.00  0.00    -0.029 A 
ATOM     18  C   UNL     1      -0.027  -1.254   0.192  1.00  0.00     0.069 A 
ATOM     19  S   UNL     1      -1.592  -0.580   0.336  1.00  0.00    -0.151 S 
ATOM     20  C   UNL     1      -0.965   1.009   0.404  1.00  0.00     0.077 A 
ENDBRANCH   8  15
ENDBRANCH   4   7
ENDBRANCH   2   3
ENDBRANCH   1   2
BRANCH   1  21
ATOM     21  C   UNL     1       5.649   7.369  -3.633  1.00  0.00     0.118 C 
BRANCH  21  22
ATOM     22  N   UNL     1       7.070   7.177  -3.886  1.00  0.00    -0.352 N 
ATOM     23  C   UNL     1       7.763   7.225  -5.067  1.00  0.00     0.251 C 
ATOM     24  H   UNL     1       7.615   6.984  -3.089  1.00  0.00     0.163 HD
ATOM     25  O   UNL     1       8.904   6.759  -5.122  1.00  0.00    -0.269 OA
BRANCH  23  26
ATOM     26  C   UNL     1       7.152   7.818  -6.273  1.00  0.00     0.039 A 
ATOM     27  C   UNL     1       7.365   7.211  -7.513  1.00  0.00     0.014 A 
ATOM     28  C   UNL     1       6.386   8.983  -6.185  1.00  0.00     0.014 A 
ATOM     29  C   UNL     1       6.750   7.731  -8.653  1.00  0.00     0.010 A 
ATOM     30  C   UNL     1       5.706   9.450  -7.304  1.00  0.00     0.010 A 
ATOM     31  C   UNL     1       5.881   8.829  -8.549  1.00  0.00    -0.014 A 
BRANCH  31  32
ATOM     32  C   UNL     1       5.127   9.336  -9.721  1.00  0.00     0.031 A 
ATOM     33  C   UNL     1       5.352  10.738 -10.213  1.00  0.00     0.074 A 
ATOM     34  C   UNL     1       4.179   8.561 -10.282  1.00  0.00     0.049 A 
ATOM     35  N   UNL     1       4.716  11.398 -11.146  1.00  0.00    -0.248 NA
ATOM     36  C   UNL     1       6.413  11.511  -9.546  1.00  0.00     0.031 C 
ATOM     37  C   UNL     1       3.841   7.199  -9.861  1.00  0.00     0.029 A 
ATOM     38  N   UNL     1       3.314   8.812 -11.316  1.00  0.00    -0.354 N 
ATOM     39  C   UNL     1       5.288  12.664 -11.169  1.00  0.00     0.074 A 
ATOM     40  C   UNL     1       6.283  12.698 -10.120  1.00  0.00     0.031 C 
ATOM     41  C   UNL     1       2.856   6.729 -10.642  1.00  0.00     0.029 A 
ATOM     42  C   UNL     1       2.460   7.769 -11.585  1.00  0.00     0.049 A 
ATOM     43  H   UNL     1       3.305   9.659 -11.819  1.00  0.00     0.167 HD
ATOM     44  C   UNL     1       5.021  13.696 -12.004  1.00  0.00     0.037 A 
ATOM     45  C   UNL     1       1.459   7.671 -12.479  1.00  0.00     0.037 A 
ATOM     46  C   UNL     1       4.040  13.646 -13.056  1.00  0.00     0.049 A 
ATOM     47  C   UNL     1       1.164   8.841 -13.375  1.00  0.00     0.074 A 
ATOM     48  C   UNL     1       3.736  14.614 -13.997  1.00  0.00     0.029 A 
ATOM     49  N   UNL     1       3.201  12.569 -13.302  1.00  0.00    -0.354 N 
ATOM     50  N   UNL     1       1.759  10.008 -13.434  1.00  0.00    -0.248 NA
ATOM     51  C   UNL     1       0.057   8.682 -14.329  1.00  0.00     0.031 C 
ATOM     52  C   UNL     1       2.677  14.143 -14.779  1.00  0.00     0.029 A 
ATOM     53  C   UNL     1       2.357  12.861 -14.361  1.00  0.00     0.049 A 
ATOM     54  H   UNL     1       3.205  11.723 -12.799  1.00  0.00     0.167 HD
ATOM     55  C   UNL     1       1.118  10.713 -14.443  1.00  0.00     0.074 A 
ATOM     56  C   UNL     1       0.098   9.836 -14.981  1.00  0.00     0.031 C 
ATOM     57  C   UNL     1       1.350  11.973 -14.884  1.00  0.00     0.037 A 
BRANCH  44  58
ATOM     58  C   UNL     1       5.801  14.965 -11.812  1.00  0.00     0.057 A 
ATOM     59  C   UNL     1       7.169  15.044 -12.106  1.00  0.00     0.134 A 
ATOM     60  C   UNL     1       5.171  16.131 -11.361  1.00  0.00     0.134 A 
ATOM     61  F   UNL     1       7.836  13.960 -12.532  1.00  0.00    -0.206 F 
ATOM     62  C   UNL     1       7.887  16.228 -11.933  1.00  0.00     0.040 A 
ATOM     63  C   UNL     1       5.872  17.329 -11.211  1.00  0.00     0.040 A 
ATOM     64  F   UNL     1       3.862  16.129 -11.066  1.00  0.00    -0.206 F 
ATOM     65  C   UNL     1       7.236  17.378 -11.490  1.00  0.00     0.006 A 
ENDBRANCH  44  58
BRANCH  45  66
ATOM     66  C   UNL     1       0.670   6.417 -12.578  1.00  0.00     0.057 A 
ATOM     67  C   UNL     1       0.770   5.589 -13.702  1.00  0.00     0.134 A 
ATOM     68  C   UNL     1      -0.203   6.016 -11.559  1.00  0.00     0.134 A 
ATOM     69  F   UNL     1       1.576   5.927 -14.719  1.00  0.00    -0.206 F 
ATOM     70  C   UNL     1       0.017   4.419 -13.819  1.00  0.00     0.040 A 
ATOM     71  C   UNL     1      -0.942   4.835 -11.650  1.00  0.00     0.040 A 
ATOM     72  F   UNL     1      -0.338   6.760 -10.450  1.00  0.00    -0.206 F 
ATOM     73  C   UNL     1      -0.838   4.037 -12.787  1.00  0.00     0.006 A 
ENDBRANCH  45  66
BRANCH  57  74
ATOM     74  C   UNL     1       0.504  12.470 -16.019  1.00  0.00     0.057 A 
ATOM     75  C   UNL     1      -0.844  12.806 -15.843  1.00  0.00     0.134 A 
ATOM     76  C   UNL     1       1.060  12.665 -17.290  1.00  0.00     0.134 A 
ATOM     77  F   UNL     1      -1.439  12.628 -14.654  1.00  0.00    -0.206 F 
ATOM     78  C   UNL     1      -1.614  13.302 -16.896  1.00  0.00     0.040 A 
ATOM     79  C   UNL     1       0.308  13.187 -18.343  1.00  0.00     0.040 A 
ATOM     80  F   UNL     1       2.348  12.372 -17.523  1.00  0.00    -0.206 F 
ATOM     81  C   UNL     1      -1.035  13.502 -18.148  1.00  0.00     0.006 A 
ENDBRANCH  57  74
ENDBRANCH  31  32
ENDBRANCH  23  26
ENDBRANCH  21  22
ENDBRANCH   1  21
TORSDOF 11
