REMARK SMILES O=C(NCCCNC(=O)[C@@H](c1c[nH]c2cc(OCc3ccccc3)ccc12)[NH+]1CCSCC1)c1ccc(-c2c3nc(c(-c4c(F)cccc4F)c4ccc([nH]4)c(-c4c(F)cccc4F)c4nc(c(-c5c(F)cccc5F)c5ccc2[nH]5)C=C4)C=C3)cc1
REMARK SMILES IDX 6 1 5 2 4 3 3 4 1 5 2 6 34 8 35 9 87 10 36 11 86 12 37 13
REMARK SMILES IDX 38 14 39 15 80 16 40 17 85 18 79 19 81 20 41 21 84 22 78 23
REMARK SMILES IDX 77 24 42 26 68 27 51 28 67 29 52 30 55 31 66 32 82 33 53 34
REMARK SMILES IDX 54 35 65 37 83 38 56 39 43 40 44 41 49 42 45 43 46 44 48 45
REMARK SMILES IDX 50 46 47 47 69 48 70 49 75 50 71 51 72 52 74 53 76 54 73 55
REMARK SMILES IDX 57 56 58 57 63 58 59 59 60 60 62 61 64 62 61 63 7 64 8 65
REMARK SMILES IDX 9 67 10 68 11 69 12 70 27 71 13 72 14 73 26 74 15 76 25 77
REMARK SMILES IDX 16 78 17 79 18 80 19 81 20 82 24 83 21 84 23 85 22 86 28 87
REMARK SMILES IDX 29 88 33 89 30 91 32 92 31 93
REMARK H PARENT 3 7 81 25 55 36 7 66 13 75 28 90
REMARK Flexibility Score: inf
ROOT
ATOM      1  C   UNL     1       3.923   2.970   2.461  1.00  0.00     0.118 C 
ENDROOT
BRANCH   1   2
ATOM      2  C   UNL     1       4.324   2.360   1.125  1.00  0.00     0.042 C 
BRANCH   2   3
ATOM      3  C   UNL     1       4.245   0.845   1.090  1.00  0.00     0.118 C 
BRANCH   3   4
ATOM      4  N   UNL     1       2.863   0.391   1.056  1.00  0.00    -0.352 N 
ATOM      5  O   UNL     1       0.989  -0.347   0.037  1.00  0.00    -0.269 OA
ATOM      6  C   UNL     1       2.222  -0.275   0.049  1.00  0.00     0.251 C 
ATOM      7  H   UNL     1       2.324   0.587   1.856  1.00  0.00     0.163 HD
BRANCH   6   8
ATOM      8  C   UNL     1       3.008  -0.915  -1.024  1.00  0.00     0.039 A 
ATOM      9  C   UNL     1       4.140  -1.676  -0.709  1.00  0.00     0.014 A 
ATOM     10  C   UNL     1       2.579  -0.803  -2.348  1.00  0.00     0.014 A 
ATOM     11  C   UNL     1       4.884  -2.265  -1.724  1.00  0.00     0.010 A 
ATOM     12  C   UNL     1       3.285  -1.456  -3.360  1.00  0.00     0.010 A 
ATOM     13  C   UNL     1       4.438  -2.196  -3.052  1.00  0.00    -0.014 A 
BRANCH  13  14
ATOM     14  C   UNL     1       5.093  -3.034  -4.083  1.00  0.00     0.031 A 
ATOM     15  C   UNL     1       5.843  -2.425  -5.228  1.00  0.00     0.074 A 
ATOM     16  C   UNL     1       4.962  -4.372  -3.982  1.00  0.00     0.049 A 
ATOM     17  N   UNL     1       6.419  -3.023  -6.239  1.00  0.00    -0.248 NA
ATOM     18  C   UNL     1       5.956  -0.959  -5.251  1.00  0.00     0.031 C 
ATOM     19  C   UNL     1       4.226  -5.068  -2.922  1.00  0.00     0.029 A 
ATOM     20  N   UNL     1       5.428  -5.385  -4.779  1.00  0.00    -0.354 N 
ATOM     21  C   UNL     1       6.943  -2.011  -7.031  1.00  0.00     0.074 A 
ATOM     22  C   UNL     1       6.610  -0.757  -6.389  1.00  0.00     0.031 C 
ATOM     23  C   UNL     1       4.302  -6.390  -3.126  1.00  0.00     0.029 A 
ATOM     24  C   UNL     1       5.035  -6.633  -4.362  1.00  0.00     0.049 A 
ATOM     25  H   UNL     1       5.990  -5.232  -5.574  1.00  0.00     0.167 HD
ATOM     26  C   UNL     1       7.638  -2.129  -8.187  1.00  0.00     0.037 A 
ATOM     27  C   UNL     1       5.210  -7.840  -4.929  1.00  0.00     0.037 A 
ATOM     28  C   UNL     1       7.985  -3.385  -8.801  1.00  0.00     0.049 A 
ATOM     29  C   UNL     1       5.960  -7.930  -6.225  1.00  0.00     0.074 A 
ATOM     30  C   UNL     1       8.770  -3.609  -9.919  1.00  0.00     0.029 A 
ATOM     31  N   UNL     1       7.555  -4.627  -8.360  1.00  0.00    -0.354 N 
ATOM     32  N   UNL     1       6.518  -6.970  -6.921  1.00  0.00    -0.248 NA
ATOM     33  C   UNL     1       6.094  -9.265  -6.821  1.00  0.00     0.031 C 
ATOM     34  C   UNL     1       8.771  -4.982 -10.185  1.00  0.00     0.029 A 
ATOM     35  C   UNL     1       8.021  -5.617  -9.209  1.00  0.00     0.049 A 
ATOM     36  H   UNL     1       7.000  -4.782  -7.561  1.00  0.00     0.167 HD
ATOM     37  C   UNL     1       7.073  -7.584  -8.033  1.00  0.00     0.074 A 
ATOM     38  C   UNL     1       6.808  -9.002  -7.906  1.00  0.00     0.031 C 
ATOM     39  C   UNL     1       7.737  -7.022  -9.071  1.00  0.00     0.037 A 
BRANCH  26  40
ATOM     40  C   UNL     1       8.067  -0.873  -8.885  1.00  0.00     0.057 A 
ATOM     41  C   UNL     1       9.136  -0.096  -8.423  1.00  0.00     0.134 A 
ATOM     42  C   UNL     1       7.460  -0.490 -10.089  1.00  0.00     0.134 A 
ATOM     43  F   UNL     1       9.755  -0.407  -7.275  1.00  0.00    -0.206 F 
ATOM     44  C   UNL     1       9.584   1.021  -9.132  1.00  0.00     0.040 A 
ATOM     45  C   UNL     1       7.911   0.614 -10.815  1.00  0.00     0.040 A 
ATOM     46  F   UNL     1       6.436  -1.196 -10.590  1.00  0.00    -0.206 F 
ATOM     47  C   UNL     1       8.977   1.373 -10.336  1.00  0.00     0.006 A 
ENDBRANCH  26  40
BRANCH  27  48
ATOM     48  C   UNL     1       4.626  -9.047  -4.296  1.00  0.00     0.057 A 
ATOM     49  C   UNL     1       5.437 -10.029  -3.719  1.00  0.00     0.134 A 
ATOM     50  C   UNL     1       3.240  -9.245  -4.253  1.00  0.00     0.134 A 
ATOM     51  F   UNL     1       6.772  -9.902  -3.744  1.00  0.00    -0.206 F 
ATOM     52  C   UNL     1       4.893 -11.174  -3.135  1.00  0.00     0.040 A 
ATOM     53  C   UNL     1       2.681 -10.371  -3.650  1.00  0.00     0.040 A 
ATOM     54  F   UNL     1       2.409  -8.335  -4.783  1.00  0.00    -0.206 F 
ATOM     55  C   UNL     1       3.510 -11.344  -3.095  1.00  0.00     0.006 A 
ENDBRANCH  27  48
BRANCH  39  56
ATOM     56  C   UNL     1       8.220  -7.946 -10.147  1.00  0.00     0.057 A 
ATOM     57  C   UNL     1       7.337  -8.508 -11.077  1.00  0.00     0.134 A 
ATOM     58  C   UNL     1       9.581  -8.248 -10.276  1.00  0.00     0.134 A 
ATOM     59  F   UNL     1       6.019  -8.270 -10.994  1.00  0.00    -0.206 F 
ATOM     60  C   UNL     1       7.790  -9.352 -12.091  1.00  0.00     0.040 A 
ATOM     61  C   UNL     1      10.048  -9.072 -11.300  1.00  0.00     0.040 A 
ATOM     62  F   UNL     1      10.477  -7.737  -9.419  1.00  0.00    -0.206 F 
ATOM     63  C   UNL     1       9.151  -9.630 -12.209  1.00  0.00     0.006 A 
ENDBRANCH  39  56
ENDBRANCH  13  14
ENDBRANCH   6   8
ENDBRANCH   3   4
ENDBRANCH   2   3
ENDBRANCH   1   2
BRANCH   1  64
ATOM     64  N   UNL     1       4.608   2.387   3.606  1.00  0.00    -0.351 N 
ATOM     65  C   UNL     1       5.513   2.961   4.466  1.00  0.00     0.283 C 
ATOM     66  H   UNL     1       4.391   1.444   3.792  1.00  0.00     0.163 HD
ATOM     67  O   UNL     1       5.883   2.286   5.434  1.00  0.00    -0.268 OA
BRANCH  65  68
ATOM     68  C   UNL     1       6.028   4.419   4.251  1.00  0.00     0.307 C 
BRANCH  68  69
ATOM     69  C   UNL     1       6.861   4.485   2.947  1.00  0.00     0.044 A 
ATOM     70  C   UNL     1       7.182   5.593   2.173  1.00  0.00     0.094 A 
ATOM     71  C   UNL     1       7.492   3.366   2.257  1.00  0.00     0.009 A 
ATOM     72  N   UNL     1       7.907   5.200   1.078  1.00  0.00    -0.361 N 
ATOM     73  C   UNL     1       8.058   3.839   1.072  1.00  0.00     0.050 A 
ATOM     74  C   UNL     1       7.578   1.976   2.487  1.00  0.00     0.015 A 
ATOM     75  H   UNL     1       8.268   5.809   0.394  1.00  0.00     0.166 HD
ATOM     76  C   UNL     1       8.657   3.001   0.116  1.00  0.00     0.073 A 
ATOM     77  C   UNL     1       8.081   1.119   1.502  1.00  0.00     0.047 A 
ATOM     78  C   UNL     1       8.654   1.620   0.341  1.00  0.00     0.121 A 
BRANCH  78  79
ATOM     79  O   UNL     1       9.315   0.877  -0.604  1.00  0.00    -0.489 OA
BRANCH  79  80
ATOM     80  C   UNL     1       9.333  -0.556  -0.493  1.00  0.00     0.265 C 
BRANCH  80  81
ATOM     81  C   UNL     1      10.023  -1.135   0.731  1.00  0.00    -0.011 A 
ATOM     82  C   UNL     1       9.686  -2.430   1.158  1.00  0.00     0.007 A 
ATOM     83  C   UNL     1      10.917  -0.381   1.505  1.00  0.00     0.007 A 
ATOM     84  C   UNL     1      10.160  -2.918   2.377  1.00  0.00     0.000 A 
ATOM     85  C   UNL     1      11.366  -0.860   2.736  1.00  0.00     0.000 A 
ATOM     86  C   UNL     1      10.979  -2.123   3.176  1.00  0.00     0.000 A 
ENDBRANCH  80  81
ENDBRANCH  79  80
ENDBRANCH  78  79
ENDBRANCH  68  69
BRANCH  68  87
ATOM     87  N   UNL     1       4.869   5.385   4.287  1.00  0.00    -0.319 N 
ATOM     88  C   UNL     1       5.289   6.758   4.647  1.00  0.00     0.274 C 
ATOM     89  C   UNL     1       3.820   4.991   5.276  1.00  0.00     0.274 C 
ATOM     90  H   UNL     1       4.492   5.358   3.340  1.00  0.00     0.349 HD
ATOM     91  C   UNL     1       4.184   7.787   4.356  1.00  0.00     0.131 C 
ATOM     92  C   UNL     1       2.508   5.764   5.088  1.00  0.00     0.131 C 
ATOM     93  S   UNL     1       2.709   7.539   5.391  1.00  0.00    -0.150 SA
ENDBRANCH  68  87
ENDBRANCH  65  68
ENDBRANCH   1  64
TORSDOF 15
