REMARK SMILES O=C(NCCCNC(=O)[C@H](CCC(F)(F)F)Cc1ccccc1)c1ccc(-c2c3nc(c(-c4c(F)cccc4F)c4ccc([nH]4)c(-c4c(F)cccc4F)c4nc(c(-c5c(F)cccc5F)c5ccc2[nH]5)C=C4)C=C3)cc1
REMARK SMILES IDX 5 1 4 2 3 3 1 4 2 5 24 7 25 8 77 9 26 10 76 11 27 12 28 13
REMARK SMILES IDX 29 14 70 15 30 16 75 17 69 18 71 19 31 20 74 21 68 22 67 23
REMARK SMILES IDX 32 25 58 26 41 27 57 28 42 29 45 30 56 31 72 32 43 33 44 34
REMARK SMILES IDX 55 36 73 37 46 38 33 39 34 40 39 41 35 42 36 43 38 44 40 45
REMARK SMILES IDX 37 46 59 47 60 48 65 49 61 50 62 51 64 52 66 53 63 54 47 55
REMARK SMILES IDX 48 56 53 57 49 58 50 59 52 60 54 61 51 62 6 63 7 64 8 65
REMARK SMILES IDX 9 67 10 68 17 69 18 70 19 71 23 72 20 73 22 74 21 75 11 76
REMARK SMILES IDX 12 77 13 78 14 79 15 80 16 81
REMARK H PARENT 3 6 71 24 45 35 7 66
REMARK Flexibility Score: inf
ROOT
ATOM      1  C   UNL     1       4.223  -3.024   1.827  1.00  0.00     0.042 C 
ENDROOT
BRANCH   1   2
ATOM      2  C   UNL     1       4.777  -2.193   2.974  1.00  0.00     0.118 C 
BRANCH   2   3
ATOM      3  N   UNL     1       5.029  -0.809   2.593  1.00  0.00    -0.352 N 
ATOM      4  O   UNL     1       4.631   1.399   2.394  1.00  0.00    -0.269 OA
ATOM      5  C   UNL     1       4.397   0.347   2.983  1.00  0.00     0.251 C 
ATOM      6  H   UNL     1       5.768  -0.682   1.955  1.00  0.00     0.163 HD
BRANCH   5   7
ATOM      7  C   UNL     1       3.419   0.323   4.091  1.00  0.00     0.039 A 
ATOM      8  C   UNL     1       3.664  -0.427   5.241  1.00  0.00     0.014 A 
ATOM      9  C   UNL     1       2.245   1.074   3.983  1.00  0.00     0.014 A 
ATOM     10  C   UNL     1       2.666  -0.575   6.194  1.00  0.00     0.010 A 
ATOM     11  C   UNL     1       1.286   1.012   4.998  1.00  0.00     0.010 A 
ATOM     12  C   UNL     1       1.471   0.154   6.093  1.00  0.00    -0.014 A 
BRANCH  12  13
ATOM     13  C   UNL     1       0.458   0.033   7.171  1.00  0.00     0.031 A 
ATOM     14  C   UNL     1      -0.909  -0.527   6.894  1.00  0.00     0.074 A 
ATOM     15  C   UNL     1       0.798   0.400   8.421  1.00  0.00     0.049 A 
ATOM     16  N   UNL     1      -1.901  -0.728   7.726  1.00  0.00    -0.248 NA
ATOM     17  C   UNL     1      -1.209  -0.902   5.504  1.00  0.00     0.031 C 
ATOM     18  C   UNL     1       2.094   0.963   8.810  1.00  0.00     0.029 A 
ATOM     19  N   UNL     1       0.099   0.334   9.598  1.00  0.00    -0.354 N 
ATOM     20  C   UNL     1      -2.947  -1.225   6.960  1.00  0.00     0.074 A 
ATOM     21  C   UNL     1      -2.479  -1.272   5.591  1.00  0.00     0.031 C 
ATOM     22  C   UNL     1       2.119   1.133  10.139  1.00  0.00     0.029 A 
ATOM     23  C   UNL     1       0.821   0.757  10.687  1.00  0.00     0.049 A 
ATOM     24  H   UNL     1      -0.831   0.015   9.657  1.00  0.00     0.167 HD
ATOM     25  C   UNL     1      -4.182  -1.611   7.363  1.00  0.00     0.037 A 
ATOM     26  C   UNL     1       0.475   0.845  11.983  1.00  0.00     0.037 A 
ATOM     27  C   UNL     1      -4.635  -1.579   8.731  1.00  0.00     0.049 A 
ATOM     28  C   UNL     1      -0.904   0.431  12.399  1.00  0.00     0.074 A 
ATOM     29  C   UNL     1      -5.853  -1.986   9.248  1.00  0.00     0.029 A 
ATOM     30  N   UNL     1      -3.887  -1.107   9.801  1.00  0.00    -0.354 N 
ATOM     31  N   UNL     1      -1.873  -0.064  11.668  1.00  0.00    -0.248 NA
ATOM     32  C   UNL     1      -1.240   0.593  13.819  1.00  0.00     0.031 C 
ATOM     33  C   UNL     1      -5.859  -1.718  10.621  1.00  0.00     0.029 A 
ATOM     34  C   UNL     1      -4.626  -1.191  10.970  1.00  0.00     0.049 A 
ATOM     35  H   UNL     1      -2.966  -0.764   9.738  1.00  0.00     0.167 HD
ATOM     36  C   UNL     1      -2.926  -0.295  12.541  1.00  0.00     0.074 A 
ATOM     37  C   UNL     1      -2.471   0.103  13.858  1.00  0.00     0.031 C 
ATOM     38  C   UNL     1      -4.159  -0.792  12.274  1.00  0.00     0.037 A 
BRANCH  25  39
ATOM     39  C   UNL     1      -5.143  -2.073   6.304  1.00  0.00     0.057 A 
ATOM     40  C   UNL     1      -4.983  -3.293   5.634  1.00  0.00     0.134 A 
ATOM     41  C   UNL     1      -6.256  -1.294   5.965  1.00  0.00     0.134 A 
ATOM     42  F   UNL     1      -3.932  -4.083   5.901  1.00  0.00    -0.206 F 
ATOM     43  C   UNL     1      -5.878  -3.706   4.645  1.00  0.00     0.040 A 
ATOM     44  C   UNL     1      -7.173  -1.708   4.997  1.00  0.00     0.040 A 
ATOM     45  F   UNL     1      -6.475  -0.118   6.573  1.00  0.00    -0.206 F 
ATOM     46  C   UNL     1      -6.980  -2.914   4.327  1.00  0.00     0.006 A 
ENDBRANCH  25  39
BRANCH  26  47
ATOM     47  C   UNL     1       1.464   1.336  12.974  1.00  0.00     0.057 A 
ATOM     48  C   UNL     1       2.033   0.469  13.913  1.00  0.00     0.134 A 
ATOM     49  C   UNL     1       1.887   2.671  12.985  1.00  0.00     0.134 A 
ATOM     50  F   UNL     1       1.657  -0.817  13.960  1.00  0.00    -0.206 F 
ATOM     51  C   UNL     1       2.982   0.914  14.835  1.00  0.00     0.040 A 
ATOM     52  C   UNL     1       2.854   3.123  13.883  1.00  0.00     0.040 A 
ATOM     53  F   UNL     1       1.386   3.547  12.102  1.00  0.00    -0.206 F 
ATOM     54  C   UNL     1       3.401   2.243  14.815  1.00  0.00     0.006 A 
ENDBRANCH  26  47
BRANCH  38  55
ATOM     55  C   UNL     1      -5.085  -0.969  13.441  1.00  0.00     0.057 A 
ATOM     56  C   UNL     1      -5.687   0.122  14.081  1.00  0.00     0.134 A 
ATOM     57  C   UNL     1      -5.393  -2.250  13.916  1.00  0.00     0.134 A 
ATOM     58  F   UNL     1      -5.420   1.375  13.684  1.00  0.00    -0.206 F 
ATOM     59  C   UNL     1      -6.542  -0.054  15.170  1.00  0.00     0.040 A 
ATOM     60  C   UNL     1      -6.266  -2.440  14.987  1.00  0.00     0.040 A 
ATOM     61  F   UNL     1      -4.855  -3.337  13.343  1.00  0.00    -0.206 F 
ATOM     62  C   UNL     1      -6.838  -1.339  15.622  1.00  0.00     0.006 A 
ENDBRANCH  38  55
ENDBRANCH  12  13
ENDBRANCH   5   7
ENDBRANCH   2   3
ENDBRANCH   1   2
BRANCH   1  63
ATOM     63  C   UNL     1       5.205  -3.208   0.681  1.00  0.00     0.117 C 
BRANCH  63  64
ATOM     64  N   UNL     1       6.389  -3.952   1.085  1.00  0.00    -0.356 N 
ATOM     65  C   UNL     1       6.864  -5.165   0.690  1.00  0.00     0.223 C 
ATOM     66  H   UNL     1       6.943  -3.499   1.761  1.00  0.00     0.163 HD
ATOM     67  O   UNL     1       7.920  -5.557   1.190  1.00  0.00    -0.275 OA
BRANCH  65  68
ATOM     68  C   UNL     1       6.122  -6.020  -0.334  1.00  0.00     0.083 C 
BRANCH  68  69
ATOM     69  C   UNL     1       4.816  -6.532   0.308  1.00  0.00     0.049 C 
BRANCH  69  70
ATOM     70  C   UNL     1       4.019  -7.466  -0.567  1.00  0.00    -0.047 A 
ATOM     71  C   UNL     1       2.932  -6.982  -1.309  1.00  0.00     0.004 A 
ATOM     72  C   UNL     1       4.370  -8.816  -0.677  1.00  0.00     0.004 A 
ATOM     73  C   UNL     1       2.234  -7.825  -2.173  1.00  0.00     0.000 A 
ATOM     74  C   UNL     1       3.666  -9.659  -1.537  1.00  0.00     0.000 A 
ATOM     75  C   UNL     1       2.604  -9.162  -2.291  1.00  0.00     0.000 A 
ENDBRANCH  69  70
ENDBRANCH  68  69
BRANCH  68  76
ATOM     76  C   UNL     1       5.980  -5.265  -1.677  1.00  0.00     0.023 C 
BRANCH  76  77
ATOM     77  C   UNL     1       6.891  -5.772  -2.800  1.00  0.00     0.116 C 
BRANCH  77  78
ATOM     78  C   UNL     1       6.487  -7.106  -3.390  1.00  0.00     0.389 C 
ATOM     79  F   UNL     1       5.207  -7.086  -3.814  1.00  0.00    -0.171 F 
ATOM     80  F   UNL     1       7.263  -7.390  -4.462  1.00  0.00    -0.171 F 
ATOM     81  F   UNL     1       6.638  -8.112  -2.508  1.00  0.00    -0.171 F 
ENDBRANCH  77  78
ENDBRANCH  76  77
ENDBRANCH  68  76
ENDBRANCH  65  68
ENDBRANCH  63  64
ENDBRANCH   1  63
TORSDOF 15
