REMARK SMILES C[C@@H]1C[N@@H+](CC(C)(C)C(=O)NCCCNC(=O)c2ccc(-c3c4nc(c(-c5c(F)cccc5F)c5ccc([nH]5)c(-c5c(F)cccc5F)c5nc(c(-c6c(F)cccc6F)c6ccc3[nH]6)C=C5)C=C4)cc2)CC[C@@H]1[NH3+]
REMARK SMILES IDX 12 1 11 2 9 3 10 4 6 6 7 7 8 8 5 9 4 10 1 11 2 12 3 13 74 14
REMARK SMILES IDX 73 15 72 16 75 18 13 22 14 23 15 24 16 25 17 27 18 28 19 29
REMARK SMILES IDX 71 30 20 31 70 32 21 33 22 34 23 35 64 36 24 37 69 38 63 39
REMARK SMILES IDX 65 40 25 41 68 42 62 43 61 44 26 46 52 47 35 48 51 49 36 50
REMARK SMILES IDX 39 51 50 52 66 53 37 54 38 55 49 57 67 58 40 59 27 60 28 61
REMARK SMILES IDX 33 62 29 63 30 64 32 65 34 66 31 67 53 68 54 69 59 70 55 71
REMARK SMILES IDX 56 72 58 73 60 74 57 75 41 76 42 77 47 78 43 79 44 80 46 81
REMARK SMILES IDX 48 82 45 83
REMARK H PARENT 11 5 4 17 75 19 75 20 75 21 15 26 65 45 39 56
REMARK Flexibility Score: inf
ROOT
ATOM      1  C   UNL     1      -2.816  -6.450  -0.204  1.00  0.00     0.117 C 
ENDROOT
BRANCH   1   2
ATOM      2  N   UNL     1      -2.662  -5.022  -0.027  1.00  0.00    -0.355 N 
ATOM      3  C   UNL     1      -2.048  -4.315   0.953  1.00  0.00     0.231 C 
ATOM      4  O   UNL     1      -2.574  -3.228   1.217  1.00  0.00    -0.274 OA
ATOM      5  H   UNL     1      -3.070  -4.473  -0.736  1.00  0.00     0.163 HD
BRANCH   3   6
ATOM      6  C   UNL     1      -0.821  -4.829   1.725  1.00  0.00     0.092 C 
ATOM      7  C   UNL     1       0.020  -5.902   1.017  1.00  0.00     0.027 C 
ATOM      8  C   UNL     1      -1.382  -5.445   3.024  1.00  0.00     0.027 C 
BRANCH   6   9
ATOM      9  C   UNL     1       0.090  -3.594   2.104  1.00  0.00     0.278 C 
BRANCH   9  10
ATOM     10  N   UNL     1       0.810  -2.782   1.087  1.00  0.00    -0.333 N 
ATOM     11  C   UNL     1       1.184   0.133  -0.081  1.00  0.00     0.020 C 
ATOM     12  C   UNL     1       0.622  -1.106  -0.791  1.00  0.00     0.099 C 
ATOM     13  C   UNL     1      -0.090  -2.061   0.183  1.00  0.00     0.271 C 
ATOM     14  C   UNL     1       1.669  -1.919  -1.571  1.00  0.00     0.194 C 
ATOM     15  C   UNL     1       2.651  -2.590  -0.605  1.00  0.00     0.126 C 
ATOM     16  C   UNL     1       1.893  -3.474   0.390  1.00  0.00     0.268 C 
ATOM     17  H   UNL     1       1.292  -2.073   1.640  1.00  0.00     0.348 HD
BRANCH  14  18
ATOM     18  N   UNL     1       2.370  -1.114  -2.570  1.00  0.00    -0.355 N 
ATOM     19  H   UNL     1       2.887  -0.368  -2.104  1.00  0.00     0.344 HD
ATOM     20  H   UNL     1       1.693  -0.707  -3.215  1.00  0.00     0.344 HD
ATOM     21  H   UNL     1       3.020  -1.705  -3.088  1.00  0.00     0.344 HD
ENDBRANCH  14  18
ENDBRANCH   9  10
ENDBRANCH   6   9
ENDBRANCH   3   6
ENDBRANCH   1   2
BRANCH   1  22
ATOM     22  C   UNL     1      -4.188  -6.901   0.274  1.00  0.00     0.042 C 
BRANCH  22  23
ATOM     23  C   UNL     1      -5.331  -6.306  -0.536  1.00  0.00     0.118 C 
BRANCH  23  24
ATOM     24  N   UNL     1      -5.303  -6.734  -1.928  1.00  0.00    -0.352 N 
ATOM     25  C   UNL     1      -6.168  -7.553  -2.610  1.00  0.00     0.251 C 
ATOM     26  H   UNL     1      -4.551  -6.384  -2.459  1.00  0.00     0.163 HD
ATOM     27  O   UNL     1      -5.857  -8.000  -3.707  1.00  0.00    -0.269 OA
BRANCH  25  28
ATOM     28  C   UNL     1      -7.469  -7.906  -2.005  1.00  0.00     0.039 A 
ATOM     29  C   UNL     1      -7.931  -9.220  -2.101  1.00  0.00     0.014 A 
ATOM     30  C   UNL     1      -8.230  -6.939  -1.343  1.00  0.00     0.014 A 
ATOM     31  C   UNL     1      -9.125  -9.576  -1.473  1.00  0.00     0.010 A 
ATOM     32  C   UNL     1      -9.360  -7.318  -0.631  1.00  0.00     0.010 A 
ATOM     33  C   UNL     1      -9.829  -8.637  -0.700  1.00  0.00    -0.014 A 
BRANCH  33  34
ATOM     34  C   UNL     1     -11.070  -9.005   0.026  1.00  0.00     0.031 A 
ATOM     35  C   UNL     1     -12.367  -8.320  -0.314  1.00  0.00     0.074 A 
ATOM     36  C   UNL     1     -11.020  -9.912   1.021  1.00  0.00     0.049 A 
ATOM     37  N   UNL     1     -13.540  -8.444   0.252  1.00  0.00    -0.248 NA
ATOM     38  C   UNL     1     -12.335  -7.346  -1.418  1.00  0.00     0.031 C 
ATOM     39  C   UNL     1      -9.816 -10.615   1.471  1.00  0.00     0.029 A 
ATOM     40  N   UNL     1     -12.010 -10.396   1.839  1.00  0.00    -0.354 N 
ATOM     41  C   UNL     1     -14.379  -7.566  -0.424  1.00  0.00     0.074 A 
ATOM     42  C   UNL     1     -13.567  -6.862  -1.391  1.00  0.00     0.031 C 
ATOM     43  C   UNL     1     -10.145 -11.463   2.460  1.00  0.00     0.029 A 
ATOM     44  C   UNL     1     -11.569 -11.331   2.746  1.00  0.00     0.049 A 
ATOM     45  H   UNL     1     -12.947 -10.102   1.782  1.00  0.00     0.167 HD
ATOM     46  C   UNL     1     -15.713  -7.388  -0.278  1.00  0.00     0.037 A 
ATOM     47  C   UNL     1     -12.240 -11.997   3.704  1.00  0.00     0.037 A 
ATOM     48  C   UNL     1     -16.522  -8.101   0.674  1.00  0.00     0.049 A 
ATOM     49  C   UNL     1     -13.714 -11.746   3.871  1.00  0.00     0.074 A 
ATOM     50  C   UNL     1     -17.886  -8.010   0.886  1.00  0.00     0.029 A 
ATOM     51  N   UNL     1     -16.038  -9.042   1.570  1.00  0.00    -0.354 N 
ATOM     52  N   UNL     1     -14.504 -10.953   3.188  1.00  0.00    -0.248 NA
ATOM     53  C   UNL     1     -14.393 -12.489   4.942  1.00  0.00     0.031 C 
ATOM     54  C   UNL     1     -18.222  -8.866   1.938  1.00  0.00     0.029 A 
ATOM     55  C   UNL     1     -17.076  -9.530   2.345  1.00  0.00     0.049 A 
ATOM     56  H   UNL     1     -15.097  -9.322   1.644  1.00  0.00     0.167 HD
ATOM     57  C   UNL     1     -15.775 -11.133   3.717  1.00  0.00     0.074 A 
ATOM     58  C   UNL     1     -15.654 -12.122   4.768  1.00  0.00     0.031 C 
ATOM     59  C   UNL     1     -16.940 -10.534   3.368  1.00  0.00     0.037 A 
BRANCH  46  60
ATOM     60  C   UNL     1     -16.384  -6.398  -1.186  1.00  0.00     0.057 A 
ATOM     61  C   UNL     1     -16.538  -6.647  -2.557  1.00  0.00     0.134 A 
ATOM     62  C   UNL     1     -16.923  -5.208  -0.682  1.00  0.00     0.134 A 
ATOM     63  F   UNL     1     -16.032  -7.761  -3.106  1.00  0.00    -0.206 F 
ATOM     64  C   UNL     1     -17.185  -5.740  -3.396  1.00  0.00     0.040 A 
ATOM     65  C   UNL     1     -17.599  -4.306  -1.507  1.00  0.00     0.040 A 
ATOM     66  F   UNL     1     -16.816  -4.908   0.621  1.00  0.00    -0.206 F 
ATOM     67  C   UNL     1     -17.727  -4.569  -2.869  1.00  0.00     0.006 A 
ENDBRANCH  46  60
BRANCH  47  68
ATOM     68  C   UNL     1     -11.542 -12.979   4.575  1.00  0.00     0.057 A 
ATOM     69  C   UNL     1     -11.851 -14.344   4.515  1.00  0.00     0.134 A 
ATOM     70  C   UNL     1     -10.592 -12.577   5.522  1.00  0.00     0.134 A 
ATOM     71  F   UNL     1     -12.764 -14.791   3.641  1.00  0.00    -0.206 F 
ATOM     72  C   UNL     1     -11.273 -15.266   5.390  1.00  0.00     0.040 A 
ATOM     73  C   UNL     1      -9.983 -13.492   6.382  1.00  0.00     0.040 A 
ATOM     74  F   UNL     1     -10.242 -11.286   5.625  1.00  0.00    -0.206 F 
ATOM     75  C   UNL     1     -10.335 -14.839   6.327  1.00  0.00     0.006 A 
ENDBRANCH  47  68
BRANCH  59  76
ATOM     76  C   UNL     1     -18.182 -10.977   4.085  1.00  0.00     0.057 A 
ATOM     77  C   UNL     1     -18.421 -10.657   5.428  1.00  0.00     0.134 A 
ATOM     78  C   UNL     1     -19.169 -11.705   3.408  1.00  0.00     0.134 A 
ATOM     79  F   UNL     1     -17.511  -9.973   6.136  1.00  0.00    -0.206 F 
ATOM     80  C   UNL     1     -19.583 -11.072   6.079  1.00  0.00     0.040 A 
ATOM     81  C   UNL     1     -20.349 -12.098   4.040  1.00  0.00     0.040 A 
ATOM     82  F   UNL     1     -19.009 -12.035   2.117  1.00  0.00    -0.206 F 
ATOM     83  C   UNL     1     -20.555 -11.789   5.382  1.00  0.00     0.006 A 
ENDBRANCH  59  76
ENDBRANCH  33  34
ENDBRANCH  25  28
ENDBRANCH  23  24
ENDBRANCH  22  23
ENDBRANCH   1  22
TORSDOF 13
