REMARK SMILES Cc1cccc(O[C@H](C)C(=O)NNC(=O)[C@H]2[C@@H]3CC[C@@H](C3)[C@@H]2C(=O)NCCCNC(=O)c2ccc(-c3c4nc(c(-c5c(F)cccc5F)c5ccc([nH]5)c(-c5c(F)cccc5F)c5nc(c(-c6c(F)cccc6F)c6ccc3[nH]6)C=C5)C=C4)cc2)c1
REMARK SMILES IDX 23 1 24 2 25 3 22 5 16 6 17 7 18 8 21 9 20 10 19 11 14 12
REMARK SMILES IDX 13 13 15 15 12 16 10 17 11 18 8 20 9 21 7 22 6 23 1 24 2 25
REMARK SMILES IDX 3 26 86 27 4 28 5 29 26 30 27 31 28 32 29 33 30 34 31 36
REMARK SMILES IDX 32 37 33 38 85 39 34 40 84 41 35 42 36 43 37 44 78 45 38 46
REMARK SMILES IDX 83 47 77 48 79 49 39 50 82 51 76 52 75 53 40 55 66 56 49 57
REMARK SMILES IDX 65 58 50 59 53 60 64 61 80 62 51 63 52 64 63 66 81 67 54 68
REMARK SMILES IDX 41 69 42 70 47 71 43 72 44 73 46 74 48 75 45 76 67 77 68 78
REMARK SMILES IDX 73 79 69 80 70 81 72 82 74 83 71 84 55 85 56 86 61 87 57 88
REMARK SMILES IDX 58 89 60 90 62 91 59 92
REMARK H PARENT 25 4 13 14 12 19 29 35 79 54 53 65
REMARK Flexibility Score: inf
ROOT
ATOM      1  C   UNL     1       4.515   2.872  -2.850  1.00  0.00     0.224 C 
ATOM      2  O   UNL     1       5.513   2.296  -2.427  1.00  0.00    -0.275 OA
ATOM      3  N   UNL     1       4.602   4.200  -3.178  1.00  0.00    -0.356 N 
ATOM      4  H   UNL     1       5.492   4.607  -3.074  1.00  0.00     0.163 HD
ENDROOT
BRANCH   1   5
ATOM      5  C   UNL     1       3.165   2.190  -3.014  1.00  0.00     0.094 C 
ATOM      6  C   UNL     1       3.010   0.855  -2.265  1.00  0.00     0.096 C 
ATOM      7  C   UNL     1       2.430  -0.098  -3.344  1.00  0.00     0.002 C 
ATOM      8  C   UNL     1       3.590  -0.510  -4.274  1.00  0.00     0.005 C 
ATOM      9  C   UNL     1       1.658   0.830  -4.279  1.00  0.00     0.009 C 
ATOM     10  C   UNL     1       2.844   1.776  -4.475  1.00  0.00     0.002 C 
ATOM     11  C   UNL     1       3.904   0.797  -5.021  1.00  0.00     0.005 C 
BRANCH   6  12
ATOM     12  C   UNL     1       2.240   0.822  -0.948  1.00  0.00     0.242 C 
ATOM     13  N   UNL     1       1.157   1.588  -0.634  1.00  0.00    -0.267 N 
ATOM     14  H   UNL     1       0.841   1.508   0.295  1.00  0.00     0.191 HD
ATOM     15  O   UNL     1       2.588   0.001  -0.088  1.00  0.00    -0.273 OA
BRANCH  13  16
ATOM     16  N   UNL     1       0.445   2.453  -1.422  1.00  0.00    -0.264 N 
ATOM     17  C   UNL     1      -0.445   3.406  -1.035  1.00  0.00     0.279 C 
ATOM     18  O   UNL     1      -0.705   4.260  -1.900  1.00  0.00    -0.269 OA
ATOM     19  H   UNL     1       0.597   2.375  -2.392  1.00  0.00     0.191 HD
BRANCH  17  20
ATOM     20  C   UNL     1      -1.226   3.427   0.311  1.00  0.00     0.260 C 
ATOM     21  C   UNL     1      -2.627   2.828   0.128  1.00  0.00     0.064 C 
BRANCH  20  22
ATOM     22  O   UNL     1      -0.678   3.316   1.606  1.00  0.00    -0.481 OA
BRANCH  22  23
ATOM     23  C   UNL     1      -0.254   2.176   2.201  1.00  0.00     0.120 A 
ATOM     24  C   UNL     1       2.363   1.578   4.916  1.00  0.00     0.044 C 
ATOM     25  C   UNL     1       1.319   1.332   3.868  1.00  0.00    -0.047 A 
ATOM     26  C   UNL     1       0.990   0.026   3.500  1.00  0.00     0.003 A 
ATOM     27  C   UNL     1       0.683   2.397   3.219  1.00  0.00     0.049 A 
ATOM     28  C   UNL     1       0.025  -0.204   2.522  1.00  0.00     0.004 A 
ATOM     29  C   UNL     1      -0.607   0.868   1.883  1.00  0.00     0.046 A 
ENDBRANCH  22  23
ENDBRANCH  20  22
ENDBRANCH  17  20
ENDBRANCH  13  16
ENDBRANCH   6  12
ENDBRANCH   1   5
BRANCH   3  30
ATOM     30  C   UNL     1       3.554   5.090  -3.659  1.00  0.00     0.117 C 
BRANCH  30  31
ATOM     31  C   UNL     1       2.776   5.748  -2.523  1.00  0.00     0.042 C 
BRANCH  31  32
ATOM     32  C   UNL     1       3.436   7.028  -2.035  1.00  0.00     0.118 C 
BRANCH  32  33
ATOM     33  N   UNL     1       3.175   8.187  -2.879  1.00  0.00    -0.352 N 
ATOM     34  C   UNL     1       3.729   9.466  -2.854  1.00  0.00     0.251 C 
ATOM     35  H   UNL     1       2.498   8.044  -3.580  1.00  0.00     0.163 HD
ATOM     36  O   UNL     1       3.360  10.299  -3.647  1.00  0.00    -0.269 OA
BRANCH  34  37
ATOM     37  C   UNL     1       4.873   9.747  -1.946  1.00  0.00     0.039 A 
ATOM     38  C   UNL     1       5.947  10.483  -2.465  1.00  0.00     0.014 A 
ATOM     39  C   UNL     1       4.991   9.119  -0.714  1.00  0.00     0.014 A 
ATOM     40  C   UNL     1       7.210  10.341  -1.894  1.00  0.00     0.010 A 
ATOM     41  C   UNL     1       6.253   8.881  -0.216  1.00  0.00     0.010 A 
ATOM     42  C   UNL     1       7.369   9.427  -0.859  1.00  0.00    -0.014 A 
BRANCH  42  43
ATOM     43  C   UNL     1       8.648   8.857  -0.460  1.00  0.00     0.031 A 
ATOM     44  C   UNL     1       9.206   9.144   0.874  1.00  0.00     0.074 A 
ATOM     45  C   UNL     1       9.206   7.905  -1.242  1.00  0.00     0.049 A 
ATOM     46  N   UNL     1      10.376   8.765   1.254  1.00  0.00    -0.248 NA
ATOM     47  C   UNL     1       8.515   9.953   1.875  1.00  0.00     0.031 C 
ATOM     48  C   UNL     1      10.211   6.913  -0.866  1.00  0.00     0.029 A 
ATOM     49  N   UNL     1       9.121   7.793  -2.639  1.00  0.00    -0.354 N 
ATOM     50  C   UNL     1      10.476   8.999   2.602  1.00  0.00     0.074 A 
ATOM     51  C   UNL     1       9.362   9.861   2.905  1.00  0.00     0.031 C 
ATOM     52  C   UNL     1      10.857   6.511  -1.970  1.00  0.00     0.029 A 
ATOM     53  C   UNL     1      10.404   7.357  -3.057  1.00  0.00     0.049 A 
ATOM     54  H   UNL     1       8.338   7.978  -3.207  1.00  0.00     0.167 HD
ATOM     55  C   UNL     1      11.431   8.323   3.301  1.00  0.00     0.037 A 
ATOM     56  C   UNL     1      11.210   8.172  -3.800  1.00  0.00     0.037 A 
ATOM     57  C   UNL     1      12.420   7.732   2.392  1.00  0.00     0.049 A 
ATOM     58  C   UNL     1      12.531   8.534  -3.147  1.00  0.00     0.074 A 
ATOM     59  C   UNL     1      12.754   6.457   1.971  1.00  0.00     0.029 A 
ATOM     60  N   UNL     1      13.117   8.594   1.562  1.00  0.00    -0.354 N 
ATOM     61  N   UNL     1      12.885   8.178  -1.942  1.00  0.00    -0.248 NA
ATOM     62  C   UNL     1      13.522   9.412  -3.773  1.00  0.00     0.031 C 
ATOM     63  C   UNL     1      13.644   6.577   0.856  1.00  0.00     0.029 A 
ATOM     64  C   UNL     1      13.865   7.922   0.621  1.00  0.00     0.049 A 
ATOM     65  H   UNL     1      13.082   9.575   1.637  1.00  0.00     0.167 HD
ATOM     66  C   UNL     1      14.054   8.806  -1.601  1.00  0.00     0.074 A 
ATOM     67  C   UNL     1      14.422   9.559  -2.785  1.00  0.00     0.031 C 
ATOM     68  C   UNL     1      14.604   8.709  -0.355  1.00  0.00     0.037 A 
BRANCH  55  69
ATOM     69  C   UNL     1      11.432   8.083   4.798  1.00  0.00     0.057 A 
ATOM     70  C   UNL     1      12.463   7.324   5.389  1.00  0.00     0.134 A 
ATOM     71  C   UNL     1      10.412   8.454   5.698  1.00  0.00     0.134 A 
ATOM     72  F   UNL     1      13.513   6.889   4.678  1.00  0.00    -0.206 F 
ATOM     73  C   UNL     1      12.463   6.949   6.742  1.00  0.00     0.040 A 
ATOM     74  C   UNL     1      10.423   8.123   7.061  1.00  0.00     0.040 A 
ATOM     75  F   UNL     1       9.315   9.114   5.320  1.00  0.00    -0.206 F 
ATOM     76  C   UNL     1      11.443   7.353   7.587  1.00  0.00     0.006 A 
ENDBRANCH  55  69
BRANCH  56  77
ATOM     77  C   UNL     1      10.436   9.054  -4.715  1.00  0.00     0.057 A 
ATOM     78  C   UNL     1       9.655   8.457  -5.721  1.00  0.00     0.134 A 
ATOM     79  C   UNL     1      10.139  10.377  -4.378  1.00  0.00     0.134 A 
ATOM     80  F   UNL     1       9.886   7.187  -6.091  1.00  0.00    -0.206 F 
ATOM     81  C   UNL     1       8.548   9.103  -6.276  1.00  0.00     0.040 A 
ATOM     82  C   UNL     1       9.044  11.041  -4.943  1.00  0.00     0.040 A 
ATOM     83  F   UNL     1      10.822  11.006  -3.411  1.00  0.00    -0.206 F 
ATOM     84  C   UNL     1       8.220  10.389  -5.860  1.00  0.00     0.006 A 
ENDBRANCH  56  77
BRANCH  68  85
ATOM     85  C   UNL     1      15.873   9.408   0.058  1.00  0.00     0.057 A 
ATOM     86  C   UNL     1      17.026   9.419  -0.737  1.00  0.00     0.134 A 
ATOM     87  C   UNL     1      16.010   9.999   1.331  1.00  0.00     0.134 A 
ATOM     88  F   UNL     1      17.039   8.832  -1.944  1.00  0.00    -0.206 F 
ATOM     89  C   UNL     1      18.222  10.014  -0.312  1.00  0.00     0.040 A 
ATOM     90  C   UNL     1      17.211  10.550   1.787  1.00  0.00     0.040 A 
ATOM     91  F   UNL     1      14.979  10.095   2.182  1.00  0.00    -0.206 F 
ATOM     92  C   UNL     1      18.322  10.570   0.959  1.00  0.00     0.006 A 
ENDBRANCH  68  85
ENDBRANCH  42  43
ENDBRANCH  34  37
ENDBRANCH  32  33
ENDBRANCH  31  32
ENDBRANCH  30  31
ENDBRANCH   3  30
TORSDOF 15
