REMARK SMILES CC(C)(C)OC(=O)N1CCSC[C@@H]1CC(=O)NCCCNC(=O)c1ccc(-c2c3nc(c(-c4c(F)cccc4F)c4ccc([nH]4)c(-c4c(F)cccc4F)c4nc(c(-c5c(F)cccc5F)c5ccc2[nH]5)C=C4)C=C3)cc1
REMARK SMILES IDX 18 1 17 2 15 3 16 4 14 6 13 7 8 8 9 9 10 10 12 11 11 12 6 13
REMARK SMILES IDX 7 14 5 15 2 16 1 17 3 18 4 19 19 20 20 21 21 22 22 23 23 25
REMARK SMILES IDX 24 26 25 27 77 28 26 29 76 30 27 31 28 32 29 33 70 34 30 35
REMARK SMILES IDX 75 36 69 37 71 38 31 39 74 40 68 41 67 42 32 44 58 45 41 46
REMARK SMILES IDX 57 47 42 48 45 49 56 50 72 51 43 52 44 53 55 55 73 56 46 57
REMARK SMILES IDX 33 58 34 59 39 60 35 61 36 62 38 63 40 64 37 65 59 66 60 67
REMARK SMILES IDX 65 68 61 69 62 70 64 71 66 72 63 73 47 74 48 75 53 76 49 77
REMARK SMILES IDX 50 78 52 79 54 80 51 81
REMARK H PARENT 17 5 21 24 71 43 45 54
REMARK Flexibility Score: inf
ROOT
ATOM      1  C   UNL     1       3.340  -2.490   7.698  1.00  0.00     0.117 C 
ENDROOT
BRANCH   1   2
ATOM      2  N   UNL     1       2.002  -2.471   8.274  1.00  0.00    -0.356 N 
ATOM      3  C   UNL     1       0.771  -2.364   7.702  1.00  0.00     0.222 C 
ATOM      4  O   UNL     1      -0.215  -2.366   8.441  1.00  0.00    -0.275 OA
ATOM      5  H   UNL     1       1.985  -2.549   9.255  1.00  0.00     0.163 HD
BRANCH   3   6
ATOM      6  C   UNL     1       0.612  -2.293   6.204  1.00  0.00     0.126 C 
BRANCH   6   7
ATOM      7  C   UNL     1      -0.008  -0.991   5.652  1.00  0.00     0.107 C 
ATOM      8  N   UNL     1       0.674  -0.561   4.410  1.00  0.00    -0.303 N 
ATOM      9  C   UNL     1       2.067  -0.129   4.548  1.00  0.00     0.134 C 
ATOM     10  C   UNL     1       2.152   1.186   5.326  1.00  0.00     0.091 C 
ATOM     11  C   UNL     1      -0.163   0.222   6.590  1.00  0.00     0.095 C 
ATOM     12  S   UNL     1       1.394   1.094   6.992  1.00  0.00    -0.158 SA
BRANCH   8  13
ATOM     13  C   UNL     1      -0.094  -0.138   3.332  1.00  0.00     0.410 C 
ATOM     14  O   UNL     1      -1.312  -0.055   3.371  1.00  0.00    -0.224 OA
BRANCH  13  15
ATOM     15  O   UNL     1       0.679   0.173   2.267  1.00  0.00    -0.444 OA
BRANCH  15  16
ATOM     16  C   UNL     1       0.205   0.811   1.050  1.00  0.00     0.106 C 
ATOM     17  C   UNL     1       0.947   0.102  -0.090  1.00  0.00     0.056 C 
ATOM     18  C   UNL     1       0.662   2.270   1.134  1.00  0.00     0.056 C 
ATOM     19  C   UNL     1      -1.300   0.740   0.777  1.00  0.00     0.056 C 
ENDBRANCH  15  16
ENDBRANCH  13  15
ENDBRANCH   8  13
ENDBRANCH   6   7
ENDBRANCH   3   6
ENDBRANCH   1   2
BRANCH   1  20
ATOM     20  C   UNL     1       4.127  -1.214   7.993  1.00  0.00     0.042 C 
BRANCH  20  21
ATOM     21  C   UNL     1       4.417  -0.994   9.477  1.00  0.00     0.118 C 
BRANCH  21  22
ATOM     22  N   UNL     1       5.797  -1.325   9.790  1.00  0.00    -0.352 N 
ATOM     23  C   UNL     1       6.852  -0.502  10.094  1.00  0.00     0.251 C 
ATOM     24  H   UNL     1       6.007  -2.287   9.782  1.00  0.00     0.163 HD
ATOM     25  O   UNL     1       7.995  -0.950  10.016  1.00  0.00    -0.269 OA
BRANCH  23  26
ATOM     26  C   UNL     1       6.652   0.904  10.525  1.00  0.00     0.039 A 
ATOM     27  C   UNL     1       7.603   1.859  10.145  1.00  0.00     0.014 A 
ATOM     28  C   UNL     1       5.619   1.274  11.391  1.00  0.00     0.014 A 
ATOM     29  C   UNL     1       7.517   3.171  10.621  1.00  0.00     0.010 A 
ATOM     30  C   UNL     1       5.498   2.600  11.818  1.00  0.00     0.010 A 
ATOM     31  C   UNL     1       6.462   3.556  11.463  1.00  0.00    -0.014 A 
BRANCH  31  32
ATOM     32  C   UNL     1       6.393   4.931  12.027  1.00  0.00     0.031 A 
ATOM     33  C   UNL     1       6.554   5.149  13.510  1.00  0.00     0.074 A 
ATOM     34  C   UNL     1       6.153   5.985  11.223  1.00  0.00     0.049 A 
ATOM     35  N   UNL     1       6.459   6.258  14.200  1.00  0.00    -0.248 NA
ATOM     36  C   UNL     1       6.837   3.959  14.329  1.00  0.00     0.031 C 
ATOM     37  C   UNL     1       5.943   5.916   9.776  1.00  0.00     0.029 A 
ATOM     38  N   UNL     1       6.033   7.322  11.513  1.00  0.00    -0.354 N 
ATOM     39  C   UNL     1       6.640   5.896  15.530  1.00  0.00     0.074 A 
ATOM     40  C   UNL     1       6.821   4.461  15.555  1.00  0.00     0.031 C 
ATOM     41  C   UNL     1       5.728   7.155   9.305  1.00  0.00     0.029 A 
ATOM     42  C   UNL     1       5.756   8.102  10.417  1.00  0.00     0.049 A 
ATOM     43  H   UNL     1       6.135   7.687  12.422  1.00  0.00     0.167 HD
ATOM     44  C   UNL     1       6.670   6.687  16.629  1.00  0.00     0.037 A 
ATOM     45  C   UNL     1       5.537   9.427  10.319  1.00  0.00     0.037 A 
ATOM     46  C   UNL     1       6.546   8.120  16.607  1.00  0.00     0.049 A 
ATOM     47  C   UNL     1       5.605  10.286  11.551  1.00  0.00     0.074 A 
ATOM     48  C   UNL     1       6.645   9.010  17.663  1.00  0.00     0.029 A 
ATOM     49  N   UNL     1       6.300   8.873  15.471  1.00  0.00    -0.354 N 
ATOM     50  N   UNL     1       5.838   9.934  12.792  1.00  0.00    -0.248 NA
ATOM     51  C   UNL     1       5.384  11.729  11.368  1.00  0.00     0.031 C 
ATOM     52  C   UNL     1       6.428  10.301  17.170  1.00  0.00     0.029 A 
ATOM     53  C   UNL     1       6.229  10.216  15.802  1.00  0.00     0.049 A 
ATOM     54  H   UNL     1       6.193   8.508  14.563  1.00  0.00     0.167 HD
ATOM     55  C   UNL     1       5.814  11.110  13.531  1.00  0.00     0.074 A 
ATOM     56  C   UNL     1       5.558  12.188  12.600  1.00  0.00     0.031 C 
ATOM     57  C   UNL     1       5.985  11.280  14.864  1.00  0.00     0.037 A 
BRANCH  44  58
ATOM     58  C   UNL     1       6.855   6.021  17.961  1.00  0.00     0.057 A 
ATOM     59  C   UNL     1       8.092   5.504  18.363  1.00  0.00     0.134 A 
ATOM     60  C   UNL     1       5.796   5.952  18.876  1.00  0.00     0.134 A 
ATOM     61  F   UNL     1       9.143   5.532  17.529  1.00  0.00    -0.206 F 
ATOM     62  C   UNL     1       8.267   4.926  19.621  1.00  0.00     0.040 A 
ATOM     63  C   UNL     1       5.964   5.396  20.145  1.00  0.00     0.040 A 
ATOM     64  F   UNL     1       4.587   6.437  18.556  1.00  0.00    -0.206 F 
ATOM     65  C   UNL     1       7.202   4.878  20.519  1.00  0.00     0.006 A 
ENDBRANCH  44  58
BRANCH  45  66
ATOM     66  C   UNL     1       5.240  10.035   8.998  1.00  0.00     0.057 A 
ATOM     67  C   UNL     1       6.177  10.847   8.349  1.00  0.00     0.134 A 
ATOM     68  C   UNL     1       4.008   9.836   8.366  1.00  0.00     0.134 A 
ATOM     69  F   UNL     1       7.367  11.092   8.917  1.00  0.00    -0.206 F 
ATOM     70  C   UNL     1       5.892  11.457   7.126  1.00  0.00     0.040 A 
ATOM     71  C   UNL     1       3.717  10.422   7.133  1.00  0.00     0.040 A 
ATOM     72  F   UNL     1       3.070   9.066   8.937  1.00  0.00    -0.206 F 
ATOM     73  C   UNL     1       4.659  11.241   6.513  1.00  0.00     0.006 A 
ENDBRANCH  45  66
BRANCH  57  74
ATOM     74  C   UNL     1       5.931  12.682  15.391  1.00  0.00     0.057 A 
ATOM     75  C   UNL     1       4.720  13.372  15.523  1.00  0.00     0.134 A 
ATOM     76  C   UNL     1       7.098  13.334  15.807  1.00  0.00     0.134 A 
ATOM     77  F   UNL     1       3.569  12.806  15.130  1.00  0.00    -0.206 F 
ATOM     78  C   UNL     1       4.674  14.669  16.035  1.00  0.00     0.040 A 
ATOM     79  C   UNL     1       7.062  14.623  16.340  1.00  0.00     0.040 A 
ATOM     80  F   UNL     1       8.290  12.724  15.714  1.00  0.00    -0.206 F 
ATOM     81  C   UNL     1       5.847  15.296  16.451  1.00  0.00     0.006 A 
ENDBRANCH  57  74
ENDBRANCH  31  32
ENDBRANCH  23  26
ENDBRANCH  21  22
ENDBRANCH  20  21
ENDBRANCH   1  20
TORSDOF 14
