REMARK SMILES O=C(N[C@@H]1C=C[C@@H](C(=O)NCCCNC(=O)c2ccc(-c3c4nc(c(-c5c(F)cccc5F)c5ccc([nH]5)c(-c5c(F)cccc5F)c5nc(c(-c6c(F)cccc6F)c6ccc3[nH]6)C=C5)C=C4)cc2)C1)Oc1ccccc1
REMARK SMILES IDX 11 1 10 2 8 3 9 4 7 6 4 7 5 8 71 9 6 10 3 11 1 12 2 13 72 15
REMARK SMILES IDX 73 16 74 17 78 18 75 19 77 20 76 21 12 22 13 23 14 24 15 25
REMARK SMILES IDX 16 27 17 28 18 29 70 30 19 31 69 32 20 33 21 34 22 35 63 36
REMARK SMILES IDX 23 37 68 38 62 39 64 40 24 41 67 42 61 43 60 44 25 46 51 47
REMARK SMILES IDX 34 48 50 49 35 50 38 51 49 52 65 53 36 54 37 55 48 57 66 58
REMARK SMILES IDX 39 59 26 60 27 61 32 62 28 63 29 64 31 65 33 66 30 67 52 68
REMARK SMILES IDX 53 69 58 70 54 71 55 72 57 73 59 74 56 75 40 76 41 77 46 78
REMARK SMILES IDX 42 79 43 80 45 81 47 82 44 83
REMARK H PARENT 10 5 3 14 14 26 64 45 38 56
REMARK Flexibility Score: inf
ROOT
ATOM      1  C   UNL     1       4.382  -3.018   3.910  1.00  0.00     0.117 C 
ENDROOT
BRANCH   1   2
ATOM      2  N   UNL     1       5.574  -3.702   3.445  1.00  0.00    -0.356 N 
ATOM      3  C   UNL     1       6.598  -3.314   2.641  1.00  0.00     0.227 C 
ATOM      4  O   UNL     1       7.497  -4.143   2.462  1.00  0.00    -0.274 OA
ATOM      5  H   UNL     1       5.657  -4.625   3.776  1.00  0.00     0.163 HD
BRANCH   3   6
ATOM      6  C   UNL     1       6.679  -1.948   1.949  1.00  0.00     0.103 C 
ATOM      7  C   UNL     1       4.887  -0.385   1.318  1.00  0.00     0.109 C 
ATOM      8  C   UNL     1       5.678   0.105   2.488  1.00  0.00    -0.006 C 
ATOM      9  C   UNL     1       5.587  -1.685   0.903  1.00  0.00     0.047 C 
ATOM     10  C   UNL     1       6.628  -0.760   2.857  1.00  0.00    -0.016 C 
BRANCH   7  11
ATOM     11  N   UNL     1       4.912   0.639   0.304  1.00  0.00    -0.315 N 
ATOM     12  O   UNL     1       4.447   1.747  -1.581  1.00  0.00    -0.224 OA
ATOM     13  C   UNL     1       4.113   0.875  -0.777  1.00  0.00     0.413 C 
ATOM     14  H   UNL     1       5.642   1.291   0.412  1.00  0.00     0.167 HD
BRANCH  13  15
ATOM     15  O   UNL     1       2.963   0.106  -1.016  1.00  0.00    -0.410 OA
BRANCH  15  16
ATOM     16  C   UNL     1       2.132  -0.646  -0.151  1.00  0.00     0.132 A 
ATOM     17  C   UNL     1       1.830  -1.947  -0.545  1.00  0.00     0.047 A 
ATOM     18  C   UNL     1       1.585  -0.084   0.999  1.00  0.00     0.047 A 
ATOM     19  C   UNL     1       1.011  -2.728   0.266  1.00  0.00     0.004 A 
ATOM     20  C   UNL     1       0.786  -0.880   1.820  1.00  0.00     0.004 A 
ATOM     21  C   UNL     1       0.499  -2.199   1.453  1.00  0.00     0.000 A 
ENDBRANCH  15  16
ENDBRANCH  13  15
ENDBRANCH   7  11
ENDBRANCH   3   6
ENDBRANCH   1   2
BRANCH   1  22
ATOM     22  C   UNL     1       3.113  -3.580   3.282  1.00  0.00     0.042 C 
BRANCH  22  23
ATOM     23  C   UNL     1       2.737  -4.983   3.752  1.00  0.00     0.118 C 
BRANCH  23  24
ATOM     24  N   UNL     1       2.118  -4.974   5.071  1.00  0.00    -0.352 N 
ATOM     25  C   UNL     1       0.826  -5.232   5.461  1.00  0.00     0.251 C 
ATOM     26  H   UNL     1       2.729  -4.744   5.807  1.00  0.00     0.163 HD
ATOM     27  O   UNL     1       0.478  -4.930   6.601  1.00  0.00    -0.269 OA
BRANCH  25  28
ATOM     28  C   UNL     1      -0.162  -5.855   4.544  1.00  0.00     0.039 A 
ATOM     29  C   UNL     1      -1.506  -5.469   4.639  1.00  0.00     0.014 A 
ATOM     30  C   UNL     1       0.194  -6.868   3.652  1.00  0.00     0.014 A 
ATOM     31  C   UNL     1      -2.470  -6.053   3.808  1.00  0.00     0.010 A 
ATOM     32  C   UNL     1      -0.752  -7.391   2.768  1.00  0.00     0.010 A 
ATOM     33  C   UNL     1      -2.097  -6.998   2.842  1.00  0.00    -0.014 A 
BRANCH  33  34
ATOM     34  C   UNL     1      -3.088  -7.610   1.914  1.00  0.00     0.031 A 
ATOM     35  C   UNL     1      -3.334  -9.096   1.940  1.00  0.00     0.074 A 
ATOM     36  C   UNL     1      -3.709  -6.849   0.992  1.00  0.00     0.049 A 
ATOM     37  N   UNL     1      -4.057  -9.833   1.133  1.00  0.00    -0.248 NA
ATOM     38  C   UNL     1      -2.654  -9.857   2.999  1.00  0.00     0.031 C 
ATOM     39  C   UNL     1      -3.557  -5.401   0.845  1.00  0.00     0.029 A 
ATOM     40  N   UNL     1      -4.585  -7.194  -0.009  1.00  0.00    -0.354 N 
ATOM     41  C   UNL     1      -3.895 -11.143   1.569  1.00  0.00     0.074 A 
ATOM     42  C   UNL     1      -2.970 -11.104   2.682  1.00  0.00     0.031 C 
ATOM     43  C   UNL     1      -4.329  -4.979  -0.168  1.00  0.00     0.029 A 
ATOM     44  C   UNL     1      -4.990  -6.129  -0.778  1.00  0.00     0.049 A 
ATOM     45  H   UNL     1      -4.894  -8.116  -0.161  1.00  0.00     0.167 HD
ATOM     46  C   UNL     1      -4.473 -12.274   1.097  1.00  0.00     0.037 A 
ATOM     47  C   UNL     1      -5.791  -6.085  -1.861  1.00  0.00     0.037 A 
ATOM     48  C   UNL     1      -5.412 -12.310   0.005  1.00  0.00     0.049 A 
ATOM     49  C   UNL     1      -6.384  -7.359  -2.397  1.00  0.00     0.074 A 
ATOM     50  C   UNL     1      -6.100 -13.397  -0.505  1.00  0.00     0.029 A 
ATOM     51  N   UNL     1      -5.787 -11.210  -0.752  1.00  0.00    -0.354 N 
ATOM     52  N   UNL     1      -6.267  -8.583  -1.941  1.00  0.00    -0.248 NA
ATOM     53  C   UNL     1      -7.220  -7.246  -3.601  1.00  0.00     0.031 C 
ATOM     54  C   UNL     1      -6.844 -12.967  -1.608  1.00  0.00     0.029 A 
ATOM     55  C   UNL     1      -6.670 -11.599  -1.746  1.00  0.00     0.049 A 
ATOM     56  H   UNL     1      -5.472 -10.289  -0.605  1.00  0.00     0.167 HD
ATOM     57  C   UNL     1      -7.046  -9.377  -2.775  1.00  0.00     0.074 A 
ATOM     58  C   UNL     1      -7.630  -8.496  -3.765  1.00  0.00     0.031 C 
ATOM     59  C   UNL     1      -7.262 -10.713  -2.718  1.00  0.00     0.037 A 
BRANCH  46  60
ATOM     60  C   UNL     1      -4.089 -13.573   1.749  1.00  0.00     0.057 A 
ATOM     61  C   UNL     1      -4.453 -13.883   3.067  1.00  0.00     0.134 A 
ATOM     62  C   UNL     1      -3.356 -14.536   1.042  1.00  0.00     0.134 A 
ATOM     63  F   UNL     1      -5.149 -13.005   3.804  1.00  0.00    -0.206 F 
ATOM     64  C   UNL     1      -4.067 -15.082   3.670  1.00  0.00     0.040 A 
ATOM     65  C   UNL     1      -2.993 -15.753   1.623  1.00  0.00     0.040 A 
ATOM     66  F   UNL     1      -2.984 -14.313  -0.228  1.00  0.00    -0.206 F 
ATOM     67  C   UNL     1      -3.338 -16.023   2.945  1.00  0.00     0.006 A 
ENDBRANCH  46  60
BRANCH  47  68
ATOM     68  C   UNL     1      -6.102  -4.781  -2.500  1.00  0.00     0.057 A 
ATOM     69  C   UNL     1      -7.390  -4.236  -2.422  1.00  0.00     0.134 A 
ATOM     70  C   UNL     1      -5.135  -4.052  -3.202  1.00  0.00     0.134 A 
ATOM     71  F   UNL     1      -8.364  -4.898  -1.780  1.00  0.00    -0.206 F 
ATOM     72  C   UNL     1      -7.708  -3.021  -3.029  1.00  0.00     0.040 A 
ATOM     73  C   UNL     1      -5.433  -2.822  -3.792  1.00  0.00     0.040 A 
ATOM     74  F   UNL     1      -3.882  -4.517  -3.309  1.00  0.00    -0.206 F 
ATOM     75  C   UNL     1      -6.726  -2.307  -3.712  1.00  0.00     0.006 A 
ENDBRANCH  47  68
BRANCH  59  76
ATOM     76  C   UNL     1      -8.214 -11.309  -3.715  1.00  0.00     0.057 A 
ATOM     77  C   UNL     1      -7.882 -11.457  -5.067  1.00  0.00     0.134 A 
ATOM     78  C   UNL     1      -9.459 -11.799  -3.299  1.00  0.00     0.134 A 
ATOM     79  F   UNL     1      -6.711 -10.997  -5.535  1.00  0.00    -0.206 F 
ATOM     80  C   UNL     1      -8.759 -12.059  -5.972  1.00  0.00     0.040 A 
ATOM     81  C   UNL     1     -10.333 -12.428  -4.187  1.00  0.00     0.040 A 
ATOM     82  F   UNL     1      -9.838 -11.696  -2.016  1.00  0.00    -0.206 F 
ATOM     83  C   UNL     1      -9.985 -12.556  -5.530  1.00  0.00     0.006 A 
ENDBRANCH  59  76
ENDBRANCH  33  34
ENDBRANCH  25  28
ENDBRANCH  23  24
ENDBRANCH  22  23
ENDBRANCH   1  22
TORSDOF 13
