REMARK SMILES O=C(Nc1cccc(C(=O)NCCCNC(=O)c2ccc(-c3c4nc(c(-c5c(F)cccc5F)c5ccc([nH]5)c(-c5c(F)cccc5F)c5nc(c(-c6c(F)cccc6F)c6ccc3[nH]6)C=C5)C=C4)cc2)c1)Nc1cc(Cl)c(Cl)cc1Cl
REMARK SMILES IDX 13 1 12 2 11 3 9 4 10 5 8 7 4 8 5 9 72 10 6 11 7 12 3 13
REMARK SMILES IDX 1 14 2 15 73 16 74 19 75 20 81 21 76 22 80 23 82 24 77 25
REMARK SMILES IDX 78 26 79 27 14 28 15 29 16 30 17 32 18 33 19 34 71 35 20 36
REMARK SMILES IDX 70 37 21 38 22 39 23 40 64 41 24 42 69 43 63 44 65 45 25 46
REMARK SMILES IDX 68 47 62 48 61 49 26 51 52 52 35 53 51 54 36 55 39 56 50 57
REMARK SMILES IDX 66 58 37 59 38 60 49 62 67 63 40 64 27 65 28 66 33 67 29 68
REMARK SMILES IDX 30 69 32 70 34 71 31 72 53 73 54 74 59 75 55 76 56 77 58 78
REMARK SMILES IDX 60 79 57 80 41 81 42 82 47 83 43 84 44 85 46 86 48 87 45 88
REMARK H PARENT 11 6 3 17 73 18 15 31 65 50 39 61
REMARK Flexibility Score: inf
ROOT
ATOM      1  C   UNL     1       4.425  -3.380  -1.887  1.00  0.00     0.042 C 
ENDROOT
BRANCH   1   2
ATOM      2  C   UNL     1       5.349  -3.022  -0.723  1.00  0.00     0.118 C 
BRANCH   2   3
ATOM      3  N   UNL     1       6.621  -2.517  -1.200  1.00  0.00    -0.352 N 
ATOM      4  C   UNL     1       7.108  -1.258  -1.436  1.00  0.00     0.251 C 
ATOM      5  O   UNL     1       8.272  -1.184  -1.836  1.00  0.00    -0.269 OA
ATOM      6  H   UNL     1       7.273  -3.229  -1.395  1.00  0.00     0.163 HD
BRANCH   4   7
ATOM      7  C   UNL     1       6.347   0.006  -1.199  1.00  0.00     0.041 A 
ATOM      8  C   UNL     1       4.339   1.313  -0.748  1.00  0.00     0.043 A 
ATOM      9  C   UNL     1       5.090   2.486  -0.737  1.00  0.00     0.026 A 
ATOM     10  C   UNL     1       4.962   0.097  -1.055  1.00  0.00     0.040 A 
ATOM     11  C   UNL     1       6.470   2.426  -0.926  1.00  0.00     0.003 A 
ATOM     12  C   UNL     1       7.093   1.194  -1.133  1.00  0.00     0.014 A 
BRANCH   8  13
ATOM     13  N   UNL     1       2.964   1.396  -0.463  1.00  0.00    -0.308 N 
ATOM     14  O   UNL     1       0.910   0.638   0.053  1.00  0.00    -0.248 OA
ATOM     15  C   UNL     1       2.122   0.450   0.078  1.00  0.00     0.323 C 
ATOM     16  N   UNL     1       2.747  -0.557   0.774  1.00  0.00    -0.306 N 
ATOM     17  H   UNL     1       2.541   2.257  -0.684  1.00  0.00     0.171 HD
ATOM     18  H   UNL     1       3.719  -0.468   0.901  1.00  0.00     0.171 HD
BRANCH  16  19
ATOM     19  C   UNL     1       2.142  -1.708   1.327  1.00  0.00     0.063 A 
ATOM     20  C   UNL     1       2.694  -2.162   2.536  1.00  0.00     0.049 A 
ATOM     21  C   UNL     1       1.089  -2.441   0.750  1.00  0.00     0.066 A 
ATOM     22  C   UNL     1       2.160  -3.272   3.201  1.00  0.00     0.061 A 
ATOM     23  C   UNL     1       0.555  -3.550   1.420  1.00  0.00     0.044 A 
ATOM     24  Cl  UNL     1       0.521  -2.180  -0.862  1.00  0.00    -0.082 Cl
ATOM     25  Cl  UNL     1       2.888  -3.734   4.698  1.00  0.00    -0.083 Cl
ATOM     26  C   UNL     1       1.077  -3.958   2.650  1.00  0.00     0.061 A 
ATOM     27  Cl  UNL     1       0.361  -5.328   3.418  1.00  0.00    -0.083 Cl
ENDBRANCH  16  19
ENDBRANCH   8  13
ENDBRANCH   4   7
ENDBRANCH   2   3
ENDBRANCH   1   2
BRANCH   1  28
ATOM     28  C   UNL     1       4.749  -4.741  -2.496  1.00  0.00     0.118 C 
BRANCH  28  29
ATOM     29  N   UNL     1       4.418  -5.827  -1.582  1.00  0.00    -0.352 N 
ATOM     30  C   UNL     1       3.539  -6.870  -1.733  1.00  0.00     0.251 C 
ATOM     31  H   UNL     1       4.899  -5.810  -0.723  1.00  0.00     0.163 HD
ATOM     32  O   UNL     1       3.201  -7.523  -0.751  1.00  0.00    -0.269 OA
BRANCH  30  33
ATOM     33  C   UNL     1       3.001  -7.208  -3.067  1.00  0.00     0.039 A 
ATOM     34  C   UNL     1       1.663  -7.594  -3.180  1.00  0.00     0.014 A 
ATOM     35  C   UNL     1       3.823  -7.188  -4.197  1.00  0.00     0.014 A 
ATOM     36  C   UNL     1       1.134  -7.904  -4.434  1.00  0.00     0.010 A 
ATOM     37  C   UNL     1       3.278  -7.424  -5.454  1.00  0.00     0.010 A 
ATOM     38  C   UNL     1       1.929  -7.789  -5.585  1.00  0.00    -0.014 A 
BRANCH  38  39
ATOM     39  C   UNL     1       1.377  -8.041  -6.939  1.00  0.00     0.031 A 
ATOM     40  C   UNL     1       1.919  -9.165  -7.777  1.00  0.00     0.074 A 
ATOM     41  C   UNL     1       0.449  -7.205  -7.443  1.00  0.00     0.049 A 
ATOM     42  N   UNL     1       1.651  -9.474  -9.020  1.00  0.00    -0.248 NA
ATOM     43  C   UNL     1       2.918 -10.040  -7.143  1.00  0.00     0.031 C 
ATOM     44  C   UNL     1      -0.122  -6.053  -6.743  1.00  0.00     0.029 A 
ATOM     45  N   UNL     1      -0.163  -7.184  -8.671  1.00  0.00    -0.354 N 
ATOM     46  C   UNL     1       2.461 -10.561  -9.322  1.00  0.00     0.074 A 
ATOM     47  C   UNL     1       3.266 -10.828  -8.149  1.00  0.00     0.031 C 
ATOM     48  C   UNL     1      -1.013  -5.448  -7.545  1.00  0.00     0.029 A 
ATOM     49  C   UNL     1      -1.044  -6.141  -8.828  1.00  0.00     0.049 A 
ATOM     50  H   UNL     1       0.011  -7.853  -9.372  1.00  0.00     0.167 HD
ATOM     51  C   UNL     1       2.515 -11.284 -10.466  1.00  0.00     0.037 A 
ATOM     52  C   UNL     1      -1.781  -5.777  -9.894  1.00  0.00     0.037 A 
ATOM     53  C   UNL     1       1.692 -11.030 -11.620  1.00  0.00     0.049 A 
ATOM     54  C   UNL     1      -1.700  -6.591 -11.155  1.00  0.00     0.074 A 
ATOM     55  C   UNL     1       1.624 -11.741 -12.804  1.00  0.00     0.029 A 
ATOM     56  N   UNL     1       0.794  -9.979 -11.731  1.00  0.00    -0.354 N 
ATOM     57  N   UNL     1      -0.976  -7.655 -11.405  1.00  0.00    -0.248 NA
ATOM     58  C   UNL     1      -2.539  -6.157 -12.280  1.00  0.00     0.031 C 
ATOM     59  C   UNL     1       0.717 -11.095 -13.650  1.00  0.00     0.029 A 
ATOM     60  C   UNL     1       0.183 -10.010 -12.974  1.00  0.00     0.049 A 
ATOM     61  H   UNL     1       0.617  -9.309 -11.031  1.00  0.00     0.167 HD
ATOM     62  C   UNL     1      -1.293  -8.035 -12.703  1.00  0.00     0.074 A 
ATOM     63  C   UNL     1      -2.284  -7.093 -13.183  1.00  0.00     0.031 C 
ATOM     64  C   UNL     1      -0.809  -9.070 -13.431  1.00  0.00     0.037 A 
BRANCH  51  65
ATOM     65  C   UNL     1       3.495 -12.420 -10.525  1.00  0.00     0.057 A 
ATOM     66  C   UNL     1       3.320 -13.588  -9.771  1.00  0.00     0.134 A 
ATOM     67  C   UNL     1       4.611 -12.360 -11.370  1.00  0.00     0.134 A 
ATOM     68  F   UNL     1       2.279 -13.706  -8.933  1.00  0.00    -0.206 F 
ATOM     69  C   UNL     1       4.233 -14.642  -9.833  1.00  0.00     0.040 A 
ATOM     70  C   UNL     1       5.515 -13.419 -11.463  1.00  0.00     0.040 A 
ATOM     71  F   UNL     1       4.836 -11.274 -12.126  1.00  0.00    -0.206 F 
ATOM     72  C   UNL     1       5.331 -14.562 -10.687  1.00  0.00     0.006 A 
ENDBRANCH  51  65
BRANCH  52  73
ATOM     73  C   UNL     1      -2.675  -4.594  -9.809  1.00  0.00     0.057 A 
ATOM     74  C   UNL     1      -4.067  -4.743  -9.797  1.00  0.00     0.134 A 
ATOM     75  C   UNL     1      -2.165  -3.292  -9.738  1.00  0.00     0.134 A 
ATOM     76  F   UNL     1      -4.615  -5.964  -9.879  1.00  0.00    -0.206 F 
ATOM     77  C   UNL     1      -4.920  -3.640  -9.737  1.00  0.00     0.040 A 
ATOM     78  C   UNL     1      -3.006  -2.182  -9.653  1.00  0.00     0.040 A 
ATOM     79  F   UNL     1      -0.840  -3.083  -9.737  1.00  0.00    -0.206 F 
ATOM     80  C   UNL     1      -4.389  -2.354  -9.660  1.00  0.00     0.006 A 
ENDBRANCH  52  73
BRANCH  64  81
ATOM     81  C   UNL     1      -1.371  -9.264 -14.808  1.00  0.00     0.057 A 
ATOM     82  C   UNL     1      -1.043  -8.411 -15.868  1.00  0.00     0.134 A 
ATOM     83  C   UNL     1      -2.212 -10.350 -15.086  1.00  0.00     0.134 A 
ATOM     84  F   UNL     1      -0.253  -7.345 -15.665  1.00  0.00    -0.206 F 
ATOM     85  C   UNL     1      -1.546  -8.620 -17.153  1.00  0.00     0.040 A 
ATOM     86  C   UNL     1      -2.700 -10.584 -16.372  1.00  0.00     0.040 A 
ATOM     87  F   UNL     1      -2.558 -11.210 -14.116  1.00  0.00    -0.206 F 
ATOM     88  C   UNL     1      -2.370  -9.714 -17.409  1.00  0.00     0.006 A 
ENDBRANCH  64  81
ENDBRANCH  38  39
ENDBRANCH  30  33
ENDBRANCH  28  29
ENDBRANCH   1  28
TORSDOF 12
