REMARK SMILES Cc1cc(C)n(-c2nc(C)c(C)c(Oc3cccc(C(=O)NCCCNC(=O)c4ccc(-c5c6nc(c(-c7c(F)cccc7F)c7ccc([nH]7)c(-c7c(F)cccc7F)c7nc(c(-c8c(F)cccc8F)c8ccc5[nH]8)C=C7)C=C6)cc4)c3)n2)n1
REMARK SMILES IDX 23 1 22 2 20 3 21 4 19 6 15 7 16 8 83 9 17 10 18 11 14 12
REMARK SMILES IDX 13 13 7 14 8 15 84 16 9 17 10 18 11 19 12 20 6 21 1 22 2 23
REMARK SMILES IDX 3 24 85 25 4 26 5 27 24 28 25 29 26 30 27 31 28 33 29 34
REMARK SMILES IDX 30 35 82 36 31 37 81 38 32 39 33 40 34 41 75 42 35 43 80 44
REMARK SMILES IDX 74 45 76 46 36 47 79 48 73 49 72 50 37 52 63 53 46 54 62 55
REMARK SMILES IDX 47 56 50 57 61 58 77 59 48 60 49 61 60 63 78 64 51 65 38 66
REMARK SMILES IDX 39 67 44 68 40 69 41 70 43 71 45 72 42 73 64 74 65 75 70 76
REMARK SMILES IDX 66 77 67 78 69 79 71 80 68 81 52 82 53 83 58 84 54 85 55 86
REMARK SMILES IDX 57 87 59 88 56 89
REMARK H PARENT 22 5 26 32 76 51 50 62
REMARK Flexibility Score: inf
ROOT
ATOM      1  C   UNL     1      -3.708   4.852   0.784  1.00  0.00     0.118 C 
ENDROOT
BRANCH   1   2
ATOM      2  N   UNL     1      -4.384   5.048  -0.488  1.00  0.00    -0.352 N 
ATOM      3  C   UNL     1      -4.018   5.686  -1.648  1.00  0.00     0.251 C 
ATOM      4  O   UNL     1      -4.821   5.643  -2.582  1.00  0.00    -0.269 OA
ATOM      5  H   UNL     1      -5.281   4.644  -0.525  1.00  0.00     0.163 HD
BRANCH   3   6
ATOM      6  C   UNL     1      -2.712   6.383  -1.848  1.00  0.00     0.043 A 
ATOM      7  C   UNL     1      -0.616   7.358  -1.103  1.00  0.00     0.130 A 
ATOM      8  C   UNL     1      -0.234   7.595  -2.420  1.00  0.00     0.047 A 
ATOM      9  C   UNL     1      -1.880   6.831  -0.822  1.00  0.00     0.061 A 
ATOM     10  C   UNL     1      -1.086   7.233  -3.460  1.00  0.00     0.005 A 
ATOM     11  C   UNL     1      -2.306   6.612  -3.175  1.00  0.00     0.014 A 
BRANCH   7  12
ATOM     12  O   UNL     1       0.260   7.743  -0.116  1.00  0.00    -0.439 OA
BRANCH  12  13
ATOM     13  C   UNL     1       0.514   6.852   0.931  1.00  0.00     0.227 A 
ATOM     14  C   UNL     1       0.513   4.737   1.805  1.00  0.00     0.254 A 
ATOM     15  N   UNL     1       0.968   5.184   2.996  1.00  0.00    -0.216 NA
ATOM     16  N   UNL     1       0.303   5.532   0.740  1.00  0.00    -0.175 NA
ATOM     17  C   UNL     1       1.292   6.489   3.107  1.00  0.00     0.050 A 
ATOM     18  C   UNL     1       2.058   6.833   4.351  1.00  0.00     0.067 C 
ATOM     19  C   UNL     1       1.025   7.402   2.099  1.00  0.00     0.033 A 
ATOM     20  C   UNL     1       1.303   8.865   2.245  1.00  0.00     0.052 C 
BRANCH  14  21
ATOM     21  N   UNL     1       0.275   3.321   1.694  1.00  0.00    -0.203 N 
ATOM     22  C   UNL     1       0.875   0.284  -0.063  1.00  0.00     0.069 C 
ATOM     23  C   UNL     1       0.472   1.348   0.890  1.00  0.00     0.060 A 
ATOM     24  C   UNL     1       0.039   1.181   2.219  1.00  0.00     0.049 A 
ATOM     25  N   UNL     1       0.494   2.637   0.532  1.00  0.00    -0.170 NA
ATOM     26  C   UNL     1      -0.122   2.457   2.711  1.00  0.00     0.045 A 
ATOM     27  C   UNL     1      -0.645   2.909   4.025  1.00  0.00     0.067 C 
ENDBRANCH  14  21
ENDBRANCH  12  13
ENDBRANCH   7  12
ENDBRANCH   3   6
ENDBRANCH   1   2
BRANCH   1  28
ATOM     28  C   UNL     1      -4.058   5.967   1.780  1.00  0.00     0.042 C 
BRANCH  28  29
ATOM     29  C   UNL     1      -5.327   5.660   2.558  1.00  0.00     0.118 C 
BRANCH  29  30
ATOM     30  N   UNL     1      -5.122   4.590   3.536  1.00  0.00    -0.352 N 
ATOM     31  C   UNL     1      -6.060   3.933   4.310  1.00  0.00     0.251 C 
ATOM     32  H   UNL     1      -4.190   4.299   3.659  1.00  0.00     0.163 HD
ATOM     33  O   UNL     1      -5.731   3.308   5.301  1.00  0.00    -0.269 OA
BRANCH  31  34
ATOM     34  C   UNL     1      -7.475   4.021   3.911  1.00  0.00     0.039 A 
ATOM     35  C   UNL     1      -8.471   4.279   4.856  1.00  0.00     0.014 A 
ATOM     36  C   UNL     1      -7.780   3.904   2.559  1.00  0.00     0.014 A 
ATOM     37  C   UNL     1      -9.769   4.513   4.411  1.00  0.00     0.010 A 
ATOM     38  C   UNL     1      -9.019   4.291   2.114  1.00  0.00     0.010 A 
ATOM     39  C   UNL     1     -10.032   4.548   3.032  1.00  0.00    -0.014 A 
BRANCH  39  40
ATOM     40  C   UNL     1     -11.351   4.932   2.539  1.00  0.00     0.031 A 
ATOM     41  C   UNL     1     -11.901   6.210   3.076  1.00  0.00     0.074 A 
ATOM     42  C   UNL     1     -11.969   4.300   1.520  1.00  0.00     0.049 A 
ATOM     43  N   UNL     1     -12.944   6.375   3.821  1.00  0.00    -0.248 NA
ATOM     44  C   UNL     1     -11.145   7.447   2.830  1.00  0.00     0.031 C 
ATOM     45  C   UNL     1     -11.468   3.217   0.663  1.00  0.00     0.029 A 
ATOM     46  N   UNL     1     -13.186   4.572   0.976  1.00  0.00    -0.354 N 
ATOM     47  C   UNL     1     -13.090   7.750   3.992  1.00  0.00     0.074 A 
ATOM     48  C   UNL     1     -11.880   8.347   3.487  1.00  0.00     0.031 C 
ATOM     49  C   UNL     1     -12.271   3.080  -0.414  1.00  0.00     0.029 A 
ATOM     50  C   UNL     1     -13.436   3.921  -0.222  1.00  0.00     0.049 A 
ATOM     51  H   UNL     1     -13.835   5.180   1.398  1.00  0.00     0.167 HD
ATOM     52  C   UNL     1     -14.284   8.302   4.349  1.00  0.00     0.037 A 
ATOM     53  C   UNL     1     -14.529   4.057  -1.006  1.00  0.00     0.037 A 
ATOM     54  C   UNL     1     -15.172   7.312   4.904  1.00  0.00     0.049 A 
ATOM     55  C   UNL     1     -15.614   4.592  -0.151  1.00  0.00     0.074 A 
ATOM     56  C   UNL     1     -15.126   6.466   5.996  1.00  0.00     0.029 A 
ATOM     57  N   UNL     1     -16.168   6.817   4.100  1.00  0.00    -0.354 N 
ATOM     58  N   UNL     1     -16.160   3.928   0.830  1.00  0.00    -0.248 NA
ATOM     59  C   UNL     1     -15.794   6.033  -0.107  1.00  0.00     0.031 C 
ATOM     60  C   UNL     1     -15.726   5.253   5.545  1.00  0.00     0.029 A 
ATOM     61  C   UNL     1     -16.148   5.452   4.229  1.00  0.00     0.049 A 
ATOM     62  H   UNL     1     -16.781   7.343   3.537  1.00  0.00     0.167 HD
ATOM     63  C   UNL     1     -16.382   4.875   1.819  1.00  0.00     0.074 A 
ATOM     64  C   UNL     1     -16.233   6.164   1.147  1.00  0.00     0.031 C 
ATOM     65  C   UNL     1     -16.393   4.532   3.141  1.00  0.00     0.037 A 
BRANCH  52  66
ATOM     66  C   UNL     1     -14.781   9.653   3.888  1.00  0.00     0.057 A 
ATOM     67  C   UNL     1     -15.979  10.169   4.419  1.00  0.00     0.134 A 
ATOM     68  C   UNL     1     -14.296  10.329   2.751  1.00  0.00     0.134 A 
ATOM     69  F   UNL     1     -16.556   9.608   5.492  1.00  0.00    -0.206 F 
ATOM     70  C   UNL     1     -16.676  11.227   3.820  1.00  0.00     0.040 A 
ATOM     71  C   UNL     1     -14.957  11.419   2.175  1.00  0.00     0.040 A 
ATOM     72  F   UNL     1     -13.218   9.917   2.075  1.00  0.00    -0.206 F 
ATOM     73  C   UNL     1     -16.168  11.851   2.688  1.00  0.00     0.006 A 
ENDBRANCH  52  66
BRANCH  53  74
ATOM     74  C   UNL     1     -14.604   4.016  -2.480  1.00  0.00     0.057 A 
ATOM     75  C   UNL     1     -15.824   3.836  -3.142  1.00  0.00     0.134 A 
ATOM     76  C   UNL     1     -13.519   4.428  -3.276  1.00  0.00     0.134 A 
ATOM     77  F   UNL     1     -16.921   3.480  -2.458  1.00  0.00    -0.206 F 
ATOM     78  C   UNL     1     -15.967   4.079  -4.514  1.00  0.00     0.040 A 
ATOM     79  C   UNL     1     -13.647   4.669  -4.647  1.00  0.00     0.040 A 
ATOM     80  F   UNL     1     -12.323   4.695  -2.732  1.00  0.00    -0.206 F 
ATOM     81  C   UNL     1     -14.880   4.510  -5.269  1.00  0.00     0.006 A 
ENDBRANCH  53  74
BRANCH  65  82
ATOM     82  C   UNL     1     -16.390   3.067   3.493  1.00  0.00     0.057 A 
ATOM     83  C   UNL     1     -15.311   2.206   3.239  1.00  0.00     0.134 A 
ATOM     84  C   UNL     1     -17.427   2.558   4.280  1.00  0.00     0.134 A 
ATOM     85  F   UNL     1     -14.230   2.627   2.576  1.00  0.00    -0.206 F 
ATOM     86  C   UNL     1     -15.278   0.894   3.723  1.00  0.00     0.040 A 
ATOM     87  C   UNL     1     -17.394   1.259   4.795  1.00  0.00     0.040 A 
ATOM     88  F   UNL     1     -18.467   3.338   4.614  1.00  0.00    -0.206 F 
ATOM     89  C   UNL     1     -16.319   0.420   4.514  1.00  0.00     0.006 A 
ENDBRANCH  65  82
ENDBRANCH  39  40
ENDBRANCH  31  34
ENDBRANCH  29  30
ENDBRANCH  28  29
ENDBRANCH   1  28
TORSDOF 13
