REMARK SMILES C=CCS(=O)(=O)N[C@H](CC(N)=O)C(=O)NCCCNC(=O)c1ccc(-c2c3nc(c(-c4c(F)cccc4F)c4ccc([nH]4)c(-c4c(F)cccc4F)c4nc(c(-c5c(F)cccc5F)c5ccc2[nH]5)C=C4)C=C3)cc1
REMARK SMILES IDX 16 1 15 2 13 3 14 4 8 6 7 7 4 9 5 10 6 11 3 12 2 13 1 14
REMARK SMILES IDX 9 15 10 16 11 17 12 18 17 21 18 22 19 23 20 24 21 26 22 27
REMARK SMILES IDX 23 28 75 29 24 30 74 31 25 32 26 33 27 34 68 35 28 36 73 37
REMARK SMILES IDX 67 38 69 39 29 40 72 41 66 42 65 43 30 45 56 46 39 47 55 48
REMARK SMILES IDX 40 49 43 50 54 51 70 52 41 53 42 54 53 56 71 57 44 58 31 59
REMARK SMILES IDX 32 60 37 61 33 62 34 63 36 64 38 65 35 66 57 67 58 68 63 69
REMARK SMILES IDX 59 70 60 71 62 72 64 73 61 74 45 75 46 76 51 77 47 78 48 79
REMARK SMILES IDX 50 80 52 81 49 82
REMARK H PARENT 15 5 7 8 11 19 11 20 19 25 69 44 43 55
REMARK Flexibility Score: inf
ROOT
ATOM      1  C   UNL     1      -0.465  -2.248   5.825  1.00  0.00     0.117 C 
ENDROOT
BRANCH   1   2
ATOM      2  N   UNL     1       0.041  -2.906   4.635  1.00  0.00    -0.355 N 
ATOM      3  C   UNL     1       0.388  -2.410   3.425  1.00  0.00     0.238 C 
ATOM      4  O   UNL     1       0.728  -3.224   2.560  1.00  0.00    -0.273 OA
ATOM      5  H   UNL     1       0.150  -3.881   4.723  1.00  0.00     0.163 HD
BRANCH   3   6
ATOM      6  C   UNL     1       0.348  -0.925   3.105  1.00  0.00     0.168 C 
BRANCH   6   7
ATOM      7  N   UNL     1       0.933   0.049   4.048  1.00  0.00    -0.202 NA
ATOM      8  H   UNL     1       1.060   0.906   3.510  1.00  0.00     0.141 HD
BRANCH   7   9
ATOM      9  S   UNL     1       2.362  -0.165   4.888  1.00  0.00     0.215 S 
ATOM     10  O   UNL     1       2.284  -1.376   5.673  1.00  0.00    -0.212 OA
ATOM     11  O   UNL     1       2.543   1.103   5.563  1.00  0.00    -0.212 OA
BRANCH   9  12
ATOM     12  C   UNL     1       3.692  -0.342   3.679  1.00  0.00     0.180 C 
BRANCH  12  13
ATOM     13  C   UNL     1       3.564  -1.624   2.911  1.00  0.00    -0.017 C 
ATOM     14  C   UNL     1       3.631  -1.710   1.576  1.00  0.00     0.005 C 
ENDBRANCH  12  13
ENDBRANCH   9  12
ENDBRANCH   7   9
ENDBRANCH   6   7
BRANCH   6  15
ATOM     15  C   UNL     1      -1.026  -0.474   2.589  1.00  0.00     0.129 C 
BRANCH  15  16
ATOM     16  C   UNL     1      -2.199  -0.767   3.488  1.00  0.00     0.219 C 
ATOM     17  N   UNL     1      -2.533   0.206   4.381  1.00  0.00    -0.370 N 
ATOM     18  O   UNL     1      -2.839  -1.810   3.437  1.00  0.00    -0.275 OA
ATOM     19  H   UNL     1      -2.013   1.042   4.416  1.00  0.00     0.159 HD
ATOM     20  H   UNL     1      -3.294   0.074   4.992  1.00  0.00     0.159 HD
ENDBRANCH  15  16
ENDBRANCH   6  15
ENDBRANCH   3   6
ENDBRANCH   1   2
BRANCH   1  21
ATOM     21  C   UNL     1      -1.709  -2.945   6.338  1.00  0.00     0.042 C 
BRANCH  21  22
ATOM     22  C   UNL     1      -1.391  -4.326   6.885  1.00  0.00     0.118 C 
BRANCH  22  23
ATOM     23  N   UNL     1      -0.654  -4.264   8.142  1.00  0.00    -0.352 N 
ATOM     24  C   UNL     1      -1.061  -4.644   9.397  1.00  0.00     0.251 C 
ATOM     25  H   UNL     1       0.259  -3.901   8.083  1.00  0.00     0.163 HD
ATOM     26  O   UNL     1      -0.422  -4.319  10.391  1.00  0.00    -0.269 OA
BRANCH  24  27
ATOM     27  C   UNL     1      -2.302  -5.431   9.533  1.00  0.00     0.039 A 
ATOM     28  C   UNL     1      -3.226  -5.084  10.518  1.00  0.00     0.014 A 
ATOM     29  C   UNL     1      -2.566  -6.480   8.649  1.00  0.00     0.014 A 
ATOM     30  C   UNL     1      -4.449  -5.752  10.571  1.00  0.00     0.010 A 
ATOM     31  C   UNL     1      -3.829  -7.051   8.622  1.00  0.00     0.010 A 
ATOM     32  C   UNL     1      -4.775  -6.713   9.598  1.00  0.00    -0.014 A 
BRANCH  32  33
ATOM     33  C   UNL     1      -6.086  -7.406   9.604  1.00  0.00     0.031 A 
ATOM     34  C   UNL     1      -6.136  -8.903   9.747  1.00  0.00     0.074 A 
ATOM     35  C   UNL     1      -7.219  -6.700   9.425  1.00  0.00     0.049 A 
ATOM     36  N   UNL     1      -7.172  -9.702   9.720  1.00  0.00    -0.248 NA
ATOM     37  C   UNL     1      -4.849  -9.600   9.908  1.00  0.00     0.031 C 
ATOM     38  C   UNL     1      -7.294  -5.252   9.218  1.00  0.00     0.029 A 
ATOM     39  N   UNL     1      -8.528  -7.107   9.386  1.00  0.00    -0.354 N 
ATOM     40  C   UNL     1      -6.658 -10.987   9.842  1.00  0.00     0.074 A 
ATOM     41  C   UNL     1      -5.219 -10.870   9.869  1.00  0.00     0.031 C 
ATOM     42  C   UNL     1      -8.582  -4.889   9.111  1.00  0.00     0.029 A 
ATOM     43  C   UNL     1      -9.420  -6.080   9.196  1.00  0.00     0.049 A 
ATOM     44  H   UNL     1      -8.803  -8.048   9.484  1.00  0.00     0.167 HD
ATOM     45  C   UNL     1      -7.326 -12.158   9.956  1.00  0.00     0.037 A 
ATOM     46  C   UNL     1     -10.763  -6.100   9.096  1.00  0.00     0.037 A 
ATOM     47  C   UNL     1      -8.760 -12.265   9.955  1.00  0.00     0.049 A 
ATOM     48  C   UNL     1     -11.482  -7.416   9.214  1.00  0.00     0.074 A 
ATOM     49  C   UNL     1      -9.540 -13.395  10.123  1.00  0.00     0.029 A 
ATOM     50  N   UNL     1      -9.630 -11.200   9.772  1.00  0.00    -0.354 N 
ATOM     51  N   UNL     1     -10.988  -8.615   9.407  1.00  0.00    -0.248 NA
ATOM     52  C   UNL     1     -12.947  -7.380   9.108  1.00  0.00     0.031 C 
ATOM     53  C   UNL     1     -10.880 -13.023   9.988  1.00  0.00     0.029 A 
ATOM     54  C   UNL     1     -10.939 -11.651   9.797  1.00  0.00     0.049 A 
ATOM     55  H   UNL     1      -9.357 -10.263   9.644  1.00  0.00     0.167 HD
ATOM     56  C   UNL     1     -12.080  -9.471   9.474  1.00  0.00     0.074 A 
ATOM     57  C   UNL     1     -13.263  -8.649   9.319  1.00  0.00     0.031 C 
ATOM     58  C   UNL     1     -12.103 -10.815   9.649  1.00  0.00     0.037 A 
BRANCH  45  59
ATOM     59  C   UNL     1      -6.510 -13.411  10.095  1.00  0.00     0.057 A 
ATOM     60  C   UNL     1      -5.748 -13.676  11.242  1.00  0.00     0.134 A 
ATOM     61  C   UNL     1      -6.503 -14.377   9.081  1.00  0.00     0.134 A 
ATOM     62  F   UNL     1      -5.697 -12.787  12.246  1.00  0.00    -0.206 F 
ATOM     63  C   UNL     1      -4.985 -14.839  11.361  1.00  0.00     0.040 A 
ATOM     64  C   UNL     1      -5.770 -15.559   9.203  1.00  0.00     0.040 A 
ATOM     65  F   UNL     1      -7.212 -14.191   7.958  1.00  0.00    -0.206 F 
ATOM     66  C   UNL     1      -5.002 -15.789  10.342  1.00  0.00     0.006 A 
ENDBRANCH  45  59
BRANCH  46  67
ATOM     67  C   UNL     1     -11.516  -4.835   8.895  1.00  0.00     0.057 A 
ATOM     68  C   UNL     1     -12.347  -4.321   9.897  1.00  0.00     0.134 A 
ATOM     69  C   UNL     1     -11.434  -4.117   7.696  1.00  0.00     0.134 A 
ATOM     70  F   UNL     1     -12.481  -4.971  11.062  1.00  0.00    -0.206 F 
ATOM     71  C   UNL     1     -13.088  -3.153   9.707  1.00  0.00     0.040 A 
ATOM     72  C   UNL     1     -12.147  -2.932   7.502  1.00  0.00     0.040 A 
ATOM     73  F   UNL     1     -10.649  -4.549   6.698  1.00  0.00    -0.206 F 
ATOM     74  C   UNL     1     -12.985  -2.453   8.507  1.00  0.00     0.006 A 
ENDBRANCH  46  67
BRANCH  58  75
ATOM     75  C   UNL     1     -13.449 -11.476   9.722  1.00  0.00     0.057 A 
ATOM     76  C   UNL     1     -14.275 -11.606   8.599  1.00  0.00     0.134 A 
ATOM     77  C   UNL     1     -13.905 -12.027  10.927  1.00  0.00     0.134 A 
ATOM     78  F   UNL     1     -13.903 -11.090   7.417  1.00  0.00    -0.206 F 
ATOM     79  C   UNL     1     -15.518 -12.238   8.677  1.00  0.00     0.040 A 
ATOM     80  C   UNL     1     -15.130 -12.689  11.011  1.00  0.00     0.040 A 
ATOM     81  F   UNL     1     -13.158 -11.948  12.039  1.00  0.00    -0.206 F 
ATOM     82  C   UNL     1     -15.944 -12.788   9.884  1.00  0.00     0.006 A 
ENDBRANCH  58  75
ENDBRANCH  32  33
ENDBRANCH  24  27
ENDBRANCH  22  23
ENDBRANCH  21  22
ENDBRANCH   1  21
TORSDOF 16
