REMARK SMILES C/C(=N/OCc1ccccc1Nc1c(Cl)cccc1Cl)C(=O)NCCCNC(=O)c1ccc(-c2c3nc(c(-c4c(F)cccc4F)c4ccc([nH]4)c(-c4c(F)cccc4F)c4nc(c(-c5c(F)cccc5F)c5ccc2[nH]5)C=C4)C=C3)cc1
REMARK SMILES IDX 21 1 22 2 23 3 2 5 1 6 3 7 4 8 5 9 6 10 7 11 11 12 8 13
REMARK SMILES IDX 10 14 9 15 12 16 13 18 14 19 19 20 15 21 16 22 18 23 20 24
REMARK SMILES IDX 17 25 24 26 25 27 26 28 27 29 28 30 29 32 30 33 31 34 83 35
REMARK SMILES IDX 32 36 82 37 33 38 34 39 35 40 76 41 36 42 81 43 75 44 77 45
REMARK SMILES IDX 37 46 80 47 74 48 73 49 38 51 64 52 47 53 63 54 48 55 51 56
REMARK SMILES IDX 62 57 78 58 49 59 50 60 61 62 79 63 52 64 39 65 40 66 45 67
REMARK SMILES IDX 41 68 42 69 44 70 46 71 43 72 65 73 66 74 71 75 67 76 68 77
REMARK SMILES IDX 70 78 72 79 69 80 53 81 54 82 59 83 55 84 56 85 58 86 60 87
REMARK SMILES IDX 57 88
REMARK H PARENT 23 4 12 17 27 31 77 50 51 61
REMARK Flexibility Score: inf
ROOT
ATOM      1  C   UNL     1       0.434  -0.946   2.376  1.00  0.00     0.268 C 
ATOM      2  O   UNL     1       0.815  -2.084   2.078  1.00  0.00    -0.268 OA
ATOM      3  N   UNL     1       0.597  -0.604   3.691  1.00  0.00    -0.351 N 
ATOM      4  H   UNL     1       1.063  -1.300   4.207  1.00  0.00     0.163 HD
ENDROOT
BRANCH   1   5
ATOM      5  C   UNL     1      -0.108  -0.107   1.220  1.00  0.00     0.141 C 
ATOM      6  C   UNL     1       0.152  -0.737  -0.140  1.00  0.00     0.077 C 
ATOM      7  N   UNL     1      -0.738   1.032   1.170  1.00  0.00    -0.086 NA
BRANCH   7   8
ATOM      8  O   UNL     1      -0.994   1.642   2.383  1.00  0.00    -0.390 OA
BRANCH   8   9
ATOM      9  C   UNL     1      -1.712   2.871   2.204  1.00  0.00     0.302 C 
BRANCH   9  10
ATOM     10  C   UNL     1      -0.879   4.144   2.130  1.00  0.00     0.016 A 
ATOM     11  C   UNL     1      -1.592   5.356   2.268  1.00  0.00     0.009 A 
ATOM     12  C   UNL     1       0.511   4.199   1.875  1.00  0.00     0.045 A 
ATOM     13  C   UNL     1      -0.954   6.590   2.158  1.00  0.00     0.001 A 
ATOM     14  C   UNL     1       1.137   5.454   1.791  1.00  0.00     0.026 A 
ATOM     15  C   UNL     1       0.412   6.638   1.915  1.00  0.00     0.002 A 
BRANCH  12  16
ATOM     16  N   UNL     1       1.257   3.015   1.739  1.00  0.00    -0.353 N 
ATOM     17  H   UNL     1       0.712   2.195   1.738  1.00  0.00     0.167 HD
BRANCH  16  18
ATOM     18  C   UNL     1       2.641   2.784   1.603  1.00  0.00     0.076 A 
ATOM     19  C   UNL     1       3.146   2.256   0.397  1.00  0.00     0.066 A 
ATOM     20  C   UNL     1       3.568   3.052   2.629  1.00  0.00     0.066 A 
ATOM     21  Cl  UNL     1       2.112   1.998  -0.967  1.00  0.00    -0.082 Cl
ATOM     22  C   UNL     1       4.502   1.953   0.239  1.00  0.00     0.023 A 
ATOM     23  C   UNL     1       4.931   2.765   2.463  1.00  0.00     0.023 A 
ATOM     24  Cl  UNL     1       3.079   3.664   4.173  1.00  0.00    -0.082 Cl
ATOM     25  C   UNL     1       5.395   2.204   1.274  1.00  0.00     0.003 A 
ENDBRANCH  16  18
ENDBRANCH  12  16
ENDBRANCH   9  10
ENDBRANCH   8   9
ENDBRANCH   7   8
ENDBRANCH   1   5
BRANCH   3  26
ATOM     26  C   UNL     1       0.242   0.544   4.499  1.00  0.00     0.118 C 
BRANCH  26  27
ATOM     27  C   UNL     1      -1.222   0.482   4.937  1.00  0.00     0.042 C 
BRANCH  27  28
ATOM     28  C   UNL     1      -1.443  -0.411   6.151  1.00  0.00     0.118 C 
BRANCH  28  29
ATOM     29  N   UNL     1      -0.943   0.207   7.370  1.00  0.00    -0.352 N 
ATOM     30  C   UNL     1      -1.596   0.497   8.540  1.00  0.00     0.251 C 
ATOM     31  H   UNL     1       0.009   0.455   7.351  1.00  0.00     0.163 HD
ATOM     32  O   UNL     1      -1.058   1.233   9.369  1.00  0.00    -0.269 OA
BRANCH  30  33
ATOM     33  C   UNL     1      -2.938  -0.056   8.816  1.00  0.00     0.039 A 
ATOM     34  C   UNL     1      -3.873   0.746   9.480  1.00  0.00     0.014 A 
ATOM     35  C   UNL     1      -3.263  -1.371   8.476  1.00  0.00     0.014 A 
ATOM     36  C   UNL     1      -5.143   0.241   9.766  1.00  0.00     0.010 A 
ATOM     37  C   UNL     1      -4.554  -1.845   8.688  1.00  0.00     0.010 A 
ATOM     38  C   UNL     1      -5.500  -1.051   9.351  1.00  0.00    -0.014 A 
BRANCH  38  39
ATOM     39  C   UNL     1      -6.847  -1.605   9.631  1.00  0.00     0.031 A 
ATOM     40  C   UNL     1      -6.998  -2.796  10.535  1.00  0.00     0.074 A 
ATOM     41  C   UNL     1      -7.926  -1.072   9.027  1.00  0.00     0.049 A 
ATOM     42  N   UNL     1      -8.077  -3.466  10.853  1.00  0.00    -0.248 NA
ATOM     43  C   UNL     1      -5.764  -3.325  11.138  1.00  0.00     0.031 C 
ATOM     44  C   UNL     1      -7.903   0.063   8.102  1.00  0.00     0.029 A 
ATOM     45  N   UNL     1      -9.251  -1.418   9.098  1.00  0.00    -0.354 N 
ATOM     46  C   UNL     1      -7.649  -4.500  11.676  1.00  0.00     0.074 A 
ATOM     47  C   UNL     1      -6.208  -4.407  11.757  1.00  0.00     0.031 C 
ATOM     48  C   UNL     1      -9.159   0.343   7.722  1.00  0.00     0.029 A 
ATOM     49  C   UNL     1     -10.069  -0.615   8.342  1.00  0.00     0.049 A 
ATOM     50  H   UNL     1      -9.583  -2.170   9.639  1.00  0.00     0.167 HD
ATOM     51  C   UNL     1      -8.392  -5.428  12.326  1.00  0.00     0.037 A 
ATOM     52  C   UNL     1     -11.403  -0.649   8.172  1.00  0.00     0.037 A 
ATOM     53  C   UNL     1      -9.827  -5.504  12.255  1.00  0.00     0.049 A 
ATOM     54  C   UNL     1     -12.206  -1.701   8.884  1.00  0.00     0.074 A 
ATOM     55  C   UNL     1     -10.682  -6.370  12.913  1.00  0.00     0.029 A 
ATOM     56  N   UNL     1     -10.621  -4.676  11.473  1.00  0.00    -0.354 N 
ATOM     57  N   UNL     1     -11.797  -2.639   9.704  1.00  0.00    -0.248 NA
ATOM     58  C   UNL     1     -13.655  -1.697   8.647  1.00  0.00     0.031 C 
ATOM     59  C   UNL     1     -11.989  -6.095  12.495  1.00  0.00     0.029 A 
ATOM     60  C   UNL     1     -11.954  -5.026  11.614  1.00  0.00     0.049 A 
ATOM     61  H   UNL     1     -10.286  -3.948  10.902  1.00  0.00     0.167 HD
ATOM     62  C   UNL     1     -12.940  -3.318  10.105  1.00  0.00     0.074 A 
ATOM     63  C   UNL     1     -14.059  -2.677   9.443  1.00  0.00     0.031 C 
ATOM     64  C   UNL     1     -13.054  -4.373  10.949  1.00  0.00     0.037 A 
BRANCH  51  65
ATOM     65  C   UNL     1      -7.651  -6.434  13.161  1.00  0.00     0.057 A 
ATOM     66  C   UNL     1      -6.976  -6.068  14.335  1.00  0.00     0.134 A 
ATOM     67  C   UNL     1      -7.597  -7.781  12.783  1.00  0.00     0.134 A 
ATOM     68  F   UNL     1      -6.974  -4.792  14.748  1.00  0.00    -0.206 F 
ATOM     69  C   UNL     1      -6.238  -6.995  15.075  1.00  0.00     0.040 A 
ATOM     70  C   UNL     1      -6.889  -8.723  13.532  1.00  0.00     0.040 A 
ATOM     71  F   UNL     1      -8.226  -8.204  11.676  1.00  0.00    -0.206 F 
ATOM     72  C   UNL     1      -6.197  -8.328  14.675  1.00  0.00     0.006 A 
ENDBRANCH  51  65
BRANCH  52  73
ATOM     73  C   UNL     1     -12.066   0.379   7.332  1.00  0.00     0.057 A 
ATOM     74  C   UNL     1     -12.843   1.385   7.916  1.00  0.00     0.134 A 
ATOM     75  C   UNL     1     -11.926   0.396   5.939  1.00  0.00     0.134 A 
ATOM     76  F   UNL     1     -13.026   1.410   9.244  1.00  0.00    -0.206 F 
ATOM     77  C   UNL     1     -13.467   2.368   7.146  1.00  0.00     0.040 A 
ATOM     78  C   UNL     1     -12.526   1.386   5.158  1.00  0.00     0.040 A 
ATOM     79  F   UNL     1     -11.187  -0.536   5.320  1.00  0.00    -0.206 F 
ATOM     80  C   UNL     1     -13.303   2.373   5.762  1.00  0.00     0.006 A 
ENDBRANCH  52  73
BRANCH  64  81
ATOM     81  C   UNL     1     -14.439  -4.876  11.230  1.00  0.00     0.057 A 
ATOM     82  C   UNL     1     -15.175  -5.592  10.277  1.00  0.00     0.134 A 
ATOM     83  C   UNL     1     -15.030  -4.669  12.483  1.00  0.00     0.134 A 
ATOM     84  F   UNL     1     -14.671  -5.811   9.053  1.00  0.00    -0.206 F 
ATOM     85  C   UNL     1     -16.458  -6.066  10.554  1.00  0.00     0.040 A 
ATOM     86  C   UNL     1     -16.301  -5.160  12.780  1.00  0.00     0.040 A 
ATOM     87  F   UNL     1     -14.375  -3.997  13.442  1.00  0.00    -0.206 F 
ATOM     88  C   UNL     1     -17.022  -5.856  11.812  1.00  0.00     0.006 A 
ENDBRANCH  64  81
ENDBRANCH  38  39
ENDBRANCH  30  33
ENDBRANCH  28  29
ENDBRANCH  27  28
ENDBRANCH  26  27
ENDBRANCH   3  26
TORSDOF 15
