REMARK SMILES O=C(NCCCNC(=O)[C@@H](Cc1c[nH]c2ccccc12)Nc1ncnc2ccccc12)c1ccc(-c2c3nc(c(-c4c(F)cccc4F)c4ccc([nH]4)c(-c4c(F)cccc4F)c4nc(c(-c5c(F)cccc5F)c5ccc2[nH]5)C=C4)C=C3)cc1
REMARK SMILES IDX 5 1 4 2 3 3 1 4 2 5 32 7 33 8 85 9 34 10 84 11 35 12 36 13
REMARK SMILES IDX 37 14 78 15 38 16 83 17 77 18 79 19 39 20 82 21 76 22 75 23
REMARK SMILES IDX 40 25 66 26 49 27 65 28 50 29 53 30 64 31 80 32 51 33 52 34
REMARK SMILES IDX 63 36 81 37 54 38 41 39 42 40 47 41 43 42 44 43 46 44 48 45
REMARK SMILES IDX 45 46 67 47 68 48 73 49 69 50 70 51 72 52 74 53 71 54 55 55
REMARK SMILES IDX 56 56 61 57 57 58 58 59 60 60 62 61 59 62 6 63 7 64 8 65
REMARK SMILES IDX 9 67 10 68 11 69 12 70 13 71 20 72 14 73 15 74 19 75 16 77
REMARK SMILES IDX 18 78 17 79 21 80 22 82 23 83 31 84 24 85 26 86 30 87 25 88
REMARK SMILES IDX 27 89 29 90 28 91
REMARK H PARENT 3 6 79 24 53 35 7 66 14 76 21 81
REMARK Flexibility Score: inf
ROOT
ATOM      1  C   UNL     1       3.994   0.856  -1.818  1.00  0.00     0.042 C 
ENDROOT
BRANCH   1   2
ATOM      2  C   UNL     1       3.847   1.477  -0.220  1.00  0.00     0.118 C 
BRANCH   2   3
ATOM      3  N   UNL     1       2.541   1.243   0.404  1.00  0.00    -0.352 N 
ATOM      4  O   UNL     1       0.822  -0.001   1.154  1.00  0.00    -0.269 OA
ATOM      5  C   UNL     1       2.035   0.118   1.004  1.00  0.00     0.251 C 
ATOM      6  H   UNL     1       1.931   2.015   0.391  1.00  0.00     0.163 HD
BRANCH   5   7
ATOM      7  C   UNL     1       2.944  -0.943   1.490  1.00  0.00     0.039 A 
ATOM      8  C   UNL     1       4.181  -0.607   2.033  1.00  0.00     0.014 A 
ATOM      9  C   UNL     1       2.520  -2.278   1.508  1.00  0.00     0.014 A 
ATOM     10  C   UNL     1       5.053  -1.593   2.450  1.00  0.00     0.010 A 
ATOM     11  C   UNL     1       3.335  -3.260   2.083  1.00  0.00     0.010 A 
ATOM     12  C   UNL     1       4.603  -2.916   2.568  1.00  0.00    -0.014 A 
BRANCH  12  13
ATOM     13  C   UNL     1       5.429  -3.821   3.401  1.00  0.00     0.031 A 
ATOM     14  C   UNL     1       6.121  -5.013   2.828  1.00  0.00     0.074 A 
ATOM     15  C   UNL     1       5.628  -3.448   4.683  1.00  0.00     0.049 A 
ATOM     16  N   UNL     1       6.988  -5.804   3.404  1.00  0.00    -0.248 NA
ATOM     17  C   UNL     1       5.797  -5.379   1.442  1.00  0.00     0.031 C 
ATOM     18  C   UNL     1       4.965  -2.309   5.334  1.00  0.00     0.029 A 
ATOM     19  N   UNL     1       6.488  -3.914   5.639  1.00  0.00    -0.354 N 
ATOM     20  C   UNL     1       7.300  -6.774   2.463  1.00  0.00     0.074 A 
ATOM     21  C   UNL     1       6.519  -6.481   1.279  1.00  0.00     0.031 C 
ATOM     22  C   UNL     1       5.532  -2.090   6.526  1.00  0.00     0.029 A 
ATOM     23  C   UNL     1       6.528  -3.124   6.765  1.00  0.00     0.049 A 
ATOM     24  H   UNL     1       7.025  -4.732   5.532  1.00  0.00     0.167 HD
ATOM     25  C   UNL     1       8.159  -7.814   2.590  1.00  0.00     0.037 A 
ATOM     26  C   UNL     1       7.286  -3.220   7.871  1.00  0.00     0.037 A 
ATOM     27  C   UNL     1       8.925  -8.083   3.781  1.00  0.00     0.049 A 
ATOM     28  C   UNL     1       8.257  -4.356   7.961  1.00  0.00     0.074 A 
ATOM     29  C   UNL     1       9.798  -9.127   4.031  1.00  0.00     0.029 A 
ATOM     30  N   UNL     1       8.915  -7.290   4.921  1.00  0.00    -0.354 N 
ATOM     31  N   UNL     1       8.527  -5.278   7.068  1.00  0.00    -0.248 NA
ATOM     32  C   UNL     1       9.013  -4.480   9.212  1.00  0.00     0.031 C 
ATOM     33  C   UNL     1      10.296  -8.980   5.332  1.00  0.00     0.029 A 
ATOM     34  C   UNL     1       9.763  -7.824   5.879  1.00  0.00     0.049 A 
ATOM     35  H   UNL     1       8.383  -6.469   5.033  1.00  0.00     0.167 HD
ATOM     36  C   UNL     1       9.466  -6.109   7.656  1.00  0.00     0.074 A 
ATOM     37  C   UNL     1       9.759  -5.546   8.961  1.00  0.00     0.031 C 
ATOM     38  C   UNL     1      10.018  -7.248   7.175  1.00  0.00     0.037 A 
BRANCH  25  39
ATOM     39  C   UNL     1       8.290  -8.748   1.424  1.00  0.00     0.057 A 
ATOM     40  C   UNL     1       8.984  -8.387   0.263  1.00  0.00     0.134 A 
ATOM     41  C   UNL     1       7.740 -10.035   1.474  1.00  0.00     0.134 A 
ATOM     42  F   UNL     1       9.518  -7.162   0.143  1.00  0.00    -0.206 F 
ATOM     43  C   UNL     1       9.116  -9.268  -0.813  1.00  0.00     0.040 A 
ATOM     44  C   UNL     1       7.881 -10.932   0.414  1.00  0.00     0.040 A 
ATOM     45  F   UNL     1       7.062 -10.444   2.557  1.00  0.00    -0.206 F 
ATOM     46  C   UNL     1       8.569 -10.548  -0.736  1.00  0.00     0.006 A 
ENDBRANCH  25  39
BRANCH  26  47
ATOM     47  C   UNL     1       7.132  -2.232   8.968  1.00  0.00     0.057 A 
ATOM     48  C   UNL     1       8.153  -1.331   9.289  1.00  0.00     0.134 A 
ATOM     49  C   UNL     1       5.944  -2.148   9.708  1.00  0.00     0.134 A 
ATOM     50  F   UNL     1       9.319  -1.368   8.628  1.00  0.00    -0.206 F 
ATOM     51  C   UNL     1       8.003  -0.390  10.310  1.00  0.00     0.040 A 
ATOM     52  C   UNL     1       5.769  -1.193  10.709  1.00  0.00     0.040 A 
ATOM     53  F   UNL     1       4.923  -2.977   9.444  1.00  0.00    -0.206 F 
ATOM     54  C   UNL     1       6.804  -0.314  11.017  1.00  0.00     0.006 A 
ENDBRANCH  26  47
BRANCH  38  55
ATOM     55  C   UNL     1      10.976  -7.952   8.085  1.00  0.00     0.057 A 
ATOM     56  C   UNL     1      10.527  -8.665   9.204  1.00  0.00     0.134 A 
ATOM     57  C   UNL     1      12.354  -7.908   7.847  1.00  0.00     0.134 A 
ATOM     58  F   UNL     1       9.219  -8.726   9.492  1.00  0.00    -0.206 F 
ATOM     59  C   UNL     1      11.422  -9.288  10.073  1.00  0.00     0.040 A 
ATOM     60  C   UNL     1      13.256  -8.546   8.697  1.00  0.00     0.040 A 
ATOM     61  F   UNL     1      12.843  -7.242   6.790  1.00  0.00    -0.206 F 
ATOM     62  C   UNL     1      12.791  -9.232   9.819  1.00  0.00     0.006 A 
ENDBRANCH  38  55
ENDBRANCH  12  13
ENDBRANCH   5   7
ENDBRANCH   2   3
ENDBRANCH   1   2
BRANCH   1  63
ATOM     63  C   UNL     1       3.664   1.707  -3.815  1.00  0.00     0.117 C 
BRANCH  63  64
ATOM     64  N   UNL     1       4.146   3.149  -4.454  1.00  0.00    -0.354 N 
ATOM     65  C   UNL     1       5.278   3.639  -5.050  1.00  0.00     0.242 C 
ATOM     66  H   UNL     1       3.440   3.832  -4.390  1.00  0.00     0.163 HD
ATOM     67  O   UNL     1       5.442   4.866  -4.997  1.00  0.00    -0.273 OA
BRANCH  65  68
ATOM     68  C   UNL     1       6.314   2.753  -5.793  1.00  0.00     0.174 C 
BRANCH  68  69
ATOM     69  C   UNL     1       7.285   1.941  -4.897  1.00  0.00     0.072 C 
BRANCH  69  70
ATOM     70  C   UNL     1       6.588   0.848  -4.171  1.00  0.00    -0.020 A 
ATOM     71  C   UNL     1       6.542  -0.498  -4.524  1.00  0.00     0.087 A 
ATOM     72  C   UNL     1       5.572   1.105  -3.229  1.00  0.00     0.003 A 
ATOM     73  N   UNL     1       5.381  -1.146  -4.113  1.00  0.00    -0.361 N 
ATOM     74  C   UNL     1       4.508  -0.252  -3.549  1.00  0.00     0.046 A 
ATOM     75  C   UNL     1       4.916   2.576  -2.392  1.00  0.00     0.010 A 
ATOM     76  H   UNL     1       5.211  -2.111  -4.213  1.00  0.00     0.166 HD
ATOM     77  C   UNL     1       2.744  -0.125  -3.249  1.00  0.00     0.026 A 
ATOM     78  C   UNL     1       3.125   2.723  -2.106  1.00  0.00     0.001 A 
ATOM     79  C   UNL     1       2.063   1.340  -2.467  1.00  0.00     0.002 A 
ENDBRANCH  69  70
ENDBRANCH  68  69
BRANCH  68  80
ATOM     80  N   UNL     1       5.609   1.928  -6.814  1.00  0.00    -0.358 N 
ATOM     81  H   UNL     1       5.414   0.968  -6.712  1.00  0.00     0.162 HD
BRANCH  80  82
ATOM     82  C   UNL     1       5.256   2.691  -7.941  1.00  0.00     0.137 A 
ATOM     83  N   UNL     1       4.014   3.194  -7.932  1.00  0.00    -0.219 NA
ATOM     84  C   UNL     1       6.189   2.979  -8.942  1.00  0.00     0.043 A 
ATOM     85  C   UNL     1       3.732   4.070  -8.902  1.00  0.00     0.224 A 
ATOM     86  C   UNL     1       5.767   3.895  -9.911  1.00  0.00     0.076 A 
ATOM     87  C   UNL     1       7.475   2.395  -9.021  1.00  0.00     0.014 A 
ATOM     88  N   UNL     1       4.550   4.454  -9.892  1.00  0.00    -0.236 NA
ATOM     89  C   UNL     1       6.658   4.228 -10.924  1.00  0.00     0.029 A 
ATOM     90  C   UNL     1       8.341   2.731 -10.054  1.00  0.00     0.001 A 
ATOM     91  C   UNL     1       7.934   3.657 -11.005  1.00  0.00     0.002 A 
ENDBRANCH  80  82
ENDBRANCH  68  80
ENDBRANCH  65  68
ENDBRANCH  63  64
ENDBRANCH   1  63
TORSDOF 14
