REMARK SMILES O=C(CSc1ccccc1C(=O)NCCCNC(=O)c1ccc(-c2c3nc(c(-c4c(F)cccc4F)c4ccc([nH]4)c(-c4c(F)cccc4F)c4nc(c(-c5c(F)cccc5F)c5ccc2[nH]5)C=C4)C=C3)cc1)c1ccc(Cl)cc1
REMARK SMILES IDX 14 1 13 2 11 3 12 4 10 6 5 7 6 8 7 9 9 10 8 11 4 12 3 13
REMARK SMILES IDX 2 14 1 15 74 16 75 17 80 18 76 19 79 20 77 21 78 22 15 23
REMARK SMILES IDX 16 24 17 25 18 26 19 28 20 29 21 30 73 31 22 32 72 33 23 34
REMARK SMILES IDX 24 35 25 36 66 37 26 38 71 39 65 40 67 41 27 42 70 43 64 44
REMARK SMILES IDX 63 45 28 47 54 48 37 49 53 50 38 51 41 52 52 53 68 54 39 55
REMARK SMILES IDX 40 56 51 58 69 59 42 60 29 61 30 62 35 63 31 64 32 65 34 66
REMARK SMILES IDX 36 67 33 68 55 69 56 70 61 71 57 72 58 73 60 74 62 75 59 76
REMARK SMILES IDX 43 77 44 78 49 79 45 80 46 81 48 82 50 83 47 84
REMARK H PARENT 13 5 17 27 67 46 41 57
REMARK Flexibility Score: inf
ROOT
ATOM      1  C   UNL     1       5.584  -2.487   0.821  1.00  0.00     0.118 C 
ENDROOT
BRANCH   1   2
ATOM      2  N   UNL     1       5.328  -3.849   1.231  1.00  0.00    -0.352 N 
ATOM      3  C   UNL     1       4.205  -4.627   1.140  1.00  0.00     0.252 C 
ATOM      4  O   UNL     1       4.235  -5.731   1.688  1.00  0.00    -0.269 OA
ATOM      5  H   UNL     1       6.098  -4.296   1.650  1.00  0.00     0.163 HD
BRANCH   3   6
ATOM      6  C   UNL     1       3.046  -4.296   0.270  1.00  0.00     0.053 A 
ATOM      7  C   UNL     1       2.144  -3.221   0.406  1.00  0.00     0.020 A 
ATOM      8  C   UNL     1       1.010  -3.203  -0.432  1.00  0.00     0.016 A 
ATOM      9  C   UNL     1       0.767  -4.204  -1.374  1.00  0.00     0.001 A 
ATOM     10  C   UNL     1       2.779  -5.308  -0.680  1.00  0.00     0.015 A 
ATOM     11  C   UNL     1       1.648  -5.266  -1.492  1.00  0.00     0.001 A 
BRANCH   7  12
ATOM     12  S   UNL     1       2.101  -2.049   1.758  1.00  0.00    -0.117 SA
BRANCH  12  13
ATOM     13  C   UNL     1       2.490  -0.434   1.007  1.00  0.00     0.156 C 
BRANCH  13  14
ATOM     14  C   UNL     1       1.735  -0.032  -0.239  1.00  0.00     0.173 C 
ATOM     15  O   UNL     1       0.511  -0.012  -0.331  1.00  0.00    -0.293 OA
BRANCH  14  16
ATOM     16  C   UNL     1       2.548   0.540  -1.345  1.00  0.00     0.018 A 
ATOM     17  C   UNL     1       3.654  -0.148  -1.856  1.00  0.00     0.013 A 
ATOM     18  C   UNL     1       2.227   1.810  -1.836  1.00  0.00     0.013 A 
ATOM     19  C   UNL     1       4.468   0.454  -2.820  1.00  0.00     0.021 A 
ATOM     20  C   UNL     1       3.038   2.408  -2.806  1.00  0.00     0.021 A 
ATOM     21  C   UNL     1       4.160   1.732  -3.286  1.00  0.00     0.041 A 
ATOM     22  Cl  UNL     1       5.171   2.475  -4.462  1.00  0.00    -0.084 Cl
ENDBRANCH  14  16
ENDBRANCH  13  14
ENDBRANCH  12  13
ENDBRANCH   7  12
ENDBRANCH   3   6
ENDBRANCH   1   2
BRANCH   1  23
ATOM     23  C   UNL     1       5.641  -1.577   2.045  1.00  0.00     0.042 C 
BRANCH  23  24
ATOM     24  C   UNL     1       6.958  -1.658   2.802  1.00  0.00     0.118 C 
BRANCH  24  25
ATOM     25  N   UNL     1       7.957  -0.774   2.216  1.00  0.00    -0.352 N 
ATOM     26  C   UNL     1       8.461   0.416   2.669  1.00  0.00     0.251 C 
ATOM     27  H   UNL     1       8.328  -1.081   1.357  1.00  0.00     0.163 HD
ATOM     28  O   UNL     1       9.081   1.136   1.876  1.00  0.00    -0.269 OA
BRANCH  26  29
ATOM     29  C   UNL     1       8.281   0.867   4.070  1.00  0.00     0.039 A 
ATOM     30  C   UNL     1       8.194   2.240   4.332  1.00  0.00     0.014 A 
ATOM     31  C   UNL     1       8.277  -0.032   5.141  1.00  0.00     0.014 A 
ATOM     32  C   UNL     1       8.069   2.700   5.647  1.00  0.00     0.010 A 
ATOM     33  C   UNL     1       8.053   0.420   6.440  1.00  0.00     0.010 A 
ATOM     34  C   UNL     1       7.975   1.793   6.713  1.00  0.00    -0.014 A 
BRANCH  34  35
ATOM     35  C   UNL     1       7.851   2.259   8.120  1.00  0.00     0.031 A 
ATOM     36  C   UNL     1       8.932   1.938   9.120  1.00  0.00     0.074 A 
ATOM     37  C   UNL     1       6.750   2.926   8.514  1.00  0.00     0.049 A 
ATOM     38  N   UNL     1       8.979   2.199  10.403  1.00  0.00    -0.248 NA
ATOM     39  C   UNL     1      10.102   1.199   8.619  1.00  0.00     0.031 C 
ATOM     40  C   UNL     1       5.609   3.259   7.660  1.00  0.00     0.029 A 
ATOM     41  N   UNL     1       6.407   3.438   9.740  1.00  0.00    -0.354 N 
ATOM     42  C   UNL     1      10.164   1.636  10.862  1.00  0.00     0.074 A 
ATOM     43  C   UNL     1      10.782   0.975   9.734  1.00  0.00     0.031 C 
ATOM     44  C   UNL     1       4.705   3.943   8.380  1.00  0.00     0.029 A 
ATOM     45  C   UNL     1       5.186   4.069   9.752  1.00  0.00     0.049 A 
ATOM     46  H   UNL     1       6.981   3.361  10.536  1.00  0.00     0.167 HD
ATOM     47  C   UNL     1      10.704   1.686  12.103  1.00  0.00     0.037 A 
ATOM     48  C   UNL     1       4.529   4.679  10.756  1.00  0.00     0.037 A 
ATOM     49  C   UNL     1      10.112   2.380  13.216  1.00  0.00     0.049 A 
ATOM     50  C   UNL     1       5.159   4.744  12.119  1.00  0.00     0.074 A 
ATOM     51  C   UNL     1      10.610   2.541  14.497  1.00  0.00     0.029 A 
ATOM     52  N   UNL     1       8.890   3.034  13.176  1.00  0.00    -0.354 N 
ATOM     53  N   UNL     1       6.308   4.258  12.522  1.00  0.00    -0.248 NA
ATOM     54  C   UNL     1       4.406   5.450  13.165  1.00  0.00     0.031 C 
ATOM     55  C   UNL     1       9.675   3.267  15.242  1.00  0.00     0.029 A 
ATOM     56  C   UNL     1       8.614   3.592  14.413  1.00  0.00     0.049 A 
ATOM     57  H   UNL     1       8.306   3.094  12.386  1.00  0.00     0.167 HD
ATOM     58  C   UNL     1       6.429   4.623  13.856  1.00  0.00     0.074 A 
ATOM     59  C   UNL     1       5.241   5.382  14.191  1.00  0.00     0.031 C 
ATOM     60  C   UNL     1       7.433   4.355  14.726  1.00  0.00     0.037 A 
BRANCH  47  61
ATOM     61  C   UNL     1      12.009   0.976  12.318  1.00  0.00     0.057 A 
ATOM     62  C   UNL     1      13.208   1.452  11.768  1.00  0.00     0.134 A 
ATOM     63  C   UNL     1      12.075  -0.180  13.105  1.00  0.00     0.134 A 
ATOM     64  F   UNL     1      13.212   2.548  10.995  1.00  0.00    -0.206 F 
ATOM     65  C   UNL     1      14.419   0.788  11.969  1.00  0.00     0.040 A 
ATOM     66  C   UNL     1      13.285  -0.839  13.335  1.00  0.00     0.040 A 
ATOM     67  F   UNL     1      10.968  -0.687  13.667  1.00  0.00    -0.206 F 
ATOM     68  C   UNL     1      14.460  -0.358  12.760  1.00  0.00     0.006 A 
ENDBRANCH  47  61
BRANCH  48  69
ATOM     69  C   UNL     1       3.212   5.314  10.501  1.00  0.00     0.057 A 
ATOM     70  C   UNL     1       3.077   6.708  10.479  1.00  0.00     0.134 A 
ATOM     71  C   UNL     1       2.061   4.551  10.273  1.00  0.00     0.134 A 
ATOM     72  F   UNL     1       4.141   7.491  10.709  1.00  0.00    -0.206 F 
ATOM     73  C   UNL     1       1.843   7.320  10.258  1.00  0.00     0.040 A 
ATOM     74  C   UNL     1       0.825   5.150  10.027  1.00  0.00     0.040 A 
ATOM     75  F   UNL     1       2.126   3.212  10.272  1.00  0.00    -0.206 F 
ATOM     76  C   UNL     1       0.712   6.539  10.025  1.00  0.00     0.006 A 
ENDBRANCH  48  69
BRANCH  60  77
ATOM     77  C   UNL     1       7.310   4.919  16.110  1.00  0.00     0.057 A 
ATOM     78  C   UNL     1       6.417   4.387  17.048  1.00  0.00     0.134 A 
ATOM     79  C   UNL     1       8.123   5.984  16.518  1.00  0.00     0.134 A 
ATOM     80  F   UNL     1       5.603   3.375  16.713  1.00  0.00    -0.206 F 
ATOM     81  C   UNL     1       6.322   4.909  18.338  1.00  0.00     0.040 A 
ATOM     82  C   UNL     1       8.054   6.499  17.813  1.00  0.00     0.040 A 
ATOM     83  F   UNL     1       9.005   6.532  15.669  1.00  0.00    -0.206 F 
ATOM     84  C   UNL     1       7.147   5.964  18.726  1.00  0.00     0.006 A 
ENDBRANCH  60  77
ENDBRANCH  34  35
ENDBRANCH  26  29
ENDBRANCH  24  25
ENDBRANCH  23  24
ENDBRANCH   1  23
TORSDOF 14
