REMARK SMILES O=C(NCCCNC(=O)c1ccc(-n2cnc3ccccc32)nc1)c1ccc(-c2c3nc(c(-c4c(F)cccc4F)c4ccc([nH]4)c(-c4c(F)cccc4F)c4nc(c(-c5c(F)cccc5F)c5ccc2[nH]5)C=C4)C=C3)cc1
REMARK SMILES IDX 4 1 3 2 1 3 2 4 25 6 26 7 78 8 27 9 77 10 28 11 29 12 30 13
REMARK SMILES IDX 71 14 31 15 76 16 70 17 72 18 32 19 75 20 69 21 68 22 33 24
REMARK SMILES IDX 59 25 42 26 58 27 43 28 46 29 57 30 73 31 44 32 45 33 56 35
REMARK SMILES IDX 74 36 47 37 34 38 35 39 40 40 36 41 37 42 39 43 41 44 38 45
REMARK SMILES IDX 60 46 61 47 66 48 62 49 63 50 65 51 67 52 64 53 48 54 49 55
REMARK SMILES IDX 54 56 50 57 51 58 53 59 55 60 52 61 5 62 6 63 7 64 8 65 9 67
REMARK SMILES IDX 10 68 11 69 24 70 12 71 23 72 13 73 14 74 15 75 22 76 16 77
REMARK SMILES IDX 17 78 21 79 18 80 20 81 19 82
REMARK H PARENT 3 5 72 23 46 34 7 66
REMARK Flexibility Score: inf
ROOT
ATOM      1  C   UNL     1       4.341  -0.629   1.469  1.00  0.00     0.118 C 
ENDROOT
BRANCH   1   2
ATOM      2  N   UNL     1       2.888  -0.445   1.313  1.00  0.00    -0.352 N 
ATOM      3  O   UNL     1       1.028   0.249   0.196  1.00  0.00    -0.269 OA
ATOM      4  C   UNL     1       2.172  -0.172   0.152  1.00  0.00     0.251 C 
ATOM      5  H   UNL     1       2.355  -0.525   2.137  1.00  0.00     0.163 HD
BRANCH   4   6
ATOM      6  C   UNL     1       2.839  -0.413  -1.140  1.00  0.00     0.039 A 
ATOM      7  C   UNL     1       2.669   0.379  -2.273  1.00  0.00     0.014 A 
ATOM      8  C   UNL     1       3.742  -1.459  -1.158  1.00  0.00     0.014 A 
ATOM      9  C   UNL     1       3.446   0.073  -3.389  1.00  0.00     0.010 A 
ATOM     10  C   UNL     1       4.780  -1.401  -2.023  1.00  0.00     0.010 A 
ATOM     11  C   UNL     1       4.501  -0.846  -3.243  1.00  0.00    -0.014 A 
BRANCH  11  12
ATOM     12  C   UNL     1       5.366  -1.271  -4.327  1.00  0.00     0.031 A 
ATOM     13  C   UNL     1       5.956  -0.140  -5.059  1.00  0.00     0.074 A 
ATOM     14  C   UNL     1       5.722  -2.560  -4.548  1.00  0.00     0.049 A 
ATOM     15  N   UNL     1       5.567   0.322  -6.195  1.00  0.00    -0.248 NA
ATOM     16  C   UNL     1       6.925   0.711  -4.355  1.00  0.00     0.031 C 
ATOM     17  C   UNL     1       5.476  -3.761  -3.732  1.00  0.00     0.029 A 
ATOM     18  N   UNL     1       6.456  -3.061  -5.577  1.00  0.00    -0.354 N 
ATOM     19  C   UNL     1       6.410   1.387  -6.470  1.00  0.00     0.074 A 
ATOM     20  C   UNL     1       7.057   1.713  -5.226  1.00  0.00     0.031 C 
ATOM     21  C   UNL     1       6.226  -4.792  -4.186  1.00  0.00     0.029 A 
ATOM     22  C   UNL     1       6.858  -4.386  -5.424  1.00  0.00     0.049 A 
ATOM     23  H   UNL     1       6.686  -2.527  -6.372  1.00  0.00     0.167 HD
ATOM     24  C   UNL     1       6.695   1.710  -7.760  1.00  0.00     0.037 A 
ATOM     25  C   UNL     1       7.658  -5.084  -6.269  1.00  0.00     0.037 A 
ATOM     26  C   UNL     1       5.752   1.081  -8.661  1.00  0.00     0.049 A 
ATOM     27  C   UNL     1       7.619  -4.384  -7.579  1.00  0.00     0.074 A 
ATOM     28  C   UNL     1       4.381   1.142  -8.831  1.00  0.00     0.029 A 
ATOM     29  N   UNL     1       6.153  -0.077  -9.284  1.00  0.00    -0.354 N 
ATOM     30  N   UNL     1       6.555  -4.329  -8.333  1.00  0.00    -0.248 NA
ATOM     31  C   UNL     1       8.598  -3.333  -7.805  1.00  0.00     0.031 C 
ATOM     32  C   UNL     1       3.983  -0.198  -9.124  1.00  0.00     0.029 A 
ATOM     33  C   UNL     1       5.132  -0.988  -9.195  1.00  0.00     0.049 A 
ATOM     34  H   UNL     1       7.024  -0.226  -9.720  1.00  0.00     0.167 HD
ATOM     35  C   UNL     1       6.520  -3.023  -8.803  1.00  0.00     0.074 A 
ATOM     36  C   UNL     1       7.845  -2.479  -8.506  1.00  0.00     0.031 C 
ATOM     37  C   UNL     1       5.335  -2.418  -9.114  1.00  0.00     0.037 A 
BRANCH  24  38
ATOM     38  C   UNL     1       8.041   2.204  -8.229  1.00  0.00     0.057 A 
ATOM     39  C   UNL     1       9.247   2.075  -7.508  1.00  0.00     0.134 A 
ATOM     40  C   UNL     1       8.194   2.534  -9.587  1.00  0.00     0.134 A 
ATOM     41  F   UNL     1       9.291   1.735  -6.216  1.00  0.00    -0.206 F 
ATOM     42  C   UNL     1      10.503   2.194  -8.105  1.00  0.00     0.040 A 
ATOM     43  C   UNL     1       9.447   2.608 -10.205  1.00  0.00     0.040 A 
ATOM     44  F   UNL     1       7.124   2.704 -10.379  1.00  0.00    -0.206 F 
ATOM     45  C   UNL     1      10.607   2.419  -9.467  1.00  0.00     0.006 A 
ENDBRANCH  24  38
BRANCH  25  46
ATOM     46  C   UNL     1       8.681  -6.107  -5.949  1.00  0.00     0.057 A 
ATOM     47  C   UNL     1       9.374  -6.082  -4.726  1.00  0.00     0.134 A 
ATOM     48  C   UNL     1       9.210  -6.949  -6.937  1.00  0.00     0.134 A 
ATOM     49  F   UNL     1       8.998  -5.258  -3.736  1.00  0.00    -0.206 F 
ATOM     50  C   UNL     1      10.537  -6.829  -4.506  1.00  0.00     0.040 A 
ATOM     51  C   UNL     1      10.376  -7.702  -6.732  1.00  0.00     0.040 A 
ATOM     52  F   UNL     1       8.645  -7.010  -8.152  1.00  0.00    -0.206 F 
ATOM     53  C   UNL     1      11.051  -7.633  -5.517  1.00  0.00     0.006 A 
ENDBRANCH  25  46
BRANCH  37  54
ATOM     54  C   UNL     1       4.104  -3.287  -9.171  1.00  0.00     0.057 A 
ATOM     55  C   UNL     1       3.370  -3.332 -10.361  1.00  0.00     0.134 A 
ATOM     56  C   UNL     1       3.559  -3.967  -8.070  1.00  0.00     0.134 A 
ATOM     57  F   UNL     1       3.796  -2.660 -11.442  1.00  0.00    -0.206 F 
ATOM     58  C   UNL     1       2.162  -4.027 -10.460  1.00  0.00     0.040 A 
ATOM     59  C   UNL     1       2.367  -4.694  -8.164  1.00  0.00     0.040 A 
ATOM     60  F   UNL     1       4.134  -3.906  -6.863  1.00  0.00    -0.206 F 
ATOM     61  C   UNL     1       1.662  -4.722  -9.362  1.00  0.00     0.006 A 
ENDBRANCH  37  54
ENDBRANCH  11  12
ENDBRANCH   4   6
ENDBRANCH   1   2
BRANCH   1  62
ATOM     62  C   UNL     1       4.790  -0.833   2.895  1.00  0.00     0.042 C 
BRANCH  62  63
ATOM     63  C   UNL     1       4.235  -2.129   3.481  1.00  0.00     0.118 C 
BRANCH  63  64
ATOM     64  N   UNL     1       4.820  -3.336   2.893  1.00  0.00    -0.352 N 
ATOM     65  C   UNL     1       5.730  -4.216   3.436  1.00  0.00     0.252 C 
ATOM     66  H   UNL     1       4.520  -3.550   1.980  1.00  0.00     0.163 HD
ATOM     67  O   UNL     1       6.244  -5.099   2.769  1.00  0.00    -0.269 OA
BRANCH  65  68
ATOM     68  C   UNL     1       6.076  -4.068   4.852  1.00  0.00     0.058 A 
ATOM     69  C   UNL     1       5.077  -4.011   5.818  1.00  0.00     0.019 A 
ATOM     70  C   UNL     1       7.398  -3.910   5.234  1.00  0.00     0.127 A 
ATOM     71  C   UNL     1       5.428  -3.713   7.121  1.00  0.00     0.048 A 
ATOM     72  N   UNL     1       7.770  -3.618   6.506  1.00  0.00    -0.238 NA
ATOM     73  C   UNL     1       6.777  -3.558   7.433  1.00  0.00     0.138 A 
BRANCH  73  74
ATOM     74  N   UNL     1       7.129  -3.356   8.786  1.00  0.00    -0.283 N 
ATOM     75  C   UNL     1       8.186  -2.607   9.239  1.00  0.00     0.206 A 
ATOM     76  C   UNL     1       6.503  -3.894   9.898  1.00  0.00     0.074 A 
ATOM     77  N   UNL     1       8.202  -2.518  10.552  1.00  0.00    -0.236 NA
ATOM     78  C   UNL     1       7.181  -3.333  10.976  1.00  0.00     0.089 A 
ATOM     79  C   UNL     1       5.487  -4.851  10.064  1.00  0.00     0.029 A 
ATOM     80  C   UNL     1       6.789  -3.675  12.279  1.00  0.00     0.030 A 
ATOM     81  C   UNL     1       5.123  -5.191  11.365  1.00  0.00     0.002 A 
ATOM     82  C   UNL     1       5.756  -4.607  12.459  1.00  0.00     0.002 A 
ENDBRANCH  73  74
ENDBRANCH  65  68
ENDBRANCH  63  64
ENDBRANCH  62  63
ENDBRANCH   1  62
TORSDOF 11
