REMARK SMILES CCOc1ccc(-c2nc(C(=O)NCCCNC(=O)c3ccc(-c4c5nc(c(-c6c(F)cccc6F)c6ccc([nH]6)c(-c6c(F)cccc6F)c6nc(c(-c7c(F)cccc7F)c7ccc4[nH]7)C=C6)C=C5)cc3)cc(=O)[nH]2)cc1
REMARK SMILES IDX 14 1 13 2 11 3 12 4 10 6 8 7 9 8 77 9 75 10 74 12 76 13 7 14
REMARK SMILES IDX 4 15 5 16 79 17 6 18 78 19 3 20 2 21 1 22 15 23 16 24 17 25
REMARK SMILES IDX 18 26 19 28 20 29 21 30 73 31 22 32 72 33 23 34 24 35 25 36
REMARK SMILES IDX 66 37 26 38 71 39 65 40 67 41 27 42 70 43 64 44 63 45 28 47
REMARK SMILES IDX 54 48 37 49 53 50 38 51 41 52 52 53 68 54 39 55 40 56 51 58
REMARK SMILES IDX 69 59 42 60 29 61 30 62 35 63 31 64 32 65 34 66 36 67 33 68
REMARK SMILES IDX 55 69 56 70 61 71 57 72 58 73 60 74 62 75 59 76 43 77 44 78
REMARK SMILES IDX 49 79 45 80 46 81 48 82 50 83 47 84
REMARK H PARENT 13 5 77 11 17 27 67 46 41 57
REMARK Flexibility Score: inf
ROOT
ATOM      1  C   UNL     1      11.372  -0.214  -4.960  1.00  0.00     0.118 C 
ENDROOT
BRANCH   1   2
ATOM      2  N   UNL     1      10.282  -1.126  -4.679  1.00  0.00    -0.351 N 
ATOM      3  C   UNL     1       9.024  -1.010  -4.183  1.00  0.00     0.270 C 
ATOM      4  O   UNL     1       8.418  -2.082  -4.063  1.00  0.00    -0.268 OA
ATOM      5  H   UNL     1      10.510  -2.058  -4.902  1.00  0.00     0.163 HD
BRANCH   3   6
ATOM      6  C   UNL     1       8.327   0.293  -3.823  1.00  0.00     0.136 A 
ATOM      7  C   UNL     1       6.282   1.217  -3.300  1.00  0.00     0.141 A 
ATOM      8  N   UNL     1       6.968   0.164  -3.595  1.00  0.00    -0.225 NA
ATOM      9  N   UNL     1       6.835   2.463  -3.209  1.00  0.00    -0.306 N 
ATOM     10  C   UNL     1       8.166   2.665  -3.381  1.00  0.00     0.251 A 
ATOM     11  H   UNL     1       6.253   3.233  -3.013  1.00  0.00     0.171 HD
ATOM     12  C   UNL     1       8.961   1.463  -3.673  1.00  0.00     0.105 A 
ATOM     13  O   UNL     1       8.689   3.766  -3.298  1.00  0.00    -0.269 OA
BRANCH   7  14
ATOM     14  C   UNL     1       4.843   1.121  -2.994  1.00  0.00     0.018 A 
ATOM     15  C   UNL     1       2.151   0.919  -2.333  1.00  0.00     0.119 A 
ATOM     16  C   UNL     1       2.570   1.899  -3.233  1.00  0.00     0.047 A 
ATOM     17  C   UNL     1       3.063   0.008  -1.802  1.00  0.00     0.047 A 
ATOM     18  C   UNL     1       3.923   2.010  -3.560  1.00  0.00     0.016 A 
ATOM     19  C   UNL     1       4.414   0.112  -2.126  1.00  0.00     0.016 A 
BRANCH  15  20
ATOM     20  O   UNL     1       0.813   0.793  -2.086  1.00  0.00    -0.494 OA
BRANCH  20  21
ATOM     21  C   UNL     1       0.444   1.226  -0.770  1.00  0.00     0.226 C 
ATOM     22  C   UNL     1       0.487   0.082   0.231  1.00  0.00     0.049 C 
ENDBRANCH  20  21
ENDBRANCH  15  20
ENDBRANCH   7  14
ENDBRANCH   3   6
ENDBRANCH   1   2
BRANCH   1  23
ATOM     23  C   UNL     1      12.403  -0.239  -3.833  1.00  0.00     0.042 C 
BRANCH  23  24
ATOM     24  C   UNL     1      13.305  -1.474  -3.890  1.00  0.00     0.118 C 
BRANCH  24  25
ATOM     25  N   UNL     1      14.113  -1.498  -5.106  1.00  0.00    -0.352 N 
ATOM     26  C   UNL     1      15.462  -1.329  -5.285  1.00  0.00     0.251 C 
ATOM     27  H   UNL     1      13.606  -1.663  -5.934  1.00  0.00     0.163 HD
ATOM     28  O   UNL     1      15.899  -1.085  -6.405  1.00  0.00    -0.269 OA
BRANCH  26  29
ATOM     29  C   UNL     1      16.390  -1.447  -4.143  1.00  0.00     0.039 A 
ATOM     30  C   UNL     1      17.500  -0.601  -4.077  1.00  0.00     0.014 A 
ATOM     31  C   UNL     1      16.196  -2.427  -3.166  1.00  0.00     0.014 A 
ATOM     32  C   UNL     1      18.381  -0.701  -2.999  1.00  0.00     0.010 A 
ATOM     33  C   UNL     1      17.021  -2.463  -2.048  1.00  0.00     0.010 A 
ATOM     34  C   UNL     1      18.128  -1.609  -1.958  1.00  0.00    -0.014 A 
BRANCH  34  35
ATOM     35  C   UNL     1      19.014  -1.689  -0.770  1.00  0.00     0.031 A 
ATOM     36  C   UNL     1      19.750  -2.964  -0.463  1.00  0.00     0.074 A 
ATOM     37  C   UNL     1      19.103  -0.634   0.063  1.00  0.00     0.049 A 
ATOM     38  N   UNL     1      20.504  -3.257   0.566  1.00  0.00    -0.248 NA
ATOM     39  C   UNL     1      19.596  -4.068  -1.425  1.00  0.00     0.031 C 
ATOM     40  C   UNL     1      18.400   0.640  -0.105  1.00  0.00     0.029 A 
ATOM     41  N   UNL     1      19.814  -0.469   1.224  1.00  0.00    -0.354 N 
ATOM     42  C   UNL     1      20.905  -4.573   0.378  1.00  0.00     0.074 A 
ATOM     43  C   UNL     1      20.256  -5.046  -0.825  1.00  0.00     0.031 C 
ATOM     44  C   UNL     1      18.737   1.464   0.900  1.00  0.00     0.029 A 
ATOM     45  C   UNL     1      19.640   0.763   1.806  1.00  0.00     0.049 A 
ATOM     46  H   UNL     1      20.394  -1.168   1.605  1.00  0.00     0.167 HD
ATOM     47  C   UNL     1      21.762  -5.312   1.122  1.00  0.00     0.037 A 
ATOM     48  C   UNL     1      20.145   1.266   2.948  1.00  0.00     0.037 A 
ATOM     49  C   UNL     1      22.414  -4.832   2.312  1.00  0.00     0.049 A 
ATOM     50  C   UNL     1      21.068   0.412   3.774  1.00  0.00     0.074 A 
ATOM     51  C   UNL     1      23.326  -5.487   3.120  1.00  0.00     0.029 A 
ATOM     52  N   UNL     1      22.220  -3.574   2.863  1.00  0.00    -0.354 N 
ATOM     53  N   UNL     1      21.487  -0.810   3.551  1.00  0.00    -0.248 NA
ATOM     54  C   UNL     1      21.593   1.011   5.009  1.00  0.00     0.031 C 
ATOM     55  C   UNL     1      23.648  -4.642   4.188  1.00  0.00     0.029 A 
ATOM     56  C   UNL     1      22.982  -3.440   4.013  1.00  0.00     0.049 A 
ATOM     57  H   UNL     1      21.630  -2.879   2.493  1.00  0.00     0.167 HD
ATOM     58  C   UNL     1      22.351  -1.113   4.596  1.00  0.00     0.074 A 
ATOM     59  C   UNL     1      22.408   0.061   5.443  1.00  0.00     0.031 C 
ATOM     60  C   UNL     1      23.036  -2.258   4.835  1.00  0.00     0.037 A 
BRANCH  47  61
ATOM     61  C   UNL     1      22.049  -6.713   0.662  1.00  0.00     0.057 A 
ATOM     62  C   UNL     1      22.773  -6.970  -0.511  1.00  0.00     0.134 A 
ATOM     63  C   UNL     1      21.627  -7.818   1.412  1.00  0.00     0.134 A 
ATOM     64  F   UNL     1      23.197  -5.958  -1.284  1.00  0.00    -0.206 F 
ATOM     65  C   UNL     1      23.042  -8.273  -0.935  1.00  0.00     0.040 A 
ATOM     66  C   UNL     1      21.917  -9.125   1.014  1.00  0.00     0.040 A 
ATOM     67  F   UNL     1      20.935  -7.647   2.549  1.00  0.00    -0.206 F 
ATOM     68  C   UNL     1      22.620  -9.355  -0.167  1.00  0.00     0.006 A 
ENDBRANCH  47  61
BRANCH  48  69
ATOM     69  C   UNL     1      19.805   2.648   3.375  1.00  0.00     0.057 A 
ATOM     70  C   UNL     1      20.779   3.654   3.407  1.00  0.00     0.134 A 
ATOM     71  C   UNL     1      18.513   2.991   3.789  1.00  0.00     0.134 A 
ATOM     72  F   UNL     1      22.040   3.385   3.038  1.00  0.00    -0.206 F 
ATOM     73  C   UNL     1      20.488   4.941   3.865  1.00  0.00     0.040 A 
ATOM     74  C   UNL     1      18.200   4.282   4.220  1.00  0.00     0.040 A 
ATOM     75  F   UNL     1      17.530   2.078   3.772  1.00  0.00    -0.206 F 
ATOM     76  C   UNL     1      19.194   5.258   4.270  1.00  0.00     0.006 A 
ENDBRANCH  48  69
BRANCH  60  77
ATOM     77  C   UNL     1      23.942  -2.279   6.032  1.00  0.00     0.057 A 
ATOM     78  C   UNL     1      23.444  -2.299   7.341  1.00  0.00     0.134 A 
ATOM     79  C   UNL     1      25.333  -2.314   5.869  1.00  0.00     0.134 A 
ATOM     80  F   UNL     1      22.122  -2.253   7.567  1.00  0.00    -0.206 F 
ATOM     81  C   UNL     1      24.297  -2.324   8.445  1.00  0.00     0.040 A 
ATOM     82  C   UNL     1      26.195  -2.372   6.964  1.00  0.00     0.040 A 
ATOM     83  F   UNL     1      25.876  -2.308   4.642  1.00  0.00    -0.206 F 
ATOM     84  C   UNL     1      25.678  -2.368   8.257  1.00  0.00     0.006 A 
ENDBRANCH  60  77
ENDBRANCH  34  35
ENDBRANCH  26  29
ENDBRANCH  24  25
ENDBRANCH  23  24
ENDBRANCH   1  23
TORSDOF 13
