REMARK SMILES Cc1ccc(NC(=O)Cn2c(CCC(=O)NCCCNC(=O)c3ccc(-c4c5nc(c(-c6c(F)cccc6F)c6ccc([nH]6)c(-c6c(F)cccc6F)c6nc(c(-c7c(F)cccc7F)c7ccc4[nH]7)C=C6)C=C5)cc3)ccc2-c2ccccc2)cc1
REMARK SMILES IDX 14 1 15 2 16 3 13 5 12 6 11 7 10 8 79 9 77 10 78 11 9 12
REMARK SMILES IDX 7 13 6 14 8 16 5 17 1 18 2 19 3 20 87 21 4 22 86 23 80 24
REMARK SMILES IDX 81 25 85 26 82 27 84 28 83 29 17 30 18 31 19 32 20 33 21 34
REMARK SMILES IDX 22 36 23 37 24 38 76 39 25 40 75 41 26 42 27 43 28 44 69 45
REMARK SMILES IDX 29 46 74 47 68 48 70 49 30 50 73 51 67 52 66 53 31 55 57 56
REMARK SMILES IDX 40 57 56 58 41 59 44 60 55 61 71 62 42 63 43 64 54 66 72 67
REMARK SMILES IDX 45 68 32 69 33 70 38 71 34 72 35 73 37 74 39 75 36 76 58 77
REMARK SMILES IDX 59 78 64 79 60 80 61 81 63 82 65 83 62 84 46 85 47 86 52 87
REMARK SMILES IDX 48 88 49 89 51 90 53 91 50 92
REMARK H PARENT 16 4 6 15 20 35 70 54 44 65
REMARK Flexibility Score: inf
ROOT
ATOM      1  C   UNL     1      -5.100  -1.119  -1.103  1.00  0.00     0.220 C 
ATOM      2  O   UNL     1      -5.368  -0.181  -0.346  1.00  0.00    -0.275 OA
ATOM      3  N   UNL     1      -5.523  -2.376  -0.768  1.00  0.00    -0.356 N 
ATOM      4  H   UNL     1      -5.701  -2.515   0.191  1.00  0.00     0.163 HD
ENDROOT
BRANCH   1   5
ATOM      5  C   UNL     1      -4.249  -0.862  -2.326  1.00  0.00     0.106 C 
BRANCH   5   6
ATOM      6  C   UNL     1      -2.829  -0.483  -1.889  1.00  0.00     0.064 C 
BRANCH   6   7
ATOM      7  C   UNL     1      -1.877  -1.639  -1.971  1.00  0.00     0.019 A 
ATOM      8  N   UNL     1      -1.719  -2.692  -1.080  1.00  0.00    -0.335 N 
ATOM      9  C   UNL     1      -1.035  -3.711  -1.760  1.00  0.00     0.049 A 
ATOM     10  C   UNL     1      -0.991  -1.855  -3.016  1.00  0.00     0.024 A 
ATOM     11  C   UNL     1      -0.475  -3.152  -2.891  1.00  0.00     0.029 A 
BRANCH   8  12
ATOM     12  C   UNL     1      -2.161  -2.878   0.314  1.00  0.00     0.222 C 
BRANCH  12  13
ATOM     13  C   UNL     1      -2.752  -1.746   1.123  1.00  0.00     0.244 C 
ATOM     14  N   UNL     1      -2.090  -0.574   1.355  1.00  0.00    -0.325 N 
ATOM     15  H   UNL     1      -2.630   0.143   1.760  1.00  0.00     0.169 HD
ATOM     16  O   UNL     1      -3.873  -1.882   1.630  1.00  0.00    -0.273 OA
BRANCH  14  17
ATOM     17  C   UNL     1      -0.754  -0.248   1.099  1.00  0.00     0.041 A 
ATOM     18  C   UNL     1       3.227   0.712  -0.188  1.00  0.00     0.044 C 
ATOM     19  C   UNL     1       1.858   0.424   0.349  1.00  0.00    -0.051 A 
ATOM     20  C   UNL     1       1.575  -0.842   0.869  1.00  0.00     0.005 A 
ATOM     21  C   UNL     1       0.835   1.376   0.274  1.00  0.00     0.005 A 
ATOM     22  C   UNL     1       0.278  -1.168   1.255  1.00  0.00     0.026 A 
ATOM     23  C   UNL     1      -0.462   1.050   0.676  1.00  0.00     0.026 A 
ENDBRANCH  14  17
ENDBRANCH  12  13
ENDBRANCH   8  12
BRANCH   9  24
ATOM     24  C   UNL     1      -1.022  -5.126  -1.397  1.00  0.00    -0.002 A 
ATOM     25  C   UNL     1      -0.058  -5.664  -0.546  1.00  0.00     0.010 A 
ATOM     26  C   UNL     1      -1.964  -5.980  -1.989  1.00  0.00     0.010 A 
ATOM     27  C   UNL     1      -0.063  -7.034  -0.263  1.00  0.00     0.001 A 
ATOM     28  C   UNL     1      -1.990  -7.340  -1.685  1.00  0.00     0.001 A 
ATOM     29  C   UNL     1      -1.035  -7.867  -0.821  1.00  0.00     0.000 A 
ENDBRANCH   9  24
ENDBRANCH   6   7
ENDBRANCH   5   6
ENDBRANCH   1   5
BRANCH   3  30
ATOM     30  C   UNL     1      -5.751  -3.536  -1.610  1.00  0.00     0.117 C 
BRANCH  30  31
ATOM     31  C   UNL     1      -5.111  -4.857  -1.151  1.00  0.00     0.042 C 
BRANCH  31  32
ATOM     32  C   UNL     1      -5.736  -5.683   0.014  1.00  0.00     0.118 C 
BRANCH  32  33
ATOM     33  N   UNL     1      -5.861  -7.093  -0.417  1.00  0.00    -0.352 N 
ATOM     34  C   UNL     1      -5.773  -8.376   0.070  1.00  0.00     0.251 C 
ATOM     35  H   UNL     1      -6.081  -7.123  -1.376  1.00  0.00     0.163 HD
ATOM     36  O   UNL     1      -5.756  -9.242  -0.806  1.00  0.00    -0.269 OA
BRANCH  34  37
ATOM     37  C   UNL     1      -5.740  -8.851   1.492  1.00  0.00     0.039 A 
ATOM     38  C   UNL     1      -5.418 -10.218   1.726  1.00  0.00     0.014 A 
ATOM     39  C   UNL     1      -6.107  -8.103   2.593  1.00  0.00     0.014 A 
ATOM     40  C   UNL     1      -5.403 -10.813   3.017  1.00  0.00     0.010 A 
ATOM     41  C   UNL     1      -6.128  -8.714   3.872  1.00  0.00     0.010 A 
ATOM     42  C   UNL     1      -5.738 -10.059   4.134  1.00  0.00    -0.014 A 
BRANCH  42  43
ATOM     43  C   UNL     1      -5.435 -10.478   5.562  1.00  0.00     0.031 A 
ATOM     44  C   UNL     1      -4.443  -9.629   6.234  1.00  0.00     0.074 A 
ATOM     45  C   UNL     1      -6.263 -11.037   6.493  1.00  0.00     0.049 A 
ATOM     46  N   UNL     1      -4.713  -8.377   6.353  1.00  0.00    -0.248 NA
ATOM     47  C   UNL     1      -3.241 -10.059   6.931  1.00  0.00     0.031 C 
ATOM     48  C   UNL     1      -7.485 -11.772   6.216  1.00  0.00     0.029 A 
ATOM     49  N   UNL     1      -6.275 -10.866   7.911  1.00  0.00    -0.354 N 
ATOM     50  C   UNL     1      -3.903  -7.880   7.316  1.00  0.00     0.074 A 
ATOM     51  C   UNL     1      -2.926  -8.924   7.579  1.00  0.00     0.031 C 
ATOM     52  C   UNL     1      -8.203 -11.871   7.353  1.00  0.00     0.029 A 
ATOM     53  C   UNL     1      -7.535 -11.154   8.463  1.00  0.00     0.049 A 
ATOM     54  H   UNL     1      -5.494 -10.581   8.439  1.00  0.00     0.167 HD
ATOM     55  C   UNL     1      -4.236  -6.703   7.903  1.00  0.00     0.037 A 
ATOM     56  C   UNL     1      -8.266 -10.395   9.346  1.00  0.00     0.037 A 
ATOM     57  C   UNL     1      -5.479  -6.080   7.435  1.00  0.00     0.049 A 
ATOM     58  C   UNL     1      -8.999  -9.473   8.443  1.00  0.00     0.074 A 
ATOM     59  C   UNL     1      -5.916  -4.809   7.122  1.00  0.00     0.029 A 
ATOM     60  N   UNL     1      -6.579  -6.888   7.175  1.00  0.00    -0.354 N 
ATOM     61  N   UNL     1      -8.363  -8.522   7.838  1.00  0.00    -0.248 NA
ATOM     62  C   UNL     1     -10.425  -9.540   8.187  1.00  0.00     0.031 C 
ATOM     63  C   UNL     1      -7.232  -4.913   6.551  1.00  0.00     0.029 A 
ATOM     64  C   UNL     1      -7.615  -6.246   6.517  1.00  0.00     0.049 A 
ATOM     65  H   UNL     1      -6.618  -7.837   7.436  1.00  0.00     0.167 HD
ATOM     66  C   UNL     1      -9.261  -7.907   7.014  1.00  0.00     0.074 A 
ATOM     67  C   UNL     1     -10.535  -8.551   7.290  1.00  0.00     0.031 C 
ATOM     68  C   UNL     1      -8.815  -7.011   6.092  1.00  0.00     0.037 A 
BRANCH  55  69
ATOM     69  C   UNL     1      -3.424  -6.259   9.060  1.00  0.00     0.057 A 
ATOM     70  C   UNL     1      -4.017  -6.051  10.309  1.00  0.00     0.134 A 
ATOM     71  C   UNL     1      -2.026  -6.153   8.992  1.00  0.00     0.134 A 
ATOM     72  F   UNL     1      -5.344  -6.165  10.466  1.00  0.00    -0.206 F 
ATOM     73  C   UNL     1      -3.251  -5.782  11.447  1.00  0.00     0.040 A 
ATOM     74  C   UNL     1      -1.248  -5.911  10.126  1.00  0.00     0.040 A 
ATOM     75  F   UNL     1      -1.381  -6.348   7.831  1.00  0.00    -0.206 F 
ATOM     76  C   UNL     1      -1.862  -5.727  11.361  1.00  0.00     0.006 A 
ENDBRANCH  55  69
BRANCH  56  77
ATOM     77  C   UNL     1      -7.940  -9.751  10.676  1.00  0.00     0.057 A 
ATOM     78  C   UNL     1      -7.635 -10.543  11.787  1.00  0.00     0.134 A 
ATOM     79  C   UNL     1      -8.196  -8.385  10.976  1.00  0.00     0.134 A 
ATOM     80  F   UNL     1      -7.445 -11.863  11.645  1.00  0.00    -0.206 F 
ATOM     81  C   UNL     1      -7.609 -10.023  13.098  1.00  0.00     0.040 A 
ATOM     82  C   UNL     1      -8.159  -7.855  12.270  1.00  0.00     0.040 A 
ATOM     83  F   UNL     1      -8.578  -7.502  10.047  1.00  0.00    -0.206 F 
ATOM     84  C   UNL     1      -7.880  -8.678  13.343  1.00  0.00     0.006 A 
ENDBRANCH  56  77
BRANCH  68  85
ATOM     85  C   UNL     1      -9.486  -6.918   4.727  1.00  0.00     0.057 A 
ATOM     86  C   UNL     1     -10.409  -7.868   4.220  1.00  0.00     0.134 A 
ATOM     87  C   UNL     1      -9.085  -5.970   3.770  1.00  0.00     0.134 A 
ATOM     88  F   UNL     1     -10.736  -8.984   4.886  1.00  0.00    -0.206 F 
ATOM     89  C   UNL     1     -10.993  -7.790   2.948  1.00  0.00     0.040 A 
ATOM     90  C   UNL     1      -9.624  -5.910   2.474  1.00  0.00     0.040 A 
ATOM     91  F   UNL     1      -8.097  -5.101   4.011  1.00  0.00    -0.206 F 
ATOM     92  C   UNL     1     -10.604  -6.801   2.067  1.00  0.00     0.006 A 
ENDBRANCH  68  85
ENDBRANCH  42  43
ENDBRANCH  34  37
ENDBRANCH  32  33
ENDBRANCH  31  32
ENDBRANCH  30  31
ENDBRANCH   3  30
TORSDOF 16
