REMARK SMILES CC(C)CCn1nc(C(=O)NCCCNC(=O)c2ccc(-c3c4nc(c(-c5c(F)cccc5F)c5ccc([nH]5)c(-c5c(F)cccc5F)c5nc(c(-c6c(F)cccc6F)c6ccc3[nH]6)C=C5)C=C4)cc2)c2c1CCN(C(=O)[C@@H]1CCc3nn(C)c(=O)n3C1)C2
REMARK SMILES IDX 12 1 11 2 9 3 10 4 8 6 6 7 7 8 73 9 72 10 74 11 90 12 75 13
REMARK SMILES IDX 76 14 5 15 4 16 2 17 1 18 3 19 77 20 78 21 79 22 80 23 89 24
REMARK SMILES IDX 81 25 88 26 82 27 86 28 83 29 84 30 87 31 85 32 13 33 14 34
REMARK SMILES IDX 15 35 16 36 17 38 18 39 19 40 71 41 20 42 70 43 21 44 22 45
REMARK SMILES IDX 23 46 64 47 24 48 69 49 63 50 65 51 25 52 68 53 62 54 61 55
REMARK SMILES IDX 26 57 52 58 35 59 51 60 36 61 39 62 50 63 66 64 37 65 38 66
REMARK SMILES IDX 49 68 67 69 40 70 27 71 28 72 33 73 29 74 30 75 32 76 34 77
REMARK SMILES IDX 31 78 53 79 54 80 59 81 55 82 56 83 58 84 60 85 57 86 41 87
REMARK SMILES IDX 42 88 47 89 43 90 44 91 46 92 48 93 45 94
REMARK H PARENT 11 5 15 37 65 56 39 67
REMARK Flexibility Score: inf
ROOT
ATOM      1  C   UNL     1       0.541   7.805  -2.414  1.00  0.00     0.118 C 
ENDROOT
BRANCH   1   2
ATOM      2  N   UNL     1      -0.711   7.583  -1.687  1.00  0.00    -0.351 N 
ATOM      3  C   UNL     1      -1.349   6.480  -1.135  1.00  0.00     0.272 C 
ATOM      4  O   UNL     1      -2.285   6.763  -0.380  1.00  0.00    -0.267 OA
ATOM      5  H   UNL     1      -1.222   8.414  -1.559  1.00  0.00     0.163 HD
BRANCH   3   6
ATOM      6  C   UNL     1      -0.969   5.064  -1.397  1.00  0.00     0.155 A 
ATOM      7  N   UNL     1      -0.814   2.930  -1.027  1.00  0.00    -0.268 N 
ATOM      8  N   UNL     1      -1.227   4.102  -0.478  1.00  0.00    -0.167 NA
ATOM      9  C   UNL     1      -0.118   3.147  -2.174  1.00  0.00     0.046 A 
ATOM     10  C   UNL     1      -0.413   4.440  -2.540  1.00  0.00     0.026 A 
ATOM     11  C   UNL     1       0.764   2.287  -2.999  1.00  0.00     0.078 C 
ATOM     12  C   UNL     1      -0.038   4.983  -3.850  1.00  0.00     0.159 C 
ATOM     13  C   UNL     1       1.584   3.208  -3.913  1.00  0.00     0.126 C 
ATOM     14  N   UNL     1       0.724   4.081  -4.697  1.00  0.00    -0.338 N 
BRANCH   7  15
ATOM     15  C   UNL     1      -1.311   1.702  -0.421  1.00  0.00     0.145 C 
BRANCH  15  16
ATOM     16  C   UNL     1      -0.945   0.359  -1.067  1.00  0.00     0.027 C 
BRANCH  16  17
ATOM     17  C   UNL     1       0.511  -0.079  -0.826  1.00  0.00    -0.016 C 
ATOM     18  C   UNL     1       0.748  -0.652   0.565  1.00  0.00     0.007 C 
ATOM     19  C   UNL     1       0.954  -1.069  -1.907  1.00  0.00     0.007 C 
ENDBRANCH  16  17
ENDBRANCH  15  16
ENDBRANCH   7  15
BRANCH  14  20
ATOM     20  C   UNL     1       0.825   4.451  -6.025  1.00  0.00     0.227 C 
ATOM     21  O   UNL     1       0.250   5.483  -6.408  1.00  0.00    -0.274 OA
BRANCH  20  22
ATOM     22  C   UNL     1       1.562   3.644  -7.103  1.00  0.00     0.099 C 
ATOM     23  C   UNL     1       0.861   2.347  -7.509  1.00  0.00     0.023 C 
ATOM     24  C   UNL     1       3.066   3.480  -6.942  1.00  0.00     0.142 C 
ATOM     25  C   UNL     1       1.213   1.145  -6.647  1.00  0.00     0.078 C 
ATOM     26  N   UNL     1       3.437   2.208  -6.367  1.00  0.00    -0.278 N 
ATOM     27  C   UNL     1       2.631   1.147  -6.156  1.00  0.00     0.133 A 
ATOM     28  C   UNL     1       4.548   2.010  -5.583  1.00  0.00     0.345 A 
ATOM     29  N   UNL     1       3.105   0.258  -5.331  1.00  0.00    -0.155 NA
ATOM     30  N   UNL     1       4.322   0.785  -4.947  1.00  0.00    -0.216 N 
ATOM     31  O   UNL     1       5.447   2.806  -5.369  1.00  0.00    -0.246 OA
ATOM     32  C   UNL     1       5.028   0.329  -3.780  1.00  0.00     0.179 C 
ENDBRANCH  20  22
ENDBRANCH  14  20
ENDBRANCH   3   6
ENDBRANCH   1   2
BRANCH   1  33
ATOM     33  C   UNL     1       0.352   7.840  -3.943  1.00  0.00     0.042 C 
BRANCH  33  34
ATOM     34  C   UNL     1       0.394   9.171  -4.627  1.00  0.00     0.118 C 
BRANCH  34  35
ATOM     35  N   UNL     1       1.764   9.639  -4.846  1.00  0.00    -0.352 N 
ATOM     36  C   UNL     1       2.140  10.810  -5.483  1.00  0.00     0.251 C 
ATOM     37  H   UNL     1       2.488   9.065  -4.507  1.00  0.00     0.163 HD
ATOM     38  O   UNL     1       3.233  10.934  -5.998  1.00  0.00    -0.269 OA
BRANCH  36  39
ATOM     39  C   UNL     1       1.139  11.890  -5.532  1.00  0.00     0.039 A 
ATOM     40  C   UNL     1       0.918  12.627  -6.694  1.00  0.00     0.014 A 
ATOM     41  C   UNL     1       0.323  12.040  -4.418  1.00  0.00     0.014 A 
ATOM     42  C   UNL     1      -0.210  13.439  -6.750  1.00  0.00     0.010 A 
ATOM     43  C   UNL     1      -0.899  12.630  -4.570  1.00  0.00     0.010 A 
ATOM     44  C   UNL     1      -1.142  13.400  -5.697  1.00  0.00    -0.014 A 
BRANCH  44  45
ATOM     45  C   UNL     1      -2.435  14.065  -5.808  1.00  0.00     0.031 A 
ATOM     46  C   UNL     1      -3.152  13.763  -7.072  1.00  0.00     0.074 A 
ATOM     47  C   UNL     1      -3.014  14.739  -4.790  1.00  0.00     0.049 A 
ATOM     48  N   UNL     1      -3.297  14.546  -8.088  1.00  0.00    -0.248 NA
ATOM     49  C   UNL     1      -3.593  12.381  -7.323  1.00  0.00     0.031 C 
ATOM     50  C   UNL     1      -2.562  14.838  -3.394  1.00  0.00     0.029 A 
ATOM     51  N   UNL     1      -4.198  15.415  -4.763  1.00  0.00    -0.354 N 
ATOM     52  C   UNL     1      -4.073  13.840  -9.003  1.00  0.00     0.074 A 
ATOM     53  C   UNL     1      -4.024  12.466  -8.585  1.00  0.00     0.031 C 
ATOM     54  C   UNL     1      -3.559  15.317  -2.621  1.00  0.00     0.029 A 
ATOM     55  C   UNL     1      -4.640  15.745  -3.485  1.00  0.00     0.049 A 
ATOM     56  H   UNL     1      -4.698  15.649  -5.578  1.00  0.00     0.167 HD
ATOM     57  C   UNL     1      -4.929  14.508  -9.826  1.00  0.00     0.037 A 
ATOM     58  C   UNL     1      -5.809  16.344  -3.154  1.00  0.00     0.037 A 
ATOM     59  C   UNL     1      -4.628  15.922  -9.805  1.00  0.00     0.049 A 
ATOM     60  C   UNL     1      -6.301  17.028  -4.368  1.00  0.00     0.074 A 
ATOM     61  C   UNL     1      -3.590  16.728 -10.219  1.00  0.00     0.029 A 
ATOM     62  N   UNL     1      -5.354  16.634  -8.885  1.00  0.00    -0.354 N 
ATOM     63  N   UNL     1      -5.722  18.069  -4.897  1.00  0.00    -0.248 NA
ATOM     64  C   UNL     1      -7.246  16.333  -5.231  1.00  0.00     0.031 C 
ATOM     65  C   UNL     1      -3.569  17.827  -9.308  1.00  0.00     0.029 A 
ATOM     66  C   UNL     1      -4.627  17.689  -8.409  1.00  0.00     0.049 A 
ATOM     67  H   UNL     1      -6.272  16.416  -8.606  1.00  0.00     0.167 HD
ATOM     68  C   UNL     1      -5.876  17.892  -6.259  1.00  0.00     0.074 A 
ATOM     69  C   UNL     1      -6.963  16.928  -6.393  1.00  0.00     0.031 C 
ATOM     70  C   UNL     1      -4.898  18.296  -7.122  1.00  0.00     0.037 A 
BRANCH  57  71
ATOM     71  C   UNL     1      -6.316  14.024 -10.222  1.00  0.00     0.057 A 
ATOM     72  C   UNL     1      -7.111  14.863 -11.033  1.00  0.00     0.134 A 
ATOM     73  C   UNL     1      -7.020  12.969  -9.607  1.00  0.00     0.134 A 
ATOM     74  F   UNL     1      -6.572  15.902 -11.688  1.00  0.00    -0.206 F 
ATOM     75  C   UNL     1      -8.502  14.727 -11.131  1.00  0.00     0.040 A 
ATOM     76  C   UNL     1      -8.403  12.798  -9.735  1.00  0.00     0.040 A 
ATOM     77  F   UNL     1      -6.443  12.098  -8.774  1.00  0.00    -0.206 F 
ATOM     78  C   UNL     1      -9.156  13.699 -10.467  1.00  0.00     0.006 A 
ENDBRANCH  57  71
BRANCH  58  79
ATOM     79  C   UNL     1      -6.628  16.231  -1.928  1.00  0.00     0.057 A 
ATOM     80  C   UNL     1      -7.625  17.172  -1.635  1.00  0.00     0.134 A 
ATOM     81  C   UNL     1      -6.655  15.046  -1.174  1.00  0.00     0.134 A 
ATOM     82  F   UNL     1      -7.697  18.324  -2.318  1.00  0.00    -0.206 F 
ATOM     83  C   UNL     1      -8.623  16.930  -0.682  1.00  0.00     0.040 A 
ATOM     84  C   UNL     1      -7.642  14.793  -0.216  1.00  0.00     0.040 A 
ATOM     85  F   UNL     1      -5.780  14.057  -1.409  1.00  0.00    -0.206 F 
ATOM     86  C   UNL     1      -8.643  15.729   0.019  1.00  0.00     0.006 A 
ENDBRANCH  58  79
BRANCH  70  87
ATOM     87  C   UNL     1      -3.924  19.326  -6.629  1.00  0.00     0.057 A 
ATOM     88  C   UNL     1      -2.996  19.128  -5.596  1.00  0.00     0.134 A 
ATOM     89  C   UNL     1      -3.860  20.547  -7.312  1.00  0.00     0.134 A 
ATOM     90  F   UNL     1      -2.926  17.965  -4.936  1.00  0.00    -0.206 F 
ATOM     91  C   UNL     1      -2.074  20.116  -5.239  1.00  0.00     0.040 A 
ATOM     92  C   UNL     1      -2.920  21.526  -6.990  1.00  0.00     0.040 A 
ATOM     93  F   UNL     1      -4.690  20.790  -8.339  1.00  0.00    -0.206 F 
ATOM     94  C   UNL     1      -2.028  21.317  -5.942  1.00  0.00     0.006 A 
ENDBRANCH  70  87
ENDBRANCH  44  45
ENDBRANCH  36  39
ENDBRANCH  34  35
ENDBRANCH  33  34
ENDBRANCH   1  33
TORSDOF 15
