REMARK SMILES CCOc1cc2c(cc1OCC)[C@@H](C(=O)NCCCNC(=O)c1ccc(-c3c4nc(c(-c5c(F)cccc5F)c5ccc([nH]5)c(-c5c(F)cccc5F)c5nc(c(-c6c(F)cccc6F)c6ccc3[nH]6)C=C5)C=C4)cc1)[C@H](c1ccc(F)cc1Cl)N(C)C2=O
REMARK SMILES IDX 18 1 17 2 16 3 14 4 15 5 13 7 4 8 5 9 9 10 6 11 8 12 7 13
REMARK SMILES IDX 88 14 86 15 89 16 77 17 87 18 3 19 2 20 1 21 10 22 11 23
REMARK SMILES IDX 12 24 78 25 79 26 84 27 80 28 83 29 85 30 81 31 82 32 19 33
REMARK SMILES IDX 20 34 21 35 22 37 23 38 24 39 76 40 25 41 75 42 26 43 27 44
REMARK SMILES IDX 28 45 69 46 29 47 74 48 68 49 70 50 30 51 73 52 67 53 66 54
REMARK SMILES IDX 31 56 57 57 40 58 56 59 41 60 44 61 55 62 71 63 42 64 43 65
REMARK SMILES IDX 54 67 72 68 45 69 32 70 33 71 38 72 34 73 35 74 37 75 39 76
REMARK SMILES IDX 36 77 58 78 59 79 64 80 60 81 61 82 63 83 65 84 62 85 46 86
REMARK SMILES IDX 47 87 52 88 48 89 49 90 51 91 53 92 50 93
REMARK H PARENT 16 6 20 36 70 55 44 66
REMARK Flexibility Score: inf
ROOT
ATOM      1  C   UNL     1       7.162   0.061   1.164  1.00  0.00     0.042 C 
ENDROOT
BRANCH   1   2
ATOM      2  C   UNL     1       6.524   1.445   1.237  1.00  0.00     0.117 C 
BRANCH   2   3
ATOM      3  N   UNL     1       7.317   2.427   0.510  1.00  0.00    -0.355 N 
ATOM      4  C   UNL     1       7.335   2.855  -0.777  1.00  0.00     0.230 C 
ATOM      5  O   UNL     1       8.286   3.597  -1.069  1.00  0.00    -0.274 OA
ATOM      6  H   UNL     1       7.985   2.878   1.076  1.00  0.00     0.163 HD
BRANCH   4   7
ATOM      7  C   UNL     1       6.339   2.501  -1.883  1.00  0.00     0.136 C 
ATOM      8  C   UNL     1       2.161   1.937  -1.012  1.00  0.00     0.161 A 
ATOM      9  C   UNL     1       3.016   0.838  -1.170  1.00  0.00     0.064 A 
ATOM     10  C   UNL     1       2.656   3.240  -1.148  1.00  0.00     0.161 A 
ATOM     11  C   UNL     1       4.375   1.024  -1.405  1.00  0.00     0.048 A 
ATOM     12  C   UNL     1       4.031   3.414  -1.371  1.00  0.00     0.056 A 
ATOM     13  C   UNL     1       4.893   2.317  -1.507  1.00  0.00    -0.016 A 
ATOM     14  C   UNL     1       5.282  -0.157  -1.489  1.00  0.00     0.254 C 
ATOM     15  N   UNL     1       6.525   0.057  -2.084  1.00  0.00    -0.333 N 
ATOM     16  O   UNL     1       4.926  -1.223  -1.002  1.00  0.00    -0.269 OA
ATOM     17  C   UNL     1       6.807   1.310  -2.783  1.00  0.00     0.134 C 
ATOM     18  C   UNL     1       7.522  -1.004  -2.125  1.00  0.00     0.147 C 
BRANCH   8  19
ATOM     19  O   UNL     1       0.829   1.674  -0.836  1.00  0.00    -0.490 OA
BRANCH  19  20
ATOM     20  C   UNL     1       0.527   1.176   0.476  1.00  0.00     0.226 C 
ATOM     21  C   UNL     1       0.493  -0.343   0.510  1.00  0.00     0.049 C 
ENDBRANCH  19  20
ENDBRANCH   8  19
BRANCH  10  22
ATOM     22  O   UNL     1       1.992   4.434  -1.121  1.00  0.00    -0.490 OA
BRANCH  22  23
ATOM     23  C   UNL     1       0.576   4.483  -0.991  1.00  0.00     0.226 C 
ATOM     24  C   UNL     1      -0.130   4.218  -2.310  1.00  0.00     0.049 C 
ENDBRANCH  22  23
ENDBRANCH  10  22
BRANCH  17  25
ATOM     25  C   UNL     1       6.213   1.406  -4.220  1.00  0.00    -0.005 A 
ATOM     26  C   UNL     1       6.489   2.611  -4.918  1.00  0.00     0.010 A 
ATOM     27  C   UNL     1       5.406   0.460  -4.902  1.00  0.00     0.049 A 
ATOM     28  C   UNL     1       5.908   2.906  -6.154  1.00  0.00     0.040 A 
ATOM     29  C   UNL     1       4.827   0.766  -6.143  1.00  0.00     0.060 A 
ATOM     30  Cl  UNL     1       5.052  -1.150  -4.387  1.00  0.00    -0.084 Cl
ATOM     31  C   UNL     1       5.064   1.986  -6.746  1.00  0.00     0.124 A 
ATOM     32  F   UNL     1       4.488   2.267  -7.920  1.00  0.00    -0.207 F 
ENDBRANCH  17  25
ENDBRANCH   4   7
ENDBRANCH   2   3
ENDBRANCH   1   2
BRANCH   1  33
ATOM     33  C   UNL     1       7.901  -0.362   2.422  1.00  0.00     0.118 C 
BRANCH  33  34
ATOM     34  N   UNL     1       6.994  -0.776   3.481  1.00  0.00    -0.352 N 
ATOM     35  C   UNL     1       6.842  -1.990   4.109  1.00  0.00     0.251 C 
ATOM     36  H   UNL     1       6.388  -0.070   3.802  1.00  0.00     0.163 HD
ATOM     37  O   UNL     1       5.873  -2.158   4.846  1.00  0.00    -0.269 OA
BRANCH  35  38
ATOM     38  C   UNL     1       7.811  -3.098   3.915  1.00  0.00     0.039 A 
ATOM     39  C   UNL     1       7.338  -4.416   3.951  1.00  0.00     0.014 A 
ATOM     40  C   UNL     1       9.179  -2.870   3.760  1.00  0.00     0.014 A 
ATOM     41  C   UNL     1       8.223  -5.487   3.786  1.00  0.00     0.010 A 
ATOM     42  C   UNL     1      10.044  -3.930   3.493  1.00  0.00     0.010 A 
ATOM     43  C   UNL     1       9.581  -5.253   3.524  1.00  0.00    -0.014 A 
BRANCH  43  44
ATOM     44  C   UNL     1      10.539  -6.371   3.315  1.00  0.00     0.031 A 
ATOM     45  C   UNL     1      11.706  -6.554   4.250  1.00  0.00     0.074 A 
ATOM     46  C   UNL     1      10.403  -7.182   2.248  1.00  0.00     0.049 A 
ATOM     47  N   UNL     1      12.693  -7.412   4.188  1.00  0.00    -0.248 NA
ATOM     48  C   UNL     1      11.793  -5.625   5.388  1.00  0.00     0.031 C 
ATOM     49  C   UNL     1       9.348  -7.081   1.238  1.00  0.00     0.029 A 
ATOM     50  N   UNL     1      11.164  -8.245   1.829  1.00  0.00    -0.354 N 
ATOM     51  C   UNL     1      13.527  -7.109   5.258  1.00  0.00     0.074 A 
ATOM     52  C   UNL     1      12.961  -5.954   5.919  1.00  0.00     0.031 C 
ATOM     53  C   UNL     1       9.514  -8.057   0.331  1.00  0.00     0.029 A 
ATOM     54  C   UNL     1      10.707  -8.827   0.671  1.00  0.00     0.049 A 
ATOM     55  H   UNL     1      11.961  -8.560   2.312  1.00  0.00     0.167 HD
ATOM     56  C   UNL     1      14.649  -7.748   5.668  1.00  0.00     0.037 A 
ATOM     57  C   UNL     1      11.196  -9.860  -0.040  1.00  0.00     0.037 A 
ATOM     58  C   UNL     1      15.189  -8.920   5.031  1.00  0.00     0.049 A 
ATOM     59  C   UNL     1      12.433 -10.565   0.442  1.00  0.00     0.074 A 
ATOM     60  C   UNL     1      16.276  -9.687   5.413  1.00  0.00     0.029 A 
ATOM     61  N   UNL     1      14.680  -9.495   3.876  1.00  0.00    -0.354 N 
ATOM     62  N   UNL     1      13.173 -10.310   1.494  1.00  0.00    -0.248 NA
ATOM     63  C   UNL     1      12.900 -11.705  -0.359  1.00  0.00     0.031 C 
ATOM     64  C   UNL     1      16.452 -10.699   4.464  1.00  0.00     0.029 A 
ATOM     65  C   UNL     1      15.445 -10.593   3.518  1.00  0.00     0.049 A 
ATOM     66  H   UNL     1      13.892  -9.171   3.383  1.00  0.00     0.167 HD
ATOM     67  C   UNL     1      14.176 -11.269   1.496  1.00  0.00     0.074 A 
ATOM     68  C   UNL     1      13.942 -12.121   0.348  1.00  0.00     0.031 C 
ATOM     69  C   UNL     1      15.199 -11.431   2.371  1.00  0.00     0.037 A 
BRANCH  56  70
ATOM     70  C   UNL     1      15.365  -7.189   6.865  1.00  0.00     0.057 A 
ATOM     71  C   UNL     1      14.817  -7.250   8.154  1.00  0.00     0.134 A 
ATOM     72  C   UNL     1      16.626  -6.595   6.730  1.00  0.00     0.134 A 
ATOM     73  F   UNL     1      13.607  -7.795   8.353  1.00  0.00    -0.206 F 
ATOM     74  C   UNL     1      15.480  -6.709   9.257  1.00  0.00     0.040 A 
ATOM     75  C   UNL     1      17.313  -6.078   7.831  1.00  0.00     0.040 A 
ATOM     76  F   UNL     1      17.215  -6.509   5.527  1.00  0.00    -0.206 F 
ATOM     77  C   UNL     1      16.735  -6.125   9.098  1.00  0.00     0.006 A 
ENDBRANCH  56  70
BRANCH  57  78
ATOM     78  C   UNL     1      10.494 -10.306  -1.269  1.00  0.00     0.057 A 
ATOM     79  C   UNL     1       9.786 -11.514  -1.297  1.00  0.00     0.134 A 
ATOM     80  C   UNL     1      10.497  -9.533  -2.436  1.00  0.00     0.134 A 
ATOM     81  F   UNL     1       9.762 -12.307  -0.216  1.00  0.00    -0.206 F 
ATOM     82  C   UNL     1       9.117 -11.942  -2.445  1.00  0.00     0.040 A 
ATOM     83  C   UNL     1       9.812  -9.938  -3.583  1.00  0.00     0.040 A 
ATOM     84  F   UNL     1      11.151  -8.362  -2.471  1.00  0.00    -0.206 F 
ATOM     85  C   UNL     1       9.123 -11.149  -3.590  1.00  0.00     0.006 A 
ENDBRANCH  57  78
BRANCH  69  86
ATOM     86  C   UNL     1      16.127 -12.587   2.136  1.00  0.00     0.057 A 
ATOM     87  C   UNL     1      17.057 -12.588   1.089  1.00  0.00     0.134 A 
ATOM     88  C   UNL     1      16.117 -13.694   2.994  1.00  0.00     0.134 A 
ATOM     89  F   UNL     1      17.109 -11.563   0.225  1.00  0.00    -0.206 F 
ATOM     90  C   UNL     1      17.929 -13.659   0.890  1.00  0.00     0.040 A 
ATOM     91  C   UNL     1      17.002 -14.759   2.822  1.00  0.00     0.040 A 
ATOM     92  F   UNL     1      15.257 -13.752   4.023  1.00  0.00    -0.206 F 
ATOM     93  C   UNL     1      17.908 -14.745   1.763  1.00  0.00     0.006 A 
ENDBRANCH  69  86
ENDBRANCH  43  44
ENDBRANCH  35  38
ENDBRANCH  33  34
ENDBRANCH   1  33
TORSDOF 15
