REMARK SMILES Cc1ccccc1/[NH+]=C1\S[C@@H](CC(=O)Nc2ccc(C(=O)NCCCNC(=O)c3ccc(-c4c5nc(c(-c6c(F)cccc6F)c6ccc([nH]6)c(-c6c(F)cccc6F)c6nc(c(-c7c(F)cccc7F)c7ccc4[nH]7)C=C6)C=C5)cc3)cc2)C(=O)N1C
REMARK SMILES IDX 23 1 22 2 20 3 21 4 19 6 16 7 17 8 84 9 18 10 83 11 15 12
REMARK SMILES IDX 13 13 14 14 12 16 11 17 8 18 9 19 10 21 87 22 85 23 88 24
REMARK SMILES IDX 86 25 7 26 1 27 2 28 3 29 4 30 6 31 5 32 24 33 25 34 26 35
REMARK SMILES IDX 27 36 28 38 29 39 30 40 82 41 31 42 81 43 32 44 33 45 34 46
REMARK SMILES IDX 75 47 35 48 80 49 74 50 76 51 36 52 79 53 73 54 72 55 37 57
REMARK SMILES IDX 63 58 46 59 62 60 47 61 50 62 61 63 77 64 48 65 49 66 60 68
REMARK SMILES IDX 78 69 51 70 38 71 39 72 44 73 40 74 41 75 43 76 45 77 42 78
REMARK SMILES IDX 64 79 65 80 70 81 66 82 67 83 69 84 71 85 68 86 52 87 53 88
REMARK SMILES IDX 58 89 54 90 55 91 57 92 59 93 56 94
REMARK H PARENT 22 5 15 15 8 20 26 37 76 56 50 67
REMARK Flexibility Score: inf
ROOT
ATOM      1  C   UNL     1       3.189   4.945  -3.004  1.00  0.00     0.118 C 
ENDROOT
BRANCH   1   2
ATOM      2  N   UNL     1       4.138   5.932  -3.516  1.00  0.00    -0.352 N 
ATOM      3  C   UNL     1       5.473   6.131  -3.228  1.00  0.00     0.251 C 
ATOM      4  O   UNL     1       6.143   6.855  -3.961  1.00  0.00    -0.269 OA
ATOM      5  H   UNL     1       3.762   6.559  -4.175  1.00  0.00     0.163 HD
BRANCH   3   6
ATOM      6  C   UNL     1       6.133   5.484  -2.066  1.00  0.00     0.039 A 
ATOM      7  C   UNL     1       7.358   4.143   0.062  1.00  0.00     0.041 A 
ATOM      8  C   UNL     1       6.110   4.736   0.219  1.00  0.00     0.027 A 
ATOM      9  C   UNL     1       8.084   4.377  -1.099  1.00  0.00     0.027 A 
ATOM     10  C   UNL     1       5.498   5.400  -0.834  1.00  0.00     0.016 A 
ATOM     11  C   UNL     1       7.462   5.037  -2.171  1.00  0.00     0.016 A 
BRANCH   7  12
ATOM     12  N   UNL     1       7.843   3.293   1.063  1.00  0.00    -0.326 N 
ATOM     13  C   UNL     1       7.170   2.195   1.563  1.00  0.00     0.226 C 
ATOM     14  O   UNL     1       7.514   1.666   2.619  1.00  0.00    -0.275 OA
ATOM     15  H   UNL     1       8.731   3.493   1.439  1.00  0.00     0.169 HD
BRANCH  13  16
ATOM     16  C   UNL     1       6.139   1.537   0.654  1.00  0.00     0.128 C 
BRANCH  16  17
ATOM     17  C   UNL     1       4.714   1.498   1.161  1.00  0.00     0.183 C 
ATOM     18  N   UNL     1       1.043   1.841   0.674  1.00  0.00    -0.234 N 
ATOM     19  C   UNL     1       2.308   2.045   0.610  1.00  0.00     0.319 C 
ATOM     20  H   UNL     1       0.531   2.526   1.161  1.00  0.00     0.313 HD
ATOM     21  S   UNL     1       3.562   1.209  -0.242  1.00  0.00    -0.022 SA
ATOM     22  N   UNL     1       2.885   3.037   1.347  1.00  0.00    -0.193 N 
ATOM     23  C   UNL     1       4.151   2.749   1.813  1.00  0.00     0.324 C 
ATOM     24  C   UNL     1       2.165   4.200   1.824  1.00  0.00     0.301 C 
ATOM     25  O   UNL     1       4.701   3.357   2.724  1.00  0.00    -0.245 OA
BRANCH  18  26
ATOM     26  C   UNL     1       0.284   0.783   0.153  1.00  0.00     0.128 A 
ATOM     27  C   UNL     1       1.831  -1.198   0.775  1.00  0.00     0.049 C 
ATOM     28  C   UNL     1       0.556  -0.600   0.254  1.00  0.00    -0.004 A 
ATOM     29  C   UNL     1      -0.431  -1.531  -0.137  1.00  0.00     0.008 A 
ATOM     30  C   UNL     1      -1.698  -1.121  -0.538  1.00  0.00     0.001 A 
ATOM     31  C   UNL     1      -1.002   1.166  -0.273  1.00  0.00     0.052 A 
ATOM     32  C   UNL     1      -1.988   0.233  -0.600  1.00  0.00     0.004 A 
ENDBRANCH  18  26
ENDBRANCH  16  17
ENDBRANCH  13  16
ENDBRANCH   7  12
ENDBRANCH   3   6
ENDBRANCH   1   2
BRANCH   1  33
ATOM     33  C   UNL     1       2.232   5.517  -1.957  1.00  0.00     0.042 C 
BRANCH  33  34
ATOM     34  C   UNL     1       0.975   6.166  -2.524  1.00  0.00     0.118 C 
BRANCH  34  35
ATOM     35  N   UNL     1      -0.237   5.360  -2.380  1.00  0.00    -0.352 N 
ATOM     36  C   UNL     1      -1.551   5.686  -2.703  1.00  0.00     0.251 C 
ATOM     37  H   UNL     1      -0.105   4.461  -2.002  1.00  0.00     0.163 HD
ATOM     38  O   UNL     1      -2.447   4.875  -2.558  1.00  0.00    -0.269 OA
BRANCH  36  39
ATOM     39  C   UNL     1      -1.818   6.989  -3.363  1.00  0.00     0.039 A 
ATOM     40  C   UNL     1      -2.488   6.972  -4.591  1.00  0.00     0.014 A 
ATOM     41  C   UNL     1      -1.170   8.138  -2.930  1.00  0.00     0.014 A 
ATOM     42  C   UNL     1      -2.246   7.994  -5.506  1.00  0.00     0.010 A 
ATOM     43  C   UNL     1      -0.825   9.081  -3.875  1.00  0.00     0.010 A 
ATOM     44  C   UNL     1      -1.300   8.966  -5.187  1.00  0.00    -0.014 A 
BRANCH  44  45
ATOM     45  C   UNL     1      -0.628   9.798  -6.183  1.00  0.00     0.031 A 
ATOM     46  C   UNL     1      -0.798  11.267  -6.182  1.00  0.00     0.074 A 
ATOM     47  C   UNL     1       0.280   9.232  -7.012  1.00  0.00     0.049 A 
ATOM     48  N   UNL     1      -0.447  12.035  -7.157  1.00  0.00    -0.248 NA
ATOM     49  C   UNL     1      -1.411  11.992  -5.075  1.00  0.00     0.031 C 
ATOM     50  C   UNL     1       1.309   9.909  -7.798  1.00  0.00     0.029 A 
ATOM     51  N   UNL     1       0.319   7.906  -7.467  1.00  0.00    -0.354 N 
ATOM     52  C   UNL     1      -0.554  13.338  -6.733  1.00  0.00     0.074 A 
ATOM     53  C   UNL     1      -1.182  13.259  -5.434  1.00  0.00     0.031 C 
ATOM     54  C   UNL     1       1.673   9.114  -8.815  1.00  0.00     0.029 A 
ATOM     55  C   UNL     1       0.783   7.970  -8.804  1.00  0.00     0.049 A 
ATOM     56  H   UNL     1       0.074   7.097  -6.962  1.00  0.00     0.167 HD
ATOM     57  C   UNL     1      -0.017  14.335  -7.490  1.00  0.00     0.037 A 
ATOM     58  C   UNL     1      -0.011   7.581  -9.845  1.00  0.00     0.037 A 
ATOM     59  C   UNL     1       0.530  13.829  -8.743  1.00  0.00     0.049 A 
ATOM     60  C   UNL     1      -0.332   8.674 -10.845  1.00  0.00     0.074 A 
ATOM     61  C   UNL     1       1.791  13.450  -9.172  1.00  0.00     0.029 A 
ATOM     62  N   UNL     1      -0.353  13.367  -9.697  1.00  0.00    -0.354 N 
ATOM     63  N   UNL     1       0.037   9.918 -10.720  1.00  0.00    -0.248 NA
ATOM     64  C   UNL     1      -1.187   8.464 -12.016  1.00  0.00     0.031 C 
ATOM     65  C   UNL     1       1.643  12.723 -10.389  1.00  0.00     0.029 A 
ATOM     66  C   UNL     1       0.296  12.672 -10.696  1.00  0.00     0.049 A 
ATOM     67  H   UNL     1      -1.326  13.515  -9.669  1.00  0.00     0.167 HD
ATOM     68  C   UNL     1      -0.579  10.669 -11.685  1.00  0.00     0.074 A 
ATOM     69  C   UNL     1      -1.317   9.716 -12.489  1.00  0.00     0.031 C 
ATOM     70  C   UNL     1      -0.498  12.028 -11.726  1.00  0.00     0.037 A 
BRANCH  57  71
ATOM     71  C   UNL     1       0.173  15.749  -7.011  1.00  0.00     0.057 A 
ATOM     72  C   UNL     1       1.263  16.518  -7.460  1.00  0.00     0.134 A 
ATOM     73  C   UNL     1      -0.666  16.401  -6.092  1.00  0.00     0.134 A 
ATOM     74  F   UNL     1       2.105  16.065  -8.399  1.00  0.00    -0.206 F 
ATOM     75  C   UNL     1       1.551  17.794  -6.960  1.00  0.00     0.040 A 
ATOM     76  C   UNL     1      -0.358  17.652  -5.538  1.00  0.00     0.040 A 
ATOM     77  F   UNL     1      -1.846  15.881  -5.730  1.00  0.00    -0.206 F 
ATOM     78  C   UNL     1       0.761  18.350  -5.966  1.00  0.00     0.006 A 
ENDBRANCH  57  71
BRANCH  58  79
ATOM     79  C   UNL     1      -0.934   6.476  -9.476  1.00  0.00     0.057 A 
ATOM     80  C   UNL     1      -0.385   5.240  -9.090  1.00  0.00     0.134 A 
ATOM     81  C   UNL     1      -2.265   6.721  -9.130  1.00  0.00     0.134 A 
ATOM     82  F   UNL     1       0.890   4.943  -9.391  1.00  0.00    -0.206 F 
ATOM     83  C   UNL     1      -1.088   4.343  -8.285  1.00  0.00     0.040 A 
ATOM     84  C   UNL     1      -2.985   5.820  -8.339  1.00  0.00     0.040 A 
ATOM     85  F   UNL     1      -2.850   7.885  -9.445  1.00  0.00    -0.206 F 
ATOM     86  C   UNL     1      -2.383   4.650  -7.879  1.00  0.00     0.006 A 
ENDBRANCH  58  79
BRANCH  70  87
ATOM     87  C   UNL     1      -1.193  12.857 -12.758  1.00  0.00     0.057 A 
ATOM     88  C   UNL     1      -1.029  12.625 -14.128  1.00  0.00     0.134 A 
ATOM     89  C   UNL     1      -1.940  13.996 -12.405  1.00  0.00     0.134 A 
ATOM     90  F   UNL     1      -0.316  11.576 -14.566  1.00  0.00    -0.206 F 
ATOM     91  C   UNL     1      -1.579  13.476 -15.093  1.00  0.00     0.040 A 
ATOM     92  C   UNL     1      -2.456  14.877 -13.356  1.00  0.00     0.040 A 
ATOM     93  F   UNL     1      -2.209  14.285 -11.122  1.00  0.00    -0.206 F 
ATOM     94  C   UNL     1      -2.279  14.616 -14.708  1.00  0.00     0.006 A 
ENDBRANCH  70  87
ENDBRANCH  44  45
ENDBRANCH  36  39
ENDBRANCH  34  35
ENDBRANCH  33  34
ENDBRANCH   1  33
TORSDOF 14
