REMARK SMILES Cn1ncc(C(=O)NCc2ccc(F)cc2)c1C(=O)NCCCNC(=O)c1ccc(-c2c3nc(c(-c4c(F)cccc4F)c4ccc([nH]4)c(-c4c(F)cccc4F)c4nc(c(-c5c(F)cccc5F)c5ccc2[nH]5)C=C4)C=C3)cc1
REMARK SMILES IDX 21 1 20 2 18 3 19 4 17 6 1 7 2 8 3 9 4 10 5 11 6 12 7 13
REMARK SMILES IDX 8 14 9 16 10 17 11 18 16 19 12 20 15 21 13 22 14 23 22 24
REMARK SMILES IDX 23 25 24 26 25 27 26 29 27 30 28 31 80 32 29 33 79 34 30 35
REMARK SMILES IDX 31 36 32 37 73 38 33 39 78 40 72 41 74 42 34 43 77 44 71 45
REMARK SMILES IDX 70 46 35 48 61 49 44 50 60 51 45 52 48 53 59 54 75 55 46 56
REMARK SMILES IDX 47 57 58 59 76 60 49 61 36 62 37 63 42 64 38 65 39 66 41 67
REMARK SMILES IDX 43 68 40 69 62 70 63 71 68 72 64 73 65 74 67 75 69 76 66 77
REMARK SMILES IDX 50 78 51 79 56 80 52 81 53 82 55 83 57 84 54 85
REMARK H PARENT 20 5 8 15 24 28 74 47 48 58
REMARK Flexibility Score: inf
ROOT
ATOM      1  C   UNL     1      -3.026  -1.889   0.879  1.00  0.00     0.118 C 
ENDROOT
BRANCH   1   2
ATOM      2  N   UNL     1      -1.686  -2.217   0.419  1.00  0.00    -0.351 N 
ATOM      3  C   UNL     1      -0.559  -1.716   1.038  1.00  0.00     0.270 C 
ATOM      4  O   UNL     1      -0.133  -2.280   2.040  1.00  0.00    -0.268 OA
ATOM      5  H   UNL     1      -1.580  -2.813  -0.357  1.00  0.00     0.163 HD
BRANCH   3   6
ATOM      6  C   UNL     1       0.194  -0.746   0.277  1.00  0.00     0.138 A 
ATOM      7  C   UNL     1      -1.647   0.929  -0.261  1.00  0.00     0.174 C 
ATOM      8  N   UNL     1      -0.293   0.428  -0.258  1.00  0.00    -0.262 N 
ATOM      9  N   UNL     1       0.651   1.225  -0.784  1.00  0.00    -0.180 NA
ATOM     10  C   UNL     1       1.774   0.540  -0.607  1.00  0.00     0.149 A 
ATOM     11  C   UNL     1       1.562  -0.733  -0.021  1.00  0.00     0.090 A 
BRANCH  11  12
ATOM     12  C   UNL     1       2.654  -1.667   0.211  1.00  0.00     0.255 C 
ATOM     13  O   UNL     1       3.778  -1.246   0.490  1.00  0.00    -0.269 OA
ATOM     14  N   UNL     1       2.539  -3.014  -0.005  1.00  0.00    -0.348 N 
ATOM     15  H   UNL     1       3.389  -3.508   0.050  1.00  0.00     0.164 HD
BRANCH  14  16
ATOM     16  C   UNL     1       1.397  -3.836  -0.296  1.00  0.00     0.152 C 
BRANCH  16  17
ATOM     17  C   UNL     1       1.539  -4.687  -1.529  1.00  0.00    -0.029 A 
ATOM     18  C   UNL     1       1.642  -6.083  -1.431  1.00  0.00     0.008 A 
ATOM     19  C   UNL     1       1.432  -4.093  -2.798  1.00  0.00     0.008 A 
ATOM     20  C   UNL     1       1.594  -6.872  -2.581  1.00  0.00     0.039 A 
ATOM     21  C   UNL     1       1.381  -4.885  -3.945  1.00  0.00     0.039 A 
ATOM     22  C   UNL     1       1.451  -6.268  -3.825  1.00  0.00     0.123 A 
ATOM     23  F   UNL     1       1.363  -7.030  -4.922  1.00  0.00    -0.207 F 
ENDBRANCH  16  17
ENDBRANCH  14  16
ENDBRANCH  11  12
ENDBRANCH   3   6
ENDBRANCH   1   2
BRANCH   1  24
ATOM     24  C   UNL     1      -4.032  -1.970  -0.268  1.00  0.00     0.042 C 
BRANCH  24  25
ATOM     25  C   UNL     1      -4.418  -3.400  -0.644  1.00  0.00     0.118 C 
BRANCH  25  26
ATOM     26  N   UNL     1      -5.356  -3.970   0.311  1.00  0.00    -0.352 N 
ATOM     27  C   UNL     1      -6.701  -4.219   0.186  1.00  0.00     0.251 C 
ATOM     28  H   UNL     1      -4.966  -4.216   1.181  1.00  0.00     0.163 HD
ATOM     29  O   UNL     1      -7.363  -4.450   1.194  1.00  0.00    -0.269 OA
BRANCH  27  30
ATOM     30  C   UNL     1      -7.367  -4.213  -1.137  1.00  0.00     0.039 A 
ATOM     31  C   UNL     1      -8.644  -3.650  -1.242  1.00  0.00     0.014 A 
ATOM     32  C   UNL     1      -6.791  -4.835  -2.248  1.00  0.00     0.014 A 
ATOM     33  C   UNL     1      -9.322  -3.672  -2.465  1.00  0.00     0.010 A 
ATOM     34  C   UNL     1      -7.444  -4.811  -3.481  1.00  0.00     0.010 A 
ATOM     35  C   UNL     1      -8.720  -4.238  -3.599  1.00  0.00    -0.014 A 
BRANCH  35  36
ATOM     36  C   UNL     1      -9.418  -4.263  -4.910  1.00  0.00     0.031 A 
ATOM     37  C   UNL     1      -9.868  -5.569  -5.503  1.00  0.00     0.074 A 
ATOM     38  C   UNL     1      -9.602  -3.119  -5.595  1.00  0.00     0.049 A 
ATOM     39  N   UNL     1     -10.400  -5.805  -6.676  1.00  0.00    -0.248 NA
ATOM     40  C   UNL     1      -9.677  -6.772  -4.677  1.00  0.00     0.031 C 
ATOM     41  C   UNL     1      -9.194  -1.788  -5.144  1.00  0.00     0.029 A 
ATOM     42  N   UNL     1     -10.173  -2.896  -6.823  1.00  0.00    -0.354 N 
ATOM     43  C   UNL     1     -10.580  -7.180  -6.741  1.00  0.00     0.074 A 
ATOM     44  C   UNL     1     -10.081  -7.731  -5.498  1.00  0.00     0.031 C 
ATOM     45  C   UNL     1      -9.543  -0.885  -6.075  1.00  0.00     0.029 A 
ATOM     46  C   UNL     1     -10.171  -1.575  -7.199  1.00  0.00     0.049 A 
ATOM     47  H   UNL     1     -10.550  -3.614  -7.381  1.00  0.00     0.167 HD
ATOM     48  C   UNL     1     -11.121  -7.917  -7.740  1.00  0.00     0.037 A 
ATOM     49  C   UNL     1     -10.616  -0.986  -8.324  1.00  0.00     0.037 A 
ATOM     50  C   UNL     1     -11.660  -7.372  -8.957  1.00  0.00     0.049 A 
ATOM     51  C   UNL     1     -11.233  -1.821  -9.408  1.00  0.00     0.074 A 
ATOM     52  C   UNL     1     -12.279  -8.040 -10.000  1.00  0.00     0.029 A 
ATOM     53  N   UNL     1     -11.653  -6.027  -9.289  1.00  0.00    -0.354 N 
ATOM     54  N   UNL     1     -11.413  -3.118  -9.446  1.00  0.00    -0.248 NA
ATOM     55  C   UNL     1     -11.707  -1.112 -10.606  1.00  0.00     0.031 C 
ATOM     56  C   UNL     1     -12.630  -7.099 -10.974  1.00  0.00     0.029 A 
ATOM     57  C   UNL     1     -12.251  -5.845 -10.525  1.00  0.00     0.049 A 
ATOM     58  H   UNL     1     -11.280  -5.309  -8.730  1.00  0.00     0.167 HD
ATOM     59  C   UNL     1     -12.030  -3.381 -10.662  1.00  0.00     0.074 A 
ATOM     60  C   UNL     1     -12.203  -2.107 -11.330  1.00  0.00     0.031 C 
ATOM     61  C   UNL     1     -12.418  -4.572 -11.176  1.00  0.00     0.037 A 
BRANCH  48  62
ATOM     62  C   UNL     1     -11.162  -9.403  -7.556  1.00  0.00     0.057 A 
ATOM     63  C   UNL     1     -10.287 -10.235  -8.266  1.00  0.00     0.134 A 
ATOM     64  C   UNL     1     -12.096 -10.014  -6.710  1.00  0.00     0.134 A 
ATOM     65  F   UNL     1      -9.372  -9.711  -9.096  1.00  0.00    -0.206 F 
ATOM     66  C   UNL     1     -10.342 -11.624  -8.143  1.00  0.00     0.040 A 
ATOM     67  C   UNL     1     -12.148 -11.401  -6.565  1.00  0.00     0.040 A 
ATOM     68  F   UNL     1     -12.952  -9.269  -5.994  1.00  0.00    -0.206 F 
ATOM     69  C   UNL     1     -11.273 -12.210  -7.287  1.00  0.00     0.006 A 
ENDBRANCH  48  62
BRANCH  49  70
ATOM     70  C   UNL     1     -10.514   0.485  -8.467  1.00  0.00     0.057 A 
ATOM     71  C   UNL     1      -9.294   1.110  -8.744  1.00  0.00     0.134 A 
ATOM     72  C   UNL     1     -11.640   1.299  -8.303  1.00  0.00     0.134 A 
ATOM     73  F   UNL     1      -8.181   0.381  -8.906  1.00  0.00    -0.206 F 
ATOM     74  C   UNL     1      -9.194   2.499  -8.841  1.00  0.00     0.040 A 
ATOM     75  C   UNL     1     -11.557   2.687  -8.412  1.00  0.00     0.040 A 
ATOM     76  F   UNL     1     -12.838   0.750  -8.053  1.00  0.00    -0.206 F 
ATOM     77  C   UNL     1     -10.329   3.291  -8.675  1.00  0.00     0.006 A 
ENDBRANCH  49  70
BRANCH  61  78
ATOM     78  C   UNL     1     -13.080  -4.560 -12.518  1.00  0.00     0.057 A 
ATOM     79  C   UNL     1     -14.466  -4.724 -12.633  1.00  0.00     0.134 A 
ATOM     80  C   UNL     1     -12.336  -4.449 -13.698  1.00  0.00     0.134 A 
ATOM     81  F   UNL     1     -15.230  -4.841 -11.537  1.00  0.00    -0.206 F 
ATOM     82  C   UNL     1     -15.089  -4.788 -13.880  1.00  0.00     0.040 A 
ATOM     83  C   UNL     1     -12.950  -4.497 -14.950  1.00  0.00     0.040 A 
ATOM     84  F   UNL     1     -11.006  -4.279 -13.650  1.00  0.00    -0.206 F 
ATOM     85  C   UNL     1     -14.330  -4.674 -15.043  1.00  0.00     0.006 A 
ENDBRANCH  61  78
ENDBRANCH  35  36
ENDBRANCH  27  30
ENDBRANCH  25  26
ENDBRANCH  24  25
ENDBRANCH   1  24
TORSDOF 13
