REMARK SMILES CC[C@@](C)(NC(=O)Nc1c(C)cccc1Cl)C(=O)NCCCNC(=O)c1ccc(-c2c3nc(c(-c4c(F)cccc4F)c4ccc([nH]4)c(-c4c(F)cccc4F)c4nc(c(-c5c(F)cccc5F)c5ccc2[nH]5)C=C4)C=C3)cc1
REMARK SMILES IDX 21 1 20 2 19 3 17 4 18 5 3 7 4 8 2 9 1 10 5 11 6 12 7 14
REMARK SMILES IDX 8 15 9 17 10 18 15 19 11 20 12 21 14 22 16 23 13 24 22 25
REMARK SMILES IDX 23 26 24 27 25 29 26 30 27 31 79 32 28 33 78 34 29 35 30 36
REMARK SMILES IDX 31 37 72 38 32 39 77 40 71 41 73 42 33 43 76 44 70 45 69 46
REMARK SMILES IDX 34 48 60 49 43 50 59 51 44 52 47 53 58 54 74 55 45 56 46 57
REMARK SMILES IDX 57 59 75 60 48 61 35 62 36 63 41 64 37 65 38 66 40 67 42 68
REMARK SMILES IDX 39 69 61 70 62 71 67 72 63 73 64 74 66 75 68 76 65 77 49 78
REMARK SMILES IDX 50 79 55 80 51 81 52 82 54 83 56 84 53 85
REMARK H PARENT 19 6 5 13 8 16 23 28 73 47 47 58
REMARK Flexibility Score: inf
ROOT
ATOM      1  C   UNL     1       2.226   6.617  -0.711  1.00  0.00     0.042 C 
ENDROOT
BRANCH   1   2
ATOM      2  C   UNL     1       1.315   5.601  -1.446  1.00  0.00     0.117 C 
BRANCH   2   3
ATOM      3  N   UNL     1       1.773   4.217  -1.425  1.00  0.00    -0.354 N 
ATOM      4  C   UNL     1       1.073   3.020  -1.244  1.00  0.00     0.245 C 
ATOM      5  O   UNL     1       0.965   2.191  -2.145  1.00  0.00    -0.272 OA
ATOM      6  H   UNL     1       2.742   4.106  -1.560  1.00  0.00     0.163 HD
BRANCH   4   7
ATOM      7  C   UNL     1       0.398   2.823   0.123  1.00  0.00     0.117 C 
ATOM      8  C   UNL     1      -1.070   3.200  -0.235  1.00  0.00     0.045 C 
BRANCH   7   9
ATOM      9  C   UNL     1       0.341   1.473   0.882  1.00  0.00     0.035 C 
ATOM     10  C   UNL     1       0.587   0.189   0.123  1.00  0.00     0.007 C 
ENDBRANCH   7   9
BRANCH   7  11
ATOM     11  N   UNL     1       1.039   3.795   1.005  1.00  0.00    -0.324 N 
ATOM     12  C   UNL     1       2.300   3.985   1.388  1.00  0.00     0.320 C 
ATOM     13  H   UNL     1       0.410   4.443   1.397  1.00  0.00     0.166 HD
ATOM     14  O   UNL     1       2.438   4.822   2.293  1.00  0.00    -0.248 OA
ATOM     15  N   UNL     1       3.444   3.417   0.976  1.00  0.00    -0.306 N 
ATOM     16  H   UNL     1       4.145   3.898   1.473  1.00  0.00     0.171 HD
BRANCH  15  17
ATOM     17  C   UNL     1       4.170   2.462   0.177  1.00  0.00     0.064 A 
ATOM     18  C   UNL     1       4.205   2.106  -1.203  1.00  0.00    -0.026 A 
ATOM     19  C   UNL     1       5.194   1.836   0.957  1.00  0.00     0.064 A 
ATOM     20  C   UNL     1       3.980   2.969  -2.439  1.00  0.00     0.046 C 
ATOM     21  C   UNL     1       4.902   0.930  -1.606  1.00  0.00     0.005 A 
ATOM     22  C   UNL     1       5.998   0.789   0.495  1.00  0.00     0.023 A 
ATOM     23  Cl  UNL     1       5.553   2.389   2.576  1.00  0.00    -0.082 Cl
ATOM     24  C   UNL     1       5.797   0.284  -0.771  1.00  0.00     0.002 A 
ENDBRANCH  15  17
ENDBRANCH   7  11
ENDBRANCH   4   7
ENDBRANCH   2   3
ENDBRANCH   1   2
BRANCH   1  25
ATOM     25  C   UNL     1       3.752   6.515  -0.822  1.00  0.00     0.118 C 
BRANCH  25  26
ATOM     26  N   UNL     1       4.280   6.662  -2.166  1.00  0.00    -0.352 N 
ATOM     27  C   UNL     1       5.187   7.542  -2.694  1.00  0.00     0.251 C 
ATOM     28  H   UNL     1       3.922   6.013  -2.813  1.00  0.00     0.163 HD
ATOM     29  O   UNL     1       5.515   7.418  -3.880  1.00  0.00    -0.269 OA
BRANCH  27  30
ATOM     30  C   UNL     1       5.730   8.681  -1.922  1.00  0.00     0.039 A 
ATOM     31  C   UNL     1       5.737   9.933  -2.548  1.00  0.00     0.014 A 
ATOM     32  C   UNL     1       6.263   8.552  -0.638  1.00  0.00     0.014 A 
ATOM     33  C   UNL     1       6.213  11.058  -1.871  1.00  0.00     0.010 A 
ATOM     34  C   UNL     1       6.673   9.691   0.066  1.00  0.00     0.010 A 
ATOM     35  C   UNL     1       6.654  10.958  -0.542  1.00  0.00    -0.014 A 
BRANCH  35  36
ATOM     36  C   UNL     1       7.097  12.174   0.196  1.00  0.00     0.031 A 
ATOM     37  C   UNL     1       8.520  12.312   0.672  1.00  0.00     0.074 A 
ATOM     38  C   UNL     1       6.213  13.159   0.455  1.00  0.00     0.049 A 
ATOM     39  N   UNL     1       9.085  13.302   1.318  1.00  0.00    -0.248 NA
ATOM     40  C   UNL     1       9.420  11.179   0.408  1.00  0.00     0.031 C 
ATOM     41  C   UNL     1       4.794  13.138   0.094  1.00  0.00     0.029 A 
ATOM     42  N   UNL     1       6.375  14.373   1.079  1.00  0.00    -0.354 N 
ATOM     43  C   UNL     1      10.398  12.906   1.546  1.00  0.00     0.074 A 
ATOM     44  C   UNL     1      10.528  11.564   1.023  1.00  0.00     0.031 C 
ATOM     45  C   UNL     1       4.225  14.295   0.470  1.00  0.00     0.029 A 
ATOM     46  C   UNL     1       5.227  15.127   1.130  1.00  0.00     0.049 A 
ATOM     47  H   UNL     1       7.234  14.674   1.455  1.00  0.00     0.167 HD
ATOM     48  C   UNL     1      11.412  13.605   2.113  1.00  0.00     0.037 A 
ATOM     49  C   UNL     1       5.004  16.351   1.645  1.00  0.00     0.037 A 
ATOM     50  C   UNL     1      11.290  14.948   2.619  1.00  0.00     0.049 A 
ATOM     51  C   UNL     1       6.146  17.107   2.269  1.00  0.00     0.074 A 
ATOM     52  C   UNL     1      12.271  15.756   3.169  1.00  0.00     0.029 A 
ATOM     53  N   UNL     1      10.113  15.682   2.638  1.00  0.00    -0.354 N 
ATOM     54  N   UNL     1       7.398  16.746   2.414  1.00  0.00    -0.248 NA
ATOM     55  C   UNL     1       5.846  18.449   2.788  1.00  0.00     0.031 C 
ATOM     56  C   UNL     1      11.677  16.959   3.566  1.00  0.00     0.029 A 
ATOM     57  C   UNL     1      10.340  16.926   3.205  1.00  0.00     0.049 A 
ATOM     58  H   UNL     1       9.245  15.365   2.299  1.00  0.00     0.167 HD
ATOM     59  C   UNL     1       8.041  17.829   3.001  1.00  0.00     0.074 A 
ATOM     60  C   UNL     1       7.044  18.863   3.173  1.00  0.00     0.031 C 
ATOM     61  C   UNL     1       9.343  17.955   3.360  1.00  0.00     0.037 A 
BRANCH  48  62
ATOM     62  C   UNL     1      12.749  12.924   2.215  1.00  0.00     0.057 A 
ATOM     63  C   UNL     1      13.522  12.635   1.081  1.00  0.00     0.134 A 
ATOM     64  C   UNL     1      13.284  12.576   3.462  1.00  0.00     0.134 A 
ATOM     65  F   UNL     1      13.067  12.932  -0.146  1.00  0.00    -0.206 F 
ATOM     66  C   UNL     1      14.759  11.996   1.181  1.00  0.00     0.040 A 
ATOM     67  C   UNL     1      14.535  11.966   3.577  1.00  0.00     0.040 A 
ATOM     68  F   UNL     1      12.605  12.832   4.591  1.00  0.00    -0.206 F 
ATOM     69  C   UNL     1      15.272  11.665   2.434  1.00  0.00     0.006 A 
ENDBRANCH  48  62
BRANCH  49  70
ATOM     70  C   UNL     1       3.651  16.961   1.566  1.00  0.00     0.057 A 
ATOM     71  C   UNL     1       3.404  18.075   0.753  1.00  0.00     0.134 A 
ATOM     72  C   UNL     1       2.578  16.463   2.314  1.00  0.00     0.134 A 
ATOM     73  F   UNL     1       4.395  18.612   0.026  1.00  0.00    -0.206 F 
ATOM     74  C   UNL     1       2.150  18.687   0.708  1.00  0.00     0.040 A 
ATOM     75  C   UNL     1       1.311  17.047   2.257  1.00  0.00     0.040 A 
ATOM     76  F   UNL     1       2.744  15.393   3.107  1.00  0.00    -0.206 F 
ATOM     77  C   UNL     1       1.097  18.169   1.459  1.00  0.00     0.006 A 
ENDBRANCH  49  70
BRANCH  61  78
ATOM     78  C   UNL     1       9.777  19.281   3.919  1.00  0.00     0.057 A 
ATOM     79  C   UNL     1       9.367  19.732   5.181  1.00  0.00     0.134 A 
ATOM     80  C   UNL     1      10.636  20.111   3.186  1.00  0.00     0.134 A 
ATOM     81  F   UNL     1       8.536  18.993   5.931  1.00  0.00    -0.206 F 
ATOM     82  C   UNL     1       9.767  20.974   5.677  1.00  0.00     0.040 A 
ATOM     83  C   UNL     1      11.069  21.340   3.686  1.00  0.00     0.040 A 
ATOM     84  F   UNL     1      11.077  19.737   1.976  1.00  0.00    -0.206 F 
ATOM     85  C   UNL     1      10.625  21.780   4.930  1.00  0.00     0.006 A 
ENDBRANCH  61  78
ENDBRANCH  35  36
ENDBRANCH  27  30
ENDBRANCH  25  26
ENDBRANCH   1  25
TORSDOF 13
