REMARK SMILES Cc1cc(/C=C2\C(=O)N(Cc3ccco3)C(=O)[NH+]=C2NCCCNC(=O)c2ccc(-c3c4nc(c(-c5c(F)cccc5F)c5ccc([nH]5)c(-c5c(F)cccc5F)c5nc(c(-c6c(F)cccc6F)c6ccc3[nH]6)C=C5)C=C4)cc2)c(C)n1-c1ccc(Cl)c(C(=O)[O-])c1
REMARK SMILES IDX 22 1 21 2 20 3 5 4 6 5 7 6 19 7 8 8 9 9 18 10 16 11 17 14
REMARK SMILES IDX 4 15 1 16 2 17 3 18 83 19 81 20 82 21 84 22 85 23 93 24
REMARK SMILES IDX 86 25 89 26 87 27 88 28 90 29 91 30 92 31 10 32 11 33 12 34
REMARK SMILES IDX 15 35 13 36 14 37 23 38 24 39 25 40 26 42 27 43 28 44 80 45
REMARK SMILES IDX 29 46 79 47 30 48 31 49 32 50 73 51 33 52 78 53 72 54 74 55
REMARK SMILES IDX 34 56 77 57 71 58 70 59 35 61 61 62 44 63 60 64 45 65 48 66
REMARK SMILES IDX 59 67 75 68 46 69 47 70 58 72 76 73 49 74 36 75 37 76 42 77
REMARK SMILES IDX 38 78 39 79 41 80 43 81 40 82 62 83 63 84 68 85 64 86 65 87
REMARK SMILES IDX 67 88 69 89 66 90 50 91 51 92 56 93 52 94 53 95 55 96 57 97
REMARK SMILES IDX 54 98
REMARK H PARENT 18 12 20 13 24 41 74 60 48 71
REMARK Flexibility Score: inf
ROOT
ATOM      1  C   UNL     1      -0.054  -7.529  -1.728  1.00  0.00     0.059 C 
ENDROOT
BRANCH   1   2
ATOM      2  C   UNL     1       0.931  -7.070  -2.819  1.00  0.00     0.195 C 
BRANCH   2   3
ATOM      3  N   UNL     1       0.251  -6.835  -4.064  1.00  0.00    -0.305 N 
ATOM      4  C   UNL     1      -0.037  -3.800  -3.092  1.00  0.00     0.032 C 
ATOM      5  C   UNL     1      -0.037  -4.273  -4.354  1.00  0.00     0.129 C 
ATOM      6  C   UNL     1      -0.016  -3.418  -5.564  1.00  0.00     0.323 C 
ATOM      7  C   UNL     1      -0.226  -5.715  -4.694  1.00  0.00     0.236 C 
ATOM      8  O   UNL     1       0.826  -2.549  -5.740  1.00  0.00    -0.250 OA
ATOM      9  N   UNL     1      -1.034  -3.749  -6.434  1.00  0.00    -0.182 N 
ATOM     10  N   UNL     1      -0.905  -6.019  -5.771  1.00  0.00    -0.210 N 
ATOM     11  C   UNL     1      -1.501  -5.045  -6.528  1.00  0.00     0.444 C 
ATOM     12  H   UNL     1      -0.989  -6.963  -6.040  1.00  0.00     0.270 HD
ATOM     13  H   UNL     1       0.093  -7.660  -4.577  1.00  0.00     0.256 HD
ATOM     14  O   UNL     1      -2.427  -5.336  -7.286  1.00  0.00    -0.212 OA
BRANCH   4  15
ATOM     15  C   UNL     1       0.008  -2.461  -2.552  1.00  0.00    -0.003 A 
ATOM     16  C   UNL     1       0.981  -0.022   0.106  1.00  0.00     0.065 C 
ATOM     17  C   UNL     1       0.498  -0.790  -1.076  1.00  0.00     0.020 A 
ATOM     18  C   UNL     1       0.627  -2.147  -1.313  1.00  0.00     0.031 A 
ATOM     19  N   UNL     1      -0.243  -0.255  -2.115  1.00  0.00    -0.318 N 
ATOM     20  C   UNL     1      -0.552  -1.277  -3.019  1.00  0.00     0.027 A 
ATOM     21  C   UNL     1      -1.268  -0.988  -4.292  1.00  0.00     0.065 C 
BRANCH  19  22
ATOM     22  C   UNL     1      -0.591   1.114  -2.297  1.00  0.00     0.046 A 
ATOM     23  C   UNL     1      -1.928   1.460  -2.508  1.00  0.00     0.028 A 
ATOM     24  C   UNL     1       0.419   2.071  -2.448  1.00  0.00     0.038 A 
ATOM     25  C   UNL     1      -2.246   2.731  -2.979  1.00  0.00     0.023 A 
ATOM     26  C   UNL     1       0.102   3.369  -2.908  1.00  0.00     0.018 A 
ATOM     27  C   UNL     1      -1.239   3.679  -3.201  1.00  0.00     0.050 A 
ATOM     28  Cl  UNL     1      -1.765   5.182  -3.876  1.00  0.00    -0.084 Cl
BRANCH  26  29
ATOM     29  C   UNL     1       1.197   4.350  -3.116  1.00  0.00     0.073 C 
ATOM     30  O   UNL     1       1.119   5.494  -3.562  1.00  0.00    -0.545 OA
ATOM     31  O   UNL     1       2.396   3.877  -2.743  1.00  0.00    -0.545 OA
ENDBRANCH  26  29
ENDBRANCH  19  22
ENDBRANCH   4  15
BRANCH   9  32
ATOM     32  C   UNL     1      -1.636  -2.729  -7.274  1.00  0.00     0.285 C 
BRANCH  32  33
ATOM     33  C   UNL     1      -0.915  -2.548  -8.551  1.00  0.00     0.138 A 
ATOM     34  C   UNL     1      -0.828  -3.287  -9.710  1.00  0.00     0.049 A 
ATOM     35  O   UNL     1      -0.232  -1.376  -8.689  1.00  0.00    -0.466 OA
ATOM     36  C   UNL     1      -0.030  -2.530 -10.601  1.00  0.00     0.042 A 
ATOM     37  C   UNL     1       0.310  -1.377  -9.932  1.00  0.00     0.195 A 
ENDBRANCH  32  33
ENDBRANCH   9  32
ENDBRANCH   2   3
ENDBRANCH   1   2
BRANCH   1  38
ATOM     38  C   UNL     1      -0.996  -8.703  -2.086  1.00  0.00     0.119 C 
BRANCH  38  39
ATOM     39  N   UNL     1      -0.551 -10.010  -1.643  1.00  0.00    -0.352 N 
ATOM     40  C   UNL     1      -1.306 -11.159  -1.458  1.00  0.00     0.251 C 
ATOM     41  H   UNL     1       0.410 -10.092  -1.448  1.00  0.00     0.163 HD
ATOM     42  O   UNL     1      -0.722 -12.177  -1.088  1.00  0.00    -0.269 OA
BRANCH  40  43
ATOM     43  C   UNL     1      -2.812 -11.178  -1.599  1.00  0.00     0.039 A 
ATOM     44  C   UNL     1      -3.576 -11.069  -0.448  1.00  0.00     0.014 A 
ATOM     45  C   UNL     1      -3.503 -11.549  -2.768  1.00  0.00     0.014 A 
ATOM     46  C   UNL     1      -4.992 -11.264  -0.487  1.00  0.00     0.010 A 
ATOM     47  C   UNL     1      -4.940 -11.832  -2.781  1.00  0.00     0.010 A 
ATOM     48  C   UNL     1      -5.749 -11.712  -1.632  1.00  0.00    -0.014 A 
BRANCH  48  49
ATOM     49  C   UNL     1      -7.124 -12.517  -1.302  1.00  0.00     0.031 A 
ATOM     50  C   UNL     1      -6.670 -13.435  -0.213  1.00  0.00     0.074 A 
ATOM     51  C   UNL     1      -8.449 -12.719  -1.706  1.00  0.00     0.049 A 
ATOM     52  N   UNL     1      -5.665 -14.239  -0.429  1.00  0.00    -0.248 NA
ATOM     53  C   UNL     1      -6.976 -13.204   1.200  1.00  0.00     0.031 C 
ATOM     54  C   UNL     1      -9.147 -12.140  -2.868  1.00  0.00     0.029 A 
ATOM     55  N   UNL     1      -9.525 -13.506  -1.163  1.00  0.00    -0.354 N 
ATOM     56  C   UNL     1      -5.393 -14.845   0.771  1.00  0.00     0.074 A 
ATOM     57  C   UNL     1      -6.053 -13.997   1.757  1.00  0.00     0.031 C 
ATOM     58  C   UNL     1     -10.480 -12.451  -2.877  1.00  0.00     0.029 A 
ATOM     59  C   UNL     1     -10.836 -13.330  -1.761  1.00  0.00     0.049 A 
ATOM     60  H   UNL     1      -9.379 -14.135  -0.420  1.00  0.00     0.167 HD
ATOM     61  C   UNL     1      -5.347 -16.208   0.733  1.00  0.00     0.037 A 
ATOM     62  C   UNL     1     -12.082 -13.895  -1.459  1.00  0.00     0.037 A 
ATOM     63  C   UNL     1      -6.584 -16.792   1.176  1.00  0.00     0.049 A 
ATOM     64  C   UNL     1     -11.801 -15.153  -0.763  1.00  0.00     0.074 A 
ATOM     65  C   UNL     1      -7.429 -16.511   2.232  1.00  0.00     0.029 A 
ATOM     66  N   UNL     1      -7.340 -17.444   0.226  1.00  0.00    -0.354 N 
ATOM     67  N   UNL     1     -11.441 -16.218  -1.410  1.00  0.00    -0.248 NA
ATOM     68  C   UNL     1     -12.023 -15.326   0.668  1.00  0.00     0.031 C 
ATOM     69  C   UNL     1      -8.711 -16.474   1.644  1.00  0.00     0.029 A 
ATOM     70  C   UNL     1      -8.665 -17.129   0.420  1.00  0.00     0.049 A 
ATOM     71  H   UNL     1      -6.990 -18.038  -0.476  1.00  0.00     0.167 HD
ATOM     72  C   UNL     1     -10.875 -16.972  -0.437  1.00  0.00     0.074 A 
ATOM     73  C   UNL     1     -11.507 -16.550   0.800  1.00  0.00     0.031 C 
ATOM     74  C   UNL     1      -9.592 -17.340  -0.659  1.00  0.00     0.037 A 
BRANCH  61  75
ATOM     75  C   UNL     1      -4.522 -16.753  -0.398  1.00  0.00     0.057 A 
ATOM     76  C   UNL     1      -3.295 -17.353  -0.114  1.00  0.00     0.134 A 
ATOM     77  C   UNL     1      -4.853 -16.589  -1.758  1.00  0.00     0.134 A 
ATOM     78  F   UNL     1      -2.939 -17.600   1.156  1.00  0.00    -0.206 F 
ATOM     79  C   UNL     1      -2.406 -17.708  -1.132  1.00  0.00     0.040 A 
ATOM     80  C   UNL     1      -3.951 -16.882  -2.778  1.00  0.00     0.040 A 
ATOM     81  F   UNL     1      -6.067 -16.147  -2.126  1.00  0.00    -0.206 F 
ATOM     82  C   UNL     1      -2.717 -17.437  -2.465  1.00  0.00     0.006 A 
ENDBRANCH  61  75
BRANCH  62  83
ATOM     83  C   UNL     1     -13.622 -13.834  -1.710  1.00  0.00     0.057 A 
ATOM     84  C   UNL     1     -14.439 -15.021  -1.657  1.00  0.00     0.134 A 
ATOM     85  C   UNL     1     -14.373 -12.662  -1.570  1.00  0.00     0.134 A 
ATOM     86  F   UNL     1     -13.916 -16.244  -1.819  1.00  0.00    -0.206 F 
ATOM     87  C   UNL     1     -15.818 -15.041  -1.365  1.00  0.00     0.040 A 
ATOM     88  C   UNL     1     -15.777 -12.670  -1.316  1.00  0.00     0.040 A 
ATOM     89  F   UNL     1     -13.767 -11.469  -1.585  1.00  0.00    -0.206 F 
ATOM     90  C   UNL     1     -16.495 -13.857  -1.172  1.00  0.00     0.006 A 
ENDBRANCH  62  83
BRANCH  74  91
ATOM     91  C   UNL     1      -9.235 -17.758  -2.075  1.00  0.00     0.057 A 
ATOM     92  C   UNL     1      -9.463 -17.028  -3.263  1.00  0.00     0.134 A 
ATOM     93  C   UNL     1      -8.699 -19.039  -2.251  1.00  0.00     0.134 A 
ATOM     94  F   UNL     1      -9.876 -15.754  -3.254  1.00  0.00    -0.206 F 
ATOM     95  C   UNL     1      -9.255 -17.579  -4.535  1.00  0.00     0.040 A 
ATOM     96  C   UNL     1      -8.438 -19.581  -3.514  1.00  0.00     0.040 A 
ATOM     97  F   UNL     1      -8.406 -19.795  -1.182  1.00  0.00    -0.206 F 
ATOM     98  C   UNL     1      -8.742 -18.861  -4.664  1.00  0.00     0.006 A 
ENDBRANCH  74  91
ENDBRANCH  48  49
ENDBRANCH  40  43
ENDBRANCH  38  39
ENDBRANCH   1  38
TORSDOF 14
