REMARK SMILES C=CCN(CC(=O)NCCCNC(=O)c1ccc(-c2c3nc(c(-c4c(F)cccc4F)c4ccc([nH]4)c(-c4c(F)cccc4F)c4nc(c(-c5c(F)cccc5F)c5ccc2[nH]5)C=C4)C=C3)cc1)C(=O)[C@@H]1Cc2ccccc21
REMARK SMILES IDX 9 1 8 2 6 3 7 4 5 6 4 7 3 8 2 9 1 10 69 11 70 12 71 13 72 14
REMARK SMILES IDX 78 15 73 16 77 17 74 18 76 19 75 20 10 21 11 22 12 23 13 24
REMARK SMILES IDX 14 26 15 27 16 28 68 29 17 30 67 31 18 32 19 33 20 34 61 35
REMARK SMILES IDX 21 36 66 37 60 38 62 39 22 40 65 41 59 42 58 43 23 45 49 46
REMARK SMILES IDX 32 47 48 48 33 49 36 50 47 51 63 52 34 53 35 54 46 56 64 57
REMARK SMILES IDX 37 58 24 59 25 60 30 61 26 62 27 63 29 64 31 65 28 66 50 67
REMARK SMILES IDX 51 68 56 69 52 70 53 71 55 72 57 73 54 74 38 75 39 76 44 77
REMARK SMILES IDX 40 78 41 79 43 80 45 81 42 82
REMARK H PARENT 8 5 12 25 62 44 36 55
REMARK Flexibility Score: inf
ROOT
ATOM      1  C   UNL     1       0.934   0.739   8.145  1.00  0.00     0.117 C 
ENDROOT
BRANCH   1   2
ATOM      2  N   UNL     1      -0.123   1.646   7.753  1.00  0.00    -0.354 N 
ATOM      3  C   UNL     1      -1.456   1.412   7.592  1.00  0.00     0.239 C 
ATOM      4  O   UNL     1      -2.205   2.375   7.792  1.00  0.00    -0.273 OA
ATOM      5  H   UNL     1       0.163   2.571   7.576  1.00  0.00     0.163 HD
BRANCH   3   6
ATOM      6  C   UNL     1      -2.050   0.018   7.306  1.00  0.00     0.219 C 
BRANCH   6   7
ATOM      7  N   UNL     1      -1.262  -0.854   6.432  1.00  0.00    -0.329 N 
BRANCH   7   8
ATOM      8  C   UNL     1      -0.589  -1.996   7.050  1.00  0.00     0.147 C 
BRANCH   8   9
ATOM      9  C   UNL     1      -1.268  -3.277   6.666  1.00  0.00    -0.014 C 
ATOM     10  C   UNL     1      -0.621  -4.309   6.106  1.00  0.00     0.006 C 
ENDBRANCH   8   9
ENDBRANCH   7   8
BRANCH   7  11
ATOM     11  C   UNL     1      -1.098  -0.672   5.046  1.00  0.00     0.231 C 
ATOM     12  O   UNL     1      -0.138  -1.247   4.495  1.00  0.00    -0.274 OA
BRANCH  11  13
ATOM     13  C   UNL     1      -2.050   0.146   4.158  1.00  0.00     0.113 C 
ATOM     14  C   UNL     1      -2.609   1.579   4.413  1.00  0.00     0.054 C 
ATOM     15  C   UNL     1      -3.488  -0.313   4.185  1.00  0.00    -0.032 A 
ATOM     16  C   UNL     1      -3.978   0.964   4.320  1.00  0.00    -0.043 A 
ATOM     17  C   UNL     1      -4.313  -1.407   4.066  1.00  0.00     0.005 A 
ATOM     18  C   UNL     1      -5.327   1.229   4.331  1.00  0.00     0.004 A 
ATOM     19  C   UNL     1      -5.689  -1.171   4.079  1.00  0.00     0.000 A 
ATOM     20  C   UNL     1      -6.193   0.139   4.203  1.00  0.00     0.000 A 
ENDBRANCH  11  13
ENDBRANCH   7  11
ENDBRANCH   6   7
ENDBRANCH   3   6
ENDBRANCH   1   2
BRANCH   1  21
ATOM     21  C   UNL     1       1.943   0.439   7.044  1.00  0.00     0.042 C 
BRANCH  21  22
ATOM     22  C   UNL     1       2.751   1.640   6.571  1.00  0.00     0.118 C 
BRANCH  22  23
ATOM     23  N   UNL     1       3.541   2.246   7.634  1.00  0.00    -0.352 N 
ATOM     24  C   UNL     1       4.898   2.406   7.760  1.00  0.00     0.251 C 
ATOM     25  H   UNL     1       3.013   2.600   8.386  1.00  0.00     0.163 HD
ATOM     26  O   UNL     1       5.363   2.776   8.834  1.00  0.00    -0.269 OA
BRANCH  24  27
ATOM     27  C   UNL     1       5.805   2.124   6.626  1.00  0.00     0.039 A 
ATOM     28  C   UNL     1       7.025   1.490   6.882  1.00  0.00     0.014 A 
ATOM     29  C   UNL     1       5.482   2.511   5.324  1.00  0.00     0.014 A 
ATOM     30  C   UNL     1       7.887   1.187   5.825  1.00  0.00     0.010 A 
ATOM     31  C   UNL     1       6.302   2.136   4.263  1.00  0.00     0.010 A 
ATOM     32  C   UNL     1       7.515   1.473   4.502  1.00  0.00    -0.014 A 
BRANCH  32  33
ATOM     33  C   UNL     1       8.376   1.084   3.356  1.00  0.00     0.031 A 
ATOM     34  C   UNL     1       8.961   2.135   2.454  1.00  0.00     0.074 A 
ATOM     35  C   UNL     1       8.573  -0.222   3.086  1.00  0.00     0.049 A 
ATOM     36  N   UNL     1       9.669   1.989   1.363  1.00  0.00    -0.248 NA
ATOM     37  C   UNL     1       8.691   3.538   2.811  1.00  0.00     0.031 C 
ATOM     38  C   UNL     1       8.022  -1.338   3.857  1.00  0.00     0.029 A 
ATOM     39  N   UNL     1       9.281  -0.831   2.080  1.00  0.00    -0.354 N 
ATOM     40  C   UNL     1       9.914   3.274   0.896  1.00  0.00     0.074 A 
ATOM     41  C   UNL     1       9.235   4.186   1.791  1.00  0.00     0.031 C 
ATOM     42  C   UNL     1       8.429  -2.494   3.309  1.00  0.00     0.029 A 
ATOM     43  C   UNL     1       9.233  -2.203   2.126  1.00  0.00     0.049 A 
ATOM     44  H   UNL     1       9.776  -0.332   1.391  1.00  0.00     0.167 HD
ATOM     45  C   UNL     1      10.656   3.661  -0.169  1.00  0.00     0.037 A 
ATOM     46  C   UNL     1       9.766  -3.124   1.302  1.00  0.00     0.037 A 
ATOM     47  C   UNL     1      11.346   2.752  -1.046  1.00  0.00     0.049 A 
ATOM     48  C   UNL     1      10.575  -2.670   0.119  1.00  0.00     0.074 A 
ATOM     49  C   UNL     1      12.171   3.047  -2.118  1.00  0.00     0.029 A 
ATOM     50  N   UNL     1      11.288   1.369  -0.955  1.00  0.00    -0.354 N 
ATOM     51  N   UNL     1      10.857  -1.450  -0.271  1.00  0.00    -0.248 NA
ATOM     52  C   UNL     1      11.146  -3.720  -0.736  1.00  0.00     0.031 C 
ATOM     53  C   UNL     1      12.571   1.843  -2.706  1.00  0.00     0.029 A 
ATOM     54  C   UNL     1      12.043   0.797  -1.966  1.00  0.00     0.049 A 
ATOM     55  H   UNL     1      10.784   0.868  -0.273  1.00  0.00     0.167 HD
ATOM     56  C   UNL     1      11.663  -1.586  -1.394  1.00  0.00     0.074 A 
ATOM     57  C   UNL     1      11.834  -3.006  -1.616  1.00  0.00     0.031 C 
ATOM     58  C   UNL     1      12.215  -0.620  -2.168  1.00  0.00     0.037 A 
BRANCH  45  59
ATOM     59  C   UNL     1      10.758   5.134  -0.446  1.00  0.00     0.057 A 
ATOM     60  C   UNL     1      11.467   5.998   0.400  1.00  0.00     0.134 A 
ATOM     61  C   UNL     1      10.171   5.691  -1.589  1.00  0.00     0.134 A 
ATOM     62  F   UNL     1      12.045   5.533   1.518  1.00  0.00    -0.206 F 
ATOM     63  C   UNL     1      11.562   7.366   0.135  1.00  0.00     0.040 A 
ATOM     64  C   UNL     1      10.285   7.051  -1.881  1.00  0.00     0.040 A 
ATOM     65  F   UNL     1       9.485   4.921  -2.447  1.00  0.00    -0.206 F 
ATOM     66  C   UNL     1      10.976   7.894  -1.013  1.00  0.00     0.006 A 
ENDBRANCH  45  59
BRANCH  46  67
ATOM     67  C   UNL     1       9.570  -4.570   1.577  1.00  0.00     0.057 A 
ATOM     68  C   UNL     1      10.637  -5.378   1.989  1.00  0.00     0.134 A 
ATOM     69  C   UNL     1       8.318  -5.181   1.433  1.00  0.00     0.134 A 
ATOM     70  F   UNL     1      11.864  -4.855   2.128  1.00  0.00    -0.206 F 
ATOM     71  C   UNL     1      10.472  -6.743   2.228  1.00  0.00     0.040 A 
ATOM     72  C   UNL     1       8.133  -6.539   1.694  1.00  0.00     0.040 A 
ATOM     73  F   UNL     1       7.253  -4.461   1.050  1.00  0.00    -0.206 F 
ATOM     74  C   UNL     1       9.214  -7.326   2.085  1.00  0.00     0.006 A 
ENDBRANCH  46  67
BRANCH  58  75
ATOM     75  C   UNL     1      13.094  -1.062  -3.301  1.00  0.00     0.057 A 
ATOM     76  C   UNL     1      12.575  -1.662  -4.455  1.00  0.00     0.134 A 
ATOM     77  C   UNL     1      14.477  -0.840  -3.254  1.00  0.00     0.134 A 
ATOM     78  F   UNL     1      11.262  -1.915  -4.558  1.00  0.00    -0.206 F 
ATOM     79  C   UNL     1      13.402  -2.045  -5.513  1.00  0.00     0.040 A 
ATOM     80  C   UNL     1      15.310  -1.192  -4.316  1.00  0.00     0.040 A 
ATOM     81  F   UNL     1      15.038  -0.261  -2.181  1.00  0.00    -0.206 F 
ATOM     82  C   UNL     1      14.774  -1.802  -5.448  1.00  0.00     0.006 A 
ENDBRANCH  58  75
ENDBRANCH  32  33
ENDBRANCH  24  27
ENDBRANCH  22  23
ENDBRANCH  21  22
ENDBRANCH   1  21
TORSDOF 15
