REMARK SMILES C[C@@H](C(=O)NCCCNC(=O)c1ccc(-c2c3nc(c(-c4c(F)cccc4F)c4ccc([nH]4)c(-c4c(F)cccc4F)c4nc(c(-c5c(F)cccc5F)c5ccc2[nH]5)C=C4)C=C3)cc1)c1cc(/C=C/S(C)(=O)=O)cc(C(=O)c2ccccc2)c1
REMARK SMILES IDX 6 1 5 2 3 3 4 4 2 6 1 7 66 8 67 9 85 10 68 11 76 12 75 13
REMARK SMILES IDX 69 14 70 15 71 16 72 17 73 18 74 19 77 20 78 21 79 22 80 23
REMARK SMILES IDX 84 24 81 25 83 26 82 27 7 28 8 29 9 30 10 31 11 33 12 34
REMARK SMILES IDX 13 35 65 36 14 37 64 38 15 39 16 40 17 41 58 42 18 43 63 44
REMARK SMILES IDX 57 45 59 46 19 47 62 48 56 49 55 50 20 52 46 53 29 54 45 55
REMARK SMILES IDX 30 56 33 57 44 58 60 59 31 60 32 61 43 63 61 64 34 65 21 66
REMARK SMILES IDX 22 67 27 68 23 69 24 70 26 71 28 72 25 73 47 74 48 75 53 76
REMARK SMILES IDX 49 77 50 78 52 79 54 80 51 81 35 82 36 83 41 84 37 85 38 86
REMARK SMILES IDX 40 87 42 88 39 89
REMARK H PARENT 5 5 9 32 59 51 33 62
REMARK Flexibility Score: inf
ROOT
ATOM      1  C   UNL     1       3.500  -1.292  -1.411  1.00  0.00     0.117 C 
ENDROOT
BRANCH   1   2
ATOM      2  N   UNL     1       2.462  -2.289  -1.242  1.00  0.00    -0.356 N 
ATOM      3  C   UNL     1       1.186  -2.128  -0.786  1.00  0.00     0.227 C 
ATOM      4  O   UNL     1       0.678  -3.111  -0.245  1.00  0.00    -0.274 OA
ATOM      5  H   UNL     1       2.712  -3.209  -1.490  1.00  0.00     0.163 HD
BRANCH   3   6
ATOM      6  C   UNL     1       0.486  -0.765  -0.939  1.00  0.00     0.105 C 
ATOM      7  C   UNL     1       0.902   0.098   0.266  1.00  0.00     0.023 C 
BRANCH   6   8
ATOM      8  C   UNL     1      -1.047  -0.805  -1.033  1.00  0.00    -0.035 A 
ATOM      9  C   UNL     1      -1.774   0.393  -0.923  1.00  0.00     0.012 A 
ATOM     10  C   UNL     1      -1.779  -1.986  -1.169  1.00  0.00     0.016 A 
ATOM     11  C   UNL     1      -3.168   0.418  -0.757  1.00  0.00    -0.024 A 
ATOM     12  C   UNL     1      -3.165  -2.007  -0.970  1.00  0.00     0.023 A 
ATOM     13  C   UNL     1      -3.854  -0.803  -0.766  1.00  0.00     0.020 A 
BRANCH  11  14
ATOM     14  C   UNL     1      -3.906   1.673  -0.501  1.00  0.00     0.020 C 
ATOM     15  C   UNL     1      -3.332   2.877  -0.340  1.00  0.00     0.106 C 
BRANCH  15  16
ATOM     16  S   UNL     1      -4.282   4.278   0.040  1.00  0.00     0.168 S 
ATOM     17  C   UNL     1      -3.442   4.877   1.489  1.00  0.00     0.163 C 
ATOM     18  O   UNL     1      -4.076   5.259  -1.006  1.00  0.00    -0.225 OA
ATOM     19  O   UNL     1      -5.620   3.892   0.447  1.00  0.00    -0.225 OA
ENDBRANCH  15  16
ENDBRANCH  11  14
BRANCH  12  20
ATOM     20  C   UNL     1      -3.918  -3.298  -0.945  1.00  0.00     0.193 C 
ATOM     21  O   UNL     1      -5.139  -3.301  -1.078  1.00  0.00    -0.289 OA
BRANCH  20  22
ATOM     22  C   UNL     1      -3.211  -4.596  -0.786  1.00  0.00     0.022 A 
ATOM     23  C   UNL     1      -3.487  -5.620  -1.697  1.00  0.00     0.012 A 
ATOM     24  C   UNL     1      -2.261  -4.795   0.224  1.00  0.00     0.012 A 
ATOM     25  C   UNL     1      -2.773  -6.819  -1.632  1.00  0.00     0.001 A 
ATOM     26  C   UNL     1      -1.546  -5.992   0.281  1.00  0.00     0.001 A 
ATOM     27  C   UNL     1      -1.796  -6.999  -0.651  1.00  0.00     0.000 A 
ENDBRANCH  20  22
ENDBRANCH  12  20
ENDBRANCH   6   8
ENDBRANCH   3   6
ENDBRANCH   1   2
BRANCH   1  28
ATOM     28  C   UNL     1       4.365  -1.190  -0.152  1.00  0.00     0.042 C 
BRANCH  28  29
ATOM     29  C   UNL     1       5.070  -2.486   0.232  1.00  0.00     0.118 C 
BRANCH  29  30
ATOM     30  N   UNL     1       6.024  -2.917  -0.774  1.00  0.00    -0.352 N 
ATOM     31  C   UNL     1       7.380  -3.101  -0.676  1.00  0.00     0.251 C 
ATOM     32  H   UNL     1       5.640  -3.106  -1.661  1.00  0.00     0.163 HD
ATOM     33  O   UNL     1       8.045  -3.259  -1.696  1.00  0.00    -0.269 OA
BRANCH  31  34
ATOM     34  C   UNL     1       8.045  -3.090   0.644  1.00  0.00     0.039 A 
ATOM     35  C   UNL     1       9.271  -2.430   0.771  1.00  0.00     0.014 A 
ATOM     36  C   UNL     1       7.488  -3.746   1.745  1.00  0.00     0.014 A 
ATOM     37  C   UNL     1       9.907  -2.381   2.012  1.00  0.00     0.010 A 
ATOM     38  C   UNL     1       8.082  -3.628   2.999  1.00  0.00     0.010 A 
ATOM     39  C   UNL     1       9.301  -2.949   3.146  1.00  0.00    -0.014 A 
BRANCH  39  40
ATOM     40  C   UNL     1       9.927  -2.831   4.488  1.00  0.00     0.031 A 
ATOM     41  C   UNL     1      10.371  -4.060   5.232  1.00  0.00     0.074 A 
ATOM     42  C   UNL     1      10.043  -1.617   5.061  1.00  0.00     0.049 A 
ATOM     43  N   UNL     1      10.884  -4.157   6.433  1.00  0.00    -0.248 NA
ATOM     44  C   UNL     1      10.195  -5.351   4.549  1.00  0.00     0.031 C 
ATOM     45  C   UNL     1       9.608  -0.354   4.463  1.00  0.00     0.029 A 
ATOM     46  N   UNL     1      10.554  -1.247   6.281  1.00  0.00    -0.354 N 
ATOM     47  C   UNL     1      11.079  -5.515   6.653  1.00  0.00     0.074 A 
ATOM     48  C   UNL     1      10.582  -6.207   5.484  1.00  0.00     0.031 C 
ATOM     49  C   UNL     1       9.889   0.652   5.305  1.00  0.00     0.029 A 
ATOM     50  C   UNL     1      10.483   0.104   6.520  1.00  0.00     0.049 A 
ATOM     51  H   UNL     1      10.934  -1.889   6.923  1.00  0.00     0.167 HD
ATOM     52  C   UNL     1      11.641  -6.128   7.722  1.00  0.00     0.037 A 
ATOM     53  C   UNL     1      10.843   0.821   7.602  1.00  0.00     0.037 A 
ATOM     54  C   UNL     1      12.151  -5.434   8.877  1.00  0.00     0.049 A 
ATOM     55  C   UNL     1      11.454   0.116   8.781  1.00  0.00     0.074 A 
ATOM     56  C   UNL     1      12.793  -5.962   9.984  1.00  0.00     0.029 A 
ATOM     57  N   UNL     1      12.072  -4.064   9.077  1.00  0.00    -0.354 N 
ATOM     58  N   UNL     1      11.695  -1.162   8.946  1.00  0.00    -0.248 NA
ATOM     59  C   UNL     1      11.850   0.953   9.922  1.00  0.00     0.031 C 
ATOM     60  C   UNL     1      13.049  -4.920  10.880  1.00  0.00     0.029 A 
ATOM     61  C   UNL     1      12.627  -3.733  10.303  1.00  0.00     0.049 A 
ATOM     62  H   UNL     1      11.680  -3.422   8.442  1.00  0.00     0.167 HD
ATOM     63  C   UNL     1      12.294  -1.279  10.193  1.00  0.00     0.074 A 
ATOM     64  C   UNL     1      12.395   0.060  10.735  1.00  0.00     0.031 C 
ATOM     65  C   UNL     1      12.724  -2.396  10.831  1.00  0.00     0.037 A 
BRANCH  52  66
ATOM     66  C   UNL     1      11.732  -7.627   7.700  1.00  0.00     0.057 A 
ATOM     67  C   UNL     1      12.599  -8.304   6.831  1.00  0.00     0.134 A 
ATOM     68  C   UNL     1      10.982  -8.402   8.594  1.00  0.00     0.134 A 
ATOM     69  F   UNL     1      13.338  -7.625   5.942  1.00  0.00    -0.206 F 
ATOM     70  C   UNL     1      12.699  -9.697   6.837  1.00  0.00     0.040 A 
ATOM     71  C   UNL     1      11.096  -9.793   8.630  1.00  0.00     0.040 A 
ATOM     72  F   UNL     1      10.138  -7.819   9.459  1.00  0.00    -0.206 F 
ATOM     73  C   UNL     1      11.952 -10.444   7.746  1.00  0.00     0.006 A 
ENDBRANCH  52  66
BRANCH  53  74
ATOM     74  C   UNL     1      10.644   2.293   7.614  1.00  0.00     0.057 A 
ATOM     75  C   UNL     1      11.732   3.173   7.586  1.00  0.00     0.134 A 
ATOM     76  C   UNL     1       9.362   2.856   7.658  1.00  0.00     0.134 A 
ATOM     77  F   UNL     1      12.985   2.695   7.561  1.00  0.00    -0.206 F 
ATOM     78  C   UNL     1      11.555   4.557   7.620  1.00  0.00     0.040 A 
ATOM     79  C   UNL     1       9.169   4.238   7.664  1.00  0.00     0.040 A 
ATOM     80  F   UNL     1       8.277   2.068   7.676  1.00  0.00    -0.206 F 
ATOM     81  C   UNL     1      10.269   5.093   7.654  1.00  0.00     0.006 A 
ENDBRANCH  53  74
BRANCH  65  82
ATOM     82  C   UNL     1      13.376  -2.217  12.172  1.00  0.00     0.057 A 
ATOM     83  C   UNL     1      12.648  -1.843  13.309  1.00  0.00     0.134 A 
ATOM     84  C   UNL     1      14.746  -2.462  12.335  1.00  0.00     0.134 A 
ATOM     85  F   UNL     1      11.335  -1.582  13.221  1.00  0.00    -0.206 F 
ATOM     86  C   UNL     1      13.264  -1.696  14.554  1.00  0.00     0.040 A 
ATOM     87  C   UNL     1      15.367  -2.349  13.579  1.00  0.00     0.040 A 
ATOM     88  F   UNL     1      15.501  -2.833  11.290  1.00  0.00    -0.206 F 
ATOM     89  C   UNL     1      14.626  -1.957  14.692  1.00  0.00     0.006 A 
ENDBRANCH  65  82
ENDBRANCH  39  40
ENDBRANCH  31  34
ENDBRANCH  29  30
ENDBRANCH  28  29
ENDBRANCH   1  28
TORSDOF 15
