REMARK SMILES CC1=C(CCC(=O)NCCCNC(=O)c2ccc(-c3c4nc(c(-c5c(F)cccc5F)c5ccc([nH]5)c(-c5c(F)cccc5F)c5nc(c(-c6c(F)cccc6F)c6ccc3[nH]6)C=C5)C=C4)cc2)N=N[C@H]1C
REMARK SMILES IDX 10 1 9 2 8 3 6 4 7 5 5 7 4 8 3 9 1 10 2 11 71 12 69 13 70 14
REMARK SMILES IDX 72 15 11 16 12 17 13 18 14 20 15 21 16 22 68 23 17 24 67 25
REMARK SMILES IDX 18 26 19 27 20 28 61 29 21 30 66 31 60 32 62 33 22 34 65 35
REMARK SMILES IDX 59 36 58 37 23 39 49 40 32 41 48 42 33 43 36 44 47 45 63 46
REMARK SMILES IDX 34 47 35 48 46 50 64 51 37 52 24 53 25 54 30 55 26 56 27 57
REMARK SMILES IDX 29 58 31 59 28 60 50 61 51 62 56 63 52 64 53 65 55 66 57 67
REMARK SMILES IDX 54 68 38 69 39 70 44 71 40 72 41 73 43 74 45 75 42 76
REMARK H PARENT 8 6 12 19 62 38 36 49
REMARK Flexibility Score: inf
ROOT
ATOM      1  C   UNL     1      -1.016  -4.051  -0.569  1.00  0.00     0.042 C 
ENDROOT
BRANCH   1   2
ATOM      2  C   UNL     1      -0.978  -4.164   0.949  1.00  0.00     0.117 C 
BRANCH   2   3
ATOM      3  N   UNL     1       0.173  -4.952   1.367  1.00  0.00    -0.356 N 
ATOM      4  C   UNL     1       1.430  -4.536   1.695  1.00  0.00     0.220 C 
ATOM      5  O   UNL     1       2.323  -5.381   1.776  1.00  0.00    -0.275 OA
ATOM      6  H   UNL     1       0.022  -5.924   1.422  1.00  0.00     0.163 HD
BRANCH   4   7
ATOM      7  C   UNL     1       1.703  -3.079   2.019  1.00  0.00     0.106 C 
BRANCH   7   8
ATOM      8  C   UNL     1       2.493  -2.325   0.942  1.00  0.00     0.068 C 
BRANCH   8   9
ATOM      9  C   UNL     1       1.630  -1.692  -0.108  1.00  0.00     0.064 C 
ATOM     10  C   UNL     1       1.044   0.601   0.887  1.00  0.00     0.044 C 
ATOM     11  C   UNL     1       1.002  -0.511  -0.085  1.00  0.00    -0.024 C 
ATOM     12  C   UNL     1       0.176  -0.468  -1.325  1.00  0.00     0.153 C 
ATOM     13  N   UNL     1       1.428  -2.344  -1.297  1.00  0.00    -0.160 NA
ATOM     14  N   UNL     1       0.599  -1.715  -2.014  1.00  0.00    -0.181 NA
ATOM     15  C   UNL     1      -1.321  -0.516  -1.028  1.00  0.00     0.040 C 
ENDBRANCH   8   9
ENDBRANCH   7   8
ENDBRANCH   4   7
ENDBRANCH   2   3
ENDBRANCH   1   2
BRANCH   1  16
ATOM     16  C   UNL     1      -1.715  -5.188  -1.255  1.00  0.00     0.118 C 
BRANCH  16  17
ATOM     17  N   UNL     1      -3.141  -4.984  -1.507  1.00  0.00    -0.352 N 
ATOM     18  C   UNL     1      -3.924  -5.597  -2.487  1.00  0.00     0.251 C 
ATOM     19  H   UNL     1      -3.602  -4.343  -0.918  1.00  0.00     0.163 HD
ATOM     20  O   UNL     1      -5.042  -5.200  -2.740  1.00  0.00    -0.269 OA
BRANCH  18  21
ATOM     21  C   UNL     1      -3.333  -6.734  -3.237  1.00  0.00     0.039 A 
ATOM     22  C   UNL     1      -3.570  -6.953  -4.596  1.00  0.00     0.014 A 
ATOM     23  C   UNL     1      -2.424  -7.531  -2.561  1.00  0.00     0.014 A 
ATOM     24  C   UNL     1      -2.809  -7.922  -5.256  1.00  0.00     0.010 A 
ATOM     25  C   UNL     1      -1.474  -8.201  -3.266  1.00  0.00     0.010 A 
ATOM     26  C   UNL     1      -1.739  -8.528  -4.579  1.00  0.00    -0.014 A 
BRANCH  26  27
ATOM     27  C   UNL     1      -0.840  -9.494  -5.193  1.00  0.00     0.031 A 
ATOM     28  C   UNL     1      -0.225  -9.054  -6.465  1.00  0.00     0.074 A 
ATOM     29  C   UNL     1      -0.407 -10.606  -4.554  1.00  0.00     0.049 A 
ATOM     30  N   UNL     1      -0.495  -9.478  -7.652  1.00  0.00    -0.248 NA
ATOM     31  C   UNL     1       0.700  -7.913  -6.430  1.00  0.00     0.031 C 
ATOM     32  C   UNL     1      -0.633 -11.022  -3.159  1.00  0.00     0.029 A 
ATOM     33  N   UNL     1       0.432 -11.574  -5.010  1.00  0.00    -0.354 N 
ATOM     34  C   UNL     1       0.389  -8.818  -8.500  1.00  0.00     0.074 A 
ATOM     35  C   UNL     1       0.942  -7.734  -7.731  1.00  0.00     0.031 C 
ATOM     36  C   UNL     1       0.226 -12.009  -2.827  1.00  0.00     0.029 A 
ATOM     37  C   UNL     1       0.908 -12.436  -4.030  1.00  0.00     0.049 A 
ATOM     38  H   UNL     1       0.682 -11.656  -5.958  1.00  0.00     0.167 HD
ATOM     39  C   UNL     1       0.777  -9.386  -9.676  1.00  0.00     0.037 A 
ATOM     40  C   UNL     1       1.798 -13.442  -4.196  1.00  0.00     0.037 A 
ATOM     41  C   UNL     1      -0.085 -10.494 -10.018  1.00  0.00     0.049 A 
ATOM     42  C   UNL     1       1.813 -13.772  -5.640  1.00  0.00     0.074 A 
ATOM     43  C   UNL     1      -1.439 -10.644 -10.251  1.00  0.00     0.029 A 
ATOM     44  N   UNL     1       0.393 -11.759  -9.778  1.00  0.00    -0.354 N 
ATOM     45  N   UNL     1       0.813 -14.317  -6.274  1.00  0.00    -0.248 NA
ATOM     46  C   UNL     1       2.788 -13.095  -6.479  1.00  0.00     0.031 C 
ATOM     47  C   UNL     1      -1.777 -11.906  -9.675  1.00  0.00     0.029 A 
ATOM     48  C   UNL     1      -0.606 -12.484  -9.183  1.00  0.00     0.049 A 
ATOM     49  H   UNL     1       1.295 -12.088  -9.996  1.00  0.00     0.167 HD
ATOM     50  C   UNL     1       0.794 -13.688  -7.510  1.00  0.00     0.074 A 
ATOM     51  C   UNL     1       2.099 -13.039  -7.621  1.00  0.00     0.031 C 
ATOM     52  C   UNL     1      -0.377 -13.513  -8.191  1.00  0.00     0.037 A 
BRANCH  39  53
ATOM     53  C   UNL     1       2.140  -9.215 -10.310  1.00  0.00     0.057 A 
ATOM     54  C   UNL     1       2.379  -9.799 -11.569  1.00  0.00     0.134 A 
ATOM     55  C   UNL     1       3.295  -8.768  -9.637  1.00  0.00     0.134 A 
ATOM     56  F   UNL     1       1.367 -10.267 -12.316  1.00  0.00    -0.206 F 
ATOM     57  C   UNL     1       3.669 -10.007 -12.073  1.00  0.00     0.040 A 
ATOM     58  C   UNL     1       4.585  -8.922 -10.156  1.00  0.00     0.040 A 
ATOM     59  F   UNL     1       3.262  -8.250  -8.405  1.00  0.00    -0.206 F 
ATOM     60  C   UNL     1       4.779  -9.577 -11.360  1.00  0.00     0.006 A 
ENDBRANCH  39  53
BRANCH  40  61
ATOM     61  C   UNL     1       2.800 -13.974  -3.249  1.00  0.00     0.057 A 
ATOM     62  C   UNL     1       3.406 -15.218  -3.466  1.00  0.00     0.134 A 
ATOM     63  C   UNL     1       3.395 -13.155  -2.275  1.00  0.00     0.134 A 
ATOM     64  F   UNL     1       2.925 -16.057  -4.395  1.00  0.00    -0.206 F 
ATOM     65  C   UNL     1       4.565 -15.610  -2.785  1.00  0.00     0.040 A 
ATOM     66  C   UNL     1       4.550 -13.536  -1.583  1.00  0.00     0.040 A 
ATOM     67  F   UNL     1       2.929 -11.921  -2.028  1.00  0.00    -0.206 F 
ATOM     68  C   UNL     1       5.150 -14.760  -1.851  1.00  0.00     0.006 A 
ENDBRANCH  40  61
BRANCH  52  69
ATOM     69  C   UNL     1      -1.584 -14.280  -7.719  1.00  0.00     0.057 A 
ATOM     70  C   UNL     1      -2.194 -14.112  -6.466  1.00  0.00     0.134 A 
ATOM     71  C   UNL     1      -2.237 -15.123  -8.625  1.00  0.00     0.134 A 
ATOM     72  F   UNL     1      -1.702 -13.258  -5.562  1.00  0.00    -0.206 F 
ATOM     73  C   UNL     1      -3.372 -14.783  -6.119  1.00  0.00     0.040 A 
ATOM     74  C   UNL     1      -3.432 -15.772  -8.305  1.00  0.00     0.040 A 
ATOM     75  F   UNL     1      -1.744 -15.295  -9.863  1.00  0.00    -0.206 F 
ATOM     76  C   UNL     1      -3.999 -15.611  -7.044  1.00  0.00     0.006 A 
ENDBRANCH  52  69
ENDBRANCH  26  27
ENDBRANCH  18  21
ENDBRANCH  16  17
ENDBRANCH   1  16
TORSDOF 12
