REMARK SMILES NS(=O)(=O)c1ccc(-n2ccnc2-c2ccc(O)c(C(=O)NCCCNC(=O)c3ccc(-c4c5nc(c(-c6c(F)cccc6F)c6ccc([nH]6)c(-c6c(F)cccc6F)c6nc(c(-c7c(F)cccc7F)c7ccc4[nH]7)C=C6)C=C5)cc3)c2)cc1
REMARK SMILES IDX 23 1 22 2 20 3 21 4 19 6 14 7 15 8 83 9 16 10 17 11 13 12
REMARK SMILES IDX 9 13 10 14 11 15 12 16 8 17 5 18 6 19 85 20 7 21 84 22 2 23
REMARK SMILES IDX 3 24 4 25 1 26 18 29 24 31 25 32 26 33 27 34 28 36 29 37
REMARK SMILES IDX 30 38 82 39 31 40 81 41 32 42 33 43 34 44 75 45 35 46 80 47
REMARK SMILES IDX 74 48 76 49 36 50 79 51 73 52 72 53 37 55 63 56 46 57 62 58
REMARK SMILES IDX 47 59 50 60 61 61 77 62 48 63 49 64 60 66 78 67 51 68 38 69
REMARK SMILES IDX 39 70 44 71 40 72 41 73 43 74 45 75 42 76 64 77 65 78 70 79
REMARK SMILES IDX 66 80 67 81 69 82 71 83 68 84 52 85 53 86 58 87 54 88 55 89
REMARK SMILES IDX 57 90 59 91 56 92
REMARK H PARENT 22 5 1 27 1 28 18 30 26 35 76 54 50 65
REMARK Flexibility Score: inf
ROOT
ATOM      1  C   UNL     1      -1.898   0.348  -5.572  1.00  0.00     0.118 C 
ENDROOT
BRANCH   1   2
ATOM      2  N   UNL     1      -2.814  -0.627  -6.144  1.00  0.00    -0.352 N 
ATOM      3  C   UNL     1      -2.644  -1.762  -6.899  1.00  0.00     0.255 C 
ATOM      4  O   UNL     1      -3.652  -2.443  -7.112  1.00  0.00    -0.269 OA
ATOM      5  H   UNL     1      -3.759  -0.430  -5.949  1.00  0.00     0.163 HD
BRANCH   3   6
ATOM      6  C   UNL     1      -1.345  -2.246  -7.457  1.00  0.00     0.082 A 
ATOM      7  C   UNL     1       1.055  -1.983  -7.898  1.00  0.00     0.019 A 
ATOM      8  C   UNL     1       1.098  -3.236  -8.502  1.00  0.00     0.016 A 
ATOM      9  C   UNL     1      -0.180  -1.484  -7.450  1.00  0.00     0.029 A 
ATOM     10  C   UNL     1      -0.069  -3.999  -8.587  1.00  0.00     0.048 A 
ATOM     11  C   UNL     1      -1.269  -3.517  -8.052  1.00  0.00     0.128 A 
BRANCH   7  12
ATOM     12  C   UNL     1       2.243  -1.130  -7.767  1.00  0.00     0.144 A 
ATOM     13  N   UNL     1       2.583  -0.411  -6.614  1.00  0.00    -0.300 N 
ATOM     14  C   UNL     1       3.432   0.592  -7.024  1.00  0.00     0.113 A 
ATOM     15  C   UNL     1       3.712   0.325  -8.342  1.00  0.00     0.132 A 
ATOM     16  N   UNL     1       2.998  -0.753  -8.784  1.00  0.00    -0.236 NA
BRANCH  13  17
ATOM     17  C   UNL     1       2.109  -0.604  -5.286  1.00  0.00     0.047 A 
ATOM     18  C   UNL     1       1.084  -0.986  -2.719  1.00  0.00     0.082 A 
ATOM     19  C   UNL     1       1.425  -2.093  -3.500  1.00  0.00     0.024 A 
ATOM     20  C   UNL     1       1.271   0.313  -3.203  1.00  0.00     0.024 A 
ATOM     21  C   UNL     1       1.922  -1.903  -4.792  1.00  0.00     0.028 A 
ATOM     22  C   UNL     1       1.809   0.505  -4.480  1.00  0.00     0.028 A 
BRANCH  18  23
ATOM     23  S   UNL     1       0.444  -1.252  -1.091  1.00  0.00     0.238 S 
ATOM     24  O   UNL     1       0.990  -2.478  -0.567  1.00  0.00    -0.207 OA
ATOM     25  O   UNL     1      -0.974  -0.966  -1.118  1.00  0.00    -0.207 OA
BRANCH  23  26
ATOM     26  N   UNL     1       1.156  -0.029  -0.184  1.00  0.00    -0.225 NA
ATOM     27  H   UNL     1       0.844  -0.098   0.784  1.00  0.00     0.137 HD
ATOM     28  H   UNL     1       0.885   0.878  -0.565  1.00  0.00     0.137 HD
ENDBRANCH  23  26
ENDBRANCH  18  23
ENDBRANCH  13  17
ENDBRANCH   7  12
BRANCH  11  29
ATOM     29  O   UNL     1      -2.346  -4.358  -8.171  1.00  0.00    -0.507 OA
ATOM     30  H   UNL     1      -2.243  -5.197  -8.577  1.00  0.00     0.293 HD
ENDBRANCH  11  29
ENDBRANCH   3   6
ENDBRANCH   1   2
BRANCH   1  31
ATOM     31  C   UNL     1      -1.680   1.559  -6.492  1.00  0.00     0.042 C 
BRANCH  31  32
ATOM     32  C   UNL     1      -2.680   2.662  -6.190  1.00  0.00     0.118 C 
BRANCH  32  33
ATOM     33  N   UNL     1      -2.436   3.283  -4.882  1.00  0.00    -0.352 N 
ATOM     34  C   UNL     1      -3.120   4.312  -4.265  1.00  0.00     0.251 C 
ATOM     35  H   UNL     1      -1.678   2.914  -4.373  1.00  0.00     0.163 HD
ATOM     36  O   UNL     1      -2.631   4.914  -3.317  1.00  0.00    -0.269 OA
BRANCH  34  37
ATOM     37  C   UNL     1      -4.454   4.667  -4.770  1.00  0.00     0.039 A 
ATOM     38  C   UNL     1      -4.864   5.997  -4.902  1.00  0.00     0.014 A 
ATOM     39  C   UNL     1      -5.277   3.622  -5.169  1.00  0.00     0.014 A 
ATOM     40  C   UNL     1      -6.078   6.260  -5.531  1.00  0.00     0.010 A 
ATOM     41  C   UNL     1      -6.357   3.885  -5.961  1.00  0.00     0.010 A 
ATOM     42  C   UNL     1      -6.804   5.194  -6.082  1.00  0.00    -0.014 A 
BRANCH  42  43
ATOM     43  C   UNL     1      -7.986   5.411  -6.902  1.00  0.00     0.031 A 
ATOM     44  C   UNL     1      -7.761   6.299  -8.075  1.00  0.00     0.074 A 
ATOM     45  C   UNL     1      -9.101   4.663  -6.747  1.00  0.00     0.049 A 
ATOM     46  N   UNL     1      -8.284   7.459  -8.287  1.00  0.00    -0.248 NA
ATOM     47  C   UNL     1      -6.721   5.932  -9.052  1.00  0.00     0.031 C 
ATOM     48  C   UNL     1      -9.339   3.554  -5.813  1.00  0.00     0.029 A 
ATOM     49  N   UNL     1     -10.238   4.664  -7.491  1.00  0.00    -0.354 N 
ATOM     50  C   UNL     1      -7.813   7.875  -9.530  1.00  0.00     0.074 A 
ATOM     51  C   UNL     1      -6.719   7.000  -9.855  1.00  0.00     0.031 C 
ATOM     52  C   UNL     1     -10.423   2.849  -6.206  1.00  0.00     0.029 A 
ATOM     53  C   UNL     1     -11.053   3.549  -7.308  1.00  0.00     0.049 A 
ATOM     54  H   UNL     1     -10.468   5.395  -8.110  1.00  0.00     0.167 HD
ATOM     55  C   UNL     1      -8.532   8.747 -10.291  1.00  0.00     0.037 A 
ATOM     56  C   UNL     1     -12.153   3.228  -8.035  1.00  0.00     0.037 A 
ATOM     57  C   UNL     1      -9.554   9.391  -9.501  1.00  0.00     0.049 A 
ATOM     58  C   UNL     1     -12.595   4.468  -8.722  1.00  0.00     0.074 A 
ATOM     59  C   UNL     1      -9.547  10.184  -8.370  1.00  0.00     0.029 A 
ATOM     60  N   UNL     1     -10.838   8.913  -9.614  1.00  0.00    -0.354 N 
ATOM     61  N   UNL     1     -13.100   5.493  -8.091  1.00  0.00    -0.248 NA
ATOM     62  C   UNL     1     -12.008   4.763 -10.022  1.00  0.00     0.031 C 
ATOM     63  C   UNL     1     -10.661   9.734  -7.601  1.00  0.00     0.029 A 
ATOM     64  C   UNL     1     -11.334   8.764  -8.345  1.00  0.00     0.049 A 
ATOM     65  H   UNL     1     -11.314   8.714 -10.453  1.00  0.00     0.167 HD
ATOM     66  C   UNL     1     -12.506   6.598  -8.684  1.00  0.00     0.074 A 
ATOM     67  C   UNL     1     -11.904   6.092  -9.918  1.00  0.00     0.031 C 
ATOM     68  C   UNL     1     -12.288   7.745  -7.975  1.00  0.00     0.037 A 
BRANCH  55  69
ATOM     69  C   UNL     1      -8.590   8.734 -11.800  1.00  0.00     0.057 A 
ATOM     70  C   UNL     1      -9.306   9.752 -12.460  1.00  0.00     0.134 A 
ATOM     71  C   UNL     1      -8.251   7.628 -12.604  1.00  0.00     0.134 A 
ATOM     72  F   UNL     1      -9.685  10.862 -11.808  1.00  0.00    -0.206 F 
ATOM     73  C   UNL     1      -9.740   9.628 -13.785  1.00  0.00     0.040 A 
ATOM     74  C   UNL     1      -8.636   7.518 -13.943  1.00  0.00     0.040 A 
ATOM     75  F   UNL     1      -7.623   6.550 -12.122  1.00  0.00    -0.206 F 
ATOM     76  C   UNL     1      -9.416   8.501 -14.528  1.00  0.00     0.006 A 
ENDBRANCH  55  69
BRANCH  56  77
ATOM     77  C   UNL     1     -12.697   1.893  -8.376  1.00  0.00     0.057 A 
ATOM     78  C   UNL     1     -13.999   1.743  -8.874  1.00  0.00     0.134 A 
ATOM     79  C   UNL     1     -11.864   0.766  -8.484  1.00  0.00     0.134 A 
ATOM     80  F   UNL     1     -14.860   2.771  -8.851  1.00  0.00    -0.206 F 
ATOM     81  C   UNL     1     -14.438   0.553  -9.472  1.00  0.00     0.040 A 
ATOM     82  C   UNL     1     -12.291  -0.430  -9.073  1.00  0.00     0.040 A 
ATOM     83  F   UNL     1     -10.580   0.815  -8.101  1.00  0.00    -0.206 F 
ATOM     84  C   UNL     1     -13.578  -0.535  -9.585  1.00  0.00     0.006 A 
ENDBRANCH  56  77
BRANCH  68  85
ATOM     85  C   UNL     1     -12.901   7.854  -6.604  1.00  0.00     0.057 A 
ATOM     86  C   UNL     1     -12.585   7.012  -5.525  1.00  0.00     0.134 A 
ATOM     87  C   UNL     1     -13.729   8.945  -6.324  1.00  0.00     0.134 A 
ATOM     88  F   UNL     1     -11.715   6.005  -5.662  1.00  0.00    -0.206 F 
ATOM     89  C   UNL     1     -13.109   7.215  -4.245  1.00  0.00     0.040 A 
ATOM     90  C   UNL     1     -14.232   9.180  -5.042  1.00  0.00     0.040 A 
ATOM     91  F   UNL     1     -14.026   9.831  -7.287  1.00  0.00    -0.206 F 
ATOM     92  C   UNL     1     -13.934   8.307  -4.000  1.00  0.00     0.006 A 
ENDBRANCH  68  85
ENDBRANCH  42  43
ENDBRANCH  34  37
ENDBRANCH  32  33
ENDBRANCH  31  32
ENDBRANCH   1  31
TORSDOF 15
