REMARK SMILES C[C@H]1CCC[C@@H](S[C@H](F)C(=O)NCCCNC(=O)c2ccc(-c3c4nc(c(-c5c(F)cccc5F)c5ccc([nH]5)c(-c5c(F)cccc5F)c5nc(c(-c6c(F)cccc6F)c6ccc3[nH]6)C=C5)C=C4)cc2)C1
REMARK SMILES IDX 14 1 13 2 12 3 10 4 11 5 8 7 9 8 7 9 6 10 1 11 2 12 3 13
REMARK SMILES IDX 73 14 4 15 5 16 15 17 16 18 17 19 18 21 19 22 20 23 72 24
REMARK SMILES IDX 21 25 71 26 22 27 23 28 24 29 65 30 25 31 70 32 64 33 66 34
REMARK SMILES IDX 26 35 69 36 63 37 62 38 27 40 53 41 36 42 52 43 37 44 40 45
REMARK SMILES IDX 51 46 67 47 38 48 39 49 50 51 68 52 41 53 28 54 29 55 34 56
REMARK SMILES IDX 30 57 31 58 33 59 35 60 32 61 54 62 55 63 60 64 56 65 57 66
REMARK SMILES IDX 59 67 61 68 58 69 42 70 43 71 48 72 44 73 45 74 47 75 49 76
REMARK SMILES IDX 46 77
REMARK H PARENT 12 6 16 20 66 39 40 50
REMARK Flexibility Score: inf
ROOT
ATOM      1  C   UNL     1       1.477  -1.750  -0.251  1.00  0.00     0.042 C 
ENDROOT
BRANCH   1   2
ATOM      2  C   UNL     1       0.731  -1.633  -1.566  1.00  0.00     0.118 C 
BRANCH   2   3
ATOM      3  N   UNL     1       0.565  -2.912  -2.236  1.00  0.00    -0.353 N 
ATOM      4  C   UNL     1      -0.604  -3.504  -2.641  1.00  0.00     0.265 C 
ATOM      5  O   UNL     1      -0.526  -4.555  -3.285  1.00  0.00    -0.271 OA
ATOM      6  H   UNL     1       1.391  -3.414  -2.421  1.00  0.00     0.163 HD
BRANCH   4   7
ATOM      7  C   UNL     1      -1.955  -2.865  -2.300  1.00  0.00     0.313 C 
ATOM      8  F   UNL     1      -2.057  -2.597  -0.963  1.00  0.00    -0.225 F 
BRANCH   7   9
ATOM      9  S   UNL     1      -2.161  -1.290  -3.217  1.00  0.00    -0.112 SA
BRANCH   9  10
ATOM     10  C   UNL     1      -3.401  -1.729  -4.470  1.00  0.00     0.050 C 
ATOM     11  C   UNL     1      -3.573  -4.257  -7.397  1.00  0.00     0.007 C 
ATOM     12  C   UNL     1      -4.003  -3.111  -6.485  1.00  0.00    -0.013 C 
ATOM     13  C   UNL     1      -5.370  -3.403  -5.849  1.00  0.00     0.003 C 
ATOM     14  C   UNL     1      -2.943  -2.852  -5.403  1.00  0.00     0.018 C 
ATOM     15  C   UNL     1      -5.809  -2.287  -4.903  1.00  0.00     0.001 C 
ATOM     16  C   UNL     1      -4.760  -2.017  -3.829  1.00  0.00     0.014 C 
ENDBRANCH   9  10
ENDBRANCH   7   9
ENDBRANCH   4   7
ENDBRANCH   2   3
ENDBRANCH   1   2
BRANCH   1  17
ATOM     17  C   UNL     1       2.898  -2.266  -0.394  1.00  0.00     0.118 C 
BRANCH  17  18
ATOM     18  N   UNL     1       3.751  -1.381  -1.179  1.00  0.00    -0.352 N 
ATOM     19  C   UNL     1       4.873  -0.681  -0.811  1.00  0.00     0.251 C 
ATOM     20  H   UNL     1       3.480  -1.269  -2.119  1.00  0.00     0.163 HD
ATOM     21  O   UNL     1       5.361   0.145  -1.577  1.00  0.00    -0.269 OA
BRANCH  19  22
ATOM     22  C   UNL     1       5.477  -0.900   0.520  1.00  0.00     0.039 A 
ATOM     23  C   UNL     1       5.898   0.204   1.265  1.00  0.00     0.014 A 
ATOM     24  C   UNL     1       5.616  -2.189   1.038  1.00  0.00     0.014 A 
ATOM     25  C   UNL     1       6.381   0.018   2.562  1.00  0.00     0.010 A 
ATOM     26  C   UNL     1       5.997  -2.363   2.362  1.00  0.00     0.010 A 
ATOM     27  C   UNL     1       6.390  -1.262   3.138  1.00  0.00    -0.014 A 
BRANCH  27  28
ATOM     28  C   UNL     1       6.819  -1.485   4.541  1.00  0.00     0.031 A 
ATOM     29  C   UNL     1       8.000  -2.371   4.831  1.00  0.00     0.074 A 
ATOM     30  C   UNL     1       6.103  -0.961   5.554  1.00  0.00     0.049 A 
ATOM     31  N   UNL     1       8.465  -2.781   5.983  1.00  0.00    -0.248 NA
ATOM     32  C   UNL     1       8.738  -2.891   3.668  1.00  0.00     0.031 C 
ATOM     33  C   UNL     1       4.913  -0.120   5.407  1.00  0.00     0.029 A 
ATOM     34  N   UNL     1       6.264  -1.070   6.913  1.00  0.00    -0.354 N 
ATOM     35  C   UNL     1       9.533  -3.617   5.683  1.00  0.00     0.074 A 
ATOM     36  C   UNL     1       9.609  -3.706   4.241  1.00  0.00     0.031 C 
ATOM     37  C   UNL     1       4.467   0.228   6.625  1.00  0.00     0.029 A 
ATOM     38  C   UNL     1       5.308  -0.401   7.638  1.00  0.00     0.049 A 
ATOM     39  H   UNL     1       6.997  -1.580   7.329  1.00  0.00     0.167 HD
ATOM     40  C   UNL     1      10.390  -4.235   6.530  1.00  0.00     0.037 A 
ATOM     41  C   UNL     1       5.122  -0.317   8.969  1.00  0.00     0.037 A 
ATOM     42  C   UNL     1      10.325  -4.126   7.963  1.00  0.00     0.049 A 
ATOM     43  C   UNL     1       6.073  -1.032   9.890  1.00  0.00     0.074 A 
ATOM     44  C   UNL     1      11.176  -4.671   8.908  1.00  0.00     0.029 A 
ATOM     45  N   UNL     1       9.351  -3.425   8.658  1.00  0.00    -0.354 N 
ATOM     46  N   UNL     1       7.115  -1.770   9.592  1.00  0.00    -0.248 NA
ATOM     47  C   UNL     1       5.825  -0.898  11.332  1.00  0.00     0.031 C 
ATOM     48  C   UNL     1      10.689  -4.341  10.176  1.00  0.00     0.029 A 
ATOM     49  C   UNL     1       9.568  -3.542  10.021  1.00  0.00     0.049 A 
ATOM     50  H   UNL     1       8.615  -2.919   8.244  1.00  0.00     0.167 HD
ATOM     51  C   UNL     1       7.667  -2.157  10.807  1.00  0.00     0.074 A 
ATOM     52  C   UNL     1       6.849  -1.565  11.845  1.00  0.00     0.031 C 
ATOM     53  C   UNL     1       8.754  -2.932  11.041  1.00  0.00     0.037 A 
BRANCH  40  54
ATOM     54  C   UNL     1      11.474  -5.080   5.924  1.00  0.00     0.057 A 
ATOM     55  C   UNL     1      12.534  -4.517   5.200  1.00  0.00     0.134 A 
ATOM     56  C   UNL     1      11.475  -6.470   6.091  1.00  0.00     0.134 A 
ATOM     57  F   UNL     1      12.587  -3.192   4.992  1.00  0.00    -0.206 F 
ATOM     58  C   UNL     1      13.538  -5.308   4.639  1.00  0.00     0.040 A 
ATOM     59  C   UNL     1      12.490  -7.269   5.561  1.00  0.00     0.040 A 
ATOM     60  F   UNL     1      10.494  -7.076   6.778  1.00  0.00    -0.206 F 
ATOM     61  C   UNL     1      13.521  -6.688   4.826  1.00  0.00     0.006 A 
ENDBRANCH  40  54
BRANCH  41  62
ATOM     62  C   UNL     1       3.999   0.487   9.517  1.00  0.00     0.057 A 
ATOM     63  C   UNL     1       4.239   1.671  10.225  1.00  0.00     0.134 A 
ATOM     64  C   UNL     1       2.666   0.087   9.364  1.00  0.00     0.134 A 
ATOM     65  F   UNL     1       5.495   2.097  10.421  1.00  0.00    -0.206 F 
ATOM     66  C   UNL     1       3.197   2.416  10.781  1.00  0.00     0.040 A 
ATOM     67  C   UNL     1       1.613   0.837   9.891  1.00  0.00     0.040 A 
ATOM     68  F   UNL     1       2.367  -1.033   8.690  1.00  0.00    -0.206 F 
ATOM     69  C   UNL     1       1.878   2.000  10.611  1.00  0.00     0.006 A 
ENDBRANCH  41  62
BRANCH  53  70
ATOM     70  C   UNL     1       9.157  -3.143  12.472  1.00  0.00     0.057 A 
ATOM     71  C   UNL     1       8.417  -3.953  13.342  1.00  0.00     0.134 A 
ATOM     72  C   UNL     1      10.333  -2.565  12.970  1.00  0.00     0.134 A 
ATOM     73  F   UNL     1       7.275  -4.526  12.932  1.00  0.00    -0.206 F 
ATOM     74  C   UNL     1       8.820  -4.164  14.661  1.00  0.00     0.040 A 
ATOM     75  C   UNL     1      10.762  -2.793  14.277  1.00  0.00     0.040 A 
ATOM     76  F   UNL     1      11.094  -1.786  12.186  1.00  0.00    -0.206 F 
ATOM     77  C   UNL     1      10.001  -3.590  15.129  1.00  0.00     0.006 A 
ENDBRANCH  53  70
ENDBRANCH  27  28
ENDBRANCH  19  22
ENDBRANCH  17  18
ENDBRANCH   1  17
TORSDOF 12
