REMARK SMILES O=C(NCCCNC(=O)c1ccc2c(c1)NC1=[NH+]S(=O)(=O)[NH+]=C1N2)c1ccc(-c2c3nc(c(-c4c(F)cccc4F)c4ccc([nH]4)c(-c4c(F)cccc4F)c4nc(c(-c5c(F)cccc5F)c5ccc2[nH]5)C=C4)C=C3)cc1
REMARK SMILES IDX 4 1 3 2 1 3 2 4 25 6 26 7 78 8 27 9 77 10 28 11 29 12 30 13
REMARK SMILES IDX 71 14 31 15 76 16 70 17 72 18 32 19 75 20 69 21 68 22 33 24
REMARK SMILES IDX 59 25 42 26 58 27 43 28 46 29 57 30 73 31 44 32 45 33 56 35
REMARK SMILES IDX 74 36 47 37 34 38 35 39 40 40 36 41 37 42 39 43 41 44 38 45
REMARK SMILES IDX 60 46 61 47 66 48 62 49 63 50 65 51 67 52 64 53 48 54 49 55
REMARK SMILES IDX 54 56 50 57 51 58 53 59 55 60 52 61 5 62 6 63 7 64 8 65 9 67
REMARK SMILES IDX 10 68 11 69 15 70 12 71 14 72 13 73 16 74 24 75 17 76 23 78
REMARK SMILES IDX 18 80 22 81 19 82 20 85 21 86
REMARK H PARENT 3 5 72 23 46 34 7 66 16 77 24 79 18 83 22 84
REMARK Flexibility Score: inf
ROOT
ATOM      1  C   UNL     1       4.382  -1.313   1.075  1.00  0.00     0.118 C 
ENDROOT
BRANCH   1   2
ATOM      2  N   UNL     1       2.932  -1.042   1.107  1.00  0.00    -0.352 N 
ATOM      3  O   UNL     1       1.070   0.180   0.573  1.00  0.00    -0.269 OA
ATOM      4  C   UNL     1       2.201  -0.184   0.283  1.00  0.00     0.251 C 
ATOM      5  H   UNL     1       2.417  -1.525   1.793  1.00  0.00     0.163 HD
BRANCH   4   6
ATOM      6  C   UNL     1       2.824   0.240  -0.984  1.00  0.00     0.039 A 
ATOM      7  C   UNL     1       2.795   1.526  -1.526  1.00  0.00     0.014 A 
ATOM      8  C   UNL     1       3.609  -0.724  -1.567  1.00  0.00     0.014 A 
ATOM      9  C   UNL     1       3.603   1.770  -2.640  1.00  0.00     0.010 A 
ATOM     10  C   UNL     1       4.744  -0.249  -2.119  1.00  0.00     0.010 A 
ATOM     11  C   UNL     1       4.574   0.814  -2.957  1.00  0.00    -0.014 A 
BRANCH  11  12
ATOM     12  C   UNL     1       5.514   0.859  -4.062  1.00  0.00     0.031 A 
ATOM     13  C   UNL     1       6.289   2.110  -4.111  1.00  0.00     0.074 A 
ATOM     14  C   UNL     1       5.792  -0.223  -4.834  1.00  0.00     0.049 A 
ATOM     15  N   UNL     1       6.091   3.107  -4.900  1.00  0.00    -0.248 NA
ATOM     16  C   UNL     1       7.240   2.380  -3.024  1.00  0.00     0.031 C 
ATOM     17  C   UNL     1       5.338  -1.620  -4.705  1.00  0.00     0.029 A 
ATOM     18  N   UNL     1       6.618  -0.296  -5.914  1.00  0.00    -0.354 N 
ATOM     19  C   UNL     1       7.063   4.042  -4.570  1.00  0.00     0.074 A 
ATOM     20  C   UNL     1       7.573   3.646  -3.284  1.00  0.00     0.031 C 
ATOM     21  C   UNL     1       6.052  -2.423  -5.527  1.00  0.00     0.029 A 
ATOM     22  C   UNL     1       6.880  -1.589  -6.371  1.00  0.00     0.049 A 
ATOM     23  H   UNL     1       7.003   0.504  -6.341  1.00  0.00     0.167 HD
ATOM     24  C   UNL     1       7.540   4.894  -5.518  1.00  0.00     0.037 A 
ATOM     25  C   UNL     1       7.721  -1.924  -7.383  1.00  0.00     0.037 A 
ATOM     26  C   UNL     1       6.684   4.884  -6.684  1.00  0.00     0.049 A 
ATOM     27  C   UNL     1       7.919  -0.697  -8.199  1.00  0.00     0.074 A 
ATOM     28  C   UNL     1       5.362   5.210  -6.918  1.00  0.00     0.029 A 
ATOM     29  N   UNL     1       7.062   4.080  -7.734  1.00  0.00    -0.354 N 
ATOM     30  N   UNL     1       6.965  -0.145  -8.901  1.00  0.00    -0.248 NA
ATOM     31  C   UNL     1       9.001   0.194  -7.808  1.00  0.00     0.031 C 
ATOM     32  C   UNL     1       4.887   4.208  -7.818  1.00  0.00     0.029 A 
ATOM     33  C   UNL     1       5.959   3.380  -8.156  1.00  0.00     0.049 A 
ATOM     34  H   UNL     1       7.967   4.016  -8.117  1.00  0.00     0.167 HD
ATOM     35  C   UNL     1       7.098   1.219  -8.675  1.00  0.00     0.074 A 
ATOM     36  C   UNL     1       8.409   1.371  -8.041  1.00  0.00     0.031 C 
ATOM     37  C   UNL     1       6.018   2.055  -8.738  1.00  0.00     0.037 A 
BRANCH  24  38
ATOM     38  C   UNL     1       8.959   5.404  -5.576  1.00  0.00     0.057 A 
ATOM     39  C   UNL     1      10.057   4.816  -4.916  1.00  0.00     0.134 A 
ATOM     40  C   UNL     1       9.294   6.340  -6.572  1.00  0.00     0.134 A 
ATOM     41  F   UNL     1       9.922   3.878  -3.973  1.00  0.00    -0.206 F 
ATOM     42  C   UNL     1      11.383   5.088  -5.262  1.00  0.00     0.040 A 
ATOM     43  C   UNL     1      10.617   6.584  -6.957  1.00  0.00     0.040 A 
ATOM     44  F   UNL     1       8.340   6.984  -7.261  1.00  0.00    -0.206 F 
ATOM     45  C   UNL     1      11.666   5.944  -6.313  1.00  0.00     0.006 A 
ENDBRANCH  24  38
BRANCH  25  46
ATOM     46  C   UNL     1       8.597  -3.113  -7.503  1.00  0.00     0.057 A 
ATOM     47  C   UNL     1       9.131  -3.736  -6.360  1.00  0.00     0.134 A 
ATOM     48  C   UNL     1       9.160  -3.495  -8.729  1.00  0.00     0.134 A 
ATOM     49  F   UNL     1       8.718  -3.391  -5.132  1.00  0.00    -0.206 F 
ATOM     50  C   UNL     1      10.174  -4.666  -6.429  1.00  0.00     0.040 A 
ATOM     51  C   UNL     1      10.207  -4.425  -8.813  1.00  0.00     0.040 A 
ATOM     52  F   UNL     1       8.748  -2.927  -9.871  1.00  0.00    -0.206 F 
ATOM     53  C   UNL     1      10.726  -5.005  -7.659  1.00  0.00     0.006 A 
ENDBRANCH  25  46
BRANCH  37  54
ATOM     54  C   UNL     1       4.726   1.484  -9.268  1.00  0.00     0.057 A 
ATOM     55  C   UNL     1       4.136   2.077 -10.388  1.00  0.00     0.134 A 
ATOM     56  C   UNL     1       3.989   0.467  -8.637  1.00  0.00     0.134 A 
ATOM     57  F   UNL     1       4.748   3.096 -11.010  1.00  0.00    -0.206 F 
ATOM     58  C   UNL     1       2.888   1.673 -10.869  1.00  0.00     0.040 A 
ATOM     59  C   UNL     1       2.752   0.031  -9.126  1.00  0.00     0.040 A 
ATOM     60  F   UNL     1       4.417  -0.096  -7.502  1.00  0.00    -0.206 F 
ATOM     61  C   UNL     1       2.196   0.638 -10.246  1.00  0.00     0.006 A 
ENDBRANCH  37  54
ENDBRANCH  11  12
ENDBRANCH   4   6
ENDBRANCH   1   2
BRANCH   1  62
ATOM     62  C   UNL     1       4.895  -2.185   2.198  1.00  0.00     0.042 C 
BRANCH  62  63
ATOM     63  C   UNL     1       4.366  -3.614   2.111  1.00  0.00     0.118 C 
BRANCH  63  64
ATOM     64  N   UNL     1       4.923  -4.394   1.003  1.00  0.00    -0.352 N 
ATOM     65  C   UNL     1       5.766  -5.481   1.021  1.00  0.00     0.251 C 
ATOM     66  H   UNL     1       4.651  -4.093   0.106  1.00  0.00     0.163 HD
ATOM     67  O   UNL     1       6.229  -5.932  -0.021  1.00  0.00    -0.269 OA
BRANCH  65  68
ATOM     68  C   UNL     1       6.157  -6.078   2.313  1.00  0.00     0.044 A 
ATOM     69  C   UNL     1       5.191  -6.378   3.279  1.00  0.00     0.018 A 
ATOM     70  C   UNL     1       7.514  -6.287   2.571  1.00  0.00     0.070 A 
ATOM     71  C   UNL     1       5.583  -6.713   4.571  1.00  0.00     0.057 A 
ATOM     72  C   UNL     1       7.916  -6.672   3.851  1.00  0.00     0.173 A 
ATOM     73  C   UNL     1       6.940  -6.826   4.878  1.00  0.00     0.172 A 
ATOM     74  N   UNL     1       9.283  -6.824   4.153  1.00  0.00    -0.229 N 
ATOM     75  N   UNL     1       7.340  -7.081   6.200  1.00  0.00    -0.229 N 
ATOM     76  C   UNL     1       9.703  -7.049   5.435  1.00  0.00     0.383 C 
ATOM     77  H   UNL     1       9.947  -6.768   3.429  1.00  0.00     0.313 HD
ATOM     78  C   UNL     1       8.662  -7.167   6.534  1.00  0.00     0.383 C 
ATOM     79  H   UNL     1       6.656  -7.199   6.899  1.00  0.00     0.313 HD
ATOM     80  N   UNL     1      10.903  -7.174   5.876  1.00  0.00    -0.122 N 
ATOM     81  N   UNL     1       9.180  -7.345   7.695  1.00  0.00    -0.122 N 
ATOM     82  S   UNL     1      10.805  -7.363   7.500  1.00  0.00     0.469 S 
ATOM     83  H   UNL     1      11.727  -7.159   5.338  1.00  0.00     0.331 HD
ATOM     84  H   UNL     1       8.692  -7.451   8.544  1.00  0.00     0.331 HD
ATOM     85  O   UNL     1      11.283  -8.697   7.834  1.00  0.00    -0.143 OA
ATOM     86  O   UNL     1      11.353  -6.194   8.129  1.00  0.00    -0.143 OA
ENDBRANCH  65  68
ENDBRANCH  63  64
ENDBRANCH  62  63
ENDBRANCH   1  62
TORSDOF 10
