REMARK SMILES O=CN1CCC[C@@H](C(=O)NCCCNC(=O)c2ccc(-c3c4nc(c(-c5c(F)cccc5F)c5ccc([nH]5)c(-c5c(F)cccc5F)c5nc(c(-c6c(F)cccc6F)c6ccc3[nH]6)C=C5)C=C4)cc2)C1
REMARK SMILES IDX 12 1 11 2 10 3 8 4 9 5 7 7 3 8 4 9 71 10 5 11 6 12 2 13 1 14
REMARK SMILES IDX 13 15 14 16 15 17 16 19 17 20 18 21 70 22 19 23 69 24 20 25
REMARK SMILES IDX 21 26 22 27 63 28 23 29 68 30 62 31 64 32 24 33 67 34 61 35
REMARK SMILES IDX 60 36 25 38 51 39 34 40 50 41 35 42 38 43 49 44 65 45 36 46
REMARK SMILES IDX 37 47 48 49 66 50 39 51 26 52 27 53 32 54 28 55 29 56 31 57
REMARK SMILES IDX 33 58 30 59 52 60 53 61 58 62 54 63 55 64 57 65 59 66 56 67
REMARK SMILES IDX 40 68 41 69 46 70 42 71 43 72 45 73 47 74 44 75
REMARK H PARENT 10 6 14 18 64 37 38 48
REMARK Flexibility Score: inf
ROOT
ATOM      1  C   UNL     1       0.115   1.528  -4.286  1.00  0.00     0.042 C 
ENDROOT
BRANCH   1   2
ATOM      2  C   UNL     1       1.033   0.333  -4.511  1.00  0.00     0.117 C 
BRANCH   2   3
ATOM      3  N   UNL     1       2.355   0.737  -4.960  1.00  0.00    -0.356 N 
ATOM      4  C   UNL     1       3.572   0.866  -4.386  1.00  0.00     0.224 C 
ATOM      5  O   UNL     1       4.456   1.283  -5.148  1.00  0.00    -0.275 OA
ATOM      6  H   UNL     1       2.366   0.975  -5.915  1.00  0.00     0.163 HD
BRANCH   4   7
ATOM      7  C   UNL     1       3.927   0.575  -2.925  1.00  0.00     0.098 C 
ATOM      8  N   UNL     1       3.368  -0.459  -0.735  1.00  0.00    -0.344 N 
ATOM      9  C   UNL     1       4.569  -1.272  -0.696  1.00  0.00     0.119 C 
ATOM     10  C   UNL     1       2.872  -0.084  -2.051  1.00  0.00     0.132 C 
ATOM     11  C   UNL     1       5.683  -0.616  -1.497  1.00  0.00     0.022 C 
ATOM     12  C   UNL     1       5.224  -0.267  -2.913  1.00  0.00     0.017 C 
BRANCH   8  13
ATOM     13  C   UNL     1       2.602  -0.239   0.390  1.00  0.00     0.339 C 
ATOM     14  O   UNL     1       1.512   0.322   0.412  1.00  0.00    -0.279 OA
ENDBRANCH   8  13
ENDBRANCH   4   7
ENDBRANCH   2   3
ENDBRANCH   1   2
BRANCH   1  15
ATOM     15  C   UNL     1      -0.388   2.145  -5.588  1.00  0.00     0.118 C 
BRANCH  15  16
ATOM     16  N   UNL     1      -1.210   1.214  -6.355  1.00  0.00    -0.352 N 
ATOM     17  C   UNL     1      -2.542   1.258  -6.678  1.00  0.00     0.251 C 
ATOM     18  H   UNL     1      -0.730   0.425  -6.695  1.00  0.00     0.163 HD
ATOM     19  O   UNL     1      -3.092   0.251  -7.114  1.00  0.00    -0.269 OA
BRANCH  17  20
ATOM     20  C   UNL     1      -3.316   2.504  -6.513  1.00  0.00     0.039 A 
ATOM     21  C   UNL     1      -4.638   2.427  -6.065  1.00  0.00     0.014 A 
ATOM     22  C   UNL     1      -2.763   3.741  -6.850  1.00  0.00     0.014 A 
ATOM     23  C   UNL     1      -5.385   3.595  -5.903  1.00  0.00     0.010 A 
ATOM     24  C   UNL     1      -3.478   4.909  -6.612  1.00  0.00     0.010 A 
ATOM     25  C   UNL     1      -4.799   4.847  -6.147  1.00  0.00    -0.014 A 
BRANCH  25  26
ATOM     26  C   UNL     1      -5.552   6.107  -5.936  1.00  0.00     0.031 A 
ATOM     27  C   UNL     1      -5.840   7.015  -7.099  1.00  0.00     0.074 A 
ATOM     28  C   UNL     1      -5.904   6.470  -4.689  1.00  0.00     0.049 A 
ATOM     29  N   UNL     1      -6.392   8.202  -7.106  1.00  0.00    -0.248 NA
ATOM     30  C   UNL     1      -5.424   6.539  -8.428  1.00  0.00     0.031 C 
ATOM     31  C   UNL     1      -5.630   5.699  -3.474  1.00  0.00     0.029 A 
ATOM     32  N   UNL     1      -6.551   7.590  -4.233  1.00  0.00    -0.354 N 
ATOM     33  C   UNL     1      -6.371   8.619  -8.431  1.00  0.00     0.074 A 
ATOM     34  C   UNL     1      -5.704   7.585  -9.191  1.00  0.00     0.031 C 
ATOM     35  C   UNL     1      -6.119   6.361  -2.414  1.00  0.00     0.029 A 
ATOM     36  C   UNL     1      -6.707   7.617  -2.869  1.00  0.00     0.049 A 
ATOM     37  H   UNL     1      -6.874   8.305  -4.828  1.00  0.00     0.167 HD
ATOM     38  C   UNL     1      -6.884   9.751  -8.969  1.00  0.00     0.037 A 
ATOM     39  C   UNL     1      -7.252   8.556  -2.074  1.00  0.00     0.037 A 
ATOM     40  C   UNL     1      -7.568  10.766  -8.212  1.00  0.00     0.049 A 
ATOM     41  C   UNL     1      -7.826   9.798  -2.694  1.00  0.00     0.074 A 
ATOM     42  C   UNL     1      -8.172  11.924  -8.668  1.00  0.00     0.029 A 
ATOM     43  N   UNL     1      -7.741  10.739  -6.836  1.00  0.00    -0.354 N 
ATOM     44  N   UNL     1      -7.854  10.154  -3.956  1.00  0.00    -0.248 NA
ATOM     45  C   UNL     1      -8.451  10.766  -1.783  1.00  0.00     0.031 C 
ATOM     46  C   UNL     1      -8.680  12.616  -7.563  1.00  0.00     0.029 A 
ATOM     47  C   UNL     1      -8.430  11.868  -6.424  1.00  0.00     0.049 A 
ATOM     48  H   UNL     1      -7.421  10.024  -6.240  1.00  0.00     0.167 HD
ATOM     49  C   UNL     1      -8.517  11.373  -3.993  1.00  0.00     0.074 A 
ATOM     50  C   UNL     1      -8.889  11.688  -2.629  1.00  0.00     0.031 C 
ATOM     51  C   UNL     1      -8.793  12.161  -5.061  1.00  0.00     0.037 A 
BRANCH  38  52
ATOM     52  C   UNL     1      -6.726   9.942 -10.450  1.00  0.00     0.057 A 
ATOM     53  C   UNL     1      -7.427   9.154 -11.373  1.00  0.00     0.134 A 
ATOM     54  C   UNL     1      -5.878  10.933 -10.960  1.00  0.00     0.134 A 
ATOM     55  F   UNL     1      -8.245   8.179 -10.951  1.00  0.00    -0.206 F 
ATOM     56  C   UNL     1      -7.266   9.324 -12.749  1.00  0.00     0.040 A 
ATOM     57  C   UNL     1      -5.730  11.130 -12.334  1.00  0.00     0.040 A 
ATOM     58  F   UNL     1      -5.182  11.727 -10.133  1.00  0.00    -0.206 F 
ATOM     59  C   UNL     1      -6.419  10.319 -13.233  1.00  0.00     0.006 A 
ENDBRANCH  38  52
BRANCH  39  60
ATOM     60  C   UNL     1      -7.301   8.342  -0.607  1.00  0.00     0.057 A 
ATOM     61  C   UNL     1      -8.509   8.066   0.042  1.00  0.00     0.134 A 
ATOM     62  C   UNL     1      -6.143   8.395   0.178  1.00  0.00     0.134 A 
ATOM     63  F   UNL     1      -9.654   8.018  -0.655  1.00  0.00    -0.206 F 
ATOM     64  C   UNL     1      -8.568   7.864   1.422  1.00  0.00     0.040 A 
ATOM     65  C   UNL     1      -6.183   8.173   1.556  1.00  0.00     0.040 A 
ATOM     66  F   UNL     1      -4.953   8.646  -0.387  1.00  0.00    -0.206 F 
ATOM     67  C   UNL     1      -7.401   7.912   2.182  1.00  0.00     0.006 A 
ENDBRANCH  39  60
BRANCH  51  68
ATOM     68  C   UNL     1      -9.556  13.425  -4.797  1.00  0.00     0.057 A 
ATOM     69  C   UNL     1      -8.959  14.532  -4.180  1.00  0.00     0.134 A 
ATOM     70  C   UNL     1     -10.892  13.548  -5.199  1.00  0.00     0.134 A 
ATOM     71  F   UNL     1      -7.687  14.472  -3.760  1.00  0.00    -0.206 F 
ATOM     72  C   UNL     1      -9.672  15.710  -3.954  1.00  0.00     0.040 A 
ATOM     73  C   UNL     1     -11.607  14.729  -5.001  1.00  0.00     0.040 A 
ATOM     74  F   UNL     1     -11.518  12.526  -5.803  1.00  0.00    -0.206 F 
ATOM     75  C   UNL     1     -10.998  15.813  -4.372  1.00  0.00     0.006 A 
ENDBRANCH  51  68
ENDBRANCH  25  26
ENDBRANCH  17  20
ENDBRANCH  15  16
ENDBRANCH   1  15
TORSDOF 11
