REMARK SMILES Cc1ccc(S(=O)(=O)Nc2ccc(N3CCNC3=O)cc2)cc1C(=O)NCCCNC(=O)c1ccc(-c2c3nc(c(-c4c(F)cccc4F)c4ccc([nH]4)c(-c4c(F)cccc4F)c4nc(c(-c5c(F)cccc5F)c5ccc2[nH]5)C=C4)C=C3)cc1
REMARK SMILES IDX 27 1 26 2 24 3 25 4 23 6 1 7 2 8 3 9 4 10 22 11 5 12 6 13
REMARK SMILES IDX 7 14 8 15 9 16 10 18 11 19 21 20 12 21 20 22 13 23 14 24
REMARK SMILES IDX 15 25 18 26 16 27 17 28 19 29 28 31 29 32 30 33 31 34 32 36
REMARK SMILES IDX 33 37 34 38 86 39 35 40 85 41 36 42 37 43 38 44 79 45 39 46
REMARK SMILES IDX 84 47 78 48 80 49 40 50 83 51 77 52 76 53 41 55 67 56 50 57
REMARK SMILES IDX 66 58 51 59 54 60 65 61 81 62 52 63 53 64 64 66 82 67 55 68
REMARK SMILES IDX 42 69 43 70 48 71 44 72 45 73 47 74 49 75 46 76 68 77 69 78
REMARK SMILES IDX 74 79 70 80 71 81 73 82 75 83 72 84 56 85 57 86 62 87 58 88
REMARK SMILES IDX 59 89 61 90 63 91 60 92
REMARK H PARENT 26 5 9 17 17 30 30 35 80 54 54 65
REMARK Flexibility Score: inf
ROOT
ATOM      1  C   UNL     1       3.655   1.125   0.425  1.00  0.00     0.118 C 
ENDROOT
BRANCH   1   2
ATOM      2  N   UNL     1       2.506   1.995   0.287  1.00  0.00    -0.352 N 
ATOM      3  C   UNL     1       1.146   1.859   0.295  1.00  0.00     0.251 C 
ATOM      4  O   UNL     1       0.570   2.954   0.323  1.00  0.00    -0.269 OA
ATOM      5  H   UNL     1       2.776   2.933   0.152  1.00  0.00     0.163 HD
BRANCH   3   6
ATOM      6  C   UNL     1       0.289   0.606   0.293  1.00  0.00     0.044 A 
ATOM      7  C   UNL     1       1.878  -1.225  -0.646  1.00  0.00     0.045 C 
ATOM      8  C   UNL     1       0.604  -0.726  -0.055  1.00  0.00    -0.038 A 
ATOM      9  C   UNL     1      -0.392  -1.725   0.008  1.00  0.00     0.005 A 
ATOM     10  C   UNL     1      -1.724  -1.401   0.181  1.00  0.00     0.022 A 
ATOM     11  C   UNL     1      -1.088   0.888   0.536  1.00  0.00     0.036 A 
ATOM     12  C   UNL     1      -2.086  -0.071   0.355  1.00  0.00     0.088 A 
BRANCH  12  13
ATOM     13  S   UNL     1      -3.810   0.255   0.072  1.00  0.00     0.261 S 
ATOM     14  O   UNL     1      -4.025   0.021  -1.343  1.00  0.00    -0.201 OA
ATOM     15  O   UNL     1      -4.537  -0.531   1.049  1.00  0.00    -0.201 OA
BRANCH  13  16
ATOM     16  N   UNL     1      -4.266   1.849   0.344  1.00  0.00    -0.280 N 
ATOM     17  H   UNL     1      -5.139   2.019   0.767  1.00  0.00     0.180 HD
BRANCH  16  18
ATOM     18  C   UNL     1      -3.457   2.964  -0.004  1.00  0.00     0.049 A 
ATOM     19  C   UNL     1      -3.447   3.985   0.943  1.00  0.00     0.029 A 
ATOM     20  C   UNL     1      -2.773   3.124  -1.206  1.00  0.00     0.029 A 
ATOM     21  C   UNL     1      -2.593   5.069   0.789  1.00  0.00     0.028 A 
ATOM     22  C   UNL     1      -1.928   4.235  -1.371  1.00  0.00     0.028 A 
ATOM     23  C   UNL     1      -1.781   5.178  -0.344  1.00  0.00     0.046 A 
BRANCH  23  24
ATOM     24  N   UNL     1      -0.770   6.158  -0.376  1.00  0.00    -0.293 N 
ATOM     25  C   UNL     1      -0.139   6.651   0.833  1.00  0.00     0.149 C 
ATOM     26  C   UNL     1      -0.156   6.712  -1.503  1.00  0.00     0.321 C 
ATOM     27  C   UNL     1       1.147   7.289   0.337  1.00  0.00     0.139 C 
ATOM     28  N   UNL     1       0.907   7.491  -1.062  1.00  0.00    -0.336 N 
ATOM     29  O   UNL     1      -0.456   6.591  -2.685  1.00  0.00    -0.248 OA
ATOM     30  H   UNL     1       1.427   8.101  -1.634  1.00  0.00     0.165 HD
ENDBRANCH  23  24
ENDBRANCH  16  18
ENDBRANCH  13  16
ENDBRANCH  12  13
ENDBRANCH   3   6
ENDBRANCH   1   2
BRANCH   1  31
ATOM     31  C   UNL     1       4.180   0.678  -0.933  1.00  0.00     0.042 C 
BRANCH  31  32
ATOM     32  C   UNL     1       5.465   1.331  -1.384  1.00  0.00     0.118 C 
BRANCH  32  33
ATOM     33  N   UNL     1       6.675   0.607  -0.996  1.00  0.00    -0.352 N 
ATOM     34  C   UNL     1       7.994   0.854  -1.348  1.00  0.00     0.251 C 
ATOM     35  H   UNL     1       6.533  -0.166  -0.402  1.00  0.00     0.163 HD
ATOM     36  O   UNL     1       8.897   0.177  -0.868  1.00  0.00    -0.269 OA
BRANCH  34  37
ATOM     37  C   UNL     1       8.313   2.059  -2.156  1.00  0.00     0.039 A 
ATOM     38  C   UNL     1       9.165   2.979  -1.539  1.00  0.00     0.014 A 
ATOM     39  C   UNL     1       7.410   2.469  -3.125  1.00  0.00     0.014 A 
ATOM     40  C   UNL     1       8.815   4.319  -1.568  1.00  0.00     0.010 A 
ATOM     41  C   UNL     1       6.965   3.767  -3.042  1.00  0.00     0.010 A 
ATOM     42  C   UNL     1       7.618   4.661  -2.189  1.00  0.00    -0.014 A 
BRANCH  42  43
ATOM     43  C   UNL     1       7.026   5.977  -2.100  1.00  0.00     0.031 A 
ATOM     44  C   UNL     1       7.405   6.914  -3.161  1.00  0.00     0.074 A 
ATOM     45  C   UNL     1       6.170   6.305  -1.109  1.00  0.00     0.049 A 
ATOM     46  N   UNL     1       7.455   8.187  -3.016  1.00  0.00    -0.248 NA
ATOM     47  C   UNL     1       7.877   6.458  -4.464  1.00  0.00     0.031 C 
ATOM     48  C   UNL     1       5.361   7.511  -0.987  1.00  0.00     0.029 A 
ATOM     49  N   UNL     1       6.006   5.659   0.119  1.00  0.00    -0.354 N 
ATOM     50  C   UNL     1       7.665   8.729  -4.263  1.00  0.00     0.074 A 
ATOM     51  C   UNL     1       8.060   7.619  -5.091  1.00  0.00     0.031 C 
ATOM     52  C   UNL     1       5.018   7.677   0.303  1.00  0.00     0.029 A 
ATOM     53  C   UNL     1       5.702   6.657   1.076  1.00  0.00     0.049 A 
ATOM     54  H   UNL     1       6.087   4.692   0.287  1.00  0.00     0.167 HD
ATOM     55  C   UNL     1       7.317  10.031  -4.460  1.00  0.00     0.037 A 
ATOM     56  C   UNL     1       6.563   6.891   2.115  1.00  0.00     0.037 A 
ATOM     57  C   UNL     1       6.892  10.630  -3.187  1.00  0.00     0.049 A 
ATOM     58  C   UNL     1       7.304   8.203   1.988  1.00  0.00     0.074 A 
ATOM     59  C   UNL     1       5.659  10.843  -2.591  1.00  0.00     0.029 A 
ATOM     60  N   UNL     1       7.822  10.737  -2.165  1.00  0.00    -0.354 N 
ATOM     61  N   UNL     1       7.123   9.056   1.017  1.00  0.00    -0.248 NA
ATOM     62  C   UNL     1       8.375   8.607   2.895  1.00  0.00     0.031 C 
ATOM     63  C   UNL     1       5.869  11.054  -1.194  1.00  0.00     0.029 A 
ATOM     64  C   UNL     1       7.229  11.007  -0.945  1.00  0.00     0.049 A 
ATOM     65  H   UNL     1       8.793  10.632  -2.293  1.00  0.00     0.167 HD
ATOM     66  C   UNL     1       8.030  10.074   1.123  1.00  0.00     0.074 A 
ATOM     67  C   UNL     1       8.814   9.728   2.299  1.00  0.00     0.031 C 
ATOM     68  C   UNL     1       8.083  11.111   0.232  1.00  0.00     0.037 A 
BRANCH  55  69
ATOM     69  C   UNL     1       7.089  10.664  -5.817  1.00  0.00     0.057 A 
ATOM     70  C   UNL     1       6.285  11.815  -5.927  1.00  0.00     0.134 A 
ATOM     71  C   UNL     1       7.561  10.183  -7.055  1.00  0.00     0.134 A 
ATOM     72  F   UNL     1       5.825  12.456  -4.845  1.00  0.00    -0.206 F 
ATOM     73  C   UNL     1       5.908  12.374  -7.157  1.00  0.00     0.040 A 
ATOM     74  C   UNL     1       7.160  10.705  -8.293  1.00  0.00     0.040 A 
ATOM     75  F   UNL     1       8.485   9.224  -7.146  1.00  0.00    -0.206 F 
ATOM     76  C   UNL     1       6.319  11.802  -8.349  1.00  0.00     0.006 A 
ENDBRANCH  55  69
BRANCH  56  77
ATOM     77  C   UNL     1       7.139   5.617   2.641  1.00  0.00     0.057 A 
ATOM     78  C   UNL     1       6.203   4.673   3.103  1.00  0.00     0.134 A 
ATOM     79  C   UNL     1       8.336   5.131   2.110  1.00  0.00     0.134 A 
ATOM     80  F   UNL     1       5.078   5.082   3.711  1.00  0.00    -0.206 F 
ATOM     81  C   UNL     1       6.298   3.333   2.733  1.00  0.00     0.040 A 
ATOM     82  C   UNL     1       8.460   3.781   1.782  1.00  0.00     0.040 A 
ATOM     83  F   UNL     1       9.317   5.967   1.742  1.00  0.00    -0.206 F 
ATOM     84  C   UNL     1       7.399   2.902   2.002  1.00  0.00     0.006 A 
ENDBRANCH  56  77
BRANCH  68  85
ATOM     85  C   UNL     1       9.004  12.297   0.391  1.00  0.00     0.057 A 
ATOM     86  C   UNL     1       9.374  12.812   1.642  1.00  0.00     0.134 A 
ATOM     87  C   UNL     1       9.487  13.031  -0.714  1.00  0.00     0.134 A 
ATOM     88  F   UNL     1       8.831  12.347   2.776  1.00  0.00    -0.206 F 
ATOM     89  C   UNL     1      10.287  13.863   1.783  1.00  0.00     0.040 A 
ATOM     90  C   UNL     1      10.354  14.118  -0.586  1.00  0.00     0.040 A 
ATOM     91  F   UNL     1       9.149  12.742  -1.976  1.00  0.00    -0.206 F 
ATOM     92  C   UNL     1      10.790  14.512   0.665  1.00  0.00     0.006 A 
ENDBRANCH  68  85
ENDBRANCH  42  43
ENDBRANCH  34  37
ENDBRANCH  32  33
ENDBRANCH  31  32
ENDBRANCH   1  31
TORSDOF 14
