REMARK SMILES C[C@@H](C(=O)NCCCNC(=O)c1ccc(-c2c3nc(c(-c4c(F)cccc4F)c4ccc([nH]4)c(-c4c(F)cccc4F)c4nc(c(-c5c(F)cccc5F)c5ccc2[nH]5)C=C4)C=C3)cc1)c1ccc(C[C@H]2CCC[C@H]2O)cc1-c1ccc(O)cc1
REMARK SMILES IDX 6 1 5 2 3 3 4 4 2 6 1 7 66 8 67 9 78 10 68 11 77 12 69 13
REMARK SMILES IDX 79 14 80 15 85 16 81 17 84 18 82 19 83 20 70 22 71 23 72 24
REMARK SMILES IDX 75 25 73 26 74 27 76 28 7 30 8 31 9 32 10 33 11 35 12 36
REMARK SMILES IDX 13 37 65 38 14 39 64 40 15 41 16 42 17 43 58 44 18 45 63 46
REMARK SMILES IDX 57 47 59 48 19 49 62 50 56 51 55 52 20 54 46 55 29 56 45 57
REMARK SMILES IDX 30 58 33 59 44 60 60 61 31 62 32 63 43 65 61 66 34 67 21 68
REMARK SMILES IDX 22 69 27 70 23 71 24 72 26 73 28 74 25 75 47 76 48 77 53 78
REMARK SMILES IDX 49 79 50 80 52 81 54 82 51 83 35 84 36 85 41 86 37 87 38 88
REMARK SMILES IDX 40 89 42 90 39 91
REMARK H PARENT 5 5 83 21 76 29 9 34 59 53 33 64
REMARK Flexibility Score: inf
ROOT
ATOM      1  C   UNL     1       3.540  -0.226   1.966  1.00  0.00     0.117 C 
ENDROOT
BRANCH   1   2
ATOM      2  N   UNL     1       2.443   0.521   2.545  1.00  0.00    -0.356 N 
ATOM      3  C   UNL     1       1.140   0.622   2.159  1.00  0.00     0.227 C 
ATOM      4  O   UNL     1       0.449   1.413   2.806  1.00  0.00    -0.274 OA
ATOM      5  H   UNL     1       2.677   1.040   3.347  1.00  0.00     0.163 HD
BRANCH   3   6
ATOM      6  C   UNL     1       0.596  -0.237   0.997  1.00  0.00     0.106 C 
ATOM      7  C   UNL     1       1.064   0.266  -0.369  1.00  0.00     0.023 C 
BRANCH   6   8
ATOM      8  C   UNL     1      -0.932  -0.323   1.044  1.00  0.00    -0.028 A 
ATOM      9  C   UNL     1      -1.671   0.849   0.793  1.00  0.00     0.005 A 
ATOM     10  C   UNL     1      -1.627  -1.516   1.349  1.00  0.00    -0.014 A 
ATOM     11  C   UNL     1      -3.055   0.870   0.907  1.00  0.00     0.004 A 
ATOM     12  C   UNL     1      -3.027  -1.451   1.525  1.00  0.00     0.012 A 
ATOM     13  C   UNL     1      -3.743  -0.256   1.350  1.00  0.00    -0.047 A 
BRANCH  10  14
ATOM     14  C   UNL     1      -0.963  -2.830   1.403  1.00  0.00    -0.018 A 
ATOM     15  C   UNL     1      -1.143  -3.735   0.342  1.00  0.00     0.012 A 
ATOM     16  C   UNL     1      -0.108  -3.199   2.454  1.00  0.00     0.012 A 
ATOM     17  C   UNL     1      -0.462  -4.953   0.311  1.00  0.00     0.047 A 
ATOM     18  C   UNL     1       0.587  -4.414   2.420  1.00  0.00     0.047 A 
ATOM     19  C   UNL     1       0.408  -5.276   1.342  1.00  0.00     0.115 A 
BRANCH  19  20
ATOM     20  O   UNL     1       1.083  -6.458   1.252  1.00  0.00    -0.508 OA
ATOM     21  H   UNL     1       0.945  -7.021   0.516  1.00  0.00     0.293 HD
ENDBRANCH  19  20
ENDBRANCH  10  14
BRANCH  13  22
ATOM     22  C   UNL     1      -5.220  -0.169   1.640  1.00  0.00     0.041 C 
BRANCH  22  23
ATOM     23  C   UNL     1      -5.643   0.377   3.018  1.00  0.00     0.022 C 
ATOM     24  C   UNL     1      -5.037  -0.336   4.237  1.00  0.00     0.007 C 
ATOM     25  C   UNL     1      -5.460   1.875   3.314  1.00  0.00     0.117 C 
ATOM     26  C   UNL     1      -4.988   0.706   5.358  1.00  0.00     0.003 C 
ATOM     27  C   UNL     1      -5.697   1.945   4.818  1.00  0.00     0.032 C 
BRANCH  25  28
ATOM     28  O   UNL     1      -4.172   2.396   3.043  1.00  0.00    -0.393 OA
ATOM     29  H   UNL     1      -3.513   1.920   3.572  1.00  0.00     0.210 HD
ENDBRANCH  25  28
ENDBRANCH  22  23
ENDBRANCH  13  22
ENDBRANCH   6   8
ENDBRANCH   3   6
ENDBRANCH   1   2
BRANCH   1  30
ATOM     30  C   UNL     1       4.435   0.667   1.114  1.00  0.00     0.042 C 
BRANCH  30  31
ATOM     31  C   UNL     1       5.126   1.779   1.895  1.00  0.00     0.118 C 
BRANCH  31  32
ATOM     32  N   UNL     1       6.137   1.276   2.814  1.00  0.00    -0.352 N 
ATOM     33  C   UNL     1       7.492   1.515   2.838  1.00  0.00     0.251 C 
ATOM     34  H   UNL     1       5.802   0.679   3.522  1.00  0.00     0.163 HD
ATOM     35  O   UNL     1       8.220   0.865   3.577  1.00  0.00    -0.269 OA
BRANCH  33  36
ATOM     36  C   UNL     1       8.068   2.546   1.950  1.00  0.00     0.039 A 
ATOM     37  C   UNL     1       9.212   2.242   1.206  1.00  0.00     0.014 A 
ATOM     38  C   UNL     1       7.476   3.806   1.849  1.00  0.00     0.014 A 
ATOM     39  C   UNL     1       9.717   3.179   0.299  1.00  0.00     0.010 A 
ATOM     40  C   UNL     1       7.933   4.706   0.894  1.00  0.00     0.010 A 
ATOM     41  C   UNL     1       9.058   4.402   0.110  1.00  0.00    -0.014 A 
BRANCH  41  42
ATOM     42  C   UNL     1       9.513   5.401  -0.888  1.00  0.00     0.031 A 
ATOM     43  C   UNL     1       9.954   6.760  -0.425  1.00  0.00     0.074 A 
ATOM     44  C   UNL     1       9.410   5.136  -2.204  1.00  0.00     0.049 A 
ATOM     45  N   UNL     1      10.188   7.840  -1.125  1.00  0.00    -0.248 NA
ATOM     46  C   UNL     1      10.114   6.934   1.027  1.00  0.00     0.031 C 
ATOM     47  C   UNL     1       8.962   3.868  -2.780  1.00  0.00     0.029 A 
ATOM     48  N   UNL     1       9.640   5.936  -3.295  1.00  0.00    -0.354 N 
ATOM     49  C   UNL     1      10.485   8.830  -0.198  1.00  0.00     0.074 A 
ATOM     50  C   UNL     1      10.361   8.232   1.115  1.00  0.00     0.031 C 
ATOM     51  C   UNL     1       8.943   3.978  -4.118  1.00  0.00     0.029 A 
ATOM     52  C   UNL     1       9.332   5.335  -4.491  1.00  0.00     0.049 A 
ATOM     53  H   UNL     1       9.992   6.853  -3.227  1.00  0.00     0.167 HD
ATOM     54  C   UNL     1      10.839  10.118  -0.420  1.00  0.00     0.037 A 
ATOM     55  C   UNL     1       9.333   5.829  -5.743  1.00  0.00     0.037 A 
ATOM     56  C   UNL     1      10.989  10.698  -1.728  1.00  0.00     0.049 A 
ATOM     57  C   UNL     1       9.736   7.258  -5.973  1.00  0.00     0.074 A 
ATOM     58  C   UNL     1      11.409  11.973  -2.064  1.00  0.00     0.029 A 
ATOM     59  N   UNL     1      10.720  10.037  -2.918  1.00  0.00    -0.354 N 
ATOM     60  N   UNL     1      10.066   8.172  -5.093  1.00  0.00    -0.248 NA
ATOM     61  C   UNL     1       9.771   7.725  -7.366  1.00  0.00     0.031 C 
ATOM     62  C   UNL     1      11.356  12.096  -3.457  1.00  0.00     0.029 A 
ATOM     63  C   UNL     1      10.948  10.883  -3.990  1.00  0.00     0.049 A 
ATOM     64  H   UNL     1      10.413   9.104  -2.990  1.00  0.00     0.167 HD
ATOM     65  C   UNL     1      10.375   9.312  -5.824  1.00  0.00     0.074 A 
ATOM     66  C   UNL     1      10.194   8.974  -7.221  1.00  0.00     0.031 C 
ATOM     67  C   UNL     1      10.777  10.526  -5.376  1.00  0.00     0.037 A 
BRANCH  54  68
ATOM     68  C   UNL     1      11.075  10.982   0.785  1.00  0.00     0.057 A 
ATOM     69  C   UNL     1      12.171  10.786   1.635  1.00  0.00     0.134 A 
ATOM     70  C   UNL     1      10.190  12.020   1.102  1.00  0.00     0.134 A 
ATOM     71  F   UNL     1      13.050   9.801   1.396  1.00  0.00    -0.206 F 
ATOM     72  C   UNL     1      12.356  11.563   2.781  1.00  0.00     0.040 A 
ATOM     73  C   UNL     1      10.380  12.823   2.228  1.00  0.00     0.040 A 
ATOM     74  F   UNL     1       9.123  12.268   0.327  1.00  0.00    -0.206 F 
ATOM     75  C   UNL     1      11.459  12.588   3.077  1.00  0.00     0.006 A 
ENDBRANCH  54  68
BRANCH  55  76
ATOM     76  C   UNL     1       8.944   4.951  -6.874  1.00  0.00     0.057 A 
ATOM     77  C   UNL     1       9.903   4.455  -7.764  1.00  0.00     0.134 A 
ATOM     78  C   UNL     1       7.615   4.555  -7.070  1.00  0.00     0.134 A 
ATOM     79  F   UNL     1      11.190   4.812  -7.636  1.00  0.00    -0.206 F 
ATOM     80  C   UNL     1       9.556   3.600  -8.811  1.00  0.00     0.040 A 
ATOM     81  C   UNL     1       7.257   3.684  -8.100  1.00  0.00     0.040 A 
ATOM     82  F   UNL     1       6.651   4.988  -6.244  1.00  0.00    -0.206 F 
ATOM     83  C   UNL     1       8.229   3.207  -8.976  1.00  0.00     0.006 A 
ENDBRANCH  55  76
BRANCH  67  84
ATOM     84  C   UNL     1      11.097  11.572  -6.401  1.00  0.00     0.057 A 
ATOM     85  C   UNL     1      10.095  12.258  -7.097  1.00  0.00     0.134 A 
ATOM     86  C   UNL     1      12.425  11.952  -6.635  1.00  0.00     0.134 A 
ATOM     87  F   UNL     1       8.804  11.933  -6.927  1.00  0.00    -0.206 F 
ATOM     88  C   UNL     1      10.403  13.281  -7.995  1.00  0.00     0.040 A 
ATOM     89  C   UNL     1      12.745  12.987  -7.513  1.00  0.00     0.040 A 
ATOM     90  F   UNL     1      13.431  11.338  -5.993  1.00  0.00    -0.206 F 
ATOM     91  C   UNL     1      11.731  13.655  -8.197  1.00  0.00     0.006 A 
ENDBRANCH  67  84
ENDBRANCH  41  42
ENDBRANCH  33  36
ENDBRANCH  31  32
ENDBRANCH  30  31
ENDBRANCH   1  30
TORSDOF 16
