REMARK SMILES Cc1ccc(C(=O)NCCCNC(=O)c2ccc(-c3c4nc(c(-c5c(F)cccc5F)c5ccc([nH]5)c(-c5c(F)cccc5F)c5nc(c(-c6c(F)cccc6F)c6ccc3[nH]6)C=C5)C=C4)cc2)cc1N[C@@H]1CC(=O)N(c2ccccc2C)C1=O
REMARK SMILES IDX 9 1 8 2 6 3 7 4 5 6 1 7 2 8 3 9 70 10 4 11 69 12 71 13 72 15
REMARK SMILES IDX 73 16 84 17 74 18 76 19 85 20 75 21 77 22 78 23 82 24 79 25
REMARK SMILES IDX 81 26 83 27 80 28 10 29 11 30 12 31 13 32 14 34 15 35 16 36
REMARK SMILES IDX 68 37 17 38 67 39 18 40 19 41 20 42 61 43 21 44 66 45 60 46
REMARK SMILES IDX 62 47 22 48 65 49 59 50 58 51 23 53 49 54 32 55 48 56 33 57
REMARK SMILES IDX 36 58 47 59 63 60 34 61 35 62 46 64 64 65 37 66 24 67 25 68
REMARK SMILES IDX 30 69 26 70 27 71 29 72 31 73 28 74 50 75 51 76 56 77 52 78
REMARK SMILES IDX 53 79 55 80 57 81 54 82 38 83 39 84 44 85 40 86 41 87 43 88
REMARK SMILES IDX 45 89 42 90
REMARK H PARENT 8 5 71 14 12 33 62 52 36 63
REMARK Flexibility Score: inf
ROOT
ATOM      1  C   UNL     1      -3.791   2.189   0.358  1.00  0.00     0.118 C 
ENDROOT
BRANCH   1   2
ATOM      2  N   UNL     1      -3.965   0.769   0.139  1.00  0.00    -0.352 N 
ATOM      3  C   UNL     1      -3.073  -0.243  -0.111  1.00  0.00     0.251 C 
ATOM      4  O   UNL     1      -3.551  -1.361  -0.315  1.00  0.00    -0.269 OA
ATOM      5  H   UNL     1      -4.903   0.473   0.175  1.00  0.00     0.163 HD
BRANCH   3   6
ATOM      6  C   UNL     1      -1.585  -0.081  -0.105  1.00  0.00     0.041 A 
ATOM      7  C   UNL     1       2.736  -0.040   0.058  1.00  0.00     0.046 C 
ATOM      8  C   UNL     1       1.232   0.026  -0.013  1.00  0.00    -0.028 A 
ATOM      9  C   UNL     1       0.549  -1.199   0.098  1.00  0.00     0.006 A 
ATOM     10  C   UNL     1       0.512   1.224  -0.206  1.00  0.00     0.038 A 
ATOM     11  C   UNL     1      -0.841  -1.249   0.066  1.00  0.00     0.014 A 
ATOM     12  C   UNL     1      -0.885   1.123  -0.274  1.00  0.00     0.039 A 
BRANCH  10  13
ATOM     13  N   UNL     1       1.167   2.441  -0.245  1.00  0.00    -0.373 N 
ATOM     14  H   UNL     1       2.112   2.380  -0.514  1.00  0.00     0.161 HD
BRANCH  13  15
ATOM     15  C   UNL     1       0.710   3.808   0.042  1.00  0.00     0.179 C 
ATOM     16  C   UNL     1      -0.206   3.982   1.229  1.00  0.00     0.136 C 
ATOM     17  C   UNL     1       0.023   4.529  -1.111  1.00  0.00     0.256 C 
ATOM     18  C   UNL     1      -1.282   4.893   0.713  1.00  0.00     0.236 C 
ATOM     19  N   UNL     1      -0.983   5.315  -0.561  1.00  0.00    -0.248 N 
ATOM     20  O   UNL     1       0.372   4.439  -2.264  1.00  0.00    -0.272 OA
ATOM     21  O   UNL     1      -2.335   5.049   1.325  1.00  0.00    -0.274 OA
BRANCH  19  22
ATOM     22  C   UNL     1      -1.791   6.236  -1.306  1.00  0.00     0.055 A 
ATOM     23  C   UNL     1      -2.072   5.969  -2.662  1.00  0.00     0.027 A 
ATOM     24  C   UNL     1      -2.365   7.399  -0.734  1.00  0.00    -0.027 A 
ATOM     25  C   UNL     1      -2.938   6.772  -3.412  1.00  0.00     0.002 A 
ATOM     26  C   UNL     1      -3.229   8.202  -1.513  1.00  0.00     0.005 A 
ATOM     27  C   UNL     1      -2.156   7.855   0.687  1.00  0.00     0.046 C 
ATOM     28  C   UNL     1      -3.528   7.885  -2.834  1.00  0.00     0.000 A 
ENDBRANCH  19  22
ENDBRANCH  13  15
ENDBRANCH  10  13
ENDBRANCH   3   6
ENDBRANCH   1   2
BRANCH   1  29
ATOM     29  C   UNL     1      -3.646   2.906  -0.976  1.00  0.00     0.042 C 
BRANCH  29  30
ATOM     30  C   UNL     1      -4.789   3.838  -1.298  1.00  0.00     0.118 C 
BRANCH  30  31
ATOM     31  N   UNL     1      -4.778   5.101  -0.567  1.00  0.00    -0.352 N 
ATOM     32  C   UNL     1      -5.608   6.204  -0.720  1.00  0.00     0.251 C 
ATOM     33  H   UNL     1      -4.087   5.184   0.130  1.00  0.00     0.163 HD
ATOM     34  O   UNL     1      -5.568   7.136   0.079  1.00  0.00    -0.269 OA
BRANCH  32  35
ATOM     35  C   UNL     1      -6.682   6.177  -1.748  1.00  0.00     0.039 A 
ATOM     36  C   UNL     1      -7.965   6.301  -1.214  1.00  0.00     0.014 A 
ATOM     37  C   UNL     1      -6.473   5.486  -2.933  1.00  0.00     0.014 A 
ATOM     38  C   UNL     1      -8.905   5.350  -1.563  1.00  0.00     0.010 A 
ATOM     39  C   UNL     1      -7.358   4.472  -3.218  1.00  0.00     0.010 A 
ATOM     40  C   UNL     1      -8.517   4.347  -2.448  1.00  0.00    -0.014 A 
BRANCH  40  41
ATOM     41  C   UNL     1      -9.271   3.122  -2.612  1.00  0.00     0.031 A 
ATOM     42  C   UNL     1     -10.236   3.087  -3.715  1.00  0.00     0.074 A 
ATOM     43  C   UNL     1      -9.140   2.088  -1.752  1.00  0.00     0.049 A 
ATOM     44  N   UNL     1     -11.385   2.517  -3.649  1.00  0.00    -0.248 NA
ATOM     45  C   UNL     1     -10.007   3.805  -4.961  1.00  0.00     0.031 C 
ATOM     46  C   UNL     1      -9.731   0.759  -1.872  1.00  0.00     0.029 A 
ATOM     47  N   UNL     1      -8.572   2.097  -0.480  1.00  0.00    -0.354 N 
ATOM     48  C   UNL     1     -11.932   2.554  -4.911  1.00  0.00     0.074 A 
ATOM     49  C   UNL     1     -11.088   3.453  -5.660  1.00  0.00     0.031 C 
ATOM     50  C   UNL     1      -9.710   0.159  -0.670  1.00  0.00     0.029 A 
ATOM     51  C   UNL     1      -9.220   1.122   0.301  1.00  0.00     0.049 A 
ATOM     52  H   UNL     1      -7.842   2.685  -0.179  1.00  0.00     0.167 HD
ATOM     53  C   UNL     1     -12.950   1.697  -5.207  1.00  0.00     0.037 A 
ATOM     54  C   UNL     1      -9.859   1.462   1.460  1.00  0.00     0.037 A 
ATOM     55  C   UNL     1     -13.297   0.899  -4.029  1.00  0.00     0.049 A 
ATOM     56  C   UNL     1     -11.357   1.304   1.375  1.00  0.00     0.074 A 
ATOM     57  C   UNL     1     -12.857  -0.347  -3.608  1.00  0.00     0.029 A 
ATOM     58  N   UNL     1     -13.887   1.503  -2.923  1.00  0.00    -0.354 N 
ATOM     59  N   UNL     1     -12.007   1.146   0.256  1.00  0.00    -0.248 NA
ATOM     60  C   UNL     1     -12.242   1.354   2.536  1.00  0.00     0.031 C 
ATOM     61  C   UNL     1     -13.125  -0.460  -2.222  1.00  0.00     0.029 A 
ATOM     62  C   UNL     1     -13.758   0.698  -1.803  1.00  0.00     0.049 A 
ATOM     63  H   UNL     1     -14.335   2.380  -2.934  1.00  0.00     0.167 HD
ATOM     64  C   UNL     1     -13.352   1.149   0.506  1.00  0.00     0.074 A 
ATOM     65  C   UNL     1     -13.447   1.233   1.952  1.00  0.00     0.031 C 
ATOM     66  C   UNL     1     -14.273   1.116  -0.503  1.00  0.00     0.037 A 
BRANCH  53  67
ATOM     67  C   UNL     1     -13.365   1.340  -6.619  1.00  0.00     0.057 A 
ATOM     68  C   UNL     1     -13.924   0.078  -6.898  1.00  0.00     0.134 A 
ATOM     69  C   UNL     1     -13.190   2.152  -7.754  1.00  0.00     0.134 A 
ATOM     70  F   UNL     1     -14.263  -0.774  -5.921  1.00  0.00    -0.206 F 
ATOM     71  C   UNL     1     -14.170  -0.381  -8.199  1.00  0.00     0.040 A 
ATOM     72  C   UNL     1     -13.380   1.689  -9.065  1.00  0.00     0.040 A 
ATOM     73  F   UNL     1     -12.890   3.451  -7.654  1.00  0.00    -0.206 F 
ATOM     74  C   UNL     1     -13.860   0.411  -9.293  1.00  0.00     0.006 A 
ENDBRANCH  53  67
BRANCH  54  75
ATOM     75  C   UNL     1      -9.165   2.562   2.183  1.00  0.00     0.057 A 
ATOM     76  C   UNL     1      -7.891   2.284   2.705  1.00  0.00     0.134 A 
ATOM     77  C   UNL     1      -9.473   3.898   1.910  1.00  0.00     0.134 A 
ATOM     78  F   UNL     1      -7.557   1.026   3.034  1.00  0.00    -0.206 F 
ATOM     79  C   UNL     1      -6.892   3.256   2.743  1.00  0.00     0.040 A 
ATOM     80  C   UNL     1      -8.481   4.880   1.958  1.00  0.00     0.040 A 
ATOM     81  F   UNL     1     -10.683   4.242   1.448  1.00  0.00    -0.206 F 
ATOM     82  C   UNL     1      -7.172   4.547   2.307  1.00  0.00     0.006 A 
ENDBRANCH  54  75
BRANCH  66  83
ATOM     83  C   UNL     1     -15.750   1.367  -0.329  1.00  0.00     0.057 A 
ATOM     84  C   UNL     1     -16.301   2.163   0.687  1.00  0.00     0.134 A 
ATOM     85  C   UNL     1     -16.677   0.886  -1.278  1.00  0.00     0.134 A 
ATOM     86  F   UNL     1     -15.531   2.814   1.569  1.00  0.00    -0.206 F 
ATOM     87  C   UNL     1     -17.680   2.374   0.813  1.00  0.00     0.040 A 
ATOM     88  C   UNL     1     -18.047   1.146  -1.201  1.00  0.00     0.040 A 
ATOM     89  F   UNL     1     -16.291   0.158  -2.337  1.00  0.00    -0.206 F 
ATOM     90  C   UNL     1     -18.558   1.869  -0.135  1.00  0.00     0.006 A 
ENDBRANCH  66  83
ENDBRANCH  40  41
ENDBRANCH  32  35
ENDBRANCH  30  31
ENDBRANCH  29  30
ENDBRANCH   1  29
TORSDOF 13
