REMARK SMILES O=C(NCCCNC(=O)[C@H]1C[C@@H](C(=O)N2CCCC2)C[N@@H+](Cc2cccnc2)C1)c1ccc(-c2c3nc(c(-c4c(F)cccc4F)c4ccc([nH]4)c(-c4c(F)cccc4F)c4nc(c(-c5c(F)cccc5F)c5ccc2[nH]5)C=C4)C=C3)cc1
REMARK SMILES IDX 5 1 4 2 3 3 1 4 2 5 30 7 31 8 83 9 32 10 82 11 33 12 34 13
REMARK SMILES IDX 35 14 76 15 36 16 81 17 75 18 77 19 37 20 80 21 74 22 73 23
REMARK SMILES IDX 38 25 64 26 47 27 63 28 48 29 51 30 62 31 78 32 49 33 50 34
REMARK SMILES IDX 61 36 79 37 52 38 39 39 40 40 45 41 41 42 42 43 44 44 46 45
REMARK SMILES IDX 43 46 65 47 66 48 71 49 67 50 68 51 70 52 72 53 69 54 53 55
REMARK SMILES IDX 54 56 59 57 55 58 56 59 58 60 60 61 57 62 6 63 7 64 8 65
REMARK SMILES IDX 9 67 10 68 11 69 29 70 12 71 21 72 20 73 13 75 14 76 15 77
REMARK SMILES IDX 16 78 19 79 17 80 18 81 22 82 23 83 24 84 28 85 25 86 27 87
REMARK SMILES IDX 26 88
REMARK H PARENT 3 6 77 24 51 35 7 66 21 74
REMARK Flexibility Score: inf
ROOT
ATOM      1  C   UNL     1       4.947  -3.654   1.026  1.00  0.00     0.042 C 
ENDROOT
BRANCH   1   2
ATOM      2  C   UNL     1       5.697  -3.287   2.296  1.00  0.00     0.118 C 
BRANCH   2   3
ATOM      3  N   UNL     1       5.692  -1.858   2.556  1.00  0.00    -0.352 N 
ATOM      4  O   UNL     1       5.018   0.097   3.435  1.00  0.00    -0.269 OA
ATOM      5  C   UNL     1       5.043  -1.131   3.523  1.00  0.00     0.251 C 
ATOM      6  H   UNL     1       6.243  -1.325   1.939  1.00  0.00     0.163 HD
BRANCH   5   7
ATOM      7  C   UNL     1       4.351  -1.797   4.651  1.00  0.00     0.039 A 
ATOM      8  C   UNL     1       4.896  -2.915   5.283  1.00  0.00     0.014 A 
ATOM      9  C   UNL     1       3.142  -1.267   5.114  1.00  0.00     0.014 A 
ATOM     10  C   UNL     1       4.159  -3.601   6.243  1.00  0.00     0.010 A 
ATOM     11  C   UNL     1       2.452  -1.895   6.157  1.00  0.00     0.010 A 
ATOM     12  C   UNL     1       2.932  -3.096   6.702  1.00  0.00    -0.014 A 
BRANCH  12  13
ATOM     13  C   UNL     1       2.196  -3.824   7.770  1.00  0.00     0.031 A 
ATOM     14  C   UNL     1       0.826  -4.396   7.520  1.00  0.00     0.074 A 
ATOM     15  C   UNL     1       2.787  -4.002   8.968  1.00  0.00     0.049 A 
ATOM     16  N   UNL     1       0.065  -5.097   8.324  1.00  0.00    -0.248 NA
ATOM     17  C   UNL     1       0.225  -4.142   6.202  1.00  0.00     0.031 C 
ATOM     18  C   UNL     1       4.106  -3.485   9.342  1.00  0.00     0.029 A 
ATOM     19  N   UNL     1       2.372  -4.683  10.084  1.00  0.00    -0.354 N 
ATOM     20  C   UNL     1      -1.108  -5.348   7.622  1.00  0.00     0.074 A 
ATOM     21  C   UNL     1      -0.972  -4.697   6.336  1.00  0.00     0.031 C 
ATOM     22  C   UNL     1       4.415  -3.914  10.574  1.00  0.00     0.029 A 
ATOM     23  C   UNL     1       3.293  -4.680  11.104  1.00  0.00     0.049 A 
ATOM     24  H   UNL     1       1.497  -5.131  10.148  1.00  0.00     0.167 HD
ATOM     25  C   UNL     1      -2.194  -6.061   8.008  1.00  0.00     0.037 A 
ATOM     26  C   UNL     1       3.240  -5.224  12.333  1.00  0.00     0.037 A 
ATOM     27  C   UNL     1      -2.320  -6.721   9.283  1.00  0.00     0.049 A 
ATOM     28  C   UNL     1       2.015  -5.990  12.742  1.00  0.00     0.074 A 
ATOM     29  C   UNL     1      -3.363  -7.504   9.750  1.00  0.00     0.029 A 
ATOM     30  N   UNL     1      -1.377  -6.669  10.299  1.00  0.00    -0.354 N 
ATOM     31  N   UNL     1       0.936  -6.258  12.048  1.00  0.00    -0.248 NA
ATOM     32  C   UNL     1       2.003  -6.532  14.107  1.00  0.00     0.031 C 
ATOM     33  C   UNL     1      -3.076  -7.878  11.067  1.00  0.00     0.029 A 
ATOM     34  C   UNL     1      -1.825  -7.384  11.399  1.00  0.00     0.049 A 
ATOM     35  H   UNL     1      -0.516  -6.194  10.247  1.00  0.00     0.167 HD
ATOM     36  C   UNL     1       0.133  -7.029  12.877  1.00  0.00     0.074 A 
ATOM     37  C   UNL     1       0.856  -7.195  14.121  1.00  0.00     0.031 C 
ATOM     38  C   UNL     1      -1.093  -7.553  12.629  1.00  0.00     0.037 A 
BRANCH  25  39
ATOM     39  C   UNL     1      -3.348  -6.148   7.048  1.00  0.00     0.057 A 
ATOM     40  C   UNL     1      -3.276  -6.882   5.857  1.00  0.00     0.134 A 
ATOM     41  C   UNL     1      -4.565  -5.516   7.341  1.00  0.00     0.134 A 
ATOM     42  F   UNL     1      -2.139  -7.503   5.509  1.00  0.00    -0.206 F 
ATOM     43  C   UNL     1      -4.361  -6.962   4.980  1.00  0.00     0.040 A 
ATOM     44  C   UNL     1      -5.665  -5.612   6.487  1.00  0.00     0.040 A 
ATOM     45  F   UNL     1      -4.709  -4.803   8.469  1.00  0.00    -0.206 F 
ATOM     46  C   UNL     1      -5.562  -6.331   5.298  1.00  0.00     0.006 A 
ENDBRANCH  25  39
BRANCH  26  47
ATOM     47  C   UNL     1       4.388  -5.073  13.263  1.00  0.00     0.057 A 
ATOM     48  C   UNL     1       5.168  -6.174  13.634  1.00  0.00     0.134 A 
ATOM     49  C   UNL     1       4.729  -3.829  13.807  1.00  0.00     0.134 A 
ATOM     50  F   UNL     1       4.881  -7.395  13.159  1.00  0.00    -0.206 F 
ATOM     51  C   UNL     1       6.231  -6.049  14.530  1.00  0.00     0.040 A 
ATOM     52  C   UNL     1       5.809  -3.683  14.678  1.00  0.00     0.040 A 
ATOM     53  F   UNL     1       4.028  -2.732  13.483  1.00  0.00    -0.206 F 
ATOM     54  C   UNL     1       6.557  -4.798  15.050  1.00  0.00     0.006 A 
ENDBRANCH  26  47
BRANCH  38  55
ATOM     55  C   UNL     1      -1.702  -8.407  13.704  1.00  0.00     0.057 A 
ATOM     56  C   UNL     1      -2.162  -7.871  14.914  1.00  0.00     0.134 A 
ATOM     57  C   UNL     1      -1.841  -9.789  13.516  1.00  0.00     0.134 A 
ATOM     58  F   UNL     1      -2.046  -6.558  15.164  1.00  0.00    -0.206 F 
ATOM     59  C   UNL     1      -2.707  -8.683  15.911  1.00  0.00     0.040 A 
ATOM     60  C   UNL     1      -2.413 -10.606  14.492  1.00  0.00     0.040 A 
ATOM     61  F   UNL     1      -1.429 -10.367  12.378  1.00  0.00    -0.206 F 
ATOM     62  C   UNL     1      -2.839 -10.054  15.698  1.00  0.00     0.006 A 
ENDBRANCH  38  55
ENDBRANCH  12  13
ENDBRANCH   5   7
ENDBRANCH   2   3
ENDBRANCH   1   2
BRANCH   1  63
ATOM     63  C   UNL     1       5.661  -3.264  -0.271  1.00  0.00     0.117 C 
BRANCH  63  64
ATOM     64  N   UNL     1       6.909  -3.986  -0.470  1.00  0.00    -0.356 N 
ATOM     65  C   UNL     1       7.221  -5.013  -1.316  1.00  0.00     0.228 C 
ATOM     66  H   UNL     1       7.653  -3.683   0.100  1.00  0.00     0.163 HD
ATOM     67  O   UNL     1       8.391  -5.398  -1.321  1.00  0.00    -0.275 OA
BRANCH  65  68
ATOM     68  C   UNL     1       6.140  -5.658  -2.189  1.00  0.00     0.134 C 
ATOM     69  C   UNL     1       6.735  -6.720  -3.132  1.00  0.00     0.038 C 
ATOM     70  C   UNL     1       5.129  -6.336  -1.274  1.00  0.00     0.276 C 
ATOM     71  C   UNL     1       5.656  -7.585  -3.824  1.00  0.00     0.134 C 
ATOM     72  N   UNL     1       4.050  -7.012  -1.992  1.00  0.00    -0.330 N 
ATOM     73  C   UNL     1       4.615  -8.081  -2.820  1.00  0.00     0.276 C 
ATOM     74  H   UNL     1       3.584  -6.347  -2.610  1.00  0.00     0.348 HD
BRANCH  71  75
ATOM     75  C   UNL     1       6.391  -8.687  -4.609  1.00  0.00     0.231 C 
ATOM     76  O   UNL     1       6.906  -8.404  -5.695  1.00  0.00    -0.274 OA
ATOM     77  N   UNL     1       6.738  -9.845  -3.956  1.00  0.00    -0.342 N 
ATOM     78  C   UNL     1       5.899 -10.853  -3.331  1.00  0.00     0.119 C 
ATOM     79  C   UNL     1       8.117 -10.296  -3.943  1.00  0.00     0.119 C 
ATOM     80  C   UNL     1       6.782 -11.316  -2.189  1.00  0.00     0.023 C 
ATOM     81  C   UNL     1       8.161 -11.373  -2.853  1.00  0.00     0.023 C 
ENDBRANCH  71  75
BRANCH  72  82
ATOM     82  C   UNL     1       2.999  -7.496  -1.064  1.00  0.00     0.300 C 
BRANCH  82  83
ATOM     83  C   UNL     1       3.388  -8.600  -0.106  1.00  0.00     0.025 A 
ATOM     84  C   UNL     1       4.196  -8.382   1.016  1.00  0.00     0.013 A 
ATOM     85  C   UNL     1       2.974  -9.909  -0.334  1.00  0.00     0.120 A 
ATOM     86  C   UNL     1       4.609  -9.454   1.801  1.00  0.00     0.021 A 
ATOM     87  N   UNL     1       3.343 -10.970   0.420  1.00  0.00    -0.264 NA
ATOM     88  C   UNL     1       4.160 -10.719   1.465  1.00  0.00     0.111 A 
ENDBRANCH  82  83
ENDBRANCH  72  82
ENDBRANCH  65  68
ENDBRANCH  63  64
ENDBRANCH   1  63
TORSDOF 13
