REMARK SMILES O=C(CSc1ccc(Br)cn1)NCCCNC(=O)c1ccc(-c2c3nc(c(-c4c(F)cccc4F)c4ccc([nH]4)c(-c4c(F)cccc4F)c4nc(c(-c5c(F)cccc5F)c5ccc2[nH]5)C=C4)C=C3)cc1
REMARK SMILES IDX 14 1 13 2 12 3 1 4 2 5 3 7 4 8 5 9 6 10 11 11 7 12 10 13
REMARK SMILES IDX 8 14 9 15 15 16 16 17 17 18 18 20 19 21 20 22 72 23 21 24
REMARK SMILES IDX 71 25 22 26 23 27 24 28 65 29 25 30 70 31 64 32 66 33 26 34
REMARK SMILES IDX 69 35 63 36 62 37 27 39 53 40 36 41 52 42 37 43 40 44 51 45
REMARK SMILES IDX 67 46 38 47 39 48 50 50 68 51 41 52 28 53 29 54 34 55 30 56
REMARK SMILES IDX 31 57 33 58 35 59 32 60 54 61 55 62 60 63 56 64 57 65 59 66
REMARK SMILES IDX 61 67 58 68 42 69 43 70 48 71 44 72 45 73 47 74 49 75 46 76
REMARK H PARENT 12 6 16 19 66 38 40 49
REMARK Flexibility Score: inf
ROOT
ATOM      1  C   UNL     1       2.312   1.014   3.199  1.00  0.00     0.042 C 
ENDROOT
BRANCH   1   2
ATOM      2  C   UNL     1       2.050   1.617   1.823  1.00  0.00     0.117 C 
BRANCH   2   3
ATOM      3  N   UNL     1       2.703   0.892   0.753  1.00  0.00    -0.355 N 
ATOM      4  O   UNL     1       0.826  -0.184   0.003  1.00  0.00    -0.274 OA
ATOM      5  C   UNL     1       2.018   0.083  -0.132  1.00  0.00     0.230 C 
ATOM      6  H   UNL     1       3.679   0.980   0.653  1.00  0.00     0.163 HD
BRANCH   5   7
ATOM      7  C   UNL     1       2.871  -0.559  -1.219  1.00  0.00     0.176 C 
BRANCH   7   8
ATOM      8  S   UNL     1       4.169   0.566  -1.846  1.00  0.00    -0.096 SA
BRANCH   8   9
ATOM      9  C   UNL     1       3.145   1.811  -2.604  1.00  0.00     0.097 A 
ATOM     10  C   UNL     1       3.541   3.144  -2.559  1.00  0.00     0.037 A 
ATOM     11  N   UNL     1       2.017   1.403  -3.223  1.00  0.00    -0.249 NA
ATOM     12  C   UNL     1       2.733   4.107  -3.163  1.00  0.00     0.020 A 
ATOM     13  C   UNL     1       1.252   2.357  -3.808  1.00  0.00     0.128 A 
ATOM     14  C   UNL     1       1.567   3.706  -3.800  1.00  0.00     0.036 A 
ATOM     15  Br  UNL     1       0.445   4.968  -4.637  1.00  0.00    -0.049 Br
ENDBRANCH   8   9
ENDBRANCH   7   8
ENDBRANCH   5   7
ENDBRANCH   2   3
ENDBRANCH   1   2
BRANCH   1  16
ATOM     16  C   UNL     1       3.776   0.998   3.634  1.00  0.00     0.118 C 
BRANCH  16  17
ATOM     17  N   UNL     1       4.374   2.323   3.709  1.00  0.00    -0.352 N 
ATOM     18  C   UNL     1       5.125   2.922   4.688  1.00  0.00     0.251 C 
ATOM     19  H   UNL     1       4.210   2.888   2.920  1.00  0.00     0.163 HD
ATOM     20  O   UNL     1       5.431   4.107   4.552  1.00  0.00    -0.269 OA
BRANCH  18  21
ATOM     21  C   UNL     1       5.557   2.198   5.907  1.00  0.00     0.039 A 
ATOM     22  C   UNL     1       5.588   2.907   7.114  1.00  0.00     0.014 A 
ATOM     23  C   UNL     1       5.987   0.868   5.883  1.00  0.00     0.014 A 
ATOM     24  C   UNL     1       5.994   2.276   8.293  1.00  0.00     0.010 A 
ATOM     25  C   UNL     1       6.332   0.219   7.073  1.00  0.00     0.010 A 
ATOM     26  C   UNL     1       6.342   0.916   8.290  1.00  0.00    -0.014 A 
BRANCH  26  27
ATOM     27  C   UNL     1       6.700   0.226   9.557  1.00  0.00     0.031 A 
ATOM     28  C   UNL     1       8.094  -0.289   9.791  1.00  0.00     0.074 A 
ATOM     29  C   UNL     1       5.754   0.035  10.497  1.00  0.00     0.049 A 
ATOM     30  N   UNL     1       8.582  -0.904  10.840  1.00  0.00    -0.248 NA
ATOM     31  C   UNL     1       9.060  -0.112   8.697  1.00  0.00     0.031 C 
ATOM     32  C   UNL     1       4.350   0.432  10.376  1.00  0.00     0.029 A 
ATOM     33  N   UNL     1       5.830  -0.543  11.740  1.00  0.00    -0.354 N 
ATOM     34  C   UNL     1       9.904  -1.196  10.529  1.00  0.00     0.074 A 
ATOM     35  C   UNL     1      10.130  -0.730   9.177  1.00  0.00     0.031 C 
ATOM     36  C   UNL     1       3.705   0.115  11.510  1.00  0.00     0.029 A 
ATOM     37  C   UNL     1       4.641  -0.527  12.427  1.00  0.00     0.049 A 
ATOM     38  H   UNL     1       6.658  -0.931  12.104  1.00  0.00     0.167 HD
ATOM     39  C   UNL     1      10.851  -1.779  11.304  1.00  0.00     0.037 A 
ATOM     40  C   UNL     1       4.339  -0.970  13.662  1.00  0.00     0.037 A 
ATOM     41  C   UNL     1      10.640  -2.219  12.659  1.00  0.00     0.049 A 
ATOM     42  C   UNL     1       5.415  -1.579  14.515  1.00  0.00     0.074 A 
ATOM     43  C   UNL     1      11.556  -2.768  13.541  1.00  0.00     0.029 A 
ATOM     44  N   UNL     1       9.429  -2.158  13.330  1.00  0.00    -0.354 N 
ATOM     45  N   UNL     1       6.678  -1.785  14.231  1.00  0.00    -0.248 NA
ATOM     46  C   UNL     1       5.025  -2.006  15.867  1.00  0.00     0.031 C 
ATOM     47  C   UNL     1      10.892  -3.066  14.737  1.00  0.00     0.029 A 
ATOM     48  C   UNL     1       9.571  -2.669  14.611  1.00  0.00     0.049 A 
ATOM     49  H   UNL     1       8.591  -1.803  12.953  1.00  0.00     0.167 HD
ATOM     50  C   UNL     1       7.237  -2.341  15.373  1.00  0.00     0.074 A 
ATOM     51  C   UNL     1       6.181  -2.426  16.360  1.00  0.00     0.031 C 
ATOM     52  C   UNL     1       8.514  -2.745  15.585  1.00  0.00     0.037 A 
BRANCH  39  53
ATOM     53  C   UNL     1      12.213  -1.967  10.704  1.00  0.00     0.057 A 
ATOM     54  C   UNL     1      13.079  -0.887  10.494  1.00  0.00     0.134 A 
ATOM     55  C   UNL     1      12.677  -3.244  10.365  1.00  0.00     0.134 A 
ATOM     56  F   UNL     1      12.690   0.363  10.787  1.00  0.00    -0.206 F 
ATOM     57  C   UNL     1      14.351  -1.066   9.947  1.00  0.00     0.040 A 
ATOM     58  C   UNL     1      13.956  -3.439   9.839  1.00  0.00     0.040 A 
ATOM     59  F   UNL     1      11.900  -4.322  10.547  1.00  0.00    -0.206 F 
ATOM     60  C   UNL     1      14.794  -2.347   9.624  1.00  0.00     0.006 A 
ENDBRANCH  39  53
BRANCH  40  61
ATOM     61  C   UNL     1       2.962  -0.812  14.187  1.00  0.00     0.057 A 
ATOM     62  C   UNL     1       2.674   0.137  15.175  1.00  0.00     0.134 A 
ATOM     63  C   UNL     1       1.906  -1.603  13.721  1.00  0.00     0.134 A 
ATOM     64  F   UNL     1       3.650   0.910  15.672  1.00  0.00    -0.206 F 
ATOM     65  C   UNL     1       1.387   0.283  15.694  1.00  0.00     0.040 A 
ATOM     66  C   UNL     1       0.610  -1.454  14.217  1.00  0.00     0.040 A 
ATOM     67  F   UNL     1       2.119  -2.525  12.771  1.00  0.00    -0.206 F 
ATOM     68  C   UNL     1       0.350  -0.512  15.211  1.00  0.00     0.006 A 
ENDBRANCH  40  61
BRANCH  52  69
ATOM     69  C   UNL     1       8.839  -3.289  16.944  1.00  0.00     0.057 A 
ATOM     70  C   UNL     1       8.407  -4.557  17.354  1.00  0.00     0.134 A 
ATOM     71  C   UNL     1       9.601  -2.540  17.848  1.00  0.00     0.134 A 
ATOM     72  F   UNL     1       7.661  -5.317  16.539  1.00  0.00    -0.206 F 
ATOM     73  C   UNL     1       8.701  -5.050  18.626  1.00  0.00     0.040 A 
ATOM     74  C   UNL     1       9.920  -3.031  19.115  1.00  0.00     0.040 A 
ATOM     75  F   UNL     1      10.050  -1.320  17.515  1.00  0.00    -0.206 F 
ATOM     76  C   UNL     1       9.463  -4.287  19.509  1.00  0.00     0.006 A 
ENDBRANCH  52  69
ENDBRANCH  26  27
ENDBRANCH  18  21
ENDBRANCH  16  17
ENDBRANCH   1  16
TORSDOF 12
