REMARK SMILES C[NH+]1CC[NH+](CC[C@H]2CCC[C@@]2([NH3+])C(=O)NCCCNC(=O)c2ccc(-c3c4nc(c(-c5c(F)cccc5F)c5ccc([nH]5)c(-c5c(F)cccc5F)c5nc(c(-c6c(F)cccc6F)c6ccc3[nH]6)C=C5)C=C4)cc2)CC1
REMARK SMILES IDX 17 1 16 2 14 3 15 4 12 6 8 7 9 8 10 9 11 10 7 11 6 12 5 13
REMARK SMILES IDX 1 14 2 15 3 16 78 17 4 19 77 20 13 22 18 26 19 27 20 28
REMARK SMILES IDX 21 29 22 31 23 32 24 33 76 34 25 35 75 36 26 37 27 38 28 39
REMARK SMILES IDX 69 40 29 41 74 42 68 43 70 44 30 45 73 46 67 47 66 48 31 50
REMARK SMILES IDX 57 51 40 52 56 53 41 54 44 55 55 56 71 57 42 58 43 59 54 61
REMARK SMILES IDX 72 62 45 63 32 64 33 65 38 66 34 67 35 68 37 69 39 70 36 71
REMARK SMILES IDX 58 72 59 73 64 74 60 75 61 76 63 77 65 78 62 79 46 80 47 81
REMARK SMILES IDX 52 82 48 83 49 84 51 85 53 86 50 87
REMARK H PARENT 16 5 2 18 5 21 13 23 13 24 13 25 20 30 70 49 44 60
REMARK Flexibility Score: inf
ROOT
ATOM      1  C   UNL     1       1.208   3.405  -1.057  1.00  0.00     0.118 C 
ENDROOT
BRANCH   1   2
ATOM      2  N   UNL     1       0.160   4.031  -0.267  1.00  0.00    -0.351 N 
ATOM      3  C   UNL     1      -0.197   4.025   1.042  1.00  0.00     0.281 C 
ATOM      4  O   UNL     1      -1.191   4.725   1.296  1.00  0.00    -0.268 OA
ATOM      5  H   UNL     1      -0.434   4.595  -0.814  1.00  0.00     0.163 HD
BRANCH   3   6
ATOM      6  C   UNL     1       0.489   3.194   2.186  1.00  0.00     0.177 C 
ATOM      7  C   UNL     1       0.389   1.630   2.157  1.00  0.00     0.066 C 
ATOM      8  C   UNL     1       1.802   1.138   2.573  1.00  0.00     0.011 C 
ATOM      9  C   UNL     1       2.517   2.340   3.172  1.00  0.00     0.008 C 
ATOM     10  C   UNL     1       1.981   3.509   2.360  1.00  0.00     0.079 C 
BRANCH   7  11
ATOM     11  C   UNL     1      -0.052   0.984   0.839  1.00  0.00     0.072 C 
BRANCH  11  12
ATOM     12  C   UNL     1      -0.855  -0.322   0.931  1.00  0.00     0.263 C 
BRANCH  12  13
ATOM     13  N   UNL     1      -2.314  -0.262   0.959  1.00  0.00    -0.326 N 
ATOM     14  C   UNL     1      -4.292   3.322   2.374  1.00  0.00     0.333 C 
ATOM     15  N   UNL     1      -4.082   1.971   1.851  1.00  0.00    -0.328 N 
ATOM     16  C   UNL     1      -3.308   1.167   2.810  1.00  0.00     0.324 C 
ATOM     17  C   UNL     1      -3.389   2.021   0.552  1.00  0.00     0.324 C 
ATOM     18  H   UNL     1      -4.993   1.533   1.714  1.00  0.00     0.348 HD
ATOM     19  C   UNL     1      -2.954  -0.235   2.274  1.00  0.00     0.324 C 
ATOM     20  C   UNL     1      -2.991   0.626   0.005  1.00  0.00     0.324 C 
ATOM     21  H   UNL     1      -2.476  -1.198   0.588  1.00  0.00     0.348 HD
ENDBRANCH  12  13
ENDBRANCH  11  12
ENDBRANCH   7  11
BRANCH   6  22
ATOM     22  N   UNL     1      -0.129   3.653   3.475  1.00  0.00    -0.345 N 
ATOM     23  H   UNL     1       0.287   3.140   4.253  1.00  0.00     0.345 HD
ATOM     24  H   UNL     1      -1.133   3.479   3.451  1.00  0.00     0.345 HD
ATOM     25  H   UNL     1       0.041   4.651   3.597  1.00  0.00     0.345 HD
ENDBRANCH   6  22
ENDBRANCH   3   6
ENDBRANCH   1   2
BRANCH   1  26
ATOM     26  C   UNL     1       0.715   2.416  -2.127  1.00  0.00     0.042 C 
BRANCH  26  27
ATOM     27  C   UNL     1      -0.533   2.812  -2.909  1.00  0.00     0.118 C 
BRANCH  27  28
ATOM     28  N   UNL     1      -0.242   3.745  -3.978  1.00  0.00    -0.352 N 
ATOM     29  C   UNL     1       0.071   3.521  -5.294  1.00  0.00     0.251 C 
ATOM     30  H   UNL     1      -0.274   4.694  -3.717  1.00  0.00     0.163 HD
ATOM     31  O   UNL     1       0.520   4.459  -5.958  1.00  0.00    -0.269 OA
BRANCH  29  32
ATOM     32  C   UNL     1      -0.091   2.196  -5.943  1.00  0.00     0.039 A 
ATOM     33  C   UNL     1       0.875   1.800  -6.877  1.00  0.00     0.014 A 
ATOM     34  C   UNL     1      -1.219   1.392  -5.752  1.00  0.00     0.014 A 
ATOM     35  C   UNL     1       0.723   0.608  -7.594  1.00  0.00     0.010 A 
ATOM     36  C   UNL     1      -1.338   0.166  -6.420  1.00  0.00     0.010 A 
ATOM     37  C   UNL     1      -0.380  -0.230  -7.365  1.00  0.00    -0.014 A 
BRANCH  37  38
ATOM     38  C   UNL     1      -0.541  -1.492  -8.140  1.00  0.00     0.031 A 
ATOM     39  C   UNL     1      -1.669  -1.657  -9.126  1.00  0.00     0.074 A 
ATOM     40  C   UNL     1       0.330  -2.505  -7.960  1.00  0.00     0.049 A 
ATOM     41  N   UNL     1      -1.941  -2.672  -9.910  1.00  0.00    -0.248 NA
ATOM     42  C   UNL     1      -2.627  -0.547  -9.232  1.00  0.00     0.031 C 
ATOM     43  C   UNL     1       1.443  -2.502  -7.010  1.00  0.00     0.029 A 
ATOM     44  N   UNL     1       0.418  -3.731  -8.572  1.00  0.00    -0.354 N 
ATOM     45  C   UNL     1      -3.102  -2.327 -10.591  1.00  0.00     0.074 A 
ATOM     46  C   UNL     1      -3.509  -1.030 -10.095  1.00  0.00     0.031 C 
ATOM     47  C   UNL     1       2.121  -3.656  -7.125  1.00  0.00     0.029 A 
ATOM     48  C   UNL     1       1.478  -4.489  -8.138  1.00  0.00     0.049 A 
ATOM     49  H   UNL     1      -0.219  -4.038  -9.257  1.00  0.00     0.167 HD
ATOM     50  C   UNL     1      -3.759  -3.014 -11.558  1.00  0.00     0.037 A 
ATOM     51  C   UNL     1       1.895  -5.712  -8.518  1.00  0.00     0.037 A 
ATOM     52  C   UNL     1      -3.346  -4.292 -12.079  1.00  0.00     0.049 A 
ATOM     53  C   UNL     1       1.161  -6.448  -9.603  1.00  0.00     0.074 A 
ATOM     54  C   UNL     1      -3.917  -5.032 -13.101  1.00  0.00     0.029 A 
ATOM     55  N   UNL     1      -2.260  -5.019 -11.619  1.00  0.00    -0.354 N 
ATOM     56  N   UNL     1       0.106  -6.075 -10.286  1.00  0.00    -0.248 NA
ATOM     57  C   UNL     1       1.684  -7.770  -9.978  1.00  0.00     0.031 C 
ATOM     58  C   UNL     1      -3.196  -6.224 -13.236  1.00  0.00     0.029 A 
ATOM     59  C   UNL     1      -2.153  -6.207 -12.325  1.00  0.00     0.049 A 
ATOM     60  H   UNL     1      -1.654  -4.734 -10.898  1.00  0.00     0.167 HD
ATOM     61  C   UNL     1      -0.145  -7.102 -11.186  1.00  0.00     0.074 A 
ATOM     62  C   UNL     1       0.873  -8.108 -10.972  1.00  0.00     0.031 C 
ATOM     63  C   UNL     1      -1.133  -7.200 -12.109  1.00  0.00     0.037 A 
BRANCH  50  64
ATOM     64  C   UNL     1      -5.001  -2.390 -12.125  1.00  0.00     0.057 A 
ATOM     65  C   UNL     1      -4.945  -1.278 -12.975  1.00  0.00     0.134 A 
ATOM     66  C   UNL     1      -6.265  -2.928 -11.848  1.00  0.00     0.134 A 
ATOM     67  F   UNL     1      -3.766  -0.710 -13.273  1.00  0.00    -0.206 F 
ATOM     68  C   UNL     1      -6.101  -0.707 -13.509  1.00  0.00     0.040 A 
ATOM     69  C   UNL     1      -7.427  -2.380 -12.395  1.00  0.00     0.040 A 
ATOM     70  F   UNL     1      -6.390  -3.998 -11.050  1.00  0.00    -0.206 F 
ATOM     71  C   UNL     1      -7.347  -1.262 -13.223  1.00  0.00     0.006 A 
ENDBRANCH  50  64
BRANCH  51  72
ATOM     72  C   UNL     1       3.103  -6.305  -7.891  1.00  0.00     0.057 A 
ATOM     73  C   UNL     1       4.306  -6.405  -8.600  1.00  0.00     0.134 A 
ATOM     74  C   UNL     1       3.084  -6.780  -6.575  1.00  0.00     0.134 A 
ATOM     75  F   UNL     1       4.377  -5.984  -9.871  1.00  0.00    -0.206 F 
ATOM     76  C   UNL     1       5.446  -6.969  -8.026  1.00  0.00     0.040 A 
ATOM     77  C   UNL     1       4.223  -7.327  -5.982  1.00  0.00     0.040 A 
ATOM     78  F   UNL     1       1.963  -6.706  -5.844  1.00  0.00    -0.206 F 
ATOM     79  C   UNL     1       5.407  -7.427  -6.710  1.00  0.00     0.006 A 
ENDBRANCH  51  72
BRANCH  63  80
ATOM     80  C   UNL     1      -1.143  -8.422 -12.977  1.00  0.00     0.057 A 
ATOM     81  C   UNL     1      -1.545  -9.672 -12.489  1.00  0.00     0.134 A 
ATOM     82  C   UNL     1      -0.777  -8.342 -14.327  1.00  0.00     0.134 A 
ATOM     83  F   UNL     1      -1.895  -9.818 -11.202  1.00  0.00    -0.206 F 
ATOM     84  C   UNL     1      -1.562 -10.803 -13.306  1.00  0.00     0.040 A 
ATOM     85  C   UNL     1      -0.811  -9.461 -15.160  1.00  0.00     0.040 A 
ATOM     86  F   UNL     1      -0.389  -7.173 -14.859  1.00  0.00    -0.206 F 
ATOM     87  C   UNL     1      -1.200 -10.698 -14.648  1.00  0.00     0.006 A 
ENDBRANCH  63  80
ENDBRANCH  37  38
ENDBRANCH  29  32
ENDBRANCH  27  28
ENDBRANCH  26  27
ENDBRANCH   1  26
TORSDOF 14
