REMARK SMILES Cc1cc(C)c2c(c1)C=C(C(=O)NCCCNC(=O)c1ccc(-c3c4nc(c(-c5c(F)cccc5F)c5ccc([nH]5)c(-c5c(F)cccc5F)c5nc(c(-c6c(F)cccc6F)c6ccc3[nH]6)C=C5)C=C4)cc1)[C@@H](C(F)(F)F)O2
REMARK SMILES IDX 15 1 14 2 13 3 11 4 12 5 10 7 1 8 2 9 3 10 8 11 4 12 7 13
REMARK SMILES IDX 5 14 6 15 9 16 79 17 74 18 75 19 76 20 77 21 78 22 16 23
REMARK SMILES IDX 17 24 18 25 19 27 20 28 21 29 73 30 22 31 72 32 23 33 24 34
REMARK SMILES IDX 25 35 66 36 26 37 71 38 65 39 67 40 27 41 70 42 64 43 63 44
REMARK SMILES IDX 28 46 54 47 37 48 53 49 38 50 41 51 52 52 68 53 39 54 40 55
REMARK SMILES IDX 51 57 69 58 42 59 29 60 30 61 35 62 31 63 32 64 34 65 36 66
REMARK SMILES IDX 33 67 55 68 56 69 61 70 57 71 58 72 60 73 62 74 59 75 43 76
REMARK SMILES IDX 44 77 49 78 45 79 46 80 48 81 50 82 47 83
REMARK H PARENT 13 6 17 26 67 45 41 56
REMARK Flexibility Score: inf
ROOT
ATOM      1  C   UNL     1       0.887   9.550   2.738  1.00  0.00     0.042 C 
ENDROOT
BRANCH   1   2
ATOM      2  C   UNL     1       0.168   8.998   1.518  1.00  0.00     0.118 C 
BRANCH   2   3
ATOM      3  N   UNL     1       1.093   8.384   0.578  1.00  0.00    -0.352 N 
ATOM      4  C   UNL     1       1.415   7.133   0.174  1.00  0.00     0.251 C 
ATOM      5  O   UNL     1       2.307   7.070  -0.677  1.00  0.00    -0.270 OA
ATOM      6  H   UNL     1       1.630   9.062   0.108  1.00  0.00     0.163 HD
BRANCH   4   7
ATOM      7  C   UNL     1       0.782   5.883   0.682  1.00  0.00     0.067 C 
ATOM      8  C   UNL     1       0.946  -0.251  -0.054  1.00  0.00     0.044 C 
ATOM      9  C   UNL     1       0.546   1.051   0.576  1.00  0.00    -0.050 A 
ATOM     10  C   UNL     1      -0.382   1.080   1.627  1.00  0.00     0.010 A 
ATOM     11  C   UNL     1       1.087   2.254   0.102  1.00  0.00     0.015 A 
ATOM     12  C   UNL     1      -0.756   2.291   2.219  1.00  0.00    -0.008 A 
ATOM     13  C   UNL     1       0.720   3.471   0.680  1.00  0.00     0.018 A 
ATOM     14  C   UNL     1      -1.746   2.321   3.348  1.00  0.00     0.048 C 
ATOM     15  C   UNL     1      -0.197   3.479   1.735  1.00  0.00     0.130 A 
ATOM     16  C   UNL     1       1.305   4.729   0.229  1.00  0.00     0.025 C 
ATOM     17  O   UNL     1      -0.552   4.634   2.374  1.00  0.00    -0.475 OA
ATOM     18  C   UNL     1      -0.386   5.861   1.623  1.00  0.00     0.314 C 
BRANCH  18  19
ATOM     19  C   UNL     1      -1.717   6.220   0.934  1.00  0.00     0.429 C 
ATOM     20  F   UNL     1      -2.643   6.576   1.860  1.00  0.00    -0.167 F 
ATOM     21  F   UNL     1      -1.600   7.272   0.090  1.00  0.00    -0.167 F 
ATOM     22  F   UNL     1      -2.232   5.199   0.216  1.00  0.00    -0.167 F 
ENDBRANCH  18  19
ENDBRANCH   4   7
ENDBRANCH   2   3
ENDBRANCH   1   2
BRANCH   1  23
ATOM     23  C   UNL     1       1.579  10.872   2.435  1.00  0.00     0.118 C 
BRANCH  23  24
ATOM     24  N   UNL     1       0.616  11.920   2.100  1.00  0.00    -0.352 N 
ATOM     25  C   UNL     1       0.146  12.963   2.856  1.00  0.00     0.251 C 
ATOM     26  H   UNL     1       0.248  11.869   1.188  1.00  0.00     0.163 HD
ATOM     27  O   UNL     1      -0.870  13.563   2.513  1.00  0.00    -0.269 OA
BRANCH  25  28
ATOM     28  C   UNL     1       0.862  13.361   4.080  1.00  0.00     0.039 A 
ATOM     29  C   UNL     1       0.137  13.734   5.214  1.00  0.00     0.014 A 
ATOM     30  C   UNL     1       2.258  13.383   4.096  1.00  0.00     0.014 A 
ATOM     31  C   UNL     1       0.819  14.067   6.384  1.00  0.00     0.010 A 
ATOM     32  C   UNL     1       2.931  13.603   5.288  1.00  0.00     0.010 A 
ATOM     33  C   UNL     1       2.220  13.970   6.437  1.00  0.00    -0.014 A 
BRANCH  33  34
ATOM     34  C   UNL     1       2.970  14.294   7.671  1.00  0.00     0.031 A 
ATOM     35  C   UNL     1       3.936  15.445   7.674  1.00  0.00     0.074 A 
ATOM     36  C   UNL     1       2.814  13.528   8.766  1.00  0.00     0.049 A 
ATOM     37  N   UNL     1       4.711  15.871   8.638  1.00  0.00    -0.248 NA
ATOM     38  C   UNL     1       4.071  16.202   6.417  1.00  0.00     0.031 C 
ATOM     39  C   UNL     1       1.934  12.363   8.865  1.00  0.00     0.029 A 
ATOM     40  N   UNL     1       3.385  13.622  10.009  1.00  0.00    -0.354 N 
ATOM     41  C   UNL     1       5.416  16.941   8.105  1.00  0.00     0.074 A 
ATOM     42  C   UNL     1       5.050  17.043   6.711  1.00  0.00     0.031 C 
ATOM     43  C   UNL     1       1.979  11.886  10.119  1.00  0.00     0.029 A 
ATOM     44  C   UNL     1       2.920  12.684  10.898  1.00  0.00     0.049 A 
ATOM     45  H   UNL     1       4.063  14.297  10.242  1.00  0.00     0.167 HD
ATOM     46  C   UNL     1       6.258  17.794   8.731  1.00  0.00     0.037 A 
ATOM     47  C   UNL     1       3.213  12.501  12.199  1.00  0.00     0.037 A 
ATOM     48  C   UNL     1       6.609  17.695  10.121  1.00  0.00     0.049 A 
ATOM     49  C   UNL     1       4.197  13.423  12.862  1.00  0.00     0.074 A 
ATOM     50  C   UNL     1       7.435  18.518  10.864  1.00  0.00     0.029 A 
ATOM     51  N   UNL     1       6.148  16.706  10.979  1.00  0.00    -0.354 N 
ATOM     52  N   UNL     1       4.822  14.461  12.361  1.00  0.00    -0.248 NA
ATOM     53  C   UNL     1       4.521  13.146  14.268  1.00  0.00     0.031 C 
ATOM     54  C   UNL     1       7.509  18.002  12.161  1.00  0.00     0.029 A 
ATOM     55  C   UNL     1       6.692  16.884  12.239  1.00  0.00     0.049 A 
ATOM     56  H   UNL     1       5.527  15.984  10.728  1.00  0.00     0.167 HD
ATOM     57  C   UNL     1       5.597  14.974  13.392  1.00  0.00     0.074 A 
ATOM     58  C   UNL     1       5.353  14.140  14.552  1.00  0.00     0.031 C 
ATOM     59  C   UNL     1       6.435  16.040  13.379  1.00  0.00     0.037 A 
BRANCH  46  60
ATOM     60  C   UNL     1       6.831  18.916   7.914  1.00  0.00     0.057 A 
ATOM     61  C   UNL     1       6.025  19.960   7.437  1.00  0.00     0.134 A 
ATOM     62  C   UNL     1       8.195  18.961   7.602  1.00  0.00     0.134 A 
ATOM     63  F   UNL     1       4.707  19.969   7.686  1.00  0.00    -0.206 F 
ATOM     64  C   UNL     1       6.548  20.988   6.651  1.00  0.00     0.040 A 
ATOM     65  C   UNL     1       8.735  20.001   6.843  1.00  0.00     0.040 A 
ATOM     66  F   UNL     1       9.025  17.997   8.029  1.00  0.00    -0.206 F 
ATOM     67  C   UNL     1       7.909  21.013   6.357  1.00  0.00     0.006 A 
ENDBRANCH  46  60
BRANCH  47  68
ATOM     68  C   UNL     1       2.510  11.443  12.966  1.00  0.00     0.057 A 
ATOM     69  C   UNL     1       1.538  11.780  13.915  1.00  0.00     0.134 A 
ATOM     70  C   UNL     1       2.746  10.082  12.739  1.00  0.00     0.134 A 
ATOM     71  F   UNL     1       1.277  13.068  14.184  1.00  0.00    -0.206 F 
ATOM     72  C   UNL     1       0.827  10.803  14.613  1.00  0.00     0.040 A 
ATOM     73  C   UNL     1       2.027   9.094  13.415  1.00  0.00     0.040 A 
ATOM     74  F   UNL     1       3.657   9.694  11.835  1.00  0.00    -0.206 F 
ATOM     75  C   UNL     1       1.064   9.455  14.356  1.00  0.00     0.006 A 
ENDBRANCH  47  68
BRANCH  59  76
ATOM     76  C   UNL     1       7.152  16.374  14.653  1.00  0.00     0.057 A 
ATOM     77  C   UNL     1       8.223  15.600  15.115  1.00  0.00     0.134 A 
ATOM     78  C   UNL     1       6.832  17.534  15.370  1.00  0.00     0.134 A 
ATOM     79  F   UNL     1       8.572  14.472  14.478  1.00  0.00    -0.206 F 
ATOM     80  C   UNL     1       8.950  15.967  16.249  1.00  0.00     0.040 A 
ATOM     81  C   UNL     1       7.567  17.924  16.490  1.00  0.00     0.040 A 
ATOM     82  F   UNL     1       5.823  18.324  14.973  1.00  0.00    -0.206 F 
ATOM     83  C   UNL     1       8.629  17.139  16.932  1.00  0.00     0.006 A 
ENDBRANCH  59  76
ENDBRANCH  33  34
ENDBRANCH  25  28
ENDBRANCH  23  24
ENDBRANCH   1  23
TORSDOF 11
