REMARK SMILES CN(CC(=O)NCCCNC(=O)c1ccc(-c2c3nc(c(-c4c(F)cccc4F)c4ccc([nH]4)c(-c4c(F)cccc4F)c4nc(c(-c5c(F)cccc5F)c5ccc2[nH]5)C=C4)C=C3)cc1)C(=O)c1ccccn1
REMARK SMILES IDX 7 1 6 2 4 3 5 4 3 6 2 7 1 8 67 9 68 10 69 11 70 12 74 13
REMARK SMILES IDX 71 14 73 15 72 16 8 17 9 18 10 19 11 20 12 22 13 23 14 24
REMARK SMILES IDX 66 25 15 26 65 27 16 28 17 29 18 30 59 31 19 32 64 33 58 34
REMARK SMILES IDX 60 35 20 36 63 37 57 38 56 39 21 41 47 42 30 43 46 44 31 45
REMARK SMILES IDX 34 46 45 47 61 48 32 49 33 50 44 52 62 53 35 54 22 55 23 56
REMARK SMILES IDX 28 57 24 58 25 59 27 60 29 61 26 62 48 63 49 64 54 65 50 66
REMARK SMILES IDX 51 67 53 68 55 69 52 70 36 71 37 72 42 73 38 74 39 75 41 76
REMARK SMILES IDX 43 77 40 78
REMARK H PARENT 6 5 10 21 60 40 34 51
REMARK Flexibility Score: inf
ROOT
ATOM      1  C   UNL     1      -2.241   0.300   0.094  1.00  0.00     0.117 C 
ENDROOT
BRANCH   1   2
ATOM      2  N   UNL     1      -2.572  -1.072   0.423  1.00  0.00    -0.354 N 
ATOM      3  C   UNL     1      -1.788  -2.066   0.928  1.00  0.00     0.239 C 
ATOM      4  O   UNL     1      -2.370  -3.053   1.390  1.00  0.00    -0.273 OA
ATOM      5  H   UNL     1      -3.509  -1.325   0.256  1.00  0.00     0.163 HD
BRANCH   3   6
ATOM      6  C   UNL     1      -0.259  -1.933   1.048  1.00  0.00     0.219 C 
BRANCH   6   7
ATOM      7  N   UNL     1       0.438  -1.406  -0.132  1.00  0.00    -0.331 N 
ATOM      8  C   UNL     1       1.174  -0.160   0.005  1.00  0.00     0.147 C 
BRANCH   7   9
ATOM      9  C   UNL     1       0.734  -2.168  -1.276  1.00  0.00     0.272 C 
ATOM     10  O   UNL     1       1.375  -1.704  -2.219  1.00  0.00    -0.267 OA
BRANCH   9  11
ATOM     11  C   UNL     1       0.282  -3.586  -1.362  1.00  0.00     0.128 A 
ATOM     12  C   UNL     1      -1.062  -3.887  -1.537  1.00  0.00     0.034 A 
ATOM     13  N   UNL     1       1.263  -4.523  -1.299  1.00  0.00    -0.251 NA
ATOM     14  C   UNL     1      -1.430  -5.227  -1.600  1.00  0.00     0.004 A 
ATOM     15  C   UNL     1       0.875  -5.811  -1.409  1.00  0.00     0.112 A 
ATOM     16  C   UNL     1      -0.446  -6.209  -1.543  1.00  0.00     0.020 A 
ENDBRANCH   9  11
ENDBRANCH   7   9
ENDBRANCH   6   7
ENDBRANCH   3   6
ENDBRANCH   1   2
BRANCH   1  17
ATOM     17  C   UNL     1      -2.096   0.554  -1.403  1.00  0.00     0.042 C 
BRANCH  17  18
ATOM     18  C   UNL     1      -3.370   0.341  -2.217  1.00  0.00     0.118 C 
BRANCH  18  19
ATOM     19  N   UNL     1      -4.465   1.209  -1.806  1.00  0.00    -0.352 N 
ATOM     20  C   UNL     1      -5.141   2.187  -2.488  1.00  0.00     0.251 C 
ATOM     21  H   UNL     1      -4.773   1.070  -0.881  1.00  0.00     0.163 HD
ATOM     22  O   UNL     1      -5.925   2.915  -1.872  1.00  0.00    -0.269 OA
BRANCH  20  23
ATOM     23  C   UNL     1      -4.941   2.401  -3.938  1.00  0.00     0.039 A 
ATOM     24  C   UNL     1      -4.893   3.713  -4.423  1.00  0.00     0.014 A 
ATOM     25  C   UNL     1      -4.846   1.330  -4.828  1.00  0.00     0.014 A 
ATOM     26  C   UNL     1      -4.676   3.948  -5.784  1.00  0.00     0.010 A 
ATOM     27  C   UNL     1      -4.557   1.564  -6.172  1.00  0.00     0.010 A 
ATOM     28  C   UNL     1      -4.465   2.875  -6.664  1.00  0.00    -0.014 A 
BRANCH  28  29
ATOM     29  C   UNL     1      -4.128   3.102  -8.094  1.00  0.00     0.031 A 
ATOM     30  C   UNL     1      -5.051   2.623  -9.181  1.00  0.00     0.074 A 
ATOM     31  C   UNL     1      -2.950   3.673  -8.416  1.00  0.00     0.049 A 
ATOM     32  N   UNL     1      -4.881   2.643 -10.479  1.00  0.00    -0.248 NA
ATOM     33  C   UNL     1      -6.322   2.020  -8.751  1.00  0.00     0.031 C 
ATOM     34  C   UNL     1      -1.948   4.143  -7.459  1.00  0.00     0.029 A 
ATOM     35  N   UNL     1      -2.388   3.937  -9.641  1.00  0.00    -0.354 N 
ATOM     36  C   UNL     1      -6.011   2.041 -11.019  1.00  0.00     0.074 A 
ATOM     37  C   UNL     1      -6.839   1.626  -9.907  1.00  0.00     0.031 C 
ATOM     38  C   UNL     1      -0.902   4.650  -8.130  1.00  0.00     0.029 A 
ATOM     39  C   UNL     1      -1.138   4.502  -9.562  1.00  0.00     0.049 A 
ATOM     40  H   UNL     1      -2.838   3.741 -10.494  1.00  0.00     0.167 HD
ATOM     41  C   UNL     1      -6.337   1.867 -12.322  1.00  0.00     0.037 A 
ATOM     42  C   UNL     1      -0.270   4.845 -10.533  1.00  0.00     0.037 A 
ATOM     43  C   UNL     1      -5.521   2.299 -13.427  1.00  0.00     0.049 A 
ATOM     44  C   UNL     1      -0.649   4.625 -11.971  1.00  0.00     0.074 A 
ATOM     45  C   UNL     1      -5.795   2.222 -14.782  1.00  0.00     0.029 A 
ATOM     46  N   UNL     1      -4.269   2.883 -13.306  1.00  0.00    -0.354 N 
ATOM     47  N   UNL     1      -1.750   4.117 -12.468  1.00  0.00    -0.248 NA
ATOM     48  C   UNL     1       0.336   5.030 -12.985  1.00  0.00     0.031 C 
ATOM     49  C   UNL     1      -4.688   2.714 -15.481  1.00  0.00     0.029 A 
ATOM     50  C   UNL     1      -3.747   3.148 -14.562  1.00  0.00     0.049 A 
ATOM     51  H   UNL     1      -3.817   3.079 -12.453  1.00  0.00     0.167 HD
ATOM     52  C   UNL     1      -1.605   4.169 -13.848  1.00  0.00     0.074 A 
ATOM     53  C   UNL     1      -0.314   4.769 -14.111  1.00  0.00     0.031 C 
ATOM     54  C   UNL     1      -2.465   3.756 -14.811  1.00  0.00     0.037 A 
BRANCH  41  55
ATOM     55  C   UNL     1      -7.635   1.176 -12.627  1.00  0.00     0.057 A 
ATOM     56  C   UNL     1      -8.873   1.785 -12.384  1.00  0.00     0.134 A 
ATOM     57  C   UNL     1      -7.647  -0.097 -13.213  1.00  0.00     0.134 A 
ATOM     58  F   UNL     1      -8.933   3.000 -11.817  1.00  0.00    -0.206 F 
ATOM     59  C   UNL     1     -10.076   1.144 -12.687  1.00  0.00     0.040 A 
ATOM     60  C   UNL     1      -8.843  -0.736 -13.546  1.00  0.00     0.040 A 
ATOM     61  F   UNL     1      -6.498  -0.736 -13.481  1.00  0.00    -0.206 F 
ATOM     62  C   UNL     1     -10.062  -0.118 -13.277  1.00  0.00     0.006 A 
ENDBRANCH  41  55
BRANCH  42  63
ATOM     63  C   UNL     1       1.043   5.443 -10.179  1.00  0.00     0.057 A 
ATOM     64  C   UNL     1       1.326   6.784 -10.462  1.00  0.00     0.134 A 
ATOM     65  C   UNL     1       2.048   4.689  -9.561  1.00  0.00     0.134 A 
ATOM     66  F   UNL     1       0.410   7.553 -11.071  1.00  0.00    -0.206 F 
ATOM     67  C   UNL     1       2.566   7.349 -10.164  1.00  0.00     0.040 A 
ATOM     68  C   UNL     1       3.284   5.248  -9.232  1.00  0.00     0.040 A 
ATOM     69  F   UNL     1       1.838   3.400  -9.257  1.00  0.00    -0.206 F 
ATOM     70  C   UNL     1       3.548   6.581  -9.541  1.00  0.00     0.006 A 
ENDBRANCH  42  63
BRANCH  54  71
ATOM     71  C   UNL     1      -2.058   3.975 -16.239  1.00  0.00     0.057 A 
ATOM     72  C   UNL     1      -1.048   3.220 -16.847  1.00  0.00     0.134 A 
ATOM     73  C   UNL     1      -2.718   4.927 -17.028  1.00  0.00     0.134 A 
ATOM     74  F   UNL     1      -0.367   2.302 -16.144  1.00  0.00    -0.206 F 
ATOM     75  C   UNL     1      -0.694   3.418 -18.183  1.00  0.00     0.040 A 
ATOM     76  C   UNL     1      -2.392   5.114 -18.371  1.00  0.00     0.040 A 
ATOM     77  F   UNL     1      -3.701   5.678 -16.509  1.00  0.00    -0.206 F 
ATOM     78  C   UNL     1      -1.373   4.362 -18.951  1.00  0.00     0.006 A 
ENDBRANCH  54  71
ENDBRANCH  28  29
ENDBRANCH  20  23
ENDBRANCH  18  19
ENDBRANCH  17  18
ENDBRANCH   1  17
TORSDOF 13
