REMARK SMILES Cc1c(CC(=O)N[C@@H](CCO)C(=O)NCCCNC(=O)c2ccc(-c3c4nc(c(-c5c(F)cccc5F)c5ccc([nH]5)c(-c5c(F)cccc5F)c5nc(c(-c6c(F)cccc6F)c6ccc3[nH]6)C=C5)C=C4)cc2)cc(-c2ccc(S(C)(=O)=O)cc2)n1-c1ccc(F)cc1
REMARK SMILES IDX 12 1 13 2 14 3 8 5 7 6 5 7 6 8 4 10 3 11 1 12 2 13 87 14
REMARK SMILES IDX 75 15 76 16 88 17 89 18 94 19 90 20 93 21 91 22 92 23 77 24
REMARK SMILES IDX 78 25 86 26 79 27 85 28 80 29 81 30 82 31 83 32 84 33 9 34
REMARK SMILES IDX 10 35 11 36 15 38 16 39 17 40 18 41 19 42 20 44 21 45 22 46
REMARK SMILES IDX 74 47 23 48 73 49 24 50 25 51 26 52 67 53 27 54 72 55 66 56
REMARK SMILES IDX 68 57 28 58 71 59 65 60 64 61 29 63 55 64 38 65 54 66 39 67
REMARK SMILES IDX 42 68 53 69 69 70 40 71 41 72 52 74 70 75 43 76 30 77 31 78
REMARK SMILES IDX 36 79 32 80 33 81 35 82 37 83 34 84 56 85 57 86 62 87 58 88
REMARK SMILES IDX 59 89 61 90 63 91 60 92 44 93 45 94 50 95 46 96 47 97 49 98
REMARK SMILES IDX 51 99 48 100
REMARK H PARENT 14 4 7 9 11 37 18 43 68 62 42 73
REMARK Flexibility Score: inf
ROOT
ATOM      1  C   UNL     1       4.375  -3.696  -3.380  1.00  0.00     0.242 C 
ATOM      2  O   UNL     1       3.912  -4.465  -4.230  1.00  0.00    -0.273 OA
ATOM      3  N   UNL     1       5.706  -3.816  -3.144  1.00  0.00    -0.354 N 
ATOM      4  H   UNL     1       6.103  -4.596  -3.593  1.00  0.00     0.163 HD
ENDROOT
BRANCH   1   5
ATOM      5  C   UNL     1       3.479  -2.590  -2.796  1.00  0.00     0.173 C 
BRANCH   5   6
ATOM      6  N   UNL     1       3.598  -2.426  -1.351  1.00  0.00    -0.344 N 
ATOM      7  C   UNL     1       2.624  -2.628  -0.407  1.00  0.00     0.225 C 
ATOM      8  O   UNL     1       2.963  -2.608   0.778  1.00  0.00    -0.275 OA
ATOM      9  H   UNL     1       4.478  -2.138  -1.016  1.00  0.00     0.164 HD
BRANCH   7  10
ATOM     10  C   UNL     1       1.169  -2.880  -0.814  1.00  0.00     0.137 C 
BRANCH  10  11
ATOM     11  C   UNL     1       0.569  -1.723  -1.562  1.00  0.00    -0.017 A 
ATOM     12  C   UNL     1       0.965   0.176   0.147  1.00  0.00     0.065 C 
ATOM     13  C   UNL     1       0.538  -0.392  -1.169  1.00  0.00     0.024 A 
ATOM     14  N   UNL     1      -0.004   0.362  -2.205  1.00  0.00    -0.314 N 
ATOM     15  C   UNL     1      -0.067  -1.786  -2.830  1.00  0.00     0.033 A 
ATOM     16  C   UNL     1      -0.357  -0.498  -3.247  1.00  0.00     0.053 A 
BRANCH  14  17
ATOM     17  C   UNL     1      -0.150   1.776  -2.218  1.00  0.00     0.046 A 
ATOM     18  C   UNL     1      -1.376   2.342  -2.592  1.00  0.00     0.029 A 
ATOM     19  C   UNL     1       0.941   2.593  -1.887  1.00  0.00     0.029 A 
ATOM     20  C   UNL     1      -1.512   3.729  -2.623  1.00  0.00     0.041 A 
ATOM     21  C   UNL     1       0.800   3.980  -1.940  1.00  0.00     0.041 A 
ATOM     22  C   UNL     1      -0.424   4.534  -2.302  1.00  0.00     0.123 A 
ATOM     23  F   UNL     1      -0.555   5.866  -2.346  1.00  0.00    -0.207 F 
ENDBRANCH  14  17
BRANCH  16  24
ATOM     24  C   UNL     1      -0.793  -0.080  -4.588  1.00  0.00    -0.001 A 
ATOM     25  C   UNL     1      -0.007   0.794  -5.357  1.00  0.00     0.011 A 
ATOM     26  C   UNL     1      -1.977  -0.590  -5.136  1.00  0.00     0.011 A 
ATOM     27  C   UNL     1      -0.410   1.178  -6.639  1.00  0.00     0.021 A 
ATOM     28  C   UNL     1      -2.388  -0.209  -6.418  1.00  0.00     0.021 A 
ATOM     29  C   UNL     1      -1.608   0.682  -7.158  1.00  0.00     0.067 A 
BRANCH  29  30
ATOM     30  S   UNL     1      -2.091   1.149  -8.804  1.00  0.00     0.175 S 
ATOM     31  C   UNL     1      -2.422   2.888  -8.685  1.00  0.00     0.163 C 
ATOM     32  O   UNL     1      -0.951   0.955  -9.655  1.00  0.00    -0.224 OA
ATOM     33  O   UNL     1      -3.366   0.488  -9.087  1.00  0.00    -0.224 OA
ENDBRANCH  29  30
ENDBRANCH  16  24
ENDBRANCH  10  11
ENDBRANCH   7  10
ENDBRANCH   5   6
BRANCH   5  34
ATOM     34  C   UNL     1       3.470  -1.266  -3.583  1.00  0.00     0.063 C 
BRANCH  34  35
ATOM     35  C   UNL     1       4.775  -0.502  -3.744  1.00  0.00     0.158 C 
BRANCH  35  36
ATOM     36  O   UNL     1       5.677  -1.092  -4.666  1.00  0.00    -0.396 OA
ATOM     37  H   UNL     1       5.931  -1.973  -4.351  1.00  0.00     0.210 HD
ENDBRANCH  35  36
ENDBRANCH  34  35
ENDBRANCH   5  34
ENDBRANCH   1   5
BRANCH   3  38
ATOM     38  C   UNL     1       6.678  -3.052  -2.378  1.00  0.00     0.117 C 
BRANCH  38  39
ATOM     39  C   UNL     1       7.154  -3.744  -1.098  1.00  0.00     0.042 C 
BRANCH  39  40
ATOM     40  C   UNL     1       7.566  -5.215  -1.229  1.00  0.00     0.118 C 
BRANCH  40  41
ATOM     41  N   UNL     1       8.989  -5.429  -1.384  1.00  0.00    -0.352 N 
ATOM     42  C   UNL     1       9.719  -6.508  -0.922  1.00  0.00     0.251 C 
ATOM     43  H   UNL     1       9.489  -4.733  -1.869  1.00  0.00     0.163 HD
ATOM     44  O   UNL     1      10.906  -6.602  -1.219  1.00  0.00    -0.269 OA
BRANCH  42  45
ATOM     45  C   UNL     1       9.090  -7.511  -0.004  1.00  0.00     0.039 A 
ATOM     46  C   UNL     1       9.204  -7.308   1.365  1.00  0.00     0.014 A 
ATOM     47  C   UNL     1       8.524  -8.717  -0.445  1.00  0.00     0.014 A 
ATOM     48  C   UNL     1       8.741  -8.291   2.272  1.00  0.00     0.010 A 
ATOM     49  C   UNL     1       8.126  -9.745   0.480  1.00  0.00     0.010 A 
ATOM     50  C   UNL     1       8.248  -9.577   1.874  1.00  0.00    -0.014 A 
BRANCH  50  51
ATOM     51  C   UNL     1       8.546 -10.742   2.878  1.00  0.00     0.031 A 
ATOM     52  C   UNL     1      10.020 -10.627   3.094  1.00  0.00     0.074 A 
ATOM     53  C   UNL     1       7.919 -11.810   3.492  1.00  0.00     0.049 A 
ATOM     54  N   UNL     1      10.847 -10.691   2.085  1.00  0.00    -0.248 NA
ATOM     55  C   UNL     1      10.581 -10.039   4.312  1.00  0.00     0.031 C 
ATOM     56  C   UNL     1       6.546 -12.290   3.285  1.00  0.00     0.029 A 
ATOM     57  N   UNL     1       8.367 -12.736   4.471  1.00  0.00    -0.354 N 
ATOM     58  C   UNL     1      12.091 -10.450   2.608  1.00  0.00     0.074 A 
ATOM     59  C   UNL     1      11.828  -9.809   3.889  1.00  0.00     0.031 C 
ATOM     60  C   UNL     1       6.231 -13.289   4.159  1.00  0.00     0.029 A 
ATOM     61  C   UNL     1       7.372 -13.618   5.009  1.00  0.00     0.049 A 
ATOM     62  H   UNL     1       9.306 -12.770   4.764  1.00  0.00     0.167 HD
ATOM     63  C   UNL     1      13.051 -11.379   2.332  1.00  0.00     0.037 A 
ATOM     64  C   UNL     1       7.460 -14.574   6.011  1.00  0.00     0.037 A 
ATOM     65  C   UNL     1      13.302 -12.248   3.448  1.00  0.00     0.049 A 
ATOM     66  C   UNL     1       8.881 -14.906   6.154  1.00  0.00     0.074 A 
ATOM     67  C   UNL     1      13.476 -12.034   4.801  1.00  0.00     0.029 A 
ATOM     68  N   UNL     1      12.920 -13.564   3.303  1.00  0.00    -0.354 N 
ATOM     69  N   UNL     1       9.478 -15.720   5.340  1.00  0.00    -0.248 NA
ATOM     70  C   UNL     1       9.683 -14.415   7.269  1.00  0.00     0.031 C 
ATOM     71  C   UNL     1      12.697 -13.035   5.426  1.00  0.00     0.029 A 
ATOM     72  C   UNL     1      12.383 -14.010   4.490  1.00  0.00     0.049 A 
ATOM     73  H   UNL     1      13.016 -14.099   2.482  1.00  0.00     0.167 HD
ATOM     74  C   UNL     1      10.790 -15.442   5.545  1.00  0.00     0.074 A 
ATOM     75  C   UNL     1      10.870 -14.880   6.878  1.00  0.00     0.031 C 
ATOM     76  C   UNL     1      11.524 -15.163   4.444  1.00  0.00     0.037 A 
BRANCH  63  77
ATOM     77  C   UNL     1      13.120 -11.823   0.901  1.00  0.00     0.057 A 
ATOM     78  C   UNL     1      14.252 -11.506   0.149  1.00  0.00     0.134 A 
ATOM     79  C   UNL     1      12.073 -12.483   0.230  1.00  0.00     0.134 A 
ATOM     80  F   UNL     1      15.319 -10.942   0.736  1.00  0.00    -0.206 F 
ATOM     81  C   UNL     1      14.314 -11.765  -1.223  1.00  0.00     0.040 A 
ATOM     82  C   UNL     1      12.099 -12.695  -1.148  1.00  0.00     0.040 A 
ATOM     83  F   UNL     1      11.015 -12.966   0.900  1.00  0.00    -0.206 F 
ATOM     84  C   UNL     1      13.220 -12.327  -1.881  1.00  0.00     0.006 A 
ENDBRANCH  63  77
BRANCH  64  85
ATOM     85  C   UNL     1       6.627 -15.498   6.913  1.00  0.00     0.057 A 
ATOM     86  C   UNL     1       7.175 -16.722   7.421  1.00  0.00     0.134 A 
ATOM     87  C   UNL     1       5.492 -15.069   7.605  1.00  0.00     0.134 A 
ATOM     88  F   UNL     1       8.234 -17.313   6.850  1.00  0.00    -0.206 F 
ATOM     89  C   UNL     1       6.724 -17.378   8.579  1.00  0.00     0.040 A 
ATOM     90  C   UNL     1       5.002 -15.747   8.753  1.00  0.00     0.040 A 
ATOM     91  F   UNL     1       4.870 -13.938   7.250  1.00  0.00    -0.206 F 
ATOM     92  C   UNL     1       5.639 -16.877   9.267  1.00  0.00     0.006 A 
ENDBRANCH  64  85
BRANCH  76  93
ATOM     93  C   UNL     1      11.227 -15.975   3.200  1.00  0.00     0.057 A 
ATOM     94  C   UNL     1       9.977 -16.134   2.567  1.00  0.00     0.134 A 
ATOM     95  C   UNL     1      12.291 -16.693   2.640  1.00  0.00     0.134 A 
ATOM     96  F   UNL     1       8.896 -15.432   2.935  1.00  0.00    -0.206 F 
ATOM     97  C   UNL     1       9.792 -17.018   1.495  1.00  0.00     0.040 A 
ATOM     98  C   UNL     1      12.130 -17.538   1.539  1.00  0.00     0.040 A 
ATOM     99  F   UNL     1      13.526 -16.571   3.152  1.00  0.00    -0.206 F 
ATOM    100  C   UNL     1      10.872 -17.722   0.977  1.00  0.00     0.006 A 
ENDBRANCH  76  93
ENDBRANCH  50  51
ENDBRANCH  42  45
ENDBRANCH  40  41
ENDBRANCH  39  40
ENDBRANCH  38  39
ENDBRANCH   3  38
TORSDOF 19
