REMARK SMILES CCCSc1nc2n(n1)[C@@H](c1ccccc1C(=O)NCCCNC(=O)c1ccc(-c3c4nc(c(-c5c(F)cccc5F)c5ccc([nH]5)c(-c5c(F)cccc5F)c5nc(c(-c6c(F)cccc6F)c6ccc3[nH]6)C=C5)C=C4)cc1)C(C(=O)Nc1cccc(C)c1C)=C(C)N2
REMARK SMILES IDX 20 1 19 2 17 3 18 4 16 6 11 7 12 8 13 9 15 10 14 11 10 12
REMARK SMILES IDX 5 13 6 14 9 15 7 16 8 17 94 18 92 19 80 21 93 22 4 23 3 24
REMARK SMILES IDX 2 25 1 26 81 27 82 28 83 29 84 31 85 32 90 33 86 34 88 35
REMARK SMILES IDX 91 36 87 37 89 38 21 39 22 40 23 41 24 42 25 44 26 45 27 46
REMARK SMILES IDX 79 47 28 48 78 49 29 50 30 51 31 52 72 53 32 54 77 55 71 56
REMARK SMILES IDX 73 57 33 58 76 59 70 60 69 61 34 63 60 64 43 65 59 66 44 67
REMARK SMILES IDX 47 68 58 69 74 70 45 71 46 72 57 74 75 75 48 76 35 77 36 78
REMARK SMILES IDX 41 79 37 80 38 81 40 82 42 83 39 84 61 85 62 86 67 87 63 88
REMARK SMILES IDX 64 89 66 90 68 91 65 92 49 93 50 94 55 95 51 96 52 97 54 98
REMARK SMILES IDX 56 99 53 100
REMARK H PARENT 19 5 94 20 83 30 23 43 73 62 47 73
REMARK Flexibility Score: inf
ROOT
ATOM      1  C   UNL     1       5.467   4.559   1.014  1.00  0.00     0.118 C 
ENDROOT
BRANCH   1   2
ATOM      2  N   UNL     1       5.615   4.213  -0.391  1.00  0.00    -0.352 N 
ATOM      3  C   UNL     1       4.938   3.905  -1.532  1.00  0.00     0.251 C 
ATOM      4  O   UNL     1       5.710   3.950  -2.506  1.00  0.00    -0.269 OA
ATOM      5  H   UNL     1       6.578   4.193  -0.597  1.00  0.00     0.163 HD
BRANCH   3   6
ATOM      6  C   UNL     1       3.509   3.480  -1.805  1.00  0.00     0.045 A 
ATOM      7  C   UNL     1       2.365   3.366  -0.977  1.00  0.00    -0.006 A 
ATOM      8  C   UNL     1       1.152   2.876  -1.554  1.00  0.00     0.007 A 
ATOM      9  C   UNL     1       1.036   2.528  -2.896  1.00  0.00     0.000 A 
ATOM     10  C   UNL     1       3.322   3.164  -3.186  1.00  0.00     0.014 A 
ATOM     11  C   UNL     1       2.120   2.701  -3.725  1.00  0.00     0.001 A 
BRANCH   7  12
ATOM     12  C   UNL     1       2.264   3.894   0.449  1.00  0.00     0.180 C 
ATOM     13  C   UNL     1       0.806   1.367   2.431  1.00  0.00     0.210 A 
ATOM     14  N   UNL     1      -0.149   2.336   2.612  1.00  0.00    -0.185 NA
ATOM     15  N   UNL     1       1.868   1.739   1.697  1.00  0.00    -0.141 NA
ATOM     16  C   UNL     1       0.308   3.339   1.917  1.00  0.00     0.227 A 
ATOM     17  N   UNL     1       1.489   2.988   1.326  1.00  0.00    -0.218 N 
ATOM     18  N   UNL     1      -0.192   4.569   1.719  1.00  0.00    -0.328 N 
ATOM     19  C   UNL     1       0.477   5.572   1.030  1.00  0.00     0.026 C 
ATOM     20  H   UNL     1      -1.084   4.772   2.084  1.00  0.00     0.169 HD
ATOM     21  C   UNL     1       1.704   5.329   0.508  1.00  0.00     0.065 C 
ATOM     22  C   UNL     1      -0.273   6.872   0.917  1.00  0.00     0.065 C 
BRANCH  13  23
ATOM     23  S   UNL     1       0.604  -0.197   3.166  1.00  0.00    -0.084 SA
BRANCH  23  24
ATOM     24  C   UNL     1       1.320  -1.357   1.975  1.00  0.00     0.078 C 
BRANCH  24  25
ATOM     25  C   UNL     1       0.528  -1.566   0.682  1.00  0.00     0.008 C 
ATOM     26  C   UNL     1       0.748  -0.486  -0.363  1.00  0.00     0.005 C 
ENDBRANCH  24  25
ENDBRANCH  23  24
ENDBRANCH  13  23
BRANCH  21  27
ATOM     27  C   UNL     1       2.564   6.358  -0.129  1.00  0.00     0.255 C 
ATOM     28  O   UNL     1       2.854   6.255  -1.320  1.00  0.00    -0.269 OA
ATOM     29  N   UNL     1       3.152   7.384   0.563  1.00  0.00    -0.322 N 
ATOM     30  H   UNL     1       4.080   7.596   0.312  1.00  0.00     0.170 HD
BRANCH  29  31
ATOM     31  C   UNL     1       2.596   8.174   1.587  1.00  0.00     0.044 A 
ATOM     32  C   UNL     1       2.359   9.505   1.208  1.00  0.00     0.026 A 
ATOM     33  C   UNL     1       2.230   7.733   2.871  1.00  0.00    -0.025 A 
ATOM     34  C   UNL     1       1.636  10.361   2.027  1.00  0.00     0.002 A 
ATOM     35  C   UNL     1       1.484   8.608   3.701  1.00  0.00    -0.046 A 
ATOM     36  C   UNL     1       2.672   6.411   3.426  1.00  0.00     0.047 C 
ATOM     37  C   UNL     1       1.173   9.903   3.252  1.00  0.00     0.004 A 
ATOM     38  C   UNL     1       0.925   8.191   5.038  1.00  0.00     0.044 C 
ENDBRANCH  29  31
ENDBRANCH  21  27
ENDBRANCH   7  12
ENDBRANCH   3   6
ENDBRANCH   1   2
BRANCH   1  39
ATOM     39  C   UNL     1       5.525   3.369   1.975  1.00  0.00     0.042 C 
BRANCH  39  40
ATOM     40  C   UNL     1       6.167   3.701   3.325  1.00  0.00     0.118 C 
BRANCH  40  41
ATOM     41  N   UNL     1       5.378   4.602   4.174  1.00  0.00    -0.352 N 
ATOM     42  C   UNL     1       5.847   5.522   5.100  1.00  0.00     0.251 C 
ATOM     43  H   UNL     1       4.400   4.546   4.074  1.00  0.00     0.163 HD
ATOM     44  O   UNL     1       5.156   5.921   6.032  1.00  0.00    -0.269 OA
BRANCH  42  45
ATOM     45  C   UNL     1       7.207   6.037   4.909  1.00  0.00     0.039 A 
ATOM     46  C   UNL     1       8.184   5.926   5.900  1.00  0.00     0.014 A 
ATOM     47  C   UNL     1       7.519   6.420   3.612  1.00  0.00     0.014 A 
ATOM     48  C   UNL     1       9.519   6.043   5.524  1.00  0.00     0.010 A 
ATOM     49  C   UNL     1       8.827   6.352   3.218  1.00  0.00     0.010 A 
ATOM     50  C   UNL     1       9.838   6.182   4.162  1.00  0.00    -0.014 A 
BRANCH  50  51
ATOM     51  C   UNL     1      11.206   5.977   3.693  1.00  0.00     0.031 A 
ATOM     52  C   UNL     1      11.905   4.770   4.229  1.00  0.00     0.074 A 
ATOM     53  C   UNL     1      11.749   6.655   2.661  1.00  0.00     0.049 A 
ATOM     54  N   UNL     1      12.892   4.741   5.061  1.00  0.00    -0.248 NA
ATOM     55  C   UNL     1      11.381   3.438   3.888  1.00  0.00     0.031 C 
ATOM     56  C   UNL     1      11.135   7.646   1.770  1.00  0.00     0.029 A 
ATOM     57  N   UNL     1      12.987   6.502   2.125  1.00  0.00    -0.354 N 
ATOM     58  C   UNL     1      13.248   3.401   5.206  1.00  0.00     0.074 A 
ATOM     59  C   UNL     1      12.184   2.642   4.601  1.00  0.00     0.031 C 
ATOM     60  C   UNL     1      11.908   7.814   0.676  1.00  0.00     0.029 A 
ATOM     61  C   UNL     1      13.158   7.113   0.894  1.00  0.00     0.049 A 
ATOM     62  H   UNL     1      13.704   5.999   2.574  1.00  0.00     0.167 HD
ATOM     63  C   UNL     1      14.495   3.040   5.625  1.00  0.00     0.037 A 
ATOM     64  C   UNL     1      14.254   7.049   0.106  1.00  0.00     0.037 A 
ATOM     65  C   UNL     1      15.207   4.172   6.167  1.00  0.00     0.049 A 
ATOM     66  C   UNL     1      15.395   6.668   0.976  1.00  0.00     0.074 A 
ATOM     67  C   UNL     1      14.977   5.064   7.198  1.00  0.00     0.029 A 
ATOM     68  N   UNL     1      16.157   4.771   5.373  1.00  0.00    -0.354 N 
ATOM     69  N   UNL     1      15.876   7.435   1.917  1.00  0.00    -0.248 NA
ATOM     70  C   UNL     1      15.701   5.252   1.114  1.00  0.00     0.031 C 
ATOM     71  C   UNL     1      15.388   6.330   6.681  1.00  0.00     0.029 A 
ATOM     72  C   UNL     1      15.910   6.120   5.403  1.00  0.00     0.049 A 
ATOM     73  H   UNL     1      16.876   4.317   4.877  1.00  0.00     0.167 HD
ATOM     74  C   UNL     1      16.152   6.575   2.970  1.00  0.00     0.074 A 
ATOM     75  C   UNL     1      16.123   5.237   2.382  1.00  0.00     0.031 C 
ATOM     76  C   UNL     1      16.095   6.998   4.269  1.00  0.00     0.037 A 
BRANCH  63  77
ATOM     77  C   UNL     1      15.220   1.771   5.237  1.00  0.00     0.057 A 
ATOM     78  C   UNL     1      16.446   1.461   5.858  1.00  0.00     0.134 A 
ATOM     79  C   UNL     1      14.924   1.007   4.091  1.00  0.00     0.134 A 
ATOM     80  F   UNL     1      16.848   2.118   6.957  1.00  0.00    -0.206 F 
ATOM     81  C   UNL     1      17.345   0.526   5.329  1.00  0.00     0.040 A 
ATOM     82  C   UNL     1      15.792   0.034   3.584  1.00  0.00     0.040 A 
ATOM     83  F   UNL     1      13.837   1.226   3.343  1.00  0.00    -0.206 F 
ATOM     84  C   UNL     1      17.023  -0.185   4.181  1.00  0.00     0.006 A 
ENDBRANCH  63  77
BRANCH  64  85
ATOM     85  C   UNL     1      14.309   7.050  -1.369  1.00  0.00     0.057 A 
ATOM     86  C   UNL     1      15.507   7.299  -2.049  1.00  0.00     0.134 A 
ATOM     87  C   UNL     1      13.246   6.550  -2.145  1.00  0.00     0.134 A 
ATOM     88  F   UNL     1      16.583   7.747  -1.387  1.00  0.00    -0.206 F 
ATOM     89  C   UNL     1      15.651   7.036  -3.417  1.00  0.00     0.040 A 
ATOM     90  C   UNL     1      13.375   6.291  -3.513  1.00  0.00     0.040 A 
ATOM     91  F   UNL     1      12.075   6.214  -1.585  1.00  0.00    -0.206 F 
ATOM     92  C   UNL     1      14.587   6.518  -4.151  1.00  0.00     0.006 A 
ENDBRANCH  64  85
BRANCH  76  93
ATOM     93  C   UNL     1      15.963   8.476   4.530  1.00  0.00     0.057 A 
ATOM     94  C   UNL     1      14.873   9.258   4.115  1.00  0.00     0.134 A 
ATOM     95  C   UNL     1      16.899   9.103   5.359  1.00  0.00     0.134 A 
ATOM     96  F   UNL     1      13.867   8.730   3.412  1.00  0.00    -0.206 F 
ATOM     97  C   UNL     1      14.749  10.607   4.462  1.00  0.00     0.040 A 
ATOM     98  C   UNL     1      16.771  10.441   5.742  1.00  0.00     0.040 A 
ATOM     99  F   UNL     1      17.938   8.409   5.851  1.00  0.00    -0.206 F 
ATOM    100  C   UNL     1      15.700  11.203   5.283  1.00  0.00     0.006 A 
ENDBRANCH  76  93
ENDBRANCH  50  51
ENDBRANCH  42  45
ENDBRANCH  40  41
ENDBRANCH  39  40
ENDBRANCH   1  39
TORSDOF 16
