REMARK SMILES CC(C)n1cncc1[C@@H](NC(=O)OC(C)(C)C)C(=O)NCCCNC(=O)c1ccc(-c2c3nc(c(-c4c(F)cccc4F)c4ccc([nH]4)c(-c4c(F)cccc4F)c4nc(c(-c5c(F)cccc5F)c5ccc2[nH]5)C=C4)C=C3)cc1
REMARK SMILES IDX 21 1 20 2 18 3 19 4 9 6 8 7 4 8 5 9 6 10 7 11 2 12 1 13 3 14
REMARK SMILES IDX 10 15 11 16 12 18 13 19 14 20 15 21 16 22 17 23 22 24 23 25
REMARK SMILES IDX 24 26 25 27 26 29 27 30 28 31 80 32 29 33 79 34 30 35 31 36
REMARK SMILES IDX 32 37 73 38 33 39 78 40 72 41 74 42 34 43 77 44 71 45 70 46
REMARK SMILES IDX 35 48 61 49 44 50 60 51 45 52 48 53 59 54 75 55 46 56 47 57
REMARK SMILES IDX 58 59 76 60 49 61 36 62 37 63 42 64 38 65 39 66 41 67 43 68
REMARK SMILES IDX 40 69 62 70 63 71 68 72 64 73 65 74 67 75 69 76 66 77 50 78
REMARK SMILES IDX 51 79 56 80 52 81 53 82 55 83 57 84 54 85
REMARK H PARENT 20 5 10 17 24 28 74 47 48 58
REMARK Flexibility Score: inf
ROOT
ATOM      1  C   UNL     1      -4.425   2.704  -0.660  1.00  0.00     0.117 C 
ENDROOT
BRANCH   1   2
ATOM      2  N   UNL     1      -3.264   2.791   0.207  1.00  0.00    -0.354 N 
ATOM      3  C   UNL     1      -1.938   2.823  -0.131  1.00  0.00     0.248 C 
ATOM      4  O   UNL     1      -1.122   2.943   0.792  1.00  0.00    -0.272 OA
ATOM      5  H   UNL     1      -3.458   2.833   1.171  1.00  0.00     0.163 HD
BRANCH   3   6
ATOM      6  C   UNL     1      -1.438   2.554  -1.587  1.00  0.00     0.223 C 
BRANCH   6   7
ATOM      7  C   UNL     1      -1.662   1.073  -1.841  1.00  0.00     0.070 A 
ATOM      8  N   UNL     1      -0.820   0.035  -1.481  1.00  0.00    -0.330 N 
ATOM      9  C   UNL     1      -1.570  -1.115  -1.499  1.00  0.00     0.199 A 
ATOM     10  N   UNL     1      -2.732  -0.925  -2.072  1.00  0.00    -0.245 NA
ATOM     11  C   UNL     1      -2.772   0.411  -2.344  1.00  0.00     0.137 A 
BRANCH   8  12
ATOM     12  C   UNL     1       0.628   0.060  -1.290  1.00  0.00     0.082 C 
ATOM     13  C   UNL     1       1.022   0.001   0.181  1.00  0.00     0.031 C 
ATOM     14  C   UNL     1       1.312  -1.070  -2.078  1.00  0.00     0.031 C 
ENDBRANCH   8  12
ENDBRANCH   6   7
BRANCH   6  15
ATOM     15  N   UNL     1      -2.037   3.289  -2.694  1.00  0.00    -0.304 N 
ATOM     16  C   UNL     1      -2.502   4.579  -2.731  1.00  0.00     0.408 C 
ATOM     17  H   UNL     1      -2.119   2.788  -3.538  1.00  0.00     0.168 HD
ATOM     18  O   UNL     1      -2.720   5.122  -3.794  1.00  0.00    -0.225 OA
BRANCH  16  19
ATOM     19  O   UNL     1      -2.801   5.089  -1.509  1.00  0.00    -0.444 OA
BRANCH  19  20
ATOM     20  C   UNL     1      -3.640   6.275  -1.365  1.00  0.00     0.106 C 
ATOM     21  C   UNL     1      -2.933   7.525  -1.890  1.00  0.00     0.056 C 
ATOM     22  C   UNL     1      -5.019   6.110  -2.028  1.00  0.00     0.056 C 
ATOM     23  C   UNL     1      -3.856   6.438   0.151  1.00  0.00     0.056 C 
ENDBRANCH  19  20
ENDBRANCH  16  19
ENDBRANCH   6  15
ENDBRANCH   3   6
ENDBRANCH   1   2
BRANCH   1  24
ATOM     24  C   UNL     1      -5.293   1.476  -0.412  1.00  0.00     0.042 C 
BRANCH  24  25
ATOM     25  C   UNL     1      -6.379   1.760   0.609  1.00  0.00     0.118 C 
BRANCH  25  26
ATOM     26  N   UNL     1      -7.363   2.740   0.120  1.00  0.00    -0.352 N 
ATOM     27  C   UNL     1      -8.297   3.456   0.845  1.00  0.00     0.251 C 
ATOM     28  H   UNL     1      -7.355   2.906  -0.850  1.00  0.00     0.163 HD
ATOM     29  O   UNL     1      -9.266   3.978   0.311  1.00  0.00    -0.269 OA
BRANCH  27  30
ATOM     30  C   UNL     1      -8.078   3.588   2.290  1.00  0.00     0.039 A 
ATOM     31  C   UNL     1      -9.088   3.333   3.220  1.00  0.00     0.014 A 
ATOM     32  C   UNL     1      -6.772   3.850   2.688  1.00  0.00     0.014 A 
ATOM     33  C   UNL     1      -8.740   3.243   4.564  1.00  0.00     0.010 A 
ATOM     34  C   UNL     1      -6.404   3.543   3.966  1.00  0.00     0.010 A 
ATOM     35  C   UNL     1      -7.385   3.319   4.923  1.00  0.00    -0.014 A 
BRANCH  35  36
ATOM     36  C   UNL     1      -6.932   3.036   6.277  1.00  0.00     0.031 A 
ATOM     37  C   UNL     1      -7.357   1.710   6.791  1.00  0.00     0.074 A 
ATOM     38  C   UNL     1      -5.997   3.787   6.899  1.00  0.00     0.049 A 
ATOM     39  N   UNL     1      -8.280   1.465   7.660  1.00  0.00    -0.248 NA
ATOM     40  C   UNL     1      -6.829   0.503   6.132  1.00  0.00     0.031 C 
ATOM     41  C   UNL     1      -5.236   4.923   6.359  1.00  0.00     0.029 A 
ATOM     42  N   UNL     1      -5.441   3.623   8.129  1.00  0.00    -0.354 N 
ATOM     43  C   UNL     1      -8.252   0.087   7.856  1.00  0.00     0.074 A 
ATOM     44  C   UNL     1      -7.551  -0.453   6.723  1.00  0.00     0.031 C 
ATOM     45  C   UNL     1      -4.176   5.183   7.154  1.00  0.00     0.029 A 
ATOM     46  C   UNL     1      -4.285   4.366   8.347  1.00  0.00     0.049 A 
ATOM     47  H   UNL     1      -5.827   3.026   8.811  1.00  0.00     0.167 HD
ATOM     48  C   UNL     1      -8.507  -0.435   9.090  1.00  0.00     0.037 A 
ATOM     49  C   UNL     1      -3.470   4.300   9.429  1.00  0.00     0.037 A 
ATOM     50  C   UNL     1      -9.124   0.564   9.939  1.00  0.00     0.049 A 
ATOM     51  C   UNL     1      -4.248   3.666  10.520  1.00  0.00     0.074 A 
ATOM     52  C   UNL     1     -10.250   1.363   9.866  1.00  0.00     0.029 A 
ATOM     53  N   UNL     1      -8.329   1.138  10.902  1.00  0.00    -0.354 N 
ATOM     54  N   UNL     1      -5.269   4.227  11.104  1.00  0.00    -0.248 NA
ATOM     55  C   UNL     1      -4.177   2.219  10.645  1.00  0.00     0.031 C 
ATOM     56  C   UNL     1      -9.858   2.613  10.435  1.00  0.00     0.029 A 
ATOM     57  C   UNL     1      -8.547   2.488  10.896  1.00  0.00     0.049 A 
ATOM     58  H   UNL     1      -7.707   0.658  11.495  1.00  0.00     0.167 HD
ATOM     59  C   UNL     1      -6.189   3.202  11.262  1.00  0.00     0.074 A 
ATOM     60  C   UNL     1      -5.421   1.973  11.063  1.00  0.00     0.031 C 
ATOM     61  C   UNL     1      -7.531   3.458  11.235  1.00  0.00     0.037 A 
BRANCH  48  62
ATOM     62  C   UNL     1      -7.781  -1.632   9.689  1.00  0.00     0.057 A 
ATOM     63  C   UNL     1      -8.114  -2.017  11.004  1.00  0.00     0.134 A 
ATOM     64  C   UNL     1      -6.584  -2.195   9.202  1.00  0.00     0.134 A 
ATOM     65  F   UNL     1      -9.248  -1.589  11.581  1.00  0.00    -0.206 F 
ATOM     66  C   UNL     1      -7.249  -2.757  11.818  1.00  0.00     0.040 A 
ATOM     67  C   UNL     1      -5.734  -2.976   9.993  1.00  0.00     0.040 A 
ATOM     68  F   UNL     1      -6.112  -1.968   7.974  1.00  0.00    -0.206 F 
ATOM     69  C   UNL     1      -6.040  -3.219  11.320  1.00  0.00     0.006 A 
ENDBRANCH  48  62
BRANCH  49  70
ATOM     70  C   UNL     1      -2.006   4.498   9.518  1.00  0.00     0.057 A 
ATOM     71  C   UNL     1      -1.375   4.668  10.759  1.00  0.00     0.134 A 
ATOM     72  C   UNL     1      -1.159   4.235   8.427  1.00  0.00     0.134 A 
ATOM     73  F   UNL     1      -2.099   4.889  11.866  1.00  0.00    -0.206 F 
ATOM     74  C   UNL     1       0.012   4.546  10.915  1.00  0.00     0.040 A 
ATOM     75  C   UNL     1       0.229   4.117   8.568  1.00  0.00     0.040 A 
ATOM     76  F   UNL     1      -1.657   3.991   7.206  1.00  0.00    -0.206 F 
ATOM     77  C   UNL     1       0.818   4.255   9.818  1.00  0.00     0.006 A 
ENDBRANCH  49  70
BRANCH  61  78
ATOM     78  C   UNL     1      -7.973   4.892  11.350  1.00  0.00     0.057 A 
ATOM     79  C   UNL     1      -7.678   5.897  10.416  1.00  0.00     0.134 A 
ATOM     80  C   UNL     1      -8.843   5.236  12.391  1.00  0.00     0.134 A 
ATOM     81  F   UNL     1      -6.934   5.643   9.333  1.00  0.00    -0.206 F 
ATOM     82  C   UNL     1      -8.186   7.194  10.541  1.00  0.00     0.040 A 
ATOM     83  C   UNL     1      -9.386   6.517  12.508  1.00  0.00     0.040 A 
ATOM     84  F   UNL     1      -9.214   4.314  13.293  1.00  0.00    -0.206 F 
ATOM     85  C   UNL     1      -9.048   7.505  11.587  1.00  0.00     0.006 A 
ENDBRANCH  61  78
ENDBRANCH  35  36
ENDBRANCH  27  30
ENDBRANCH  25  26
ENDBRANCH  24  25
ENDBRANCH   1  24
TORSDOF 15
