REMARK SMILES C[C@@H](CC(=O)NCCCNC(=O)c1ccc(-c2c3nc(c(-c4c(F)cccc4F)c4ccc([nH]4)c(-c4c(F)cccc4F)c4nc(c(-c5c(F)cccc5F)c5ccc2[nH]5)C=C4)C=C3)cc1)NC(=O)N[C@H]1CCOC1
REMARK SMILES IDX 7 1 6 2 4 3 5 4 3 6 2 7 1 8 67 9 68 10 69 12 70 13 71 15
REMARK SMILES IDX 72 16 75 17 73 18 74 19 8 20 9 21 10 22 11 23 12 25 13 26
REMARK SMILES IDX 14 27 66 28 15 29 65 30 16 31 17 32 18 33 59 34 19 35 64 36
REMARK SMILES IDX 58 37 60 38 20 39 63 40 57 41 56 42 21 44 47 45 30 46 46 47
REMARK SMILES IDX 31 48 34 49 45 50 61 51 32 52 33 53 44 55 62 56 35 57 22 58
REMARK SMILES IDX 23 59 28 60 24 61 25 62 27 63 29 64 26 65 48 66 49 67 54 68
REMARK SMILES IDX 50 69 51 70 53 71 55 72 52 73 36 74 37 75 42 76 38 77 39 78
REMARK SMILES IDX 41 79 43 80 40 81
REMARK H PARENT 6 5 67 11 70 14 10 24 60 43 34 54
REMARK Flexibility Score: inf
ROOT
ATOM      1  C   UNL     1       6.171  -5.329  -1.624  1.00  0.00     0.117 C 
ENDROOT
BRANCH   1   2
ATOM      2  N   UNL     1       6.520  -3.943  -1.905  1.00  0.00    -0.356 N 
ATOM      3  C   UNL     1       5.783  -2.799  -1.834  1.00  0.00     0.222 C 
ATOM      4  O   UNL     1       6.292  -1.750  -2.231  1.00  0.00    -0.275 OA
ATOM      5  H   UNL     1       7.451  -3.809  -2.196  1.00  0.00     0.163 HD
BRANCH   3   6
ATOM      6  C   UNL     1       4.378  -2.823  -1.286  1.00  0.00     0.124 C 
BRANCH   6   7
ATOM      7  C   UNL     1       3.281  -2.869  -2.352  1.00  0.00     0.090 C 
ATOM      8  C   UNL     1       3.490  -3.898  -3.452  1.00  0.00     0.031 C 
BRANCH   7   9
ATOM      9  N   UNL     1       3.002  -1.573  -2.942  1.00  0.00    -0.335 N 
ATOM     10  C   UNL     1       1.899  -1.122  -3.556  1.00  0.00     0.315 C 
ATOM     11  H   UNL     1       3.739  -0.922  -2.884  1.00  0.00     0.165 HD
ATOM     12  O   UNL     1       2.023  -0.241  -4.408  1.00  0.00    -0.249 OA
ATOM     13  N   UNL     1       0.658  -1.562  -3.302  1.00  0.00    -0.333 N 
ATOM     14  H   UNL     1       0.035  -1.321  -4.026  1.00  0.00     0.165 HD
BRANCH  13  15
ATOM     15  C   UNL     1      -0.021  -2.304  -2.238  1.00  0.00     0.112 C 
ATOM     16  C   UNL     1      -0.005  -3.810  -2.381  1.00  0.00     0.056 C 
ATOM     17  C   UNL     1       0.406  -2.007  -0.805  1.00  0.00     0.185 C 
ATOM     18  C   UNL     1       0.208  -4.328  -0.973  1.00  0.00     0.162 C 
ATOM     19  O   UNL     1       0.700  -3.257  -0.163  1.00  0.00    -0.379 OA
ENDBRANCH  13  15
ENDBRANCH   7   9
ENDBRANCH   6   7
ENDBRANCH   3   6
ENDBRANCH   1   2
BRANCH   1  20
ATOM     20  C   UNL     1       6.070  -6.173  -2.894  1.00  0.00     0.042 C 
BRANCH  20  21
ATOM     21  C   UNL     1       7.355  -6.248  -3.705  1.00  0.00     0.118 C 
BRANCH  21  22
ATOM     22  N   UNL     1       8.255  -7.271  -3.204  1.00  0.00    -0.352 N 
ATOM     23  C   UNL     1       8.641  -8.445  -3.799  1.00  0.00     0.251 C 
ATOM     24  H   UNL     1       8.640  -7.099  -2.314  1.00  0.00     0.163 HD
ATOM     25  O   UNL     1       9.215  -9.306  -3.130  1.00  0.00    -0.269 OA
BRANCH  23  26
ATOM     26  C   UNL     1       8.361  -8.697  -5.231  1.00  0.00     0.039 A 
ATOM     27  C   UNL     1       7.925  -9.966  -5.621  1.00  0.00     0.014 A 
ATOM     28  C   UNL     1       8.558  -7.703  -6.196  1.00  0.00     0.014 A 
ATOM     29  C   UNL     1       7.640 -10.224  -6.965  1.00  0.00     0.010 A 
ATOM     30  C   UNL     1       8.203  -7.938  -7.523  1.00  0.00     0.010 A 
ATOM     31  C   UNL     1       7.751  -9.204  -7.924  1.00  0.00    -0.014 A 
BRANCH  31  32
ATOM     32  C   UNL     1       7.416  -9.450  -9.350  1.00  0.00     0.031 A 
ATOM     33  C   UNL     1       8.484  -9.369 -10.406  1.00  0.00     0.074 A 
ATOM     34  C   UNL     1       6.140  -9.694  -9.705  1.00  0.00     0.049 A 
ATOM     35  N   UNL     1       8.376  -9.501 -11.704  1.00  0.00    -0.248 NA
ATOM     36  C   UNL     1       9.850  -9.078  -9.944  1.00  0.00     0.031 C 
ATOM     37  C   UNL     1       5.003  -9.758  -8.785  1.00  0.00     0.029 A 
ATOM     38  N   UNL     1       5.583  -9.925 -10.938  1.00  0.00    -0.354 N 
ATOM     39  C   UNL     1       9.652  -9.294 -12.213  1.00  0.00     0.074 A 
ATOM     40  C   UNL     1      10.508  -8.979 -11.090  1.00  0.00     0.031 C 
ATOM     41  C   UNL     1       3.890 -10.038  -9.481  1.00  0.00     0.029 A 
ATOM     42  C   UNL     1       4.227 -10.137 -10.898  1.00  0.00     0.049 A 
ATOM     43  H   UNL     1       6.107  -9.938 -11.772  1.00  0.00     0.167 HD
ATOM     44  C   UNL     1      10.078  -9.381 -13.496  1.00  0.00     0.037 A 
ATOM     45  C   UNL     1       3.351 -10.377 -11.892  1.00  0.00     0.037 A 
ATOM     46  C   UNL     1       9.233  -9.720 -14.611  1.00  0.00     0.049 A 
ATOM     47  C   UNL     1       3.842 -10.448 -13.310  1.00  0.00     0.074 A 
ATOM     48  C   UNL     1       9.587  -9.912 -15.935  1.00  0.00     0.029 A 
ATOM     49  N   UNL     1       7.862  -9.912 -14.531  1.00  0.00    -0.354 N 
ATOM     50  N   UNL     1       5.064 -10.320 -13.768  1.00  0.00    -0.248 NA
ATOM     51  C   UNL     1       2.832 -10.692 -14.349  1.00  0.00     0.031 C 
ATOM     52  C   UNL     1       8.422 -10.177 -16.665  1.00  0.00     0.029 A 
ATOM     53  C   UNL     1       7.349 -10.189 -15.788  1.00  0.00     0.049 A 
ATOM     54  H   UNL     1       7.332  -9.860 -13.703  1.00  0.00     0.167 HD
ATOM     55  C   UNL     1       4.973 -10.482 -15.143  1.00  0.00     0.074 A 
ATOM     56  C   UNL     1       3.579 -10.734 -15.444  1.00  0.00     0.031 C 
ATOM     57  C   UNL     1       5.957 -10.426 -16.074  1.00  0.00     0.037 A 
BRANCH  44  58
ATOM     58  C   UNL     1      11.529  -9.102 -13.758  1.00  0.00     0.057 A 
ATOM     59  C   UNL     1      12.536  -9.990 -13.355  1.00  0.00     0.134 A 
ATOM     60  C   UNL     1      11.925  -7.942 -14.435  1.00  0.00     0.134 A 
ATOM     61  F   UNL     1      12.226 -11.114 -12.691  1.00  0.00    -0.206 F 
ATOM     62  C   UNL     1      13.886  -9.717 -13.586  1.00  0.00     0.040 A 
ATOM     63  C   UNL     1      13.269  -7.671 -14.695  1.00  0.00     0.040 A 
ATOM     64  F   UNL     1      11.011  -7.053 -14.855  1.00  0.00    -0.206 F 
ATOM     65  C   UNL     1      14.255  -8.556 -14.263  1.00  0.00     0.006 A 
ENDBRANCH  44  58
BRANCH  45  66
ATOM     66  C   UNL     1       1.918 -10.593 -11.574  1.00  0.00     0.057 A 
ATOM     67  C   UNL     1       1.348 -11.867 -11.663  1.00  0.00     0.134 A 
ATOM     68  C   UNL     1       1.093  -9.541 -11.160  1.00  0.00     0.134 A 
ATOM     69  F   UNL     1       2.085 -12.909 -12.072  1.00  0.00    -0.206 F 
ATOM     70  C   UNL     1       0.004 -12.088 -11.357  1.00  0.00     0.040 A 
ATOM     71  C   UNL     1      -0.247  -9.751 -10.832  1.00  0.00     0.040 A 
ATOM     72  F   UNL     1       1.583  -8.298 -11.050  1.00  0.00    -0.206 F 
ATOM     73  C   UNL     1      -0.796 -11.029 -10.934  1.00  0.00     0.006 A 
ENDBRANCH  45  66
BRANCH  57  74
ATOM     74  C   UNL     1       5.561 -10.647 -17.503  1.00  0.00     0.057 A 
ATOM     75  C   UNL     1       4.881  -9.665 -18.235  1.00  0.00     0.134 A 
ATOM     76  C   UNL     1       5.894 -11.835 -18.165  1.00  0.00     0.134 A 
ATOM     77  F   UNL     1       4.521  -8.511 -17.653  1.00  0.00    -0.206 F 
ATOM     78  C   UNL     1       4.533  -9.864 -19.571  1.00  0.00     0.040 A 
ATOM     79  C   UNL     1       5.570 -12.037 -19.507  1.00  0.00     0.040 A 
ATOM     80  F   UNL     1       6.550 -12.812 -17.521  1.00  0.00    -0.206 F 
ATOM     81  C   UNL     1       4.884 -11.051 -20.213  1.00  0.00     0.006 A 
ENDBRANCH  57  74
ENDBRANCH  31  32
ENDBRANCH  23  26
ENDBRANCH  21  22
ENDBRANCH  20  21
ENDBRANCH   1  20
TORSDOF 13
