REMARK SMILES CCCCCCCNC(=O)Oc1cccc(-c2ccc([C@@H](C)C(=O)NCCCNC(=O)c3ccc(-c4c5nc(c(-c6c(F)cccc6F)c6ccc([nH]6)c(-c6c(F)cccc6F)c6nc(c(-c7c(F)cccc7F)c7ccc4[nH]7)C=C6)C=C5)cc3)cc2F)c1
REMARK SMILES IDX 17 1 18 2 19 3 20 4 86 5 87 6 88 7 16 8 12 9 13 10 89 11
REMARK SMILES IDX 14 12 15 13 11 14 9 15 8 16 10 18 7 19 6 20 5 21 4 22 3 23
REMARK SMILES IDX 2 24 1 25 21 26 22 27 23 28 24 29 25 30 26 32 27 33 28 34
REMARK SMILES IDX 29 35 30 36 31 38 32 39 33 40 85 41 34 42 84 43 35 44 36 45
REMARK SMILES IDX 37 46 78 47 38 48 83 49 77 50 79 51 39 52 82 53 76 54 75 55
REMARK SMILES IDX 40 57 66 58 49 59 65 60 50 61 53 62 64 63 80 64 51 65 52 66
REMARK SMILES IDX 63 68 81 69 54 70 41 71 42 72 47 73 43 74 44 75 46 76 48 77
REMARK SMILES IDX 45 78 67 79 68 80 73 81 69 82 70 83 72 84 74 85 71 86 55 87
REMARK SMILES IDX 56 88 61 89 57 90 58 91 60 92 62 93 59 94
REMARK H PARENT 8 17 25 31 29 37 79 56 53 67
REMARK Flexibility Score: inf
ROOT
ATOM      1  C   UNL     1      -6.874   7.472  -6.542  1.00  0.00     0.018 A 
ATOM      2  C   UNL     1      -7.343   8.139  -7.687  1.00  0.00     0.012 A 
ATOM      3  C   UNL     1      -8.573   7.821  -8.277  1.00  0.00     0.005 A 
ATOM      4  C   UNL     1      -9.356   6.772  -7.791  1.00  0.00    -0.033 A 
ATOM      5  C   UNL     1      -8.911   6.113  -6.636  1.00  0.00     0.044 A 
ATOM      6  C   UNL     1      -7.708   6.472  -6.020  1.00  0.00     0.131 A 
ATOM      7  F   UNL     1      -7.374   5.822  -4.894  1.00  0.00    -0.206 F 
ENDROOT
BRANCH   1   8
ATOM      8  C   UNL     1      -5.557   7.811  -5.955  1.00  0.00    -0.012 A 
ATOM      9  C   UNL     1      -3.474   7.169  -4.872  1.00  0.00     0.133 A 
ATOM     10  C   UNL     1      -3.014   8.481  -4.891  1.00  0.00     0.047 A 
ATOM     11  C   UNL     1      -4.727   6.829  -5.388  1.00  0.00     0.056 A 
ATOM     12  C   UNL     1      -3.816   9.469  -5.447  1.00  0.00     0.004 A 
ATOM     13  C   UNL     1      -5.074   9.137  -5.963  1.00  0.00     0.009 A 
BRANCH   9  14
ATOM     14  O   UNL     1      -2.681   6.231  -4.196  1.00  0.00    -0.410 OA
BRANCH  14  15
ATOM     15  C   UNL     1      -2.301   5.086  -4.878  1.00  0.00     0.412 C 
ATOM     16  N   UNL     1      -1.554   4.237  -4.109  1.00  0.00    -0.321 N 
ATOM     17  H   UNL     1      -1.243   3.408  -4.540  1.00  0.00     0.167 HD
ATOM     18  O   UNL     1      -2.564   4.817  -6.043  1.00  0.00    -0.224 OA
BRANCH  16  19
ATOM     19  C   UNL     1      -1.173   4.433  -2.724  1.00  0.00     0.119 C 
BRANCH  19  20
ATOM     20  C   UNL     1      -1.668   3.297  -1.828  1.00  0.00     0.021 C 
BRANCH  20  21
ATOM     21  C   UNL     1      -1.072   1.921  -2.148  1.00  0.00     0.002 C 
BRANCH  21  22
ATOM     22  C   UNL     1       0.456   1.835  -2.068  1.00  0.00     0.000 C 
BRANCH  22  23
ATOM     23  C   UNL     1       1.057   2.161  -0.697  1.00  0.00    -0.000 C 
BRANCH  23  24
ATOM     24  C   UNL     1       0.602   1.254   0.449  1.00  0.00    -0.003 C 
ATOM     25  C   UNL     1       0.959  -0.210   0.237  1.00  0.00     0.004 C 
ENDBRANCH  23  24
ENDBRANCH  22  23
ENDBRANCH  21  22
ENDBRANCH  20  21
ENDBRANCH  19  20
ENDBRANCH  16  19
ENDBRANCH  14  15
ENDBRANCH   9  14
ENDBRANCH   1   8
BRANCH   4  26
ATOM     26  C   UNL     1     -10.629   6.303  -8.477  1.00  0.00     0.105 C 
ATOM     27  C   UNL     1     -11.592   7.406  -8.914  1.00  0.00     0.023 C 
BRANCH  26  28
ATOM     28  C   UNL     1     -10.386   5.212  -9.531  1.00  0.00     0.227 C 
ATOM     29  O   UNL     1     -10.647   4.032  -9.265  1.00  0.00    -0.274 OA
ATOM     30  N   UNL     1      -9.890   5.449 -10.776  1.00  0.00    -0.356 N 
ATOM     31  H   UNL     1      -9.848   4.648 -11.348  1.00  0.00     0.163 HD
BRANCH  30  32
ATOM     32  C   UNL     1      -9.412   6.656 -11.419  1.00  0.00     0.117 C 
BRANCH  32  33
ATOM     33  C   UNL     1      -7.890   6.768 -11.389  1.00  0.00     0.042 C 
BRANCH  33  34
ATOM     34  C   UNL     1      -7.188   5.952 -12.467  1.00  0.00     0.118 C 
BRANCH  34  35
ATOM     35  N   UNL     1      -7.399   6.502 -13.800  1.00  0.00    -0.352 N 
ATOM     36  C   UNL     1      -6.510   7.027 -14.705  1.00  0.00     0.251 C 
ATOM     37  H   UNL     1      -8.336   6.496 -14.102  1.00  0.00     0.163 HD
ATOM     38  O   UNL     1      -6.945   7.629 -15.684  1.00  0.00    -0.269 OA
BRANCH  36  39
ATOM     39  C   UNL     1      -5.046   6.894 -14.522  1.00  0.00     0.039 A 
ATOM     40  C   UNL     1      -4.221   7.951 -14.925  1.00  0.00     0.014 A 
ATOM     41  C   UNL     1      -4.470   5.723 -14.024  1.00  0.00     0.014 A 
ATOM     42  C   UNL     1      -2.835   7.853 -14.780  1.00  0.00     0.010 A 
ATOM     43  C   UNL     1      -3.095   5.657 -13.804  1.00  0.00     0.010 A 
ATOM     44  C   UNL     1      -2.261   6.716 -14.191  1.00  0.00    -0.014 A 
BRANCH  44  45
ATOM     45  C   UNL     1      -0.793   6.607 -13.990  1.00  0.00     0.031 A 
ATOM     46  C   UNL     1      -0.008   5.539 -14.703  1.00  0.00     0.074 A 
ATOM     47  C   UNL     1      -0.175   7.428 -13.119  1.00  0.00     0.049 A 
ATOM     48  N   UNL     1       1.260   5.232 -14.596  1.00  0.00    -0.248 NA
ATOM     49  C   UNL     1      -0.753   4.685 -15.642  1.00  0.00     0.031 C 
ATOM     50  C   UNL     1      -0.830   8.473 -12.331  1.00  0.00     0.029 A 
ATOM     51  N   UNL     1       1.142   7.502 -12.741  1.00  0.00    -0.354 N 
ATOM     52  C   UNL     1       1.459   4.143 -15.435  1.00  0.00     0.074 A 
ATOM     53  C   UNL     1       0.172   3.811 -16.007  1.00  0.00     0.031 C 
ATOM     54  C   UNL     1       0.089   9.094 -11.575  1.00  0.00     0.029 A 
ATOM     55  C   UNL     1       1.389   8.469 -11.796  1.00  0.00     0.049 A 
ATOM     56  H   UNL     1       1.843   6.918 -13.110  1.00  0.00     0.167 HD
ATOM     57  C   UNL     1       2.611   3.491 -15.720  1.00  0.00     0.037 A 
ATOM     58  C   UNL     1       2.533   8.807 -11.172  1.00  0.00     0.037 A 
ATOM     59  C   UNL     1       3.896   3.839 -15.171  1.00  0.00     0.049 A 
ATOM     60  C   UNL     1       3.800   8.073 -11.509  1.00  0.00     0.074 A 
ATOM     61  C   UNL     1       5.131   3.276 -15.440  1.00  0.00     0.029 A 
ATOM     62  N   UNL     1       4.109   4.844 -14.239  1.00  0.00    -0.354 N 
ATOM     63  N   UNL     1       3.984   7.084 -12.350  1.00  0.00    -0.248 NA
ATOM     64  C   UNL     1       5.022   8.507 -10.816  1.00  0.00     0.031 C 
ATOM     65  C   UNL     1       6.087   3.917 -14.644  1.00  0.00     0.029 A 
ATOM     66  C   UNL     1       5.453   4.907 -13.912  1.00  0.00     0.049 A 
ATOM     67  H   UNL     1       3.408   5.426 -13.866  1.00  0.00     0.167 HD
ATOM     68  C   UNL     1       5.341   6.793 -12.305  1.00  0.00     0.074 A 
ATOM     69  C   UNL     1       5.937   7.721 -11.366  1.00  0.00     0.031 C 
ATOM     70  C   UNL     1       6.031   5.842 -12.981  1.00  0.00     0.037 A 
BRANCH  57  71
ATOM     71  C   UNL     1       2.534   2.338 -16.679  1.00  0.00     0.057 A 
ATOM     72  C   UNL     1       2.291   2.530 -18.045  1.00  0.00     0.134 A 
ATOM     73  C   UNL     1       2.736   1.024 -16.238  1.00  0.00     0.134 A 
ATOM     74  F   UNL     1       2.079   3.762 -18.531  1.00  0.00    -0.206 F 
ATOM     75  C   UNL     1       2.222   1.455 -18.933  1.00  0.00     0.040 A 
ATOM     76  C   UNL     1       2.696  -0.057 -17.121  1.00  0.00     0.040 A 
ATOM     77  F   UNL     1       2.981   0.769 -14.944  1.00  0.00    -0.206 F 
ATOM     78  C   UNL     1       2.431   0.157 -18.472  1.00  0.00     0.006 A 
ENDBRANCH  57  71
BRANCH  58  79
ATOM     79  C   UNL     1       2.537   9.910 -10.179  1.00  0.00     0.057 A 
ATOM     80  C   UNL     1       3.148  11.136 -10.464  1.00  0.00     0.134 A 
ATOM     81  C   UNL     1       1.932   9.767  -8.924  1.00  0.00     0.134 A 
ATOM     82  F   UNL     1       3.761  11.326 -11.642  1.00  0.00    -0.206 F 
ATOM     83  C   UNL     1       3.174  12.175  -9.533  1.00  0.00     0.040 A 
ATOM     84  C   UNL     1       1.929  10.806  -7.992  1.00  0.00     0.040 A 
ATOM     85  F   UNL     1       1.324   8.619  -8.592  1.00  0.00    -0.206 F 
ATOM     86  C   UNL     1       2.558  12.012  -8.293  1.00  0.00     0.006 A 
ENDBRANCH  58  79
BRANCH  70  87
ATOM     87  C   UNL     1       7.512   5.780 -12.754  1.00  0.00     0.057 A 
ATOM     88  C   UNL     1       8.057   5.279 -11.565  1.00  0.00     0.134 A 
ATOM     89  C   UNL     1       8.403   6.192 -13.753  1.00  0.00     0.134 A 
ATOM     90  F   UNL     1       7.257   4.881 -10.565  1.00  0.00    -0.206 F 
ATOM     91  C   UNL     1       9.438   5.208 -11.370  1.00  0.00     0.040 A 
ATOM     92  C   UNL     1       9.785   6.104 -13.579  1.00  0.00     0.040 A 
ATOM     93  F   UNL     1       7.945   6.675 -14.918  1.00  0.00    -0.206 F 
ATOM     94  C   UNL     1      10.305   5.616 -12.382  1.00  0.00     0.006 A 
ENDBRANCH  70  87
ENDBRANCH  44  45
ENDBRANCH  36  39
ENDBRANCH  34  35
ENDBRANCH  33  34
ENDBRANCH  32  33
ENDBRANCH  30  32
ENDBRANCH  26  28
ENDBRANCH   4  26
TORSDOF 20
