REMARK SMILES CCc1cc(OC(F)(F)F)cc2c1O[C@H](C(F)(F)F)C(C(=O)NCCCNC(=O)c1ccc(-c3c4nc(c(-c5c(F)cccc5F)c5ccc([nH]5)c(-c5c(F)cccc5F)c5nc(c(-c6c(F)cccc6F)c6ccc3[nH]6)C=C5)C=C4)cc1)=C2
REMARK SMILES IDX 25 1 24 2 23 3 21 4 22 5 20 7 3 8 4 9 13 10 5 11 12 12 14 13
REMARK SMILES IDX 11 14 84 15 15 16 2 17 1 18 6 19 7 20 8 21 9 22 10 23 16 24
REMARK SMILES IDX 17 25 18 26 19 27 26 28 27 29 28 30 29 32 30 33 31 34 83 35
REMARK SMILES IDX 32 36 82 37 33 38 34 39 35 40 76 41 36 42 81 43 75 44 77 45
REMARK SMILES IDX 37 46 80 47 74 48 73 49 38 51 64 52 47 53 63 54 48 55 51 56
REMARK SMILES IDX 62 57 78 58 49 59 50 60 61 62 79 63 52 64 39 65 40 66 45 67
REMARK SMILES IDX 41 68 42 69 44 70 46 71 43 72 65 73 66 74 71 75 67 76 68 77
REMARK SMILES IDX 70 78 72 79 69 80 53 81 54 82 59 83 55 84 56 85 58 86 60 87
REMARK SMILES IDX 57 88
REMARK H PARENT 23 6 27 31 77 50 51 61
REMARK Flexibility Score: inf
ROOT
ATOM      1  C   UNL     1       0.095   8.348   2.669  1.00  0.00     0.042 C 
ENDROOT
BRANCH   1   2
ATOM      2  C   UNL     1      -1.138   7.476   2.434  1.00  0.00     0.118 C 
BRANCH   2   3
ATOM      3  N   UNL     1      -1.309   7.179   1.024  1.00  0.00    -0.352 N 
ATOM      4  C   UNL     1      -0.937   6.131   0.249  1.00  0.00     0.251 C 
ATOM      5  O   UNL     1      -1.303   6.144  -0.926  1.00  0.00    -0.270 OA
ATOM      6  H   UNL     1      -1.792   7.881   0.530  1.00  0.00     0.163 HD
BRANCH   4   7
ATOM      7  C   UNL     1      -0.215   4.938   0.772  1.00  0.00     0.067 C 
ATOM      8  C   UNL     1       1.033   1.165   2.129  1.00  0.00    -0.002 A 
ATOM      9  C   UNL     1       1.919   1.094   3.221  1.00  0.00     0.054 A 
ATOM     10  C   UNL     1       0.609   2.424   1.680  1.00  0.00     0.131 A 
ATOM     11  C   UNL     1       2.367   2.255   3.857  1.00  0.00     0.130 A 
ATOM     12  C   UNL     1       1.069   3.591   2.296  1.00  0.00     0.021 A 
ATOM     13  O   UNL     1      -0.317   2.463   0.669  1.00  0.00    -0.475 OA
ATOM     14  C   UNL     1       1.944   3.499   3.383  1.00  0.00     0.058 A 
ATOM     15  C   UNL     1       0.556   4.888   1.866  1.00  0.00     0.025 C 
ATOM     16  C   UNL     1      -0.376   3.699  -0.095  1.00  0.00     0.314 C 
BRANCH   8  17
ATOM     17  C   UNL     1       0.565  -0.108   1.463  1.00  0.00     0.036 C 
ATOM     18  C   UNL     1       1.174  -0.302   0.081  1.00  0.00     0.009 C 
ENDBRANCH   8  17
BRANCH  11  19
ATOM     19  O   UNL     1       3.195   2.323   4.941  1.00  0.00    -0.406 OA
BRANCH  19  20
ATOM     20  C   UNL     1       3.639   1.108   5.518  1.00  0.00     0.573 C 
ATOM     21  F   UNL     1       2.599   0.357   5.939  1.00  0.00    -0.132 F 
ATOM     22  F   UNL     1       4.383   0.400   4.643  1.00  0.00    -0.132 F 
ATOM     23  F   UNL     1       4.409   1.396   6.591  1.00  0.00    -0.132 F 
ENDBRANCH  19  20
ENDBRANCH  11  19
BRANCH  16  24
ATOM     24  C   UNL     1       0.633   3.649  -1.262  1.00  0.00     0.429 C 
ATOM     25  F   UNL     1       0.385   2.586  -2.068  1.00  0.00    -0.167 F 
ATOM     26  F   UNL     1       0.601   4.747  -2.048  1.00  0.00    -0.167 F 
ATOM     27  F   UNL     1       1.910   3.522  -0.824  1.00  0.00    -0.167 F 
ENDBRANCH  16  24
ENDBRANCH   4   7
ENDBRANCH   2   3
ENDBRANCH   1   2
BRANCH   1  28
ATOM     28  C   UNL     1      -0.116   9.805   2.265  1.00  0.00     0.118 C 
BRANCH  28  29
ATOM     29  N   UNL     1      -1.033  10.487   3.167  1.00  0.00    -0.352 N 
ATOM     30  C   UNL     1      -0.846  11.611   3.929  1.00  0.00     0.251 C 
ATOM     31  H   UNL     1      -1.926  10.078   3.240  1.00  0.00     0.163 HD
ATOM     32  O   UNL     1      -1.663  11.892   4.801  1.00  0.00    -0.269 OA
BRANCH  30  33
ATOM     33  C   UNL     1       0.330  12.483   3.717  1.00  0.00     0.039 A 
ATOM     34  C   UNL     1       0.963  13.039   4.833  1.00  0.00     0.014 A 
ATOM     35  C   UNL     1       0.771  12.805   2.430  1.00  0.00     0.014 A 
ATOM     36  C   UNL     1       2.063  13.882   4.661  1.00  0.00     0.010 A 
ATOM     37  C   UNL     1       1.907  13.594   2.262  1.00  0.00     0.010 A 
ATOM     38  C   UNL     1       2.558  14.148   3.374  1.00  0.00    -0.014 A 
BRANCH  38  39
ATOM     39  C   UNL     1       3.740  15.021   3.170  1.00  0.00     0.031 A 
ATOM     40  C   UNL     1       3.590  16.338   2.461  1.00  0.00     0.074 A 
ATOM     41  C   UNL     1       4.955  14.604   3.576  1.00  0.00     0.049 A 
ATOM     42  N   UNL     1       4.511  17.198   2.109  1.00  0.00    -0.248 NA
ATOM     43  C   UNL     1       2.224  16.731   2.077  1.00  0.00     0.031 C 
ATOM     44  C   UNL     1       5.233  13.335   4.251  1.00  0.00     0.029 A 
ATOM     45  N   UNL     1       6.185  15.201   3.470  1.00  0.00    -0.354 N 
ATOM     46  C   UNL     1       3.841  18.224   1.455  1.00  0.00     0.074 A 
ATOM     47  C   UNL     1       2.442  17.857   1.414  1.00  0.00     0.031 C 
ATOM     48  C   UNL     1       6.548  13.259   4.516  1.00  0.00     0.029 A 
ATOM     49  C   UNL     1       7.208  14.451   3.997  1.00  0.00     0.049 A 
ATOM     50  H   UNL     1       6.322  16.084   3.055  1.00  0.00     0.167 HD
ATOM     51  C   UNL     1       4.341  19.378   0.953  1.00  0.00     0.037 A 
ATOM     52  C   UNL     1       8.531  14.697   4.047  1.00  0.00     0.037 A 
ATOM     53  C   UNL     1       5.730  19.752   1.013  1.00  0.00     0.049 A 
ATOM     54  C   UNL     1       9.063  15.976   3.463  1.00  0.00     0.074 A 
ATOM     55  C   UNL     1       6.333  20.912   0.559  1.00  0.00     0.029 A 
ATOM     56  N   UNL     1       6.732  18.971   1.567  1.00  0.00    -0.354 N 
ATOM     57  N   UNL     1       8.412  16.954   2.882  1.00  0.00    -0.248 NA
ATOM     58  C   UNL     1      10.515  16.187   3.546  1.00  0.00     0.031 C 
ATOM     59  C   UNL     1       7.705  20.820   0.813  1.00  0.00     0.029 A 
ATOM     60  C   UNL     1       7.951  19.620   1.459  1.00  0.00     0.049 A 
ATOM     61  H   UNL     1       6.598  18.085   1.976  1.00  0.00     0.167 HD
ATOM     62  C   UNL     1       9.367  17.909   2.561  1.00  0.00     0.074 A 
ATOM     63  C   UNL     1      10.642  17.397   3.020  1.00  0.00     0.031 C 
ATOM     64  C   UNL     1       9.205  19.102   1.940  1.00  0.00     0.037 A 
BRANCH  51  65
ATOM     65  C   UNL     1       3.376  20.327   0.306  1.00  0.00     0.057 A 
ATOM     66  C   UNL     1       2.449  21.060   1.060  1.00  0.00     0.134 A 
ATOM     67  C   UNL     1       3.394  20.539  -1.078  1.00  0.00     0.134 A 
ATOM     68  F   UNL     1       2.372  20.893   2.389  1.00  0.00    -0.206 F 
ATOM     69  C   UNL     1       1.560  21.952   0.459  1.00  0.00     0.040 A 
ATOM     70  C   UNL     1       2.526  21.448  -1.688  1.00  0.00     0.040 A 
ATOM     71  F   UNL     1       4.259  19.875  -1.859  1.00  0.00    -0.206 F 
ATOM     72  C   UNL     1       1.603  22.153  -0.920  1.00  0.00     0.006 A 
ENDBRANCH  51  65
BRANCH  52  73
ATOM     73  C   UNL     1       9.448  13.723   4.691  1.00  0.00     0.057 A 
ATOM     74  C   UNL     1      10.078  14.024   5.904  1.00  0.00     0.134 A 
ATOM     75  C   UNL     1       9.736  12.486   4.104  1.00  0.00     0.134 A 
ATOM     76  F   UNL     1       9.856  15.202   6.505  1.00  0.00    -0.206 F 
ATOM     77  C   UNL     1      10.979  13.140   6.500  1.00  0.00     0.040 A 
ATOM     78  C   UNL     1      10.616  11.582   4.700  1.00  0.00     0.040 A 
ATOM     79  F   UNL     1       9.159  12.136   2.945  1.00  0.00    -0.206 F 
ATOM     80  C   UNL     1      11.248  11.913   5.897  1.00  0.00     0.006 A 
ENDBRANCH  52  73
BRANCH  64  81
ATOM     81  C   UNL     1      10.427  19.954   1.767  1.00  0.00     0.057 A 
ATOM     82  C   UNL     1      11.414  19.648   0.822  1.00  0.00     0.134 A 
ATOM     83  C   UNL     1      10.598  21.114   2.533  1.00  0.00     0.134 A 
ATOM     84  F   UNL     1      11.314  18.544   0.068  1.00  0.00    -0.206 F 
ATOM     85  C   UNL     1      12.541  20.456   0.660  1.00  0.00     0.040 A 
ATOM     86  C   UNL     1      11.708  21.942   2.364  1.00  0.00     0.040 A 
ATOM     87  F   UNL     1       9.685  21.466   3.450  1.00  0.00    -0.206 F 
ATOM     88  C   UNL     1      12.686  21.610   1.428  1.00  0.00     0.006 A 
ENDBRANCH  64  81
ENDBRANCH  38  39
ENDBRANCH  30  33
ENDBRANCH  28  29
ENDBRANCH   1  28
TORSDOF 14
