REMARK SMILES CCN1C(=O)/C(=C2/SC(=S)N([C@@H](C)C(=O)NCCCNC(=O)c3ccc(-c4c5nc(c(-c6c(F)cccc6F)c6ccc([nH]6)c(-c6c(F)cccc6F)c6nc(c(-c7c(F)cccc7F)c7ccc4[nH]7)C=C6)C=C5)cc3)C2=O)c2cc(Br)ccc21
REMARK SMILES IDX 18 1 17 2 16 3 14 4 15 5 12 7 13 8 11 9 3 10 4 11 85 12 5 13
REMARK SMILES IDX 6 14 79 15 84 16 7 17 80 18 83 19 8 20 77 21 81 22 9 23
REMARK SMILES IDX 78 24 82 25 10 26 2 27 1 28 19 29 20 30 21 31 22 33 23 34
REMARK SMILES IDX 24 35 76 36 25 37 75 38 26 39 27 40 28 41 69 42 29 43 74 44
REMARK SMILES IDX 68 45 70 46 30 47 73 48 67 49 66 50 31 52 57 53 40 54 56 55
REMARK SMILES IDX 41 56 44 57 55 58 71 59 42 60 43 61 54 63 72 64 45 65 32 66
REMARK SMILES IDX 33 67 38 68 34 69 35 70 37 71 39 72 36 73 58 74 59 75 64 76
REMARK SMILES IDX 60 77 61 78 63 79 65 80 62 81 46 82 47 83 52 84 48 85 49 86
REMARK SMILES IDX 51 87 53 88 50 89
REMARK H PARENT 16 6 20 32 70 51 44 62
REMARK Flexibility Score: inf
ROOT
ATOM      1  C   UNL     1       3.564  -6.372   8.859  1.00  0.00     0.042 C 
ENDROOT
BRANCH   1   2
ATOM      2  C   UNL     1       3.613  -7.759   8.222  1.00  0.00     0.117 C 
BRANCH   2   3
ATOM      3  N   UNL     1       2.305  -8.181   7.752  1.00  0.00    -0.354 N 
ATOM      4  C   UNL     1       1.731  -8.281   6.522  1.00  0.00     0.242 C 
ATOM      5  O   UNL     1       0.556  -8.670   6.527  1.00  0.00    -0.273 OA
ATOM      6  H   UNL     1       1.703  -8.455   8.481  1.00  0.00     0.163 HD
BRANCH   4   7
ATOM      7  C   UNL     1       2.430  -7.954   5.173  1.00  0.00     0.178 C 
ATOM      8  C   UNL     1       3.607  -8.878   4.884  1.00  0.00     0.042 C 
BRANCH   7   9
ATOM      9  N   UNL     1       2.622  -6.499   4.993  1.00  0.00    -0.280 N 
ATOM     10  N   UNL     1       0.960  -1.961   2.011  1.00  0.00    -0.308 N 
ATOM     11  C   UNL     1       0.846  -3.277   2.523  1.00  0.00     0.260 C 
ATOM     12  C   UNL     1       1.480  -1.084   2.987  1.00  0.00     0.052 A 
ATOM     13  O   UNL     1       0.469  -4.263   1.930  1.00  0.00    -0.269 OA
ATOM     14  C   UNL     1       1.433  -3.214   3.908  1.00  0.00     0.069 C 
ATOM     15  C   UNL     1       1.736  -1.796   4.164  1.00  0.00     0.014 A 
ATOM     16  C   UNL     1       1.756   0.275   2.932  1.00  0.00     0.028 A 
ATOM     17  C   UNL     1       1.846  -4.277   4.619  1.00  0.00     0.093 C 
ATOM     18  C   UNL     1       2.176  -1.150   5.311  1.00  0.00     0.026 A 
ATOM     19  C   UNL     1       2.301   0.910   4.056  1.00  0.00     0.018 A 
ATOM     20  S   UNL     1       3.095  -4.161   5.820  1.00  0.00    -0.053 SA
ATOM     21  C   UNL     1       1.568  -5.744   4.456  1.00  0.00     0.267 C 
ATOM     22  C   UNL     1       2.505   0.194   5.233  1.00  0.00     0.018 A 
ATOM     23  C   UNL     1       3.689  -5.746   5.402  1.00  0.00     0.149 C 
ATOM     24  O   UNL     1       0.526  -6.191   4.005  1.00  0.00    -0.268 OA
ATOM     25  Br  UNL     1       3.297   1.010   6.732  1.00  0.00    -0.051 Br
ATOM     26  S   UNL     1       5.320  -6.074   5.425  1.00  0.00    -0.052 S 
BRANCH  10  27
ATOM     27  C   UNL     1       0.533  -1.679   0.655  1.00  0.00     0.122 C 
ATOM     28  C   UNL     1       0.976  -0.394  -0.025  1.00  0.00     0.028 C 
ENDBRANCH  10  27
ENDBRANCH   7   9
ENDBRANCH   4   7
ENDBRANCH   2   3
ENDBRANCH   1   2
BRANCH   1  29
ATOM     29  C   UNL     1       3.152  -6.384  10.328  1.00  0.00     0.118 C 
BRANCH  29  30
ATOM     30  N   UNL     1       4.248  -6.751  11.215  1.00  0.00    -0.352 N 
ATOM     31  C   UNL     1       4.980  -6.010  12.115  1.00  0.00     0.251 C 
ATOM     32  H   UNL     1       4.512  -7.698  11.161  1.00  0.00     0.163 HD
ATOM     33  O   UNL     1       5.983  -6.514  12.617  1.00  0.00    -0.269 OA
BRANCH  31  34
ATOM     34  C   UNL     1       4.608  -4.619  12.477  1.00  0.00     0.039 A 
ATOM     35  C   UNL     1       3.280  -4.224  12.621  1.00  0.00     0.014 A 
ATOM     36  C   UNL     1       5.626  -3.693  12.743  1.00  0.00     0.014 A 
ATOM     37  C   UNL     1       2.967  -2.885  12.851  1.00  0.00     0.010 A 
ATOM     38  C   UNL     1       5.311  -2.368  13.077  1.00  0.00     0.010 A 
ATOM     39  C   UNL     1       3.976  -1.938  13.091  1.00  0.00    -0.014 A 
BRANCH  39  40
ATOM     40  C   UNL     1       3.604  -0.523  13.378  1.00  0.00     0.031 A 
ATOM     41  C   UNL     1       4.050   0.599  12.473  1.00  0.00     0.074 A 
ATOM     42  C   UNL     1       2.820  -0.246  14.440  1.00  0.00     0.049 A 
ATOM     43  N   UNL     1       3.811   1.885  12.574  1.00  0.00    -0.248 NA
ATOM     44  C   UNL     1       4.877   0.238  11.311  1.00  0.00     0.031 C 
ATOM     45  C   UNL     1       2.329  -1.230  15.408  1.00  0.00     0.029 A 
ATOM     46  N   UNL     1       2.276   0.939  14.871  1.00  0.00    -0.354 N 
ATOM     47  C   UNL     1       4.477   2.485  11.512  1.00  0.00     0.074 A 
ATOM     48  C   UNL     1       5.145   1.426  10.785  1.00  0.00     0.031 C 
ATOM     49  C   UNL     1       1.515  -0.620  16.284  1.00  0.00     0.029 A 
ATOM     50  C   UNL     1       1.474   0.806  15.980  1.00  0.00     0.049 A 
ATOM     51  H   UNL     1       2.445   1.802  14.429  1.00  0.00     0.167 HD
ATOM     52  C   UNL     1       4.516   3.794  11.163  1.00  0.00     0.037 A 
ATOM     53  C   UNL     1       0.792   1.727  16.685  1.00  0.00     0.037 A 
ATOM     54  C   UNL     1       3.804   4.844  11.838  1.00  0.00     0.049 A 
ATOM     55  C   UNL     1       0.854   3.169  16.267  1.00  0.00     0.074 A 
ATOM     56  C   UNL     1       3.740   6.188  11.511  1.00  0.00     0.029 A 
ATOM     57  N   UNL     1       3.020   4.667  12.964  1.00  0.00    -0.354 N 
ATOM     58  N   UNL     1       1.467   3.707  15.242  1.00  0.00    -0.248 NA
ATOM     59  C   UNL     1       0.135   4.133  17.112  1.00  0.00     0.031 C 
ATOM     60  C   UNL     1       2.938   6.830  12.459  1.00  0.00     0.029 A 
ATOM     61  C   UNL     1       2.480   5.880  13.357  1.00  0.00     0.049 A 
ATOM     62  H   UNL     1       2.868   3.807  13.419  1.00  0.00     0.167 HD
ATOM     63  C   UNL     1       1.194   5.067  15.309  1.00  0.00     0.074 A 
ATOM     64  C   UNL     1       0.339   5.267  16.460  1.00  0.00     0.031 C 
ATOM     65  C   UNL     1       1.621   6.063  14.496  1.00  0.00     0.037 A 
BRANCH  52  66
ATOM     66  C   UNL     1       5.341   4.169   9.971  1.00  0.00     0.057 A 
ATOM     67  C   UNL     1       6.585   4.794  10.111  1.00  0.00     0.134 A 
ATOM     68  C   UNL     1       4.865   3.961   8.674  1.00  0.00     0.134 A 
ATOM     69  F   UNL     1       7.077   5.065  11.329  1.00  0.00    -0.206 F 
ATOM     70  C   UNL     1       7.338   5.171   8.998  1.00  0.00     0.040 A 
ATOM     71  C   UNL     1       5.623   4.296   7.552  1.00  0.00     0.040 A 
ATOM     72  F   UNL     1       3.648   3.433   8.489  1.00  0.00    -0.206 F 
ATOM     73  C   UNL     1       6.865   4.907   7.713  1.00  0.00     0.006 A 
ENDBRANCH  52  66
BRANCH  53  74
ATOM     74  C   UNL     1      -0.001   1.325  17.875  1.00  0.00     0.057 A 
ATOM     75  C   UNL     1       0.621   0.881  19.048  1.00  0.00     0.134 A 
ATOM     76  C   UNL     1      -1.398   1.409  17.877  1.00  0.00     0.134 A 
ATOM     77  F   UNL     1       1.957   0.775  19.108  1.00  0.00    -0.206 F 
ATOM     78  C   UNL     1      -0.116   0.532  20.179  1.00  0.00     0.040 A 
ATOM     79  C   UNL     1      -2.147   1.091  19.012  1.00  0.00     0.040 A 
ATOM     80  F   UNL     1      -2.050   1.849  16.791  1.00  0.00    -0.206 F 
ATOM     81  C   UNL     1      -1.505   0.648  20.166  1.00  0.00     0.006 A 
ENDBRANCH  53  74
BRANCH  65  82
ATOM     82  C   UNL     1       1.145   7.449  14.809  1.00  0.00     0.057 A 
ATOM     83  C   UNL     1       0.193   8.077  13.997  1.00  0.00     0.134 A 
ATOM     84  C   UNL     1       1.641   8.166  15.904  1.00  0.00     0.134 A 
ATOM     85  F   UNL     1      -0.315   7.446  12.928  1.00  0.00    -0.206 F 
ATOM     86  C   UNL     1      -0.252   9.372  14.266  1.00  0.00     0.040 A 
ATOM     87  C   UNL     1       1.186   9.452  16.197  1.00  0.00     0.040 A 
ATOM     88  F   UNL     1       2.545   7.613  16.727  1.00  0.00    -0.206 F 
ATOM     89  C   UNL     1       0.240  10.060  15.374  1.00  0.00     0.006 A 
ENDBRANCH  65  82
ENDBRANCH  39  40
ENDBRANCH  31  34
ENDBRANCH  29  30
ENDBRANCH   1  29
TORSDOF 12
