REMARK SMILES Cc1ccc(-c2nc(NC(=O)[C@H]3[C@@H](C(=O)NCCCNC(=O)c4ccc(-c5c6nc(c(-c7c(F)cccc7F)c7ccc([nH]7)c(-c7c(F)cccc7F)c7nc(c(-c8c(F)cccc8F)c8ccc5[nH]8)C=C7)C=C6)cc4)[C@@H]4CC[C@H]3O4)sc2C)cc1
REMARK SMILES IDX 17 1 16 2 14 3 15 4 13 6 12 7 80 8 77 9 79 10 81 11 78 12
REMARK SMILES IDX 10 13 9 14 11 16 8 17 6 18 7 19 83 20 82 21 84 22 5 23 1 24
REMARK SMILES IDX 2 25 3 26 86 27 4 28 85 29 18 30 19 31 20 32 21 33 22 35
REMARK SMILES IDX 23 36 24 37 76 38 25 39 75 40 26 41 27 42 28 43 69 44 29 45
REMARK SMILES IDX 74 46 68 47 70 48 30 49 73 50 67 51 66 52 31 54 57 55 40 56
REMARK SMILES IDX 56 57 41 58 44 59 55 60 71 61 42 62 43 63 54 65 72 66 45 67
REMARK SMILES IDX 32 68 33 69 38 70 34 71 35 72 37 73 39 74 36 75 58 76 59 77
REMARK SMILES IDX 64 78 60 79 61 80 63 81 65 82 62 83 46 84 47 85 52 86 48 87
REMARK SMILES IDX 49 88 51 89 53 90 50 91
REMARK H PARENT 16 5 9 15 20 34 70 53 44 64
REMARK Flexibility Score: inf
ROOT
ATOM      1  C   UNL     1      -6.764  -0.624   2.380  1.00  0.00     0.117 C 
ENDROOT
BRANCH   1   2
ATOM      2  N   UNL     1      -7.569   0.565   2.163  1.00  0.00    -0.356 N 
ATOM      3  C   UNL     1      -8.864   0.552   1.732  1.00  0.00     0.226 C 
ATOM      4  O   UNL     1      -9.709   1.046   2.480  1.00  0.00    -0.275 OA
ATOM      5  H   UNL     1      -7.153   1.440   2.338  1.00  0.00     0.163 HD
BRANCH   3   6
ATOM      6  C   UNL     1      -9.231  -0.185   0.464  1.00  0.00     0.122 C 
ATOM      7  C   UNL     1      -8.564  -0.031  -0.917  1.00  0.00     0.123 C 
ATOM      8  C   UNL     1      -9.762  -0.367  -1.823  1.00  0.00     0.132 C 
ATOM      9  C   UNL     1     -10.740  -0.054   0.089  1.00  0.00     0.132 C 
ATOM     10  C   UNL     1     -10.379  -1.750  -1.487  1.00  0.00     0.035 C 
ATOM     11  O   UNL     1     -10.724   0.531  -1.244  1.00  0.00    -0.373 OA
ATOM     12  C   UNL     1     -11.274  -1.429  -0.284  1.00  0.00     0.035 C 
BRANCH   7  13
ATOM     13  C   UNL     1      -7.717   1.063  -1.623  1.00  0.00     0.232 C 
ATOM     14  N   UNL     1      -7.673   2.411  -1.594  1.00  0.00    -0.302 N 
ATOM     15  H   UNL     1      -7.101   2.767  -2.313  1.00  0.00     0.172 HD
ATOM     16  O   UNL     1      -6.919   0.599  -2.473  1.00  0.00    -0.274 OA
BRANCH  14  17
ATOM     17  C   UNL     1      -8.206   3.417  -0.839  1.00  0.00     0.190 A 
ATOM     18  C   UNL     1      -8.448   5.425   0.108  1.00  0.00     0.086 A 
ATOM     19  N   UNL     1      -7.815   4.678  -0.903  1.00  0.00    -0.220 NA
ATOM     20  C   UNL     1      -9.367   4.690   0.846  1.00  0.00     0.031 A 
ATOM     21  S   UNL     1      -9.434   3.107   0.240  1.00  0.00    -0.101 S 
ATOM     22  C   UNL     1     -10.271   5.014   1.981  1.00  0.00     0.059 C 
BRANCH  18  23
ATOM     23  C   UNL     1      -8.182   6.849   0.366  1.00  0.00     0.001 A 
ATOM     24  C   UNL     1      -7.932  11.091   1.276  1.00  0.00     0.044 C 
ATOM     25  C   UNL     1      -7.984   9.624   0.955  1.00  0.00    -0.051 A 
ATOM     26  C   UNL     1      -7.983   9.167  -0.371  1.00  0.00     0.004 A 
ATOM     27  C   UNL     1      -8.024   8.683   1.982  1.00  0.00     0.004 A 
ATOM     28  C   UNL     1      -8.082   7.791  -0.665  1.00  0.00     0.010 A 
ATOM     29  C   UNL     1      -8.099   7.318   1.688  1.00  0.00     0.010 A 
ENDBRANCH  18  23
ENDBRANCH  14  17
ENDBRANCH   7  13
ENDBRANCH   3   6
ENDBRANCH   1   2
BRANCH   1  30
ATOM     30  C   UNL     1      -5.918  -1.070   1.207  1.00  0.00     0.042 C 
BRANCH  30  31
ATOM     31  C   UNL     1      -4.938  -0.025   0.700  1.00  0.00     0.118 C 
BRANCH  31  32
ATOM     32  N   UNL     1      -3.692  -0.094   1.434  1.00  0.00    -0.352 N 
ATOM     33  C   UNL     1      -2.373   0.120   1.079  1.00  0.00     0.251 C 
ATOM     34  H   UNL     1      -3.808  -0.344   2.380  1.00  0.00     0.163 HD
ATOM     35  O   UNL     1      -1.519  -0.253   1.841  1.00  0.00    -0.269 OA
BRANCH  33  36
ATOM     36  C   UNL     1      -2.006   0.956  -0.104  1.00  0.00     0.039 A 
ATOM     37  C   UNL     1      -0.808   1.683   0.023  1.00  0.00     0.014 A 
ATOM     38  C   UNL     1      -2.829   1.196  -1.199  1.00  0.00     0.014 A 
ATOM     39  C   UNL     1      -0.566   2.786  -0.790  1.00  0.00     0.010 A 
ATOM     40  C   UNL     1      -2.619   2.314  -1.981  1.00  0.00     0.010 A 
ATOM     41  C   UNL     1      -1.536   3.150  -1.716  1.00  0.00    -0.014 A 
BRANCH  41  42
ATOM     42  C   UNL     1      -1.574   4.441  -2.376  1.00  0.00     0.031 A 
ATOM     43  C   UNL     1      -1.004   4.615  -3.720  1.00  0.00     0.074 A 
ATOM     44  C   UNL     1      -2.250   5.439  -1.770  1.00  0.00     0.049 A 
ATOM     45  N   UNL     1      -0.667   5.750  -4.226  1.00  0.00    -0.248 NA
ATOM     46  C   UNL     1      -0.715   3.485  -4.589  1.00  0.00     0.031 C 
ATOM     47  C   UNL     1      -2.681   6.707  -2.347  1.00  0.00     0.029 A 
ATOM     48  N   UNL     1      -2.502   5.573  -0.397  1.00  0.00    -0.354 N 
ATOM     49  C   UNL     1      -0.398   5.551  -5.562  1.00  0.00     0.074 A 
ATOM     50  C   UNL     1      -0.340   4.115  -5.707  1.00  0.00     0.031 C 
ATOM     51  C   UNL     1      -2.863   7.590  -1.351  1.00  0.00     0.029 A 
ATOM     52  C   UNL     1      -2.396   6.954  -0.130  1.00  0.00     0.049 A 
ATOM     53  H   UNL     1      -2.708   4.855   0.245  1.00  0.00     0.167 HD
ATOM     54  C   UNL     1      -0.404   6.631  -6.399  1.00  0.00     0.037 A 
ATOM     55  C   UNL     1      -1.403   7.443   0.669  1.00  0.00     0.037 A 
ATOM     56  C   UNL     1      -0.553   7.874  -5.633  1.00  0.00     0.049 A 
ATOM     57  C   UNL     1      -0.512   8.451  -0.016  1.00  0.00     0.074 A 
ATOM     58  C   UNL     1      -1.642   8.690  -5.369  1.00  0.00     0.029 A 
ATOM     59  N   UNL     1       0.453   8.268  -4.756  1.00  0.00    -0.354 N 
ATOM     60  N   UNL     1      -0.368   8.539  -1.309  1.00  0.00    -0.248 NA
ATOM     61  C   UNL     1       0.293   9.433   0.704  1.00  0.00     0.031 C 
ATOM     62  C   UNL     1      -1.304   9.540  -4.286  1.00  0.00     0.029 A 
ATOM     63  C   UNL     1      -0.002   9.259  -3.908  1.00  0.00     0.049 A 
ATOM     64  H   UNL     1       1.363   7.893  -4.742  1.00  0.00     0.167 HD
ATOM     65  C   UNL     1       0.518   9.543  -1.605  1.00  0.00     0.074 A 
ATOM     66  C   UNL     1       0.889  10.084  -0.310  1.00  0.00     0.031 C 
ATOM     67  C   UNL     1       0.870   9.835  -2.893  1.00  0.00     0.037 A 
BRANCH  54  68
ATOM     68  C   UNL     1      -0.582   6.568  -7.909  1.00  0.00     0.057 A 
ATOM     69  C   UNL     1      -1.080   7.682  -8.620  1.00  0.00     0.134 A 
ATOM     70  C   UNL     1      -0.364   5.439  -8.719  1.00  0.00     0.134 A 
ATOM     71  F   UNL     1      -1.239   8.878  -8.038  1.00  0.00    -0.206 F 
ATOM     72  C   UNL     1      -1.441   7.635  -9.975  1.00  0.00     0.040 A 
ATOM     73  C   UNL     1      -0.755   5.364 -10.065  1.00  0.00     0.040 A 
ATOM     74  F   UNL     1       0.300   4.367  -8.281  1.00  0.00    -0.206 F 
ATOM     75  C   UNL     1      -1.314   6.461 -10.696  1.00  0.00     0.006 A 
ENDBRANCH  54  68
BRANCH  55  76
ATOM     76  C   UNL     1      -0.959   6.483   1.714  1.00  0.00     0.057 A 
ATOM     77  C   UNL     1      -1.874   6.103   2.712  1.00  0.00     0.134 A 
ATOM     78  C   UNL     1       0.163   5.668   1.538  1.00  0.00     0.134 A 
ATOM     79  F   UNL     1      -2.973   6.842   2.937  1.00  0.00    -0.206 F 
ATOM     80  C   UNL     1      -1.742   4.905   3.420  1.00  0.00     0.040 A 
ATOM     81  C   UNL     1       0.313   4.473   2.252  1.00  0.00     0.040 A 
ATOM     82  F   UNL     1       1.075   5.955   0.597  1.00  0.00    -0.206 F 
ATOM     83  C   UNL     1      -0.660   4.069   3.165  1.00  0.00     0.006 A 
ENDBRANCH  55  76
BRANCH  67  84
ATOM     84  C   UNL     1       1.994  10.745  -3.336  1.00  0.00     0.057 A 
ATOM     85  C   UNL     1       3.136  11.030  -2.573  1.00  0.00     0.134 A 
ATOM     86  C   UNL     1       2.021  11.258  -4.655  1.00  0.00     0.134 A 
ATOM     87  F   UNL     1       3.311  10.519  -1.348  1.00  0.00    -0.206 F 
ATOM     88  C   UNL     1       4.195  11.811  -3.061  1.00  0.00     0.040 A 
ATOM     89  C   UNL     1       3.096  11.989  -5.171  1.00  0.00     0.040 A 
ATOM     90  F   UNL     1       1.014  11.050  -5.516  1.00  0.00    -0.206 F 
ATOM     91  C   UNL     1       4.184  12.282  -4.367  1.00  0.00     0.006 A 
ENDBRANCH  67  84
ENDBRANCH  41  42
ENDBRANCH  33  36
ENDBRANCH  31  32
ENDBRANCH  30  31
ENDBRANCH   1  30
TORSDOF 13
