REMARK SMILES CC[C@H](NC(=O)Cc1c(C)c2cc(Cl)c(OC)cc2oc1=O)C(=O)NCCCNC(=O)c1ccc(-c2c3nc(c(-c4c(F)cccc4F)c4ccc([nH]4)c(-c4c(F)cccc4F)c4nc(c(-c5c(F)cccc5F)c5ccc2[nH]5)C=C4)C=C3)cc1
REMARK SMILES IDX 26 1 25 2 23 3 24 4 3 6 2 7 1 8 4 9 5 10 6 12 7 13 8 14 9 15
REMARK SMILES IDX 21 16 10 17 11 18 20 19 22 20 12 21 19 22 13 23 18 24 14 25
REMARK SMILES IDX 15 26 16 27 17 28 27 29 28 30 29 31 30 32 31 34 32 35 33 36
REMARK SMILES IDX 85 37 34 38 84 39 35 40 36 41 37 42 78 43 38 44 83 45 77 46
REMARK SMILES IDX 79 47 39 48 82 49 76 50 75 51 40 53 66 54 49 55 65 56 50 57
REMARK SMILES IDX 53 58 64 59 80 60 51 61 52 62 63 64 81 65 54 66 41 67 42 68
REMARK SMILES IDX 47 69 43 70 44 71 46 72 48 73 45 74 67 75 68 76 73 77 69 78
REMARK SMILES IDX 70 79 72 80 74 81 71 82 55 83 56 84 61 85 57 86 58 87 60 88
REMARK SMILES IDX 62 89 59 90
REMARK H PARENT 25 5 4 11 29 33 79 52 53 63
REMARK Flexibility Score: inf
ROOT
ATOM      1  C   UNL     1      -2.088   3.039  -0.870  1.00  0.00     0.117 C 
ENDROOT
BRANCH   1   2
ATOM      2  N   UNL     1      -1.012   4.005  -0.721  1.00  0.00    -0.354 N 
ATOM      3  C   UNL     1       0.338   3.825  -0.647  1.00  0.00     0.242 C 
ATOM      4  O   UNL     1       1.049   4.826  -0.530  1.00  0.00    -0.273 OA
ATOM      5  H   UNL     1      -1.306   4.943  -0.663  1.00  0.00     0.163 HD
BRANCH   3   6
ATOM      6  C   UNL     1       0.970   2.426  -0.770  1.00  0.00     0.171 C 
BRANCH   6   7
ATOM      7  C   UNL     1       0.804   1.875  -2.197  1.00  0.00     0.031 C 
ATOM      8  C   UNL     1       1.160   0.403  -2.342  1.00  0.00     0.006 C 
ENDBRANCH   6   7
BRANCH   6   9
ATOM      9  N   UNL     1       0.443   1.553   0.274  1.00  0.00    -0.344 N 
ATOM     10  C   UNL     1       0.820   1.447   1.581  1.00  0.00     0.225 C 
ATOM     11  H   UNL     1      -0.288   0.956  -0.005  1.00  0.00     0.164 HD
ATOM     12  O   UNL     1       0.165   0.697   2.308  1.00  0.00    -0.275 OA
BRANCH  10  13
ATOM     13  C   UNL     1       1.940   2.319   2.158  1.00  0.00     0.143 C 
BRANCH  13  14
ATOM     14  C   UNL     1       3.352   2.177   1.627  1.00  0.00     0.051 A 
ATOM     15  C   UNL     1       4.295   3.134   1.804  1.00  0.00    -0.029 A 
ATOM     16  C   UNL     1       3.674   0.932   0.876  1.00  0.00     0.340 A 
ATOM     17  C   UNL     1       4.094   4.358   2.666  1.00  0.00     0.046 C 
ATOM     18  C   UNL     1       5.588   3.014   1.100  1.00  0.00     0.023 A 
ATOM     19  O   UNL     1       4.801   0.955   0.074  1.00  0.00    -0.422 OA
ATOM     20  O   UNL     1       2.960  -0.061   0.907  1.00  0.00    -0.246 OA
ATOM     21  C   UNL     1       6.636   3.936   1.214  1.00  0.00     0.036 A 
ATOM     22  C   UNL     1       5.766   1.963   0.208  1.00  0.00     0.142 A 
ATOM     23  C   UNL     1       7.795   3.809   0.433  1.00  0.00     0.083 A 
ATOM     24  C   UNL     1       6.907   1.826  -0.589  1.00  0.00     0.095 A 
ATOM     25  Cl  UNL     1       9.036   4.999   0.635  1.00  0.00    -0.080 Cl
ATOM     26  C   UNL     1       7.934   2.764  -0.493  1.00  0.00     0.141 A 
BRANCH  26  27
ATOM     27  O   UNL     1       9.085   2.732  -1.234  1.00  0.00    -0.495 OA
ATOM     28  C   UNL     1       9.153   1.792  -2.299  1.00  0.00     0.278 C 
ENDBRANCH  26  27
ENDBRANCH  13  14
ENDBRANCH  10  13
ENDBRANCH   6   9
ENDBRANCH   3   6
ENDBRANCH   1   2
BRANCH   1  29
ATOM     29  C   UNL     1      -2.878   2.840   0.414  1.00  0.00     0.042 C 
BRANCH  29  30
ATOM     30  C   UNL     1      -3.581   4.096   0.907  1.00  0.00     0.118 C 
BRANCH  30  31
ATOM     31  N   UNL     1      -4.585   4.600  -0.024  1.00  0.00    -0.352 N 
ATOM     32  C   UNL     1      -5.942   4.765   0.131  1.00  0.00     0.251 C 
ATOM     33  H   UNL     1      -4.236   4.864  -0.906  1.00  0.00     0.163 HD
ATOM     34  O   UNL     1      -6.635   5.066  -0.837  1.00  0.00    -0.269 OA
BRANCH  32  35
ATOM     35  C   UNL     1      -6.572   4.542   1.449  1.00  0.00     0.039 A 
ATOM     36  C   UNL     1      -5.963   5.005   2.615  1.00  0.00     0.014 A 
ATOM     37  C   UNL     1      -7.777   3.836   1.524  1.00  0.00     0.014 A 
ATOM     38  C   UNL     1      -6.429   4.571   3.849  1.00  0.00     0.010 A 
ATOM     39  C   UNL     1      -8.307   3.496   2.772  1.00  0.00     0.010 A 
ATOM     40  C   UNL     1      -7.600   3.802   3.945  1.00  0.00    -0.014 A 
BRANCH  40  41
ATOM     41  C   UNL     1      -8.029   3.311   5.282  1.00  0.00     0.031 A 
ATOM     42  C   UNL     1      -8.074   1.835   5.585  1.00  0.00     0.074 A 
ATOM     43  C   UNL     1      -8.287   4.204   6.257  1.00  0.00     0.049 A 
ATOM     44  N   UNL     1      -8.355   1.233   6.715  1.00  0.00    -0.248 NA
ATOM     45  C   UNL     1      -7.773   0.914   4.479  1.00  0.00     0.031 C 
ATOM     46  C   UNL     1      -8.277   5.659   6.092  1.00  0.00     0.029 A 
ATOM     47  N   UNL     1      -8.569   4.022   7.586  1.00  0.00    -0.354 N 
ATOM     48  C   UNL     1      -8.279  -0.130   6.451  1.00  0.00     0.074 A 
ATOM     49  C   UNL     1      -7.965  -0.268   5.046  1.00  0.00     0.031 C 
ATOM     50  C   UNL     1      -8.470   6.238   7.286  1.00  0.00     0.029 A 
ATOM     51  C   UNL     1      -8.679   5.198   8.287  1.00  0.00     0.049 A 
ATOM     52  H   UNL     1      -8.680   3.135   7.998  1.00  0.00     0.167 HD
ATOM     53  C   UNL     1      -8.439  -1.172   7.303  1.00  0.00     0.037 A 
ATOM     54  C   UNL     1      -8.924   5.418   9.591  1.00  0.00     0.037 A 
ATOM     55  C   UNL     1      -8.732  -1.039   8.707  1.00  0.00     0.049 A 
ATOM     56  C   UNL     1      -9.117   4.245  10.508  1.00  0.00     0.074 A 
ATOM     57  C   UNL     1      -8.911  -2.034   9.652  1.00  0.00     0.029 A 
ATOM     58  N   UNL     1      -8.883   0.170   9.369  1.00  0.00    -0.354 N 
ATOM     59  N   UNL     1      -9.042   2.964  10.240  1.00  0.00    -0.248 NA
ATOM     60  C   UNL     1      -9.432   4.552  11.909  1.00  0.00     0.031 C 
ATOM     61  C   UNL     1      -9.201  -1.427  10.880  1.00  0.00     0.029 A 
ATOM     62  C   UNL     1      -9.162  -0.053  10.708  1.00  0.00     0.049 A 
ATOM     63  H   UNL     1      -8.802   1.057   8.949  1.00  0.00     0.167 HD
ATOM     64  C   UNL     1      -9.292   2.312  11.439  1.00  0.00     0.074 A 
ATOM     65  C   UNL     1      -9.488   3.340  12.441  1.00  0.00     0.031 C 
ATOM     66  C   UNL     1      -9.362   0.981  11.689  1.00  0.00     0.037 A 
BRANCH  53  67
ATOM     67  C   UNL     1      -8.308  -2.554   6.729  1.00  0.00     0.057 A 
ATOM     68  C   UNL     1      -9.431  -3.377   6.577  1.00  0.00     0.134 A 
ATOM     69  C   UNL     1      -7.068  -3.079   6.341  1.00  0.00     0.134 A 
ATOM     70  F   UNL     1     -10.649  -2.940   6.934  1.00  0.00    -0.206 F 
ATOM     71  C   UNL     1      -9.327  -4.668   6.056  1.00  0.00     0.040 A 
ATOM     72  C   UNL     1      -6.954  -4.360   5.796  1.00  0.00     0.040 A 
ATOM     73  F   UNL     1      -5.954  -2.338   6.446  1.00  0.00    -0.206 F 
ATOM     74  C   UNL     1      -8.086  -5.160   5.657  1.00  0.00     0.006 A 
ENDBRANCH  53  67
BRANCH  54  75
ATOM     75  C   UNL     1      -9.007   6.806  10.109  1.00  0.00     0.057 A 
ATOM     76  C   UNL     1     -10.069   7.648   9.761  1.00  0.00     0.134 A 
ATOM     77  C   UNL     1      -8.035   7.316  10.976  1.00  0.00     0.134 A 
ATOM     78  F   UNL     1     -11.030   7.220   8.928  1.00  0.00    -0.206 F 
ATOM     79  C   UNL     1     -10.159   8.951  10.250  1.00  0.00     0.040 A 
ATOM     80  C   UNL     1      -8.126   8.608  11.495  1.00  0.00     0.040 A 
ATOM     81  F   UNL     1      -7.003   6.549  11.360  1.00  0.00    -0.206 F 
ATOM     82  C   UNL     1      -9.189   9.431  11.128  1.00  0.00     0.006 A 
ENDBRANCH  54  75
BRANCH  66  83
ATOM     83  C   UNL     1      -9.646   0.579  13.105  1.00  0.00     0.057 A 
ATOM     84  C   UNL     1      -8.639   0.028  13.907  1.00  0.00     0.134 A 
ATOM     85  C   UNL     1     -10.911   0.752  13.681  1.00  0.00     0.134 A 
ATOM     86  F   UNL     1      -7.406  -0.169  13.415  1.00  0.00    -0.206 F 
ATOM     87  C   UNL     1      -8.877  -0.326  15.235  1.00  0.00     0.040 A 
ATOM     88  C   UNL     1     -11.155   0.426  15.016  1.00  0.00     0.040 A 
ATOM     89  F   UNL     1     -11.913   1.291  12.970  1.00  0.00    -0.206 F 
ATOM     90  C   UNL     1     -10.136  -0.117  15.796  1.00  0.00     0.006 A 
ENDBRANCH  66  83
ENDBRANCH  40  41
ENDBRANCH  32  35
ENDBRANCH  30  31
ENDBRANCH  29  30
ENDBRANCH   1  29
TORSDOF 15
