REMARK SMILES C[C@H]1CC[C@@](NC(=O)N[C@H]2CCOC2)(C(=O)NCCCNC(=O)c2ccc(-c3c4nc(c(-c5c(F)cccc5F)c5ccc([nH]5)c(-c5c(F)cccc5F)c5nc(c(-c6c(F)cccc6F)c6ccc3[nH]6)C=C5)C=C4)cc2)CC1
REMARK SMILES IDX 19 1 18 2 17 3 15 4 16 5 5 7 1 8 2 9 79 10 3 11 78 12 4 13
REMARK SMILES IDX 6 14 7 15 8 17 9 18 10 20 11 21 14 22 12 23 13 24 20 25
REMARK SMILES IDX 21 26 22 27 23 29 24 30 25 31 77 32 26 33 76 34 27 35 28 36
REMARK SMILES IDX 29 37 70 38 30 39 75 40 69 41 71 42 31 43 74 44 68 45 67 46
REMARK SMILES IDX 32 48 58 49 41 50 57 51 42 52 45 53 56 54 72 55 43 56 44 57
REMARK SMILES IDX 55 59 73 60 46 61 33 62 34 63 39 64 35 65 36 66 38 67 40 68
REMARK SMILES IDX 37 69 59 70 60 71 65 72 61 73 62 74 64 75 66 76 63 77 47 78
REMARK SMILES IDX 48 79 53 80 49 81 50 82 52 83 54 84 51 85
REMARK H PARENT 17 6 6 16 9 19 21 28 71 47 45 58
REMARK Flexibility Score: inf
ROOT
ATOM      1  C   UNL     1      -5.886   2.853  -2.681  1.00  0.00     0.042 C 
ENDROOT
BRANCH   1   2
ATOM      2  C   UNL     1      -5.201   1.542  -3.007  1.00  0.00     0.117 C 
BRANCH   2   3
ATOM      3  N   UNL     1      -4.785   0.852  -1.798  1.00  0.00    -0.354 N 
ATOM      4  C   UNL     1      -4.543  -0.472  -1.588  1.00  0.00     0.245 C 
ATOM      5  O   UNL     1      -4.093  -0.764  -0.476  1.00  0.00    -0.272 OA
ATOM      6  H   UNL     1      -4.660   1.430  -1.010  1.00  0.00     0.163 HD
BRANCH   4   7
ATOM      7  C   UNL     1      -4.958  -1.540  -2.639  1.00  0.00     0.120 C 
ATOM      8  C   UNL     1      -6.260  -3.329   0.985  1.00  0.00     0.007 C 
ATOM      9  C   UNL     1      -6.224  -3.311  -0.549  1.00  0.00    -0.014 C 
ATOM     10  C   UNL     1      -4.776  -3.537  -1.020  1.00  0.00     0.006 C 
ATOM     11  C   UNL     1      -6.908  -2.035  -1.066  1.00  0.00     0.006 C 
ATOM     12  C   UNL     1      -4.436  -2.964  -2.393  1.00  0.00     0.039 C 
ATOM     13  C   UNL     1      -6.505  -1.649  -2.493  1.00  0.00     0.039 C 
BRANCH   7  14
ATOM     14  N   UNL     1      -4.608  -1.130  -4.021  1.00  0.00    -0.324 N 
ATOM     15  C   UNL     1      -3.496  -0.865  -4.714  1.00  0.00     0.315 C 
ATOM     16  H   UNL     1      -5.413  -1.024  -4.579  1.00  0.00     0.166 HD
ATOM     17  O   UNL     1      -3.616  -0.801  -5.941  1.00  0.00    -0.249 OA
ATOM     18  N   UNL     1      -2.282  -0.616  -4.216  1.00  0.00    -0.333 N 
ATOM     19  H   UNL     1      -1.607  -0.521  -4.926  1.00  0.00     0.165 HD
BRANCH  18  20
ATOM     20  C   UNL     1      -1.705  -0.450  -2.898  1.00  0.00     0.112 C 
ATOM     21  C   UNL     1      -0.852  -1.601  -2.421  1.00  0.00     0.056 C 
ATOM     22  C   UNL     1      -0.727   0.715  -2.742  1.00  0.00     0.185 C 
ATOM     23  C   UNL     1      -0.184  -0.962  -1.222  1.00  0.00     0.162 C 
ATOM     24  O   UNL     1       0.102   0.394  -1.606  1.00  0.00    -0.379 OA
ENDBRANCH  18  20
ENDBRANCH   7  14
ENDBRANCH   4   7
ENDBRANCH   2   3
ENDBRANCH   1   2
BRANCH   1  25
ATOM     25  C   UNL     1      -4.936   3.875  -2.083  1.00  0.00     0.118 C 
BRANCH  25  26
ATOM     26  N   UNL     1      -4.080   4.511  -3.074  1.00  0.00    -0.352 N 
ATOM     27  C   UNL     1      -3.796   5.853  -3.180  1.00  0.00     0.251 C 
ATOM     28  H   UNL     1      -3.659   3.917  -3.737  1.00  0.00     0.163 HD
ATOM     29  O   UNL     1      -3.145   6.298  -4.118  1.00  0.00    -0.269 OA
BRANCH  27  30
ATOM     30  C   UNL     1      -4.344   6.754  -2.148  1.00  0.00     0.039 A 
ATOM     31  C   UNL     1      -5.205   7.781  -2.537  1.00  0.00     0.014 A 
ATOM     32  C   UNL     1      -4.116   6.479  -0.796  1.00  0.00     0.014 A 
ATOM     33  C   UNL     1      -5.894   8.498  -1.559  1.00  0.00     0.010 A 
ATOM     34  C   UNL     1      -4.869   7.136   0.168  1.00  0.00     0.010 A 
ATOM     35  C   UNL     1      -5.760   8.156  -0.202  1.00  0.00    -0.014 A 
BRANCH  35  36
ATOM     36  C   UNL     1      -6.523   8.872   0.850  1.00  0.00     0.031 A 
ATOM     37  C   UNL     1      -5.782   9.661   1.893  1.00  0.00     0.074 A 
ATOM     38  C   UNL     1      -7.865   8.767   0.906  1.00  0.00     0.049 A 
ATOM     39  N   UNL     1      -6.249  10.298   2.936  1.00  0.00    -0.248 NA
ATOM     40  C   UNL     1      -4.316   9.714   1.765  1.00  0.00     0.031 C 
ATOM     41  C   UNL     1      -8.696   7.988  -0.014  1.00  0.00     0.029 A 
ATOM     42  N   UNL     1      -8.767   9.312   1.785  1.00  0.00    -0.354 N 
ATOM     43  C   UNL     1      -5.137  10.810   3.592  1.00  0.00     0.074 A 
ATOM     44  C   UNL     1      -3.970  10.358   2.868  1.00  0.00     0.031 C 
ATOM     45  C   UNL     1      -9.986   8.125   0.335  1.00  0.00     0.029 A 
ATOM     46  C   UNL     1     -10.072   8.971   1.521  1.00  0.00     0.049 A 
ATOM     47  H   UNL     1      -8.504   9.893   2.535  1.00  0.00     0.167 HD
ATOM     48  C   UNL     1      -5.091  11.611   4.681  1.00  0.00     0.037 A 
ATOM     49  C   UNL     1     -11.207   9.303   2.166  1.00  0.00     0.037 A 
ATOM     50  C   UNL     1      -6.253  12.088   5.381  1.00  0.00     0.049 A 
ATOM     51  C   UNL     1     -11.131  10.202   3.370  1.00  0.00     0.074 A 
ATOM     52  C   UNL     1      -6.316  12.947   6.463  1.00  0.00     0.029 A 
ATOM     53  N   UNL     1      -7.559  11.746   5.062  1.00  0.00    -0.354 N 
ATOM     54  N   UNL     1     -10.076  10.732   3.941  1.00  0.00    -0.248 NA
ATOM     55  C   UNL     1     -12.403  10.555   4.016  1.00  0.00     0.031 C 
ATOM     56  C   UNL     1      -7.659  13.099   6.822  1.00  0.00     0.029 A 
ATOM     57  C   UNL     1      -8.434  12.368   5.936  1.00  0.00     0.049 A 
ATOM     58  H   UNL     1      -7.823  11.151   4.325  1.00  0.00     0.167 HD
ATOM     59  C   UNL     1     -10.558  11.503   4.990  1.00  0.00     0.074 A 
ATOM     60  C   UNL     1     -12.001  11.381   4.971  1.00  0.00     0.031 C 
ATOM     61  C   UNL     1      -9.868  12.246   5.891  1.00  0.00     0.037 A 
BRANCH  48  62
ATOM     62  C   UNL     1      -3.736  12.031   5.170  1.00  0.00     0.057 A 
ATOM     63  C   UNL     1      -2.939  12.930   4.449  1.00  0.00     0.134 A 
ATOM     64  C   UNL     1      -3.231  11.548   6.383  1.00  0.00     0.134 A 
ATOM     65  F   UNL     1      -3.358  13.416   3.271  1.00  0.00    -0.206 F 
ATOM     66  C   UNL     1      -1.676  13.312   4.903  1.00  0.00     0.040 A 
ATOM     67  C   UNL     1      -1.981  11.945   6.862  1.00  0.00     0.040 A 
ATOM     68  F   UNL     1      -3.944  10.687   7.125  1.00  0.00    -0.206 F 
ATOM     69  C   UNL     1      -1.197  12.824   6.117  1.00  0.00     0.006 A 
ENDBRANCH  48  62
BRANCH  49  70
ATOM     70  C   UNL     1     -12.517   8.806   1.676  1.00  0.00     0.057 A 
ATOM     71  C   UNL     1     -13.446   9.673   1.089  1.00  0.00     0.134 A 
ATOM     72  C   UNL     1     -12.881   7.459   1.798  1.00  0.00     0.134 A 
ATOM     73  F   UNL     1     -13.163  10.978   0.961  1.00  0.00    -0.206 F 
ATOM     74  C   UNL     1     -14.697   9.226   0.661  1.00  0.00     0.040 A 
ATOM     75  C   UNL     1     -14.120   6.994   1.353  1.00  0.00     0.040 A 
ATOM     76  F   UNL     1     -12.034   6.576   2.345  1.00  0.00    -0.206 F 
ATOM     77  C   UNL     1     -15.035   7.880   0.789  1.00  0.00     0.006 A 
ENDBRANCH  49  70
BRANCH  61  78
ATOM     78  C   UNL     1     -10.665  13.016   6.901  1.00  0.00     0.057 A 
ATOM     79  C   UNL     1     -11.306  12.386   7.974  1.00  0.00     0.134 A 
ATOM     80  C   UNL     1     -10.748  14.412   6.825  1.00  0.00     0.134 A 
ATOM     81  F   UNL     1     -11.273  11.050   8.096  1.00  0.00    -0.206 F 
ATOM     82  C   UNL     1     -12.019  13.115   8.926  1.00  0.00     0.040 A 
ATOM     83  C   UNL     1     -11.437  15.155   7.784  1.00  0.00     0.040 A 
ATOM     84  F   UNL     1     -10.148  15.078   5.826  1.00  0.00    -0.206 F 
ATOM     85  C   UNL     1     -12.079  14.505   8.836  1.00  0.00     0.006 A 
ENDBRANCH  61  78
ENDBRANCH  35  36
ENDBRANCH  27  30
ENDBRANCH  25  26
ENDBRANCH   1  25
TORSDOF 12
