REMARK SMILES CC[C@H](C)N(C)C(=O)N1[C@@H](C(=O)NCCCNC(=O)c2ccc(-c3c4nc(c(-c5c(F)cccc5F)c5ccc([nH]5)c(-c5c(F)cccc5F)c5nc(c(-c6c(F)cccc6F)c6ccc3[nH]6)C=C5)C=C4)cc2)CC[C@H]2CCCC[C@@H]21
REMARK SMILES IDX 14 1 13 2 11 3 12 4 10 6 9 7 81 8 74 9 76 10 80 11 75 12
REMARK SMILES IDX 77 13 79 14 78 15 7 16 8 17 5 18 6 19 3 20 4 21 2 22 1 23
REMARK SMILES IDX 15 24 16 25 17 26 18 27 19 29 20 30 21 31 73 32 22 33 72 34
REMARK SMILES IDX 23 35 24 36 25 37 66 38 26 39 71 40 65 41 67 42 27 43 70 44
REMARK SMILES IDX 64 45 63 46 28 48 54 49 37 50 53 51 38 52 41 53 52 54 68 55
REMARK SMILES IDX 39 56 40 57 51 59 69 60 42 61 29 62 30 63 35 64 31 65 32 66
REMARK SMILES IDX 34 67 36 68 33 69 55 70 56 71 61 72 57 73 58 74 60 75 62 76
REMARK SMILES IDX 59 77 43 78 44 79 49 80 45 81 46 82 48 83 50 84 47 85
REMARK H PARENT 13 5 17 28 67 47 41 58
REMARK Flexibility Score: inf
ROOT
ATOM      1  C   UNL     1      -2.095  -5.399  -1.851  1.00  0.00     0.117 C 
ENDROOT
BRANCH   1   2
ATOM      2  N   UNL     1      -2.933  -4.470  -1.123  1.00  0.00    -0.354 N 
ATOM      3  C   UNL     1      -3.458  -4.554   0.132  1.00  0.00     0.242 C 
ATOM      4  O   UNL     1      -4.536  -3.972   0.312  1.00  0.00    -0.273 OA
ATOM      5  H   UNL     1      -3.160  -3.647  -1.613  1.00  0.00     0.163 HD
BRANCH   3   6
ATOM      6  C   UNL     1      -2.843  -5.435   1.261  1.00  0.00     0.176 C 
ATOM      7  N   UNL     1      -1.413  -5.203   1.614  1.00  0.00    -0.309 N 
ATOM      8  C   UNL     1      -0.832  -6.133   2.622  1.00  0.00     0.091 C 
ATOM      9  C   UNL     1      -3.159  -6.918   0.941  1.00  0.00     0.036 C 
ATOM     10  C   UNL     1      -1.663  -7.423   2.805  1.00  0.00     0.012 C 
ATOM     11  C   UNL     1      -0.642  -5.526   4.028  1.00  0.00     0.025 C 
ATOM     12  C   UNL     1      -2.125  -7.914   1.451  1.00  0.00     0.008 C 
ATOM     13  C   UNL     1      -0.864  -8.452   3.602  1.00  0.00     0.006 C 
ATOM     14  C   UNL     1       0.066  -6.517   4.964  1.00  0.00     0.002 C 
ATOM     15  C   UNL     1      -0.588  -7.900   5.000  1.00  0.00     0.000 C 
BRANCH   7  16
ATOM     16  C   UNL     1      -0.979  -3.877   1.540  1.00  0.00     0.320 C 
ATOM     17  O   UNL     1      -1.797  -2.958   1.474  1.00  0.00    -0.248 OA
BRANCH  16  18
ATOM     18  N   UNL     1       0.386  -3.608   1.516  1.00  0.00    -0.325 N 
ATOM     19  C   UNL     1       1.426  -4.589   1.244  1.00  0.00     0.149 C 
BRANCH  18  20
ATOM     20  C   UNL     1       0.827  -2.189   1.494  1.00  0.00     0.083 C 
ATOM     21  C   UNL     1       0.550  -1.572   0.116  1.00  0.00     0.031 C 
BRANCH  20  22
ATOM     22  C   UNL     1       0.335  -1.374   2.719  1.00  0.00     0.021 C 
ATOM     23  C   UNL     1      -0.083   0.062   2.434  1.00  0.00     0.006 C 
ENDBRANCH  20  22
ENDBRANCH  18  20
ENDBRANCH  16  18
ENDBRANCH   7  16
ENDBRANCH   3   6
ENDBRANCH   1   2
BRANCH   1  24
ATOM     24  C   UNL     1      -2.950  -6.333  -2.722  1.00  0.00     0.042 C 
BRANCH  24  25
ATOM     25  C   UNL     1      -3.726  -5.640  -3.842  1.00  0.00     0.118 C 
BRANCH  25  26
ATOM     26  N   UNL     1      -2.872  -5.256  -4.951  1.00  0.00    -0.352 N 
ATOM     27  C   UNL     1      -2.976  -5.556  -6.287  1.00  0.00     0.251 C 
ATOM     28  H   UNL     1      -2.100  -4.695  -4.709  1.00  0.00     0.163 HD
ATOM     29  O   UNL     1      -2.034  -5.296  -7.032  1.00  0.00    -0.269 OA
BRANCH  27  30
ATOM     30  C   UNL     1      -4.192  -6.196  -6.848  1.00  0.00     0.039 A 
ATOM     31  C   UNL     1      -4.032  -7.152  -7.858  1.00  0.00     0.014 A 
ATOM     32  C   UNL     1      -5.481  -5.814  -6.460  1.00  0.00     0.014 A 
ATOM     33  C   UNL     1      -5.150  -7.742  -8.454  1.00  0.00     0.010 A 
ATOM     34  C   UNL     1      -6.597  -6.447  -7.014  1.00  0.00     0.010 A 
ATOM     35  C   UNL     1      -6.444  -7.406  -8.028  1.00  0.00    -0.014 A 
BRANCH  35  36
ATOM     36  C   UNL     1      -7.639  -8.029  -8.657  1.00  0.00     0.031 A 
ATOM     37  C   UNL     1      -8.588  -7.197  -9.479  1.00  0.00     0.074 A 
ATOM     38  C   UNL     1      -7.893  -9.338  -8.465  1.00  0.00     0.049 A 
ATOM     39  N   UNL     1      -9.697  -7.554 -10.077  1.00  0.00    -0.248 NA
ATOM     40  C   UNL     1      -8.257  -5.772  -9.631  1.00  0.00     0.031 C 
ATOM     41  C   UNL     1      -7.077 -10.248  -7.662  1.00  0.00     0.029 A 
ATOM     42  N   UNL     1      -8.915 -10.129  -8.929  1.00  0.00    -0.354 N 
ATOM     43  C   UNL     1     -10.203  -6.399 -10.660  1.00  0.00     0.074 A 
ATOM     44  C   UNL     1      -9.303  -5.322 -10.308  1.00  0.00     0.031 C 
ATOM     45  C   UNL     1      -7.618 -11.477  -7.704  1.00  0.00     0.029 A 
ATOM     46  C   UNL     1      -8.833 -11.435  -8.513  1.00  0.00     0.049 A 
ATOM     47  H   UNL     1      -9.639  -9.791  -9.505  1.00  0.00     0.167 HD
ATOM     48  C   UNL     1     -11.306  -6.250 -11.434  1.00  0.00     0.037 A 
ATOM     49  C   UNL     1      -9.644 -12.482  -8.755  1.00  0.00     0.037 A 
ATOM     50  C   UNL     1     -12.188  -7.324 -11.809  1.00  0.00     0.049 A 
ATOM     51  C   UNL     1     -10.854 -12.295  -9.627  1.00  0.00     0.074 A 
ATOM     52  C   UNL     1     -13.299  -7.281 -12.634  1.00  0.00     0.029 A 
ATOM     53  N   UNL     1     -12.056  -8.638 -11.386  1.00  0.00    -0.354 N 
ATOM     54  N   UNL     1     -11.286 -11.208 -10.219  1.00  0.00    -0.248 NA
ATOM     55  C   UNL     1     -11.684 -13.483  -9.874  1.00  0.00     0.031 C 
ATOM     56  C   UNL     1     -13.858  -8.563 -12.683  1.00  0.00     0.029 A 
ATOM     57  C   UNL     1     -13.073  -9.411 -11.921  1.00  0.00     0.049 A 
ATOM     58  H   UNL     1     -11.345  -8.971 -10.792  1.00  0.00     0.167 HD
ATOM     59  C   UNL     1     -12.420 -11.585 -10.927  1.00  0.00     0.074 A 
ATOM     60  C   UNL     1     -12.601 -13.005 -10.702  1.00  0.00     0.031 C 
ATOM     61  C   UNL     1     -13.236 -10.824 -11.695  1.00  0.00     0.037 A 
BRANCH  48  62
ATOM     62  C   UNL     1     -11.619  -4.869 -11.931  1.00  0.00     0.057 A 
ATOM     63  C   UNL     1     -10.848  -4.250 -12.924  1.00  0.00     0.134 A 
ATOM     64  C   UNL     1     -12.720  -4.160 -11.433  1.00  0.00     0.134 A 
ATOM     65  F   UNL     1      -9.774  -4.871 -13.435  1.00  0.00    -0.206 F 
ATOM     66  C   UNL     1     -11.146  -2.967 -13.386  1.00  0.00     0.040 A 
ATOM     67  C   UNL     1     -13.042  -2.886 -11.905  1.00  0.00     0.040 A 
ATOM     68  F   UNL     1     -13.504  -4.697 -10.486  1.00  0.00    -0.206 F 
ATOM     69  C   UNL     1     -12.249  -2.284 -12.880  1.00  0.00     0.006 A 
ENDBRANCH  48  62
BRANCH  49  70
ATOM     70  C   UNL     1      -9.322 -13.815  -8.187  1.00  0.00     0.057 A 
ATOM     71  C   UNL     1      -8.866 -14.855  -9.005  1.00  0.00     0.134 A 
ATOM     72  C   UNL     1      -9.466 -14.082  -6.821  1.00  0.00     0.134 A 
ATOM     73  F   UNL     1      -8.728 -14.664 -10.325  1.00  0.00    -0.206 F 
ATOM     74  C   UNL     1      -8.579 -16.119  -8.488  1.00  0.00     0.040 A 
ATOM     75  C   UNL     1      -9.162 -15.334  -6.286  1.00  0.00     0.040 A 
ATOM     76  F   UNL     1      -9.894 -13.124  -5.985  1.00  0.00    -0.206 F 
ATOM     77  C   UNL     1      -8.723 -16.359  -7.122  1.00  0.00     0.006 A 
ENDBRANCH  49  70
BRANCH  61  78
ATOM     78  C   UNL     1     -14.378 -11.518 -12.376  1.00  0.00     0.057 A 
ATOM     79  C   UNL     1     -15.511 -11.942 -11.671  1.00  0.00     0.134 A 
ATOM     80  C   UNL     1     -14.356 -11.736 -13.759  1.00  0.00     0.134 A 
ATOM     81  F   UNL     1     -15.587 -11.774 -10.342  1.00  0.00    -0.206 F 
ATOM     82  C   UNL     1     -16.573 -12.579 -12.315  1.00  0.00     0.040 A 
ATOM     83  C   UNL     1     -15.421 -12.352 -14.418  1.00  0.00     0.040 A 
ATOM     84  F   UNL     1     -13.303 -11.348 -14.494  1.00  0.00    -0.206 F 
ATOM     85  C   UNL     1     -16.532 -12.780 -13.693  1.00  0.00     0.006 A 
ENDBRANCH  61  78
ENDBRANCH  35  36
ENDBRANCH  27  30
ENDBRANCH  25  26
ENDBRANCH  24  25
ENDBRANCH   1  24
TORSDOF 14
