REMARK SMILES Cc1cccc(S(=O)(=O)Nc2cc(C(=O)NCCCNC(=O)c3ccc(-c4c5nc(c(-c6c(F)cccc6F)c6ccc([nH]6)c(-c6c(F)cccc6F)c6nc(c(-c7c(F)cccc7F)c7ccc4[nH]7)C=C6)C=C5)cc3)ccc2N2CCC[C@H](C[NH+]3CCCC3)C2)c1
REMARK SMILES IDX 17 1 16 2 14 3 15 4 13 6 11 7 12 8 79 9 78 10 77 11 10 12
REMARK SMILES IDX 7 14 8 15 9 16 6 17 1 18 2 19 3 20 92 21 4 22 5 23 80 24
REMARK SMILES IDX 81 25 91 26 82 27 84 28 83 29 85 30 86 31 87 32 90 33 88 35
REMARK SMILES IDX 89 36 18 37 19 38 20 39 21 40 22 42 23 43 24 44 76 45 25 46
REMARK SMILES IDX 75 47 26 48 27 49 28 50 69 51 29 52 74 53 68 54 70 55 30 56
REMARK SMILES IDX 73 57 67 58 66 59 31 61 57 62 40 63 56 64 41 65 44 66 55 67
REMARK SMILES IDX 71 68 42 69 43 70 54 72 72 73 45 74 32 75 33 76 38 77 34 78
REMARK SMILES IDX 35 79 37 80 39 81 36 82 58 83 59 84 64 85 60 86 61 87 63 88
REMARK SMILES IDX 65 89 62 90 46 91 47 92 52 93 48 94 49 95 51 96 53 97 50 98
REMARK H PARENT 16 5 10 13 86 34 20 41 70 60 44 71
REMARK Flexibility Score: inf
ROOT
ATOM      1  C   UNL     1       0.803   0.754  -2.914  1.00  0.00     0.118 C 
ENDROOT
BRANCH   1   2
ATOM      2  N   UNL     1       2.199   1.160  -3.027  1.00  0.00    -0.352 N 
ATOM      3  C   UNL     1       2.957   2.071  -2.324  1.00  0.00     0.251 C 
ATOM      4  O   UNL     1       4.167   2.098  -2.548  1.00  0.00    -0.269 OA
ATOM      5  H   UNL     1       2.693   0.695  -3.741  1.00  0.00     0.163 HD
BRANCH   3   6
ATOM      6  C   UNL     1       2.403   2.989  -1.286  1.00  0.00     0.042 A 
ATOM      7  C   UNL     1       0.570   4.074  -0.129  1.00  0.00     0.073 A 
ATOM      8  C   UNL     1       1.062   3.339  -1.200  1.00  0.00     0.042 A 
ATOM      9  C   UNL     1       1.435   4.660   0.807  1.00  0.00     0.061 A 
ATOM     10  C   UNL     1       2.803   4.385   0.672  1.00  0.00     0.029 A 
ATOM     11  C   UNL     1       3.279   3.536  -0.339  1.00  0.00     0.016 A 
BRANCH   7  12
ATOM     12  N   UNL     1      -0.837   4.231  -0.001  1.00  0.00    -0.277 N 
ATOM     13  H   UNL     1      -1.215   5.138  -0.060  1.00  0.00     0.180 HD
BRANCH  12  14
ATOM     14  S   UNL     1      -1.890   2.935   0.248  1.00  0.00     0.261 S 
ATOM     15  O   UNL     1      -2.645   2.833  -1.001  1.00  0.00    -0.201 OA
ATOM     16  O   UNL     1      -2.561   3.214   1.485  1.00  0.00    -0.201 OA
BRANCH  14  17
ATOM     17  C   UNL     1      -1.097   1.342   0.446  1.00  0.00     0.088 A 
ATOM     18  C   UNL     1       2.300  -0.288   0.975  1.00  0.00     0.044 C 
ATOM     19  C   UNL     1       0.823  -0.112   0.761  1.00  0.00    -0.050 A 
ATOM     20  C   UNL     1       0.064  -1.209   0.331  1.00  0.00     0.003 A 
ATOM     21  C   UNL     1       0.212   1.150   0.893  1.00  0.00     0.025 A 
ATOM     22  C   UNL     1      -1.276  -1.045  -0.009  1.00  0.00     0.002 A 
ATOM     23  C   UNL     1      -1.845   0.228   0.022  1.00  0.00     0.022 A 
ENDBRANCH  14  17
ENDBRANCH  12  14
ENDBRANCH   7  12
BRANCH   9  24
ATOM     24  N   UNL     1       1.006   5.501   1.819  1.00  0.00    -0.369 N 
ATOM     25  C   UNL     1       1.263   6.932   1.663  1.00  0.00     0.116 C 
ATOM     26  C   UNL     1       0.034   5.090   2.829  1.00  0.00     0.126 C 
ATOM     27  C   UNL     1       1.674   7.521   3.009  1.00  0.00     0.022 C 
ATOM     28  C   UNL     1       0.470   5.611   4.210  1.00  0.00     0.064 C 
ATOM     29  C   UNL     1       0.684   7.135   4.109  1.00  0.00     0.013 C 
BRANCH  28  30
ATOM     30  C   UNL     1       1.688   4.784   4.696  1.00  0.00     0.267 C 
BRANCH  30  31
ATOM     31  N   UNL     1       2.113   4.859   6.095  1.00  0.00    -0.335 N 
ATOM     32  C   UNL     1       1.076   4.577   7.084  1.00  0.00     0.262 C 
ATOM     33  C   UNL     1       2.797   6.085   6.495  1.00  0.00     0.262 C 
ATOM     34  H   UNL     1       2.793   4.098   6.101  1.00  0.00     0.348 HD
ATOM     35  C   UNL     1       0.654   5.933   7.613  1.00  0.00     0.067 C 
ATOM     36  C   UNL     1       1.925   6.759   7.548  1.00  0.00     0.067 C 
ENDBRANCH  30  31
ENDBRANCH  28  30
ENDBRANCH   9  24
ENDBRANCH   3   6
ENDBRANCH   1   2
BRANCH   1  37
ATOM     37  C   UNL     1      -0.141   1.639  -3.730  1.00  0.00     0.042 C 
BRANCH  37  38
ATOM     38  C   UNL     1      -0.513   1.060  -5.074  1.00  0.00     0.118 C 
BRANCH  38  39
ATOM     39  N   UNL     1      -1.898   0.606  -5.177  1.00  0.00    -0.352 N 
ATOM     40  C   UNL     1      -2.484  -0.046  -6.251  1.00  0.00     0.251 C 
ATOM     41  H   UNL     1      -2.477   0.782  -4.400  1.00  0.00     0.163 HD
ATOM     42  O   UNL     1      -3.648  -0.423  -6.218  1.00  0.00    -0.269 OA
BRANCH  40  43
ATOM     43  C   UNL     1      -1.605  -0.396  -7.390  1.00  0.00     0.039 A 
ATOM     44  C   UNL     1      -1.375  -1.755  -7.609  1.00  0.00     0.014 A 
ATOM     45  C   UNL     1      -0.744   0.573  -7.899  1.00  0.00     0.014 A 
ATOM     46  C   UNL     1      -0.129  -2.153  -8.079  1.00  0.00     0.010 A 
ATOM     47  C   UNL     1       0.531   0.177  -8.255  1.00  0.00     0.010 A 
ATOM     48  C   UNL     1       0.858  -1.184  -8.271  1.00  0.00    -0.014 A 
BRANCH  48  49
ATOM     49  C   UNL     1       2.269  -1.526  -8.416  1.00  0.00     0.031 A 
ATOM     50  C   UNL     1       2.893  -1.457  -9.750  1.00  0.00     0.074 A 
ATOM     51  C   UNL     1       3.006  -1.912  -7.350  1.00  0.00     0.049 A 
ATOM     52  N   UNL     1       3.865  -2.210 -10.139  1.00  0.00    -0.248 NA
ATOM     53  C   UNL     1       2.419  -0.543 -10.780  1.00  0.00     0.031 C 
ATOM     54  C   UNL     1       4.452  -2.118  -7.303  1.00  0.00     0.029 A 
ATOM     55  N   UNL     1       2.545  -2.409  -6.125  1.00  0.00    -0.354 N 
ATOM     56  C   UNL     1       4.320  -1.712 -11.339  1.00  0.00     0.074 A 
ATOM     57  C   UNL     1       3.348  -0.715 -11.723  1.00  0.00     0.031 C 
ATOM     58  C   UNL     1       4.741  -2.935  -6.278  1.00  0.00     0.029 A 
ATOM     59  C   UNL     1       3.485  -3.375  -5.700  1.00  0.00     0.049 A 
ATOM     60  H   UNL     1       1.726  -2.138  -5.652  1.00  0.00     0.167 HD
ATOM     61  C   UNL     1       5.542  -2.098 -11.807  1.00  0.00     0.037 A 
ATOM     62  C   UNL     1       3.121  -4.673  -5.492  1.00  0.00     0.037 A 
ATOM     63  C   UNL     1       6.149  -3.108 -10.942  1.00  0.00     0.049 A 
ATOM     64  C   UNL     1       3.815  -5.652  -6.412  1.00  0.00     0.074 A 
ATOM     65  C   UNL     1       7.075  -3.022  -9.915  1.00  0.00     0.029 A 
ATOM     66  N   UNL     1       5.572  -4.371 -10.841  1.00  0.00    -0.354 N 
ATOM     67  N   UNL     1       4.496  -5.299  -7.467  1.00  0.00    -0.248 NA
ATOM     68  C   UNL     1       3.752  -7.104  -6.251  1.00  0.00     0.031 C 
ATOM     69  C   UNL     1       6.998  -4.210  -9.149  1.00  0.00     0.029 A 
ATOM     70  C   UNL     1       6.040  -5.030  -9.719  1.00  0.00     0.049 A 
ATOM     71  H   UNL     1       4.921  -4.743 -11.479  1.00  0.00     0.167 HD
ATOM     72  C   UNL     1       4.891  -6.418  -8.151  1.00  0.00     0.074 A 
ATOM     73  C   UNL     1       4.434  -7.524  -7.330  1.00  0.00     0.031 C 
ATOM     74  C   UNL     1       5.536  -6.345  -9.352  1.00  0.00     0.037 A 
BRANCH  61  75
ATOM     75  C   UNL     1       6.295  -1.295 -12.846  1.00  0.00     0.057 A 
ATOM     76  C   UNL     1       7.695  -1.156 -12.784  1.00  0.00     0.134 A 
ATOM     77  C   UNL     1       5.689  -0.568 -13.885  1.00  0.00     0.134 A 
ATOM     78  F   UNL     1       8.440  -1.879 -11.939  1.00  0.00    -0.206 F 
ATOM     79  C   UNL     1       8.408  -0.257 -13.589  1.00  0.00     0.040 A 
ATOM     80  C   UNL     1       6.377   0.381 -14.656  1.00  0.00     0.040 A 
ATOM     81  F   UNL     1       4.411  -0.779 -14.229  1.00  0.00    -0.206 F 
ATOM     82  C   UNL     1       7.743   0.553 -14.496  1.00  0.00     0.006 A 
ENDBRANCH  61  75
BRANCH  62  83
ATOM     83  C   UNL     1       1.724  -4.797  -4.998  1.00  0.00     0.057 A 
ATOM     84  C   UNL     1       1.410  -4.213  -3.756  1.00  0.00     0.134 A 
ATOM     85  C   UNL     1       0.663  -5.058  -5.867  1.00  0.00     0.134 A 
ATOM     86  F   UNL     1       2.383  -3.952  -2.868  1.00  0.00    -0.206 F 
ATOM     87  C   UNL     1       0.124  -3.754  -3.462  1.00  0.00     0.040 A 
ATOM     88  C   UNL     1      -0.634  -4.624  -5.571  1.00  0.00     0.040 A 
ATOM     89  F   UNL     1       0.882  -5.611  -7.068  1.00  0.00    -0.206 F 
ATOM     90  C   UNL     1      -0.894  -3.922  -4.394  1.00  0.00     0.006 A 
ENDBRANCH  62  83
BRANCH  74  91
ATOM     91  C   UNL     1       5.826  -7.524 -10.239  1.00  0.00     0.057 A 
ATOM     92  C   UNL     1       4.973  -8.629 -10.374  1.00  0.00     0.134 A 
ATOM     93  C   UNL     1       6.947  -7.516 -11.094  1.00  0.00     0.134 A 
ATOM     94  F   UNL     1       3.815  -8.703  -9.703  1.00  0.00    -0.206 F 
ATOM     95  C   UNL     1       5.253  -9.689 -11.245  1.00  0.00     0.040 A 
ATOM     96  C   UNL     1       7.212  -8.544 -12.002  1.00  0.00     0.040 A 
ATOM     97  F   UNL     1       7.822  -6.498 -11.091  1.00  0.00    -0.206 F 
ATOM     98  C   UNL     1       6.373  -9.647 -12.067  1.00  0.00     0.006 A 
ENDBRANCH  74  91
ENDBRANCH  48  49
ENDBRANCH  40  43
ENDBRANCH  38  39
ENDBRANCH  37  38
ENDBRANCH   1  37
TORSDOF 16
