REMARK SMILES C[C@@H](SCCC(=O)NCCCNC(=O)c1ccc(-c2c3nc(c(-c4c(F)cccc4F)c4ccc([nH]4)c(-c4c(F)cccc4F)c4nc(c(-c5c(F)cccc5F)c5ccc2[nH]5)C=C4)C=C3)cc1)C(=O)Nc1ccc(C(N)=O)cc1
REMARK SMILES IDX 6 1 7 2 8 3 5 5 4 6 3 7 2 8 1 9 69 10 70 11 71 12 72 14
REMARK SMILES IDX 73 15 80 16 74 17 79 18 75 19 76 20 77 21 78 22 9 25 10 26
REMARK SMILES IDX 11 27 12 28 13 29 14 31 15 32 16 33 68 34 17 35 67 36 18 37
REMARK SMILES IDX 19 38 20 39 61 40 21 41 66 42 60 43 62 44 22 45 65 46 59 47
REMARK SMILES IDX 58 48 23 50 49 51 32 52 48 53 33 54 36 55 47 56 63 57 34 58
REMARK SMILES IDX 35 59 46 61 64 62 37 63 24 64 25 65 30 66 26 67 27 68 29 69
REMARK SMILES IDX 31 70 28 71 50 72 51 73 56 74 52 75 53 76 55 77 57 78 54 79
REMARK SMILES IDX 38 80 39 81 44 82 40 83 41 84 43 85 45 86 42 87
REMARK H PARENT 8 4 71 13 77 23 77 24 12 30 62 49 36 60
REMARK Flexibility Score: inf
ROOT
ATOM      1  C   UNL     1       2.741  -0.107  -2.506  1.00  0.00     0.220 C 
ATOM      2  O   UNL     1       3.463   0.675  -1.884  1.00  0.00    -0.275 OA
ATOM      3  N   UNL     1       1.726   0.426  -3.239  1.00  0.00    -0.356 N 
ATOM      4  H   UNL     1       1.640   1.403  -3.154  1.00  0.00     0.163 HD
ENDROOT
BRANCH   1   5
ATOM      5  C   UNL     1       2.982  -1.598  -2.448  1.00  0.00     0.111 C 
BRANCH   5   6
ATOM      6  C   UNL     1       2.966  -2.134  -1.015  1.00  0.00     0.080 C 
BRANCH   6   7
ATOM      7  S   UNL     1       1.329  -2.735  -0.429  1.00  0.00    -0.148 SA
BRANCH   7   8
ATOM      8  C   UNL     1       0.423  -1.161  -0.218  1.00  0.00     0.133 C 
ATOM      9  C   UNL     1       1.077  -0.178   0.740  1.00  0.00     0.030 C 
BRANCH   8  10
ATOM     10  C   UNL     1      -1.095  -1.402  -0.060  1.00  0.00     0.237 C 
ATOM     11  O   UNL     1      -1.823  -1.623  -1.036  1.00  0.00    -0.273 OA
ATOM     12  N   UNL     1      -1.729  -1.397   1.153  1.00  0.00    -0.325 N 
ATOM     13  H   UNL     1      -2.527  -0.837   1.294  1.00  0.00     0.169 HD
BRANCH  12  14
ATOM     14  C   UNL     1      -1.236  -2.191   2.187  1.00  0.00     0.041 A 
ATOM     15  C   UNL     1      -1.557  -3.549   2.176  1.00  0.00     0.027 A 
ATOM     16  C   UNL     1      -0.369  -1.659   3.130  1.00  0.00     0.027 A 
ATOM     17  C   UNL     1      -0.894  -4.410   3.042  1.00  0.00     0.016 A 
ATOM     18  C   UNL     1       0.312  -2.521   3.980  1.00  0.00     0.016 A 
ATOM     19  C   UNL     1       0.067  -3.899   3.924  1.00  0.00     0.039 A 
BRANCH  19  20
ATOM     20  C   UNL     1       0.900  -4.785   4.769  1.00  0.00     0.248 C 
ATOM     21  N   UNL     1       0.363  -5.988   5.128  1.00  0.00    -0.366 N 
ATOM     22  O   UNL     1       2.014  -4.450   5.142  1.00  0.00    -0.270 OA
ATOM     23  H   UNL     1      -0.537  -6.238   4.817  1.00  0.00     0.159 HD
ATOM     24  H   UNL     1       0.876  -6.605   5.698  1.00  0.00     0.159 HD
ENDBRANCH  19  20
ENDBRANCH  12  14
ENDBRANCH   8  10
ENDBRANCH   7   8
ENDBRANCH   6   7
ENDBRANCH   5   6
ENDBRANCH   1   5
BRANCH   3  25
ATOM     25  C   UNL     1       0.746  -0.180  -4.123  1.00  0.00     0.117 C 
BRANCH  25  26
ATOM     26  C   UNL     1      -0.676  -0.282  -3.552  1.00  0.00     0.042 C 
BRANCH  26  27
ATOM     27  C   UNL     1      -1.187   0.924  -2.730  1.00  0.00     0.118 C 
BRANCH  27  28
ATOM     28  N   UNL     1      -2.549   1.276  -3.099  1.00  0.00    -0.352 N 
ATOM     29  C   UNL     1      -3.784   1.145  -2.522  1.00  0.00     0.251 C 
ATOM     30  H   UNL     1      -2.594   1.717  -3.978  1.00  0.00     0.163 HD
ATOM     31  O   UNL     1      -4.747   1.328  -3.275  1.00  0.00    -0.269 OA
BRANCH  29  32
ATOM     32  C   UNL     1      -4.088   0.852  -1.090  1.00  0.00     0.039 A 
ATOM     33  C   UNL     1      -5.296   0.175  -0.843  1.00  0.00     0.014 A 
ATOM     34  C   UNL     1      -3.409   1.391   0.006  1.00  0.00     0.014 A 
ATOM     35  C   UNL     1      -5.833   0.067   0.450  1.00  0.00     0.010 A 
ATOM     36  C   UNL     1      -3.935   1.246   1.319  1.00  0.00     0.010 A 
ATOM     37  C   UNL     1      -5.165   0.602   1.560  1.00  0.00    -0.014 A 
BRANCH  37  38
ATOM     38  C   UNL     1      -5.782   0.483   2.929  1.00  0.00     0.031 A 
ATOM     39  C   UNL     1      -6.266   1.695   3.696  1.00  0.00     0.074 A 
ATOM     40  C   UNL     1      -5.970  -0.732   3.491  1.00  0.00     0.049 A 
ATOM     41  N   UNL     1      -6.835   1.759   4.880  1.00  0.00    -0.248 NA
ATOM     42  C   UNL     1      -6.091   3.003   3.053  1.00  0.00     0.031 C 
ATOM     43  C   UNL     1      -5.591  -2.008   2.888  1.00  0.00     0.029 A 
ATOM     44  N   UNL     1      -6.533  -1.093   4.697  1.00  0.00    -0.354 N 
ATOM     45  C   UNL     1      -7.075   3.107   5.127  1.00  0.00     0.074 A 
ATOM     46  C   UNL     1      -6.561   3.830   3.980  1.00  0.00     0.031 C 
ATOM     47  C   UNL     1      -5.939  -3.008   3.714  1.00  0.00     0.029 A 
ATOM     48  C   UNL     1      -6.529  -2.449   4.929  1.00  0.00     0.049 A 
ATOM     49  H   UNL     1      -6.903  -0.440   5.334  1.00  0.00     0.167 HD
ATOM     50  C   UNL     1      -7.673   3.696   6.195  1.00  0.00     0.037 A 
ATOM     51  C   UNL     1      -6.933  -3.173   5.994  1.00  0.00     0.037 A 
ATOM     52  C   UNL     1      -8.210   2.998   7.341  1.00  0.00     0.049 A 
ATOM     53  C   UNL     1      -7.545  -2.494   7.191  1.00  0.00     0.074 A 
ATOM     54  C   UNL     1      -8.868   3.530   8.441  1.00  0.00     0.029 A 
ATOM     55  N   UNL     1      -8.147   1.630   7.545  1.00  0.00    -0.354 N 
ATOM     56  N   UNL     1      -7.793  -1.222   7.384  1.00  0.00    -0.248 NA
ATOM     57  C   UNL     1      -7.939  -3.355   8.318  1.00  0.00     0.031 C 
ATOM     58  C   UNL     1      -9.146   2.493   9.337  1.00  0.00     0.029 A 
ATOM     59  C   UNL     1      -8.722   1.305   8.767  1.00  0.00     0.049 A 
ATOM     60  H   UNL     1      -7.752   0.983   6.917  1.00  0.00     0.167 HD
ATOM     61  C   UNL     1      -8.395  -1.136   8.636  1.00  0.00     0.074 A 
ATOM     62  C   UNL     1      -8.490  -2.484   9.151  1.00  0.00     0.031 C 
ATOM     63  C   UNL     1      -8.828  -0.033   9.292  1.00  0.00     0.037 A 
BRANCH  50  64
ATOM     64  C   UNL     1      -7.777   5.198   6.202  1.00  0.00     0.057 A 
ATOM     65  C   UNL     1      -8.659   5.886   5.359  1.00  0.00     0.134 A 
ATOM     66  C   UNL     1      -7.044   5.959   7.124  1.00  0.00     0.134 A 
ATOM     67  F   UNL     1      -9.394   5.220   4.455  1.00  0.00    -0.206 F 
ATOM     68  C   UNL     1      -8.790   7.276   5.415  1.00  0.00     0.040 A 
ATOM     69  C   UNL     1      -7.188   7.346   7.209  1.00  0.00     0.040 A 
ATOM     70  F   UNL     1      -6.196   5.365   7.977  1.00  0.00    -0.206 F 
ATOM     71  C   UNL     1      -8.059   8.009   6.348  1.00  0.00     0.006 A 
ENDBRANCH  50  64
BRANCH  51  72
ATOM     72  C   UNL     1      -6.758  -4.651   5.991  1.00  0.00     0.057 A 
ATOM     73  C   UNL     1      -7.858  -5.516   5.959  1.00  0.00     0.134 A 
ATOM     74  C   UNL     1      -5.485  -5.231   6.053  1.00  0.00     0.134 A 
ATOM     75  F   UNL     1      -9.105  -5.023   5.929  1.00  0.00    -0.206 F 
ATOM     76  C   UNL     1      -7.700  -6.903   6.007  1.00  0.00     0.040 A 
ATOM     77  C   UNL     1      -5.311  -6.615   6.072  1.00  0.00     0.040 A 
ATOM     78  F   UNL     1      -4.388  -4.459   6.084  1.00  0.00    -0.206 F 
ATOM     79  C   UNL     1      -6.422  -7.456   6.057  1.00  0.00     0.006 A 
ENDBRANCH  51  72
BRANCH  63  80
ATOM     80  C   UNL     1      -9.485  -0.226  10.633  1.00  0.00     0.057 A 
ATOM     81  C   UNL     1      -8.764  -0.623  11.767  1.00  0.00     0.134 A 
ATOM     82  C   UNL     1     -10.855   0.023  10.800  1.00  0.00     0.134 A 
ATOM     83  F   UNL     1      -7.452  -0.890  11.680  1.00  0.00    -0.206 F 
ATOM     84  C   UNL     1      -9.384  -0.790  13.008  1.00  0.00     0.040 A 
ATOM     85  C   UNL     1     -11.480  -0.112  12.041  1.00  0.00     0.040 A 
ATOM     86  F   UNL     1     -11.608   0.414   9.761  1.00  0.00    -0.206 F 
ATOM     87  C   UNL     1     -10.745  -0.527  13.149  1.00  0.00     0.006 A 
ENDBRANCH  63  80
ENDBRANCH  37  38
ENDBRANCH  29  32
ENDBRANCH  27  28
ENDBRANCH  26  27
ENDBRANCH  25  26
ENDBRANCH   3  25
TORSDOF 16
