REMARK SMILES CC(C)(C)OC(=O)N1CCN(N[C@@H](C(=O)NCCCNC(=O)c2ccc(-c3c4nc(c(-c5c(F)cccc5F)c5ccc([nH]5)c(-c5c(F)cccc5F)c5nc(c(-c6c(F)cccc6F)c6ccc3[nH]6)C=C5)C=C4)cc2)c2ccccc2Cl)CC1
REMARK SMILES IDX 17 1 16 2 14 3 15 4 13 6 12 7 11 9 6 10 7 11 8 12 9 13 85 14
REMARK SMILES IDX 10 15 84 16 5 17 2 18 1 19 3 20 4 21 77 22 78 23 82 24 79 25
REMARK SMILES IDX 81 26 83 27 80 28 18 29 19 30 20 31 21 32 22 34 23 35 24 36
REMARK SMILES IDX 76 37 25 38 75 39 26 40 27 41 28 42 69 43 29 44 74 45 68 46
REMARK SMILES IDX 70 47 30 48 73 49 67 50 66 51 31 53 57 54 40 55 56 56 41 57
REMARK SMILES IDX 44 58 55 59 71 60 42 61 43 62 54 64 72 65 45 66 32 67 33 68
REMARK SMILES IDX 38 69 34 70 35 71 37 72 39 73 36 74 58 75 59 76 64 77 60 78
REMARK SMILES IDX 61 79 63 80 65 81 62 82 46 83 47 84 52 85 48 86 49 87 51 88
REMARK SMILES IDX 53 89 50 90
REMARK H PARENT 16 5 12 8 20 33 70 52 44 63
REMARK Flexibility Score: inf
ROOT
ATOM      1  C   UNL     1       0.090  -1.902  -8.664  1.00  0.00     0.117 C 
ENDROOT
BRANCH   1   2
ATOM      2  N   UNL     1       1.052  -2.522  -9.548  1.00  0.00    -0.354 N 
ATOM      3  C   UNL     1       1.837  -3.629  -9.378  1.00  0.00     0.243 C 
ATOM      4  O   UNL     1       2.571  -3.882 -10.340  1.00  0.00    -0.273 OA
ATOM      5  H   UNL     1       1.160  -2.073 -10.417  1.00  0.00     0.163 HD
BRANCH   3   6
ATOM      6  C   UNL     1       1.716  -4.561  -8.124  1.00  0.00     0.190 C 
BRANCH   6   7
ATOM      7  N   UNL     1       2.333  -4.020  -6.873  1.00  0.00    -0.238 NA
ATOM      8  H   UNL     1       2.524  -4.805  -6.250  1.00  0.00     0.143 HD
BRANCH   7   9
ATOM      9  N   UNL     1       1.515  -3.063  -6.153  1.00  0.00    -0.240 NA
ATOM     10  C   UNL     1       0.644  -3.166  -2.153  1.00  0.00     0.410 C 
ATOM     11  O   UNL     1      -0.356  -3.726  -1.734  1.00  0.00    -0.224 OA
ATOM     12  N   UNL     1       1.319  -3.582  -3.283  1.00  0.00    -0.306 N 
ATOM     13  C   UNL     1       0.656  -4.476  -4.216  1.00  0.00     0.140 C 
ATOM     14  C   UNL     1       2.563  -3.020  -3.795  1.00  0.00     0.140 C 
ATOM     15  C   UNL     1       0.340  -3.692  -5.495  1.00  0.00     0.124 C 
ATOM     16  C   UNL     1       2.334  -2.319  -5.151  1.00  0.00     0.124 C 
BRANCH  10  17
ATOM     17  O   UNL     1       1.190  -2.051  -1.599  1.00  0.00    -0.444 OA
BRANCH  17  18
ATOM     18  C   UNL     1       0.639  -1.496  -0.373  1.00  0.00     0.106 C 
ATOM     19  C   UNL     1       1.338  -0.139  -0.201  1.00  0.00     0.056 C 
ATOM     20  C   UNL     1       1.007  -2.403   0.804  1.00  0.00     0.056 C 
ATOM     21  C   UNL     1      -0.874  -1.237  -0.439  1.00  0.00     0.056 C 
ENDBRANCH  17  18
ENDBRANCH  10  17
ENDBRANCH   7   9
ENDBRANCH   6   7
BRANCH   6  22
ATOM     22  C   UNL     1       2.329  -5.946  -8.384  1.00  0.00    -0.002 A 
ATOM     23  C   UNL     1       1.485  -7.074  -8.325  1.00  0.00     0.007 A 
ATOM     24  C   UNL     1       3.697  -6.160  -8.653  1.00  0.00     0.046 A 
ATOM     25  C   UNL     1       1.979  -8.360  -8.561  1.00  0.00     0.000 A 
ATOM     26  C   UNL     1       4.179  -7.448  -8.916  1.00  0.00     0.021 A 
ATOM     27  Cl  UNL     1       4.877  -4.891  -8.616  1.00  0.00    -0.084 Cl
ATOM     28  C   UNL     1       3.322  -8.545  -8.872  1.00  0.00     0.002 A 
ENDBRANCH   6  22
ENDBRANCH   3   6
ENDBRANCH   1   2
BRANCH   1  29
ATOM     29  C   UNL     1       0.711  -0.737  -7.898  1.00  0.00     0.042 C 
BRANCH  29  30
ATOM     30  C   UNL     1       0.823   0.547  -8.702  1.00  0.00     0.118 C 
BRANCH  30  31
ATOM     31  N   UNL     1      -0.461   1.206  -8.876  1.00  0.00    -0.352 N 
ATOM     32  C   UNL     1      -0.851   2.480  -8.547  1.00  0.00     0.251 C 
ATOM     33  H   UNL     1      -1.158   0.652  -9.296  1.00  0.00     0.163 HD
ATOM     34  O   UNL     1      -2.042   2.777  -8.610  1.00  0.00    -0.269 OA
BRANCH  32  35
ATOM     35  C   UNL     1       0.134   3.495  -8.104  1.00  0.00     0.039 A 
ATOM     36  C   UNL     1      -0.250   4.417  -7.123  1.00  0.00     0.014 A 
ATOM     37  C   UNL     1       1.406   3.587  -8.676  1.00  0.00     0.014 A 
ATOM     38  C   UNL     1       0.647   5.399  -6.694  1.00  0.00     0.010 A 
ATOM     39  C   UNL     1       2.329   4.509  -8.187  1.00  0.00     0.010 A 
ATOM     40  C   UNL     1       1.952   5.440  -7.208  1.00  0.00    -0.014 A 
BRANCH  40  41
ATOM     41  C   UNL     1       2.921   6.480  -6.779  1.00  0.00     0.031 A 
ATOM     42  C   UNL     1       3.437   7.481  -7.779  1.00  0.00     0.074 A 
ATOM     43  C   UNL     1       3.380   6.493  -5.513  1.00  0.00     0.049 A 
ATOM     44  N   UNL     1       4.348   8.408  -7.630  1.00  0.00    -0.248 NA
ATOM     45  C   UNL     1       2.874   7.408  -9.137  1.00  0.00     0.031 C 
ATOM     46  C   UNL     1       2.991   5.553  -4.460  1.00  0.00     0.029 A 
ATOM     47  N   UNL     1       4.285   7.322  -4.900  1.00  0.00    -0.354 N 
ATOM     48  C   UNL     1       4.485   9.007  -8.876  1.00  0.00     0.074 A 
ATOM     49  C   UNL     1       3.602   8.307  -9.782  1.00  0.00     0.031 C 
ATOM     50  C   UNL     1       3.636   5.872  -3.327  1.00  0.00     0.029 A 
ATOM     51  C   UNL     1       4.508   7.014  -3.580  1.00  0.00     0.049 A 
ATOM     52  H   UNL     1       4.732   8.068  -5.362  1.00  0.00     0.167 HD
ATOM     53  C   UNL     1       5.258  10.062  -9.230  1.00  0.00     0.037 A 
ATOM     54  C   UNL     1       5.328   7.587  -2.679  1.00  0.00     0.037 A 
ATOM     55  C   UNL     1       6.104  10.784  -8.318  1.00  0.00     0.049 A 
ATOM     56  C   UNL     1       6.162   8.769  -3.090  1.00  0.00     0.074 A 
ATOM     57  C   UNL     1       6.883  11.901  -8.563  1.00  0.00     0.029 A 
ATOM     58  N   UNL     1       6.276  10.461  -6.980  1.00  0.00    -0.354 N 
ATOM     59  N   UNL     1       6.242   9.357  -4.259  1.00  0.00    -0.248 NA
ATOM     60  C   UNL     1       7.013   9.371  -2.054  1.00  0.00     0.031 C 
ATOM     61  C   UNL     1       7.550  12.236  -7.380  1.00  0.00     0.029 A 
ATOM     62  C   UNL     1       7.155  11.352  -6.389  1.00  0.00     0.049 A 
ATOM     63  H   UNL     1       5.837   9.710  -6.519  1.00  0.00     0.167 HD
ATOM     64  C   UNL     1       7.127  10.415  -4.093  1.00  0.00     0.074 A 
ATOM     65  C   UNL     1       7.549  10.393  -2.707  1.00  0.00     0.031 C 
ATOM     66  C   UNL     1       7.552  11.322  -5.005  1.00  0.00     0.037 A 
BRANCH  53  67
ATOM     67  C   UNL     1       5.215  10.499 -10.665  1.00  0.00     0.057 A 
ATOM     68  C   UNL     1       4.088  11.127 -11.212  1.00  0.00     0.134 A 
ATOM     69  C   UNL     1       6.319  10.311 -11.505  1.00  0.00     0.134 A 
ATOM     70  F   UNL     1       2.991  11.325 -10.466  1.00  0.00    -0.206 F 
ATOM     71  C   UNL     1       4.050  11.525 -12.550  1.00  0.00     0.040 A 
ATOM     72  C   UNL     1       6.303  10.729 -12.837  1.00  0.00     0.040 A 
ATOM     73  F   UNL     1       7.433   9.722 -11.045  1.00  0.00    -0.206 F 
ATOM     74  C   UNL     1       5.163  11.332 -13.365  1.00  0.00     0.006 A 
ENDBRANCH  53  67
BRANCH  54  75
ATOM     75  C   UNL     1       5.377   7.072  -1.288  1.00  0.00     0.057 A 
ATOM     76  C   UNL     1       4.831   7.807  -0.229  1.00  0.00     0.134 A 
ATOM     77  C   UNL     1       5.969   5.841  -0.981  1.00  0.00     0.134 A 
ATOM     78  F   UNL     1       4.266   9.002  -0.458  1.00  0.00    -0.206 F 
ATOM     79  C   UNL     1       4.888   7.346   1.087  1.00  0.00     0.040 A 
ATOM     80  C   UNL     1       6.012   5.357   0.327  1.00  0.00     0.040 A 
ATOM     81  F   UNL     1       6.502   5.086  -1.953  1.00  0.00    -0.206 F 
ATOM     82  C   UNL     1       5.476   6.115   1.367  1.00  0.00     0.006 A 
ENDBRANCH  54  75
BRANCH  66  83
ATOM     83  C   UNL     1       8.488  12.390  -4.524  1.00  0.00     0.057 A 
ATOM     84  C   UNL     1       9.831  12.121  -4.237  1.00  0.00     0.134 A 
ATOM     85  C   UNL     1       8.046  13.713  -4.388  1.00  0.00     0.134 A 
ATOM     86  F   UNL     1      10.311  10.872  -4.336  1.00  0.00    -0.206 F 
ATOM     87  C   UNL     1      10.699  13.128  -3.811  1.00  0.00     0.040 A 
ATOM     88  C   UNL     1       8.911  14.732  -3.986  1.00  0.00     0.040 A 
ATOM     89  F   UNL     1       6.773  14.037  -4.656  1.00  0.00    -0.206 F 
ATOM     90  C   UNL     1      10.241  14.439  -3.691  1.00  0.00     0.006 A 
ENDBRANCH  66  83
ENDBRANCH  40  41
ENDBRANCH  32  35
ENDBRANCH  30  31
ENDBRANCH  29  30
ENDBRANCH   1  29
TORSDOF 15
