REMARK SMILES COCC1CCN(C(=O)NC[C@H]2CC[C@H](C(=O)NCCCNC(=O)c3ccc(-c4c5nc(c(-c6c(F)cccc6F)c6ccc([nH]6)c(-c6c(F)cccc6F)c6nc(c(-c7c(F)cccc7F)c7ccc4[nH]7)C=C6)C=C5)cc3)O2)CC1
REMARK SMILES IDX 19 1 18 2 16 3 17 4 15 6 12 7 13 8 79 9 14 10 11 11 10 12
REMARK SMILES IDX 4 13 5 14 81 15 6 16 80 17 7 18 8 19 9 20 3 22 2 23 1 24
REMARK SMILES IDX 20 25 21 26 22 27 23 28 24 30 25 31 26 32 78 33 27 34 77 35
REMARK SMILES IDX 28 36 29 37 30 38 71 39 31 40 76 41 70 42 72 43 32 44 75 45
REMARK SMILES IDX 69 46 68 47 33 49 59 50 42 51 58 52 43 53 46 54 57 55 73 56
REMARK SMILES IDX 44 57 45 58 56 60 74 61 47 62 34 63 35 64 40 65 36 66 37 67
REMARK SMILES IDX 39 68 41 69 38 70 60 71 61 72 66 73 62 74 63 75 65 76 67 77
REMARK SMILES IDX 64 78 48 79 49 80 54 81 50 82 51 83 53 84 55 85 52 86
REMARK H PARENT 18 5 10 21 22 29 72 48 46 59
REMARK Flexibility Score: inf
ROOT
ATOM      1  C   UNL     1       2.957   2.907  -6.602  1.00  0.00     0.117 C 
ENDROOT
BRANCH   1   2
ATOM      2  N   UNL     1       4.340   3.256  -6.845  1.00  0.00    -0.354 N 
ATOM      3  C   UNL     1       5.356   3.468  -5.959  1.00  0.00     0.249 C 
ATOM      4  O   UNL     1       6.461   3.759  -6.427  1.00  0.00    -0.272 OA
ATOM      5  H   UNL     1       4.585   3.355  -7.793  1.00  0.00     0.163 HD
BRANCH   3   6
ATOM      6  C   UNL     1       5.124   3.452  -4.430  1.00  0.00     0.207 C 
ATOM      7  C   UNL     1       3.283   2.898  -3.079  1.00  0.00     0.138 C 
ATOM      8  C   UNL     1       3.231   4.405  -3.286  1.00  0.00     0.037 C 
ATOM      9  O   UNL     1       4.330   2.385  -3.916  1.00  0.00    -0.363 OA
ATOM     10  C   UNL     1       4.539   4.769  -3.945  1.00  0.00     0.045 C 
BRANCH   7  11
ATOM     11  C   UNL     1       3.385   2.379  -1.624  1.00  0.00     0.149 C 
BRANCH  11  12
ATOM     12  N   UNL     1       4.649   1.736  -1.284  1.00  0.00    -0.335 N 
ATOM     13  C   UNL     1       6.063   5.656   1.632  1.00  0.00     0.018 C 
ATOM     14  C   UNL     1       6.851   4.383   2.012  1.00  0.00     0.027 C 
ATOM     15  C   UNL     1       4.863   5.249   0.774  1.00  0.00     0.027 C 
ATOM     16  C   UNL     1       7.155   3.458   0.822  1.00  0.00     0.121 C 
ATOM     17  C   UNL     1       5.358   4.494  -0.445  1.00  0.00     0.121 C 
ATOM     18  N   UNL     1       5.985   3.259  -0.039  1.00  0.00    -0.325 N 
ATOM     19  C   UNL     1       5.726   2.011  -0.526  1.00  0.00     0.317 C 
ATOM     20  O   UNL     1       6.475   1.056  -0.299  1.00  0.00    -0.249 OA
ATOM     21  H   UNL     1       4.739   0.864  -1.731  1.00  0.00     0.165 HD
BRANCH  13  22
ATOM     22  C   UNL     1       6.961   6.706   0.946  1.00  0.00     0.163 C 
BRANCH  22  23
ATOM     23  O   UNL     1       6.212   7.849   0.526  1.00  0.00    -0.384 OA
ATOM     24  C   UNL     1       5.991   7.925  -0.878  1.00  0.00     0.194 C 
ENDBRANCH  22  23
ENDBRANCH  13  22
ENDBRANCH  11  12
ENDBRANCH   7  11
ENDBRANCH   3   6
ENDBRANCH   1   2
BRANCH   1  25
ATOM     25  C   UNL     1       2.036   4.120  -6.686  1.00  0.00     0.042 C 
BRANCH  25  26
ATOM     26  C   UNL     1       1.586   4.429  -8.107  1.00  0.00     0.118 C 
BRANCH  26  27
ATOM     27  N   UNL     1       0.708   3.390  -8.631  1.00  0.00    -0.352 N 
ATOM     28  C   UNL     1      -0.592   3.453  -9.062  1.00  0.00     0.251 C 
ATOM     29  H   UNL     1       1.115   2.496  -8.684  1.00  0.00     0.163 HD
ATOM     30  O   UNL     1      -1.217   2.412  -9.237  1.00  0.00    -0.269 OA
BRANCH  28  31
ATOM     31  C   UNL     1      -1.249   4.755  -9.309  1.00  0.00     0.039 A 
ATOM     32  C   UNL     1      -2.605   4.891  -8.993  1.00  0.00     0.014 A 
ATOM     33  C   UNL     1      -0.561   5.819  -9.897  1.00  0.00     0.014 A 
ATOM     34  C   UNL     1      -3.253   6.107  -9.216  1.00  0.00     0.010 A 
ATOM     35  C   UNL     1      -1.185   7.054 -10.046  1.00  0.00     0.010 A 
ATOM     36  C   UNL     1      -2.539   7.208  -9.713  1.00  0.00    -0.014 A 
BRANCH  36  37
ATOM     37  C   UNL     1      -3.190   8.528  -9.895  1.00  0.00     0.031 A 
ATOM     38  C   UNL     1      -3.326   9.124 -11.269  1.00  0.00     0.074 A 
ATOM     39  C   UNL     1      -3.599   9.219  -8.813  1.00  0.00     0.049 A 
ATOM     40  N   UNL     1      -3.792  10.296 -11.619  1.00  0.00    -0.248 NA
ATOM     41  C   UNL     1      -2.849   8.306 -12.396  1.00  0.00     0.031 C 
ATOM     42  C   UNL     1      -3.479   8.766  -7.425  1.00  0.00     0.029 A 
ATOM     43  N   UNL     1      -4.187  10.453  -8.709  1.00  0.00    -0.354 N 
ATOM     44  C   UNL     1      -3.651  10.362 -12.999  1.00  0.00     0.074 A 
ATOM     45  C   UNL     1      -3.010   9.134 -13.418  1.00  0.00     0.031 C 
ATOM     46  C   UNL     1      -3.996   9.700  -6.612  1.00  0.00     0.029 A 
ATOM     47  C   UNL     1      -4.449  10.831  -7.415  1.00  0.00     0.049 A 
ATOM     48  H   UNL     1      -4.401  11.015  -9.489  1.00  0.00     0.167 HD
ATOM     49  C   UNL     1      -4.040  11.347 -13.843  1.00  0.00     0.037 A 
ATOM     50  C   UNL     1      -4.985  11.966  -6.929  1.00  0.00     0.037 A 
ATOM     51  C   UNL     1      -4.702  12.554 -13.424  1.00  0.00     0.049 A 
ATOM     52  C   UNL     1      -5.409  13.044  -7.887  1.00  0.00     0.074 A 
ATOM     53  C   UNL     1      -5.191  13.586 -14.207  1.00  0.00     0.029 A 
ATOM     54  N   UNL     1      -4.969  12.891 -12.106  1.00  0.00    -0.354 N 
ATOM     55  N   UNL     1      -5.326  13.065  -9.196  1.00  0.00    -0.248 NA
ATOM     56  C   UNL     1      -6.005  14.252  -7.302  1.00  0.00     0.031 C 
ATOM     57  C   UNL     1      -5.718  14.566 -13.359  1.00  0.00     0.029 A 
ATOM     58  C   UNL     1      -5.597  14.124 -12.051  1.00  0.00     0.049 A 
ATOM     59  H   UNL     1      -4.744  12.336 -11.324  1.00  0.00     0.167 HD
ATOM     60  C   UNL     1      -5.881  14.275  -9.592  1.00  0.00     0.074 A 
ATOM     61  C   UNL     1      -6.311  14.952  -8.386  1.00  0.00     0.031 C 
ATOM     62  C   UNL     1      -6.022  14.780 -10.841  1.00  0.00     0.037 A 
BRANCH  49  63
ATOM     63  C   UNL     1      -3.765  11.156 -15.306  1.00  0.00     0.057 A 
ATOM     64  C   UNL     1      -4.466  10.215 -16.073  1.00  0.00     0.134 A 
ATOM     65  C   UNL     1      -2.816  11.948 -15.966  1.00  0.00     0.134 A 
ATOM     66  F   UNL     1      -5.380   9.417 -15.500  1.00  0.00    -0.206 F 
ATOM     67  C   UNL     1      -4.216  10.052 -17.436  1.00  0.00     0.040 A 
ATOM     68  C   UNL     1      -2.577  11.812 -17.335  1.00  0.00     0.040 A 
ATOM     69  F   UNL     1      -2.114  12.871 -15.294  1.00  0.00    -0.206 F 
ATOM     70  C   UNL     1      -3.274  10.857 -18.073  1.00  0.00     0.006 A 
ENDBRANCH  49  63
BRANCH  50  71
ATOM     71  C   UNL     1      -5.172  12.133  -5.467  1.00  0.00     0.057 A 
ATOM     72  C   UNL     1      -6.451  12.125  -4.898  1.00  0.00     0.134 A 
ATOM     73  C   UNL     1      -4.084  12.308  -4.604  1.00  0.00     0.134 A 
ATOM     74  F   UNL     1      -7.534  11.978  -5.676  1.00  0.00    -0.206 F 
ATOM     75  C   UNL     1      -6.644  12.305  -3.528  1.00  0.00     0.040 A 
ATOM     76  C   UNL     1      -4.260  12.464  -3.228  1.00  0.00     0.040 A 
ATOM     77  F   UNL     1      -2.832  12.315  -5.085  1.00  0.00    -0.206 F 
ATOM     78  C   UNL     1      -5.544  12.471  -2.688  1.00  0.00     0.006 A 
ENDBRANCH  50  71
BRANCH  62  79
ATOM     79  C   UNL     1      -6.695  16.115 -10.967  1.00  0.00     0.057 A 
ATOM     80  C   UNL     1      -6.055  17.302 -10.591  1.00  0.00     0.134 A 
ATOM     81  C   UNL     1      -7.985  16.215 -11.503  1.00  0.00     0.134 A 
ATOM     82  F   UNL     1      -4.824  17.272 -10.057  1.00  0.00    -0.206 F 
ATOM     83  C   UNL     1      -6.683  18.541 -10.723  1.00  0.00     0.040 A 
ATOM     84  C   UNL     1      -8.613  17.450 -11.664  1.00  0.00     0.040 A 
ATOM     85  F   UNL     1      -8.649  15.115 -11.890  1.00  0.00    -0.206 F 
ATOM     86  C   UNL     1      -7.964  18.617 -11.268  1.00  0.00     0.006 A 
ENDBRANCH  62  79
ENDBRANCH  36  37
ENDBRANCH  28  31
ENDBRANCH  26  27
ENDBRANCH  25  26
ENDBRANCH   1  25
TORSDOF 14
