REMARK SMILES Cc1nn(C)c(C)c1CNC(=O)N[C@H]1CC[C@@H](C(=O)NCCCNC(=O)c2ccc(-c3c4nc(c(-c5c(F)cccc5F)c5ccc([nH]5)c(-c5c(F)cccc5F)c5nc(c(-c6c(F)cccc6F)c6ccc3[nH]6)C=C5)C=C4)cc2)C1
REMARK SMILES IDX 21 1 20 2 18 3 19 4 17 6 14 7 15 8 81 9 16 10 13 11 10 12
REMARK SMILES IDX 11 13 12 15 9 17 8 18 1 19 2 20 3 21 4 22 6 23 5 24 7 25
REMARK SMILES IDX 22 26 23 27 24 28 25 29 26 31 27 32 28 33 80 34 29 35 79 36
REMARK SMILES IDX 30 37 31 38 32 39 73 40 33 41 78 42 72 43 74 44 34 45 77 46
REMARK SMILES IDX 71 47 70 48 35 50 61 51 44 52 60 53 45 54 48 55 59 56 75 57
REMARK SMILES IDX 46 58 47 59 58 61 76 62 49 63 36 64 37 65 42 66 38 67 39 68
REMARK SMILES IDX 41 69 43 70 40 71 62 72 63 73 68 74 64 75 65 76 67 77 69 78
REMARK SMILES IDX 66 79 50 80 51 81 56 82 52 83 53 84 55 85 57 86 54 87
REMARK H PARENT 20 5 10 14 13 16 24 30 74 49 48 60
REMARK Flexibility Score: inf
ROOT
ATOM      1  C   UNL     1      -1.949   4.873  -3.104  1.00  0.00     0.117 C 
ENDROOT
BRANCH   1   2
ATOM      2  N   UNL     1      -1.249   4.727  -4.357  1.00  0.00    -0.356 N 
ATOM      3  C   UNL     1      -0.013   4.244  -4.634  1.00  0.00     0.223 C 
ATOM      4  O   UNL     1       0.249   4.069  -5.829  1.00  0.00    -0.275 OA
ATOM      5  H   UNL     1      -1.754   5.031  -5.146  1.00  0.00     0.163 HD
BRANCH   3   6
ATOM      6  C   UNL     1       1.020   3.847  -3.578  1.00  0.00     0.080 C 
ATOM      7  C   UNL     1       1.128   3.660  -1.113  1.00  0.00     0.084 C 
ATOM      8  C   UNL     1       1.595   2.362  -1.771  1.00  0.00     0.026 C 
ATOM      9  C   UNL     1       1.167   4.665  -2.285  1.00  0.00     0.038 C 
ATOM     10  C   UNL     1       0.906   2.388  -3.135  1.00  0.00     0.015 C 
BRANCH   7  11
ATOM     11  N   UNL     1      -0.210   3.444  -0.554  1.00  0.00    -0.335 N 
ATOM     12  N   UNL     1      -0.482   4.922   1.251  1.00  0.00    -0.334 N 
ATOM     13  C   UNL     1      -0.981   4.153   0.282  1.00  0.00     0.315 C 
ATOM     14  H   UNL     1      -1.026   5.707   1.490  1.00  0.00     0.165 HD
ATOM     15  O   UNL     1      -2.201   4.095   0.130  1.00  0.00    -0.249 OA
ATOM     16  H   UNL     1      -0.629   2.606  -0.857  1.00  0.00     0.165 HD
BRANCH  12  17
ATOM     17  C   UNL     1       0.738   4.765   1.994  1.00  0.00     0.157 C 
BRANCH  17  18
ATOM     18  C   UNL     1       1.427   6.071   2.186  1.00  0.00     0.015 A 
ATOM     19  C   UNL     1       3.035   5.352   4.127  1.00  0.00     0.069 C 
ATOM     20  C   UNL     1       2.431   6.312   3.168  1.00  0.00     0.065 A 
ATOM     21  N   UNL     1       2.827   7.587   3.176  1.00  0.00    -0.178 NA
ATOM     22  N   UNL     1       2.099   8.167   2.209  1.00  0.00    -0.272 N 
ATOM     23  C   UNL     1       1.305   7.286   1.518  1.00  0.00     0.040 A 
ATOM     24  C   UNL     1       2.208   9.598   2.045  1.00  0.00     0.174 C 
ATOM     25  C   UNL     1       0.505   7.693   0.334  1.00  0.00     0.067 C 
ENDBRANCH  17  18
ENDBRANCH  12  17
ENDBRANCH   7  11
ENDBRANCH   3   6
ENDBRANCH   1   2
BRANCH   1  26
ATOM     26  C   UNL     1      -2.028   6.319  -2.629  1.00  0.00     0.042 C 
BRANCH  26  27
ATOM     27  C   UNL     1      -3.437   6.884  -2.708  1.00  0.00     0.118 C 
BRANCH  27  28
ATOM     28  N   UNL     1      -4.372   6.216  -1.808  1.00  0.00    -0.352 N 
ATOM     29  C   UNL     1      -5.289   6.726  -0.924  1.00  0.00     0.251 C 
ATOM     30  H   UNL     1      -4.338   5.232  -1.840  1.00  0.00     0.163 HD
ATOM     31  O   UNL     1      -5.949   5.968  -0.217  1.00  0.00    -0.269 OA
BRANCH  29  32
ATOM     32  C   UNL     1      -5.454   8.185  -0.772  1.00  0.00     0.039 A 
ATOM     33  C   UNL     1      -5.617   8.709   0.515  1.00  0.00     0.014 A 
ATOM     34  C   UNL     1      -5.423   9.039  -1.873  1.00  0.00     0.014 A 
ATOM     35  C   UNL     1      -5.668  10.091   0.701  1.00  0.00     0.010 A 
ATOM     36  C   UNL     1      -5.353  10.412  -1.677  1.00  0.00     0.010 A 
ATOM     37  C   UNL     1      -5.487  10.954  -0.390  1.00  0.00    -0.014 A 
BRANCH  37  38
ATOM     38  C   UNL     1      -5.465  12.429  -0.226  1.00  0.00     0.031 A 
ATOM     39  C   UNL     1      -6.471  13.272  -0.963  1.00  0.00     0.074 A 
ATOM     40  C   UNL     1      -4.496  13.011   0.508  1.00  0.00     0.049 A 
ATOM     41  N   UNL     1      -6.539  14.574  -1.073  1.00  0.00    -0.248 NA
ATOM     42  C   UNL     1      -7.511  12.552  -1.718  1.00  0.00     0.031 C 
ATOM     43  C   UNL     1      -3.432  12.305   1.226  1.00  0.00     0.029 A 
ATOM     44  N   UNL     1      -4.241  14.335   0.760  1.00  0.00    -0.354 N 
ATOM     45  C   UNL     1      -7.600  14.822  -1.935  1.00  0.00     0.074 A 
ATOM     46  C   UNL     1      -8.106  13.539  -2.368  1.00  0.00     0.031 C 
ATOM     47  C   UNL     1      -2.660  13.200   1.862  1.00  0.00     0.029 A 
ATOM     48  C   UNL     1      -3.144  14.543   1.561  1.00  0.00     0.049 A 
ATOM     49  H   UNL     1      -4.792  15.067   0.400  1.00  0.00     0.167 HD
ATOM     50  C   UNL     1      -8.127  16.012  -2.308  1.00  0.00     0.037 A 
ATOM     51  C   UNL     1      -2.590  15.690   1.997  1.00  0.00     0.037 A 
ATOM     52  C   UNL     1      -7.656  17.282  -1.826  1.00  0.00     0.049 A 
ATOM     53  C   UNL     1      -3.213  16.999   1.596  1.00  0.00     0.074 A 
ATOM     54  C   UNL     1      -8.163  18.543  -2.080  1.00  0.00     0.029 A 
ATOM     55  N   UNL     1      -6.572  17.447  -0.977  1.00  0.00    -0.354 N 
ATOM     56  N   UNL     1      -4.252  17.217   0.826  1.00  0.00    -0.248 NA
ATOM     57  C   UNL     1      -2.592  18.219   2.128  1.00  0.00     0.031 C 
ATOM     58  C   UNL     1      -7.364  19.476  -1.412  1.00  0.00     0.029 A 
ATOM     59  C   UNL     1      -6.387  18.791  -0.706  1.00  0.00     0.049 A 
ATOM     60  H   UNL     1      -6.017  16.716  -0.620  1.00  0.00     0.167 HD
ATOM     61  C   UNL     1      -4.429  18.595   0.807  1.00  0.00     0.074 A 
ATOM     62  C   UNL     1      -3.396  19.159   1.651  1.00  0.00     0.031 C 
ATOM     63  C   UNL     1      -5.362  19.327   0.152  1.00  0.00     0.037 A 
BRANCH  50  64
ATOM     64  C   UNL     1      -9.280  15.989  -3.269  1.00  0.00     0.057 A 
ATOM     65  C   UNL     1     -10.543  15.505  -2.900  1.00  0.00     0.134 A 
ATOM     66  C   UNL     1      -9.132  16.473  -4.575  1.00  0.00     0.134 A 
ATOM     67  F   UNL     1     -10.749  15.013  -1.669  1.00  0.00    -0.206 F 
ATOM     68  C   UNL     1     -11.607  15.474  -3.803  1.00  0.00     0.040 A 
ATOM     69  C   UNL     1     -10.197  16.475  -5.478  1.00  0.00     0.040 A 
ATOM     70  F   UNL     1      -7.952  16.954  -4.995  1.00  0.00    -0.206 F 
ATOM     71  C   UNL     1     -11.437  15.967  -5.095  1.00  0.00     0.006 A 
ENDBRANCH  50  64
BRANCH  51  72
ATOM     72  C   UNL     1      -1.403  15.654   2.889  1.00  0.00     0.057 A 
ATOM     73  C   UNL     1      -1.506  16.023   4.236  1.00  0.00     0.134 A 
ATOM     74  C   UNL     1      -0.144  15.258   2.424  1.00  0.00     0.134 A 
ATOM     75  F   UNL     1      -2.683  16.425   4.738  1.00  0.00    -0.206 F 
ATOM     76  C   UNL     1      -0.396  16.022   5.082  1.00  0.00     0.040 A 
ATOM     77  C   UNL     1       0.970  15.230   3.265  1.00  0.00     0.040 A 
ATOM     78  F   UNL     1       0.019  14.880   1.148  1.00  0.00    -0.206 F 
ATOM     79  C   UNL     1       0.847  15.620   4.597  1.00  0.00     0.006 A 
ENDBRANCH  51  72
BRANCH  63  80
ATOM     80  C   UNL     1      -5.337  20.812   0.356  1.00  0.00     0.057 A 
ATOM     81  C   UNL     1      -4.353  21.622  -0.223  1.00  0.00     0.134 A 
ATOM     82  C   UNL     1      -6.342  21.443   1.101  1.00  0.00     0.134 A 
ATOM     83  F   UNL     1      -3.356  21.077  -0.937  1.00  0.00    -0.206 F 
ATOM     84  C   UNL     1      -4.359  23.007  -0.053  1.00  0.00     0.040 A 
ATOM     85  C   UNL     1      -6.373  22.828   1.256  1.00  0.00     0.040 A 
ATOM     86  F   UNL     1      -7.319  20.723   1.673  1.00  0.00    -0.206 F 
ATOM     87  C   UNL     1      -5.376  23.614   0.682  1.00  0.00     0.006 A 
ENDBRANCH  63  80
ENDBRANCH  37  38
ENDBRANCH  29  32
ENDBRANCH  27  28
ENDBRANCH  26  27
ENDBRANCH   1  26
TORSDOF 13
