REMARK SMILES C[C@@H](C(=O)NCCCNC(=O)c1ccc(-c2c3nc(c(-c4c(F)cccc4F)c4ccc([nH]4)c(-c4c(F)cccc4F)c4nc(c(-c5c(F)cccc5F)c5ccc2[nH]5)C=C4)C=C3)cc1)c1ccc(C[C@H]2CCCC2=O)cc1-c1ccc(F)cc1
REMARK SMILES IDX 6 1 5 2 3 3 4 4 2 6 1 7 66 8 67 9 78 10 68 11 77 12 69 13
REMARK SMILES IDX 79 14 80 15 85 16 81 17 84 18 82 19 83 20 70 21 71 22 72 23
REMARK SMILES IDX 75 24 73 25 74 26 76 27 7 28 8 29 9 30 10 31 11 33 12 34
REMARK SMILES IDX 13 35 65 36 14 37 64 38 15 39 16 40 17 41 58 42 18 43 63 44
REMARK SMILES IDX 57 45 59 46 19 47 62 48 56 49 55 50 20 52 46 53 29 54 45 55
REMARK SMILES IDX 30 56 33 57 44 58 60 59 31 60 32 61 43 63 61 64 34 65 21 66
REMARK SMILES IDX 22 67 27 68 23 69 24 70 26 71 28 72 25 73 47 74 48 75 53 76
REMARK SMILES IDX 49 77 50 78 52 79 54 80 51 81 35 82 36 83 41 84 37 85 38 86
REMARK SMILES IDX 40 87 42 88 39 89
REMARK H PARENT 5 5 9 32 59 51 33 62
REMARK Flexibility Score: inf
ROOT
ATOM      1  C   UNL     1       3.687  -0.525  -1.833  1.00  0.00     0.117 C 
ENDROOT
BRANCH   1   2
ATOM      2  N   UNL     1       2.645  -1.431  -2.270  1.00  0.00    -0.356 N 
ATOM      3  C   UNL     1       1.308  -1.208  -2.414  1.00  0.00     0.227 C 
ATOM      4  O   UNL     1       0.777  -1.817  -3.347  1.00  0.00    -0.274 OA
ATOM      5  H   UNL     1       2.946  -2.340  -2.496  1.00  0.00     0.163 HD
BRANCH   3   6
ATOM      6  C   UNL     1       0.554  -0.172  -1.565  1.00  0.00     0.106 C 
ATOM      7  C   UNL     1       0.990   0.020  -0.107  1.00  0.00     0.023 C 
BRANCH   6   8
ATOM      8  C   UNL     1      -0.978  -0.339  -1.555  1.00  0.00    -0.028 A 
ATOM      9  C   UNL     1      -1.718   0.855  -1.714  1.00  0.00     0.005 A 
ATOM     10  C   UNL     1      -1.686  -1.551  -1.328  1.00  0.00    -0.014 A 
ATOM     11  C   UNL     1      -3.108   0.874  -1.638  1.00  0.00     0.004 A 
ATOM     12  C   UNL     1      -3.096  -1.493  -1.222  1.00  0.00     0.012 A 
ATOM     13  C   UNL     1      -3.812  -0.295  -1.359  1.00  0.00    -0.047 A 
BRANCH  10  14
ATOM     14  C   UNL     1      -1.065  -2.891  -1.285  1.00  0.00    -0.018 A 
ATOM     15  C   UNL     1      -1.257  -3.775  -2.368  1.00  0.00     0.012 A 
ATOM     16  C   UNL     1      -0.280  -3.333  -0.209  1.00  0.00     0.012 A 
ATOM     17  C   UNL     1      -0.631  -5.023  -2.409  1.00  0.00     0.040 A 
ATOM     18  C   UNL     1       0.361  -4.576  -0.255  1.00  0.00     0.040 A 
ATOM     19  C   UNL     1       0.188  -5.403  -1.357  1.00  0.00     0.123 A 
ATOM     20  F   UNL     1       0.818  -6.584  -1.403  1.00  0.00    -0.207 F 
ENDBRANCH  10  14
BRANCH  13  21
ATOM     21  C   UNL     1      -5.315  -0.268  -1.216  1.00  0.00     0.047 C 
BRANCH  21  22
ATOM     22  C   UNL     1      -5.864   0.290   0.103  1.00  0.00     0.060 C 
ATOM     23  C   UNL     1      -5.367  -0.387   1.384  1.00  0.00     0.012 C 
ATOM     24  C   UNL     1      -5.473   1.732   0.338  1.00  0.00     0.136 C 
ATOM     25  C   UNL     1      -4.228   0.479   1.908  1.00  0.00     0.009 C 
ATOM     26  C   UNL     1      -4.620   1.909   1.567  1.00  0.00     0.076 C 
ATOM     27  O   UNL     1      -5.827   2.662  -0.379  1.00  0.00    -0.299 OA
ENDBRANCH  21  22
ENDBRANCH  13  21
ENDBRANCH   6   8
ENDBRANCH   3   6
ENDBRANCH   1   2
BRANCH   1  28
ATOM     28  C   UNL     1       4.439  -1.021  -0.603  1.00  0.00     0.042 C 
BRANCH  28  29
ATOM     29  C   UNL     1       5.079  -2.399  -0.756  1.00  0.00     0.118 C 
BRANCH  29  30
ATOM     30  N   UNL     1       6.040  -2.463  -1.847  1.00  0.00    -0.352 N 
ATOM     31  C   UNL     1       7.388  -2.708  -1.846  1.00  0.00     0.251 C 
ATOM     32  H   UNL     1       5.656  -2.303  -2.739  1.00  0.00     0.163 HD
ATOM     33  O   UNL     1       8.028  -2.541  -2.885  1.00  0.00    -0.269 OA
BRANCH  31  34
ATOM     34  C   UNL     1       8.093  -3.148  -0.622  1.00  0.00     0.039 A 
ATOM     35  C   UNL     1       9.369  -2.634  -0.368  1.00  0.00     0.014 A 
ATOM     36  C   UNL     1       7.544  -4.097   0.245  1.00  0.00     0.014 A 
ATOM     37  C   UNL     1      10.064  -3.024   0.779  1.00  0.00     0.010 A 
ATOM     38  C   UNL     1       8.205  -4.428   1.427  1.00  0.00     0.010 A 
ATOM     39  C   UNL     1       9.474  -3.900   1.704  1.00  0.00    -0.014 A 
BRANCH  39  40
ATOM     40  C   UNL     1      10.178  -4.267   2.960  1.00  0.00     0.031 A 
ATOM     41  C   UNL     1      10.606  -5.687   3.209  1.00  0.00     0.074 A 
ATOM     42  C   UNL     1      10.392  -3.327   3.900  1.00  0.00     0.049 A 
ATOM     43  N   UNL     1      11.199  -6.200   4.258  1.00  0.00    -0.248 NA
ATOM     44  C   UNL     1      10.307  -6.665   2.151  1.00  0.00     0.031 C 
ATOM     45  C   UNL     1       9.977  -1.925   3.805  1.00  0.00     0.029 A 
ATOM     46  N   UNL     1      11.007  -3.409   5.124  1.00  0.00    -0.354 N 
ATOM     47  C   UNL     1      11.335  -7.556   3.991  1.00  0.00     0.074 A 
ATOM     48  C   UNL     1      10.715  -7.798   2.706  1.00  0.00     0.031 C 
ATOM     49  C   UNL     1      10.369  -1.275   4.912  1.00  0.00     0.029 A 
ATOM     50  C   UNL     1      11.036  -2.217   5.806  1.00  0.00     0.049 A 
ATOM     51  H   UNL     1      11.390  -4.242   5.480  1.00  0.00     0.167 HD
ATOM     52  C   UNL     1      11.943  -8.511   4.736  1.00  0.00     0.037 A 
ATOM     53  C   UNL     1      11.543  -1.915   7.016  1.00  0.00     0.037 A 
ATOM     54  C   UNL     1      12.580  -8.269   6.004  1.00  0.00     0.049 A 
ATOM     55  C   UNL     1      12.229  -2.987   7.816  1.00  0.00     0.074 A 
ATOM     56  C   UNL     1      13.262  -9.162   6.813  1.00  0.00     0.029 A 
ATOM     57  N   UNL     1      12.615  -7.041   6.647  1.00  0.00    -0.354 N 
ATOM     58  N   UNL     1      12.402  -4.253   7.522  1.00  0.00    -0.248 NA
ATOM     59  C   UNL     1      12.800  -2.586   9.109  1.00  0.00     0.031 C 
ATOM     60  C   UNL     1      13.683  -8.480   7.960  1.00  0.00     0.029 A 
ATOM     61  C   UNL     1      13.297  -7.155   7.847  1.00  0.00     0.049 A 
ATOM     62  H   UNL     1      12.214  -6.211   6.302  1.00  0.00     0.167 HD
ATOM     63  C   UNL     1      13.119  -4.794   8.581  1.00  0.00     0.074 A 
ATOM     64  C   UNL     1      13.364  -3.714   9.515  1.00  0.00     0.031 C 
ATOM     65  C   UNL     1      13.535  -6.070   8.765  1.00  0.00     0.037 A 
BRANCH  52  66
ATOM     66  C   UNL     1      11.957  -9.908   4.187  1.00  0.00     0.057 A 
ATOM     67  C   UNL     1      12.750 -10.256   3.085  1.00  0.00     0.134 A 
ATOM     68  C   UNL     1      11.196 -10.922   4.781  1.00  0.00     0.134 A 
ATOM     69  F   UNL     1      13.494  -9.329   2.463  1.00  0.00    -0.206 F 
ATOM     70  C   UNL     1      12.765 -11.556   2.578  1.00  0.00     0.040 A 
ATOM     71  C   UNL     1      11.222 -12.232   4.298  1.00  0.00     0.040 A 
ATOM     72  F   UNL     1      10.419 -10.659   5.843  1.00  0.00    -0.206 F 
ATOM     73  C   UNL     1      12.004 -12.550   3.189  1.00  0.00     0.006 A 
ENDBRANCH  52  66
BRANCH  53  74
ATOM     74  C   UNL     1      11.448  -0.528   7.534  1.00  0.00     0.057 A 
ATOM     75  C   UNL     1      12.581   0.290   7.619  1.00  0.00     0.134 A 
ATOM     76  C   UNL     1      10.228   0.011   7.958  1.00  0.00     0.134 A 
ATOM     77  F   UNL     1      13.780  -0.178   7.243  1.00  0.00    -0.206 F 
ATOM     78  C   UNL     1      12.508   1.589   8.124  1.00  0.00     0.040 A 
ATOM     79  C   UNL     1      10.137   1.316   8.444  1.00  0.00     0.040 A 
ATOM     80  F   UNL     1       9.106  -0.720   7.893  1.00  0.00    -0.206 F 
ATOM     81  C   UNL     1      11.281   2.107   8.534  1.00  0.00     0.006 A 
ENDBRANCH  53  74
BRANCH  65  82
ATOM     82  C   UNL     1      14.320  -6.359  10.009  1.00  0.00     0.057 A 
ATOM     83  C   UNL     1      13.712  -6.409  11.270  1.00  0.00     0.134 A 
ATOM     84  C   UNL     1      15.695  -6.614   9.943  1.00  0.00     0.134 A 
ATOM     85  F   UNL     1      12.400  -6.160  11.402  1.00  0.00    -0.206 F 
ATOM     86  C   UNL     1      14.449  -6.678  12.424  1.00  0.00     0.040 A 
ATOM     87  C   UNL     1      16.439  -6.907  11.086  1.00  0.00     0.040 A 
ATOM     88  F   UNL     1      16.337  -6.588   8.764  1.00  0.00    -0.206 F 
ATOM     89  C   UNL     1      15.816  -6.933  12.333  1.00  0.00     0.006 A 
ENDBRANCH  65  82
ENDBRANCH  39  40
ENDBRANCH  31  34
ENDBRANCH  29  30
ENDBRANCH  28  29
ENDBRANCH   1  28
TORSDOF 14
