REMARK SMILES Cc1ccc(NC(=O)N2CCCC[C@@H]2C(=O)NCCCNC(=O)c2ccc(-c3c4nc(c(-c5c(F)cccc5F)c5ccc([nH]5)c(-c5c(F)cccc5F)c5nc(c(-c6c(F)cccc6F)c6ccc3[nH]6)C=C5)C=C4)cc2)cc1
REMARK SMILES IDX 19 1 18 2 17 3 15 4 16 5 14 7 9 8 10 9 11 10 13 11 12 12
REMARK SMILES IDX 7 13 6 14 8 16 5 17 1 18 2 19 3 20 79 21 4 22 78 23 20 24
REMARK SMILES IDX 21 25 22 26 23 28 24 29 25 30 77 31 26 32 76 33 27 34 28 35
REMARK SMILES IDX 29 36 70 37 30 38 75 39 69 40 71 41 31 42 74 43 68 44 67 45
REMARK SMILES IDX 32 47 58 48 41 49 57 50 42 51 45 52 56 53 72 54 43 55 44 56
REMARK SMILES IDX 55 58 73 59 46 60 33 61 34 62 39 63 35 64 36 65 38 66 40 67
REMARK SMILES IDX 37 68 59 69 60 70 65 71 61 72 62 73 64 74 66 75 63 76 47 77
REMARK SMILES IDX 48 78 53 79 49 80 50 81 52 82 54 83 51 84
REMARK H PARENT 17 6 6 15 21 27 71 46 45 57
REMARK Flexibility Score: inf
ROOT
ATOM      1  C   UNL     1      -5.362  -3.207   3.264  1.00  0.00     0.042 C 
ENDROOT
BRANCH   1   2
ATOM      2  C   UNL     1      -4.990  -2.128   2.253  1.00  0.00     0.117 C 
BRANCH   2   3
ATOM      3  N   UNL     1      -3.727  -1.487   2.593  1.00  0.00    -0.354 N 
ATOM      4  C   UNL     1      -2.459  -1.719   2.140  1.00  0.00     0.242 C 
ATOM      5  O   UNL     1      -1.541  -1.204   2.790  1.00  0.00    -0.273 OA
ATOM      6  H   UNL     1      -3.800  -0.766   3.259  1.00  0.00     0.163 HD
BRANCH   4   7
ATOM      7  C   UNL     1      -2.146  -2.726   1.000  1.00  0.00     0.176 C 
ATOM      8  N   UNL     1      -3.066  -2.641  -0.165  1.00  0.00    -0.313 N 
ATOM      9  C   UNL     1      -3.292  -3.830  -0.982  1.00  0.00     0.122 C 
ATOM     10  C   UNL     1      -3.344  -5.131  -0.204  1.00  0.00     0.022 C 
ATOM     11  C   UNL     1      -2.079  -4.119   1.658  1.00  0.00     0.035 C 
ATOM     12  C   UNL     1      -2.109  -5.267   0.667  1.00  0.00     0.004 C 
BRANCH   8  13
ATOM     13  C   UNL     1      -3.506  -1.450  -0.728  1.00  0.00     0.322 C 
ATOM     14  N   UNL     1      -2.815  -0.298  -0.517  1.00  0.00    -0.308 N 
ATOM     15  H   UNL     1      -3.366   0.491  -0.311  1.00  0.00     0.171 HD
ATOM     16  O   UNL     1      -4.582  -1.387  -1.328  1.00  0.00    -0.248 OA
BRANCH  14  17
ATOM     17  C   UNL     1      -1.429  -0.071  -0.550  1.00  0.00     0.042 A 
ATOM     18  C   UNL     1       2.805   0.493  -0.090  1.00  0.00     0.044 C 
ATOM     19  C   UNL     1       1.335   0.358  -0.355  1.00  0.00    -0.051 A 
ATOM     20  C   UNL     1       0.841  -0.775  -1.007  1.00  0.00     0.005 A 
ATOM     21  C   UNL     1       0.433   1.313   0.129  1.00  0.00     0.005 A 
ATOM     22  C   UNL     1      -0.534  -0.972  -1.129  1.00  0.00     0.026 A 
ATOM     23  C   UNL     1      -0.944   1.108   0.015  1.00  0.00     0.026 A 
ENDBRANCH  14  17
ENDBRANCH   8  13
ENDBRANCH   4   7
ENDBRANCH   2   3
ENDBRANCH   1   2
BRANCH   1  24
ATOM     24  C   UNL     1      -5.941  -2.649   4.549  1.00  0.00     0.118 C 
BRANCH  24  25
ATOM     25  N   UNL     1      -7.394  -2.560   4.569  1.00  0.00    -0.352 N 
ATOM     26  C   UNL     1      -8.234  -2.063   5.556  1.00  0.00     0.251 C 
ATOM     27  H   UNL     1      -7.847  -2.902   3.765  1.00  0.00     0.163 HD
ATOM     28  O   UNL     1      -9.440  -2.116   5.412  1.00  0.00    -0.269 OA
BRANCH  26  29
ATOM     29  C   UNL     1      -7.648  -1.320   6.704  1.00  0.00     0.039 A 
ATOM     30  C   UNL     1      -8.247  -0.103   7.051  1.00  0.00     0.014 A 
ATOM     31  C   UNL     1      -6.407  -1.659   7.228  1.00  0.00     0.014 A 
ATOM     32  C   UNL     1      -7.480   0.879   7.671  1.00  0.00     0.010 A 
ATOM     33  C   UNL     1      -5.604  -0.651   7.711  1.00  0.00     0.010 A 
ATOM     34  C   UNL     1      -6.125   0.636   7.868  1.00  0.00    -0.014 A 
BRANCH  34  35
ATOM     35  C   UNL     1      -5.153   1.678   8.162  1.00  0.00     0.031 A 
ATOM     36  C   UNL     1      -4.564   1.768   9.511  1.00  0.00     0.074 A 
ATOM     37  C   UNL     1      -4.714   2.480   7.167  1.00  0.00     0.049 A 
ATOM     38  N   UNL     1      -4.012   2.829   9.989  1.00  0.00    -0.248 NA
ATOM     39  C   UNL     1      -4.590   0.659  10.456  1.00  0.00     0.031 C 
ATOM     40  C   UNL     1      -3.551   3.363   7.189  1.00  0.00     0.029 A 
ATOM     41  N   UNL     1      -5.378   2.810   5.976  1.00  0.00    -0.354 N 
ATOM     42  C   UNL     1      -3.379   2.483  11.161  1.00  0.00     0.074 A 
ATOM     43  C   UNL     1      -3.816   1.135  11.436  1.00  0.00     0.031 C 
ATOM     44  C   UNL     1      -3.714   4.317   6.259  1.00  0.00     0.029 A 
ATOM     45  C   UNL     1      -5.049   4.159   5.713  1.00  0.00     0.049 A 
ATOM     46  H   UNL     1      -5.954   2.223   5.434  1.00  0.00     0.167 HD
ATOM     47  C   UNL     1      -2.457   3.337  11.691  1.00  0.00     0.037 A 
ATOM     48  C   UNL     1      -6.003   5.134   5.698  1.00  0.00     0.037 A 
ATOM     49  C   UNL     1      -2.375   4.567  10.906  1.00  0.00     0.049 A 
ATOM     50  C   UNL     1      -5.773   6.231   6.710  1.00  0.00     0.074 A 
ATOM     51  C   UNL     1      -1.511   4.987   9.906  1.00  0.00     0.029 A 
ATOM     52  N   UNL     1      -3.462   5.432  10.875  1.00  0.00    -0.354 N 
ATOM     53  N   UNL     1      -5.006   6.106   7.757  1.00  0.00    -0.248 NA
ATOM     54  C   UNL     1      -6.390   7.552   6.628  1.00  0.00     0.031 C 
ATOM     55  C   UNL     1      -2.103   6.093   9.249  1.00  0.00     0.029 A 
ATOM     56  C   UNL     1      -3.316   6.357   9.861  1.00  0.00     0.049 A 
ATOM     57  H   UNL     1      -4.229   5.391  11.491  1.00  0.00     0.167 HD
ATOM     58  C   UNL     1      -5.019   7.272   8.484  1.00  0.00     0.074 A 
ATOM     59  C   UNL     1      -5.885   8.152   7.721  1.00  0.00     0.031 C 
ATOM     60  C   UNL     1      -4.316   7.395   9.650  1.00  0.00     0.037 A 
BRANCH  47  61
ATOM     61  C   UNL     1      -1.434   2.939  12.733  1.00  0.00     0.057 A 
ATOM     62  C   UNL     1      -0.169   3.559  12.778  1.00  0.00     0.134 A 
ATOM     63  C   UNL     1      -1.608   1.921  13.685  1.00  0.00     0.134 A 
ATOM     64  F   UNL     1       0.123   4.625  12.021  1.00  0.00    -0.206 F 
ATOM     65  C   UNL     1       0.871   3.118  13.607  1.00  0.00     0.040 A 
ATOM     66  C   UNL     1      -0.561   1.432  14.482  1.00  0.00     0.040 A 
ATOM     67  F   UNL     1      -2.811   1.393  13.937  1.00  0.00    -0.206 F 
ATOM     68  C   UNL     1       0.692   2.022  14.433  1.00  0.00     0.006 A 
ENDBRANCH  47  61
BRANCH  48  69
ATOM     69  C   UNL     1      -7.325   4.647   5.226  1.00  0.00     0.057 A 
ATOM     70  C   UNL     1      -7.444   4.250   3.882  1.00  0.00     0.134 A 
ATOM     71  C   UNL     1      -8.295   4.179   6.116  1.00  0.00     0.134 A 
ATOM     72  F   UNL     1      -6.545   4.666   2.975  1.00  0.00    -0.206 F 
ATOM     73  C   UNL     1      -8.407   3.327   3.466  1.00  0.00     0.040 A 
ATOM     74  C   UNL     1      -9.272   3.262   5.708  1.00  0.00     0.040 A 
ATOM     75  F   UNL     1      -8.235   4.495   7.418  1.00  0.00    -0.206 F 
ATOM     76  C   UNL     1      -9.302   2.801   4.392  1.00  0.00     0.006 A 
ENDBRANCH  48  69
BRANCH  60  77
ATOM     77  C   UNL     1      -4.413   8.508  10.676  1.00  0.00     0.057 A 
ATOM     78  C   UNL     1      -5.511   9.366  10.829  1.00  0.00     0.134 A 
ATOM     79  C   UNL     1      -3.416   8.648  11.675  1.00  0.00     0.134 A 
ATOM     80  F   UNL     1      -6.584   9.290  10.034  1.00  0.00    -0.206 F 
ATOM     81  C   UNL     1      -5.591  10.316  11.861  1.00  0.00     0.040 A 
ATOM     82  C   UNL     1      -3.514   9.548  12.741  1.00  0.00     0.040 A 
ATOM     83  F   UNL     1      -2.306   7.895  11.683  1.00  0.00    -0.206 F 
ATOM     84  C   UNL     1      -4.600  10.398  12.830  1.00  0.00     0.006 A 
ENDBRANCH  60  77
ENDBRANCH  34  35
ENDBRANCH  26  29
ENDBRANCH  24  25
ENDBRANCH   1  24
TORSDOF 12
