REMARK SMILES CCn1c(=O)n(CC)c2cc(C(=O)NCCCNC(=O)c3ccc(-c4c5nc(c(-c6c(F)cccc6F)c6ccc([nH]6)c(-c6c(F)cccc6F)c6nc(c(-c7c(F)cccc7F)c7ccc4[nH]7)C=C6)C=C5)cc3)ccc21
REMARK SMILES IDX 16 1 15 2 14 3 12 4 13 5 11 7 3 8 4 9 77 10 5 11 6 12 9 13
REMARK SMILES IDX 76 14 10 15 75 16 2 17 1 18 7 19 8 20 17 21 18 22 19 23
REMARK SMILES IDX 20 25 21 26 22 27 74 28 23 29 73 30 24 31 25 32 26 33 67 34
REMARK SMILES IDX 27 35 72 36 66 37 68 38 28 39 71 40 65 41 64 42 29 44 55 45
REMARK SMILES IDX 38 46 54 47 39 48 42 49 53 50 69 51 40 52 41 53 52 55 70 56
REMARK SMILES IDX 43 57 30 58 31 59 36 60 32 61 33 62 35 63 37 64 34 65 56 66
REMARK SMILES IDX 57 67 62 68 58 69 59 70 61 71 63 72 60 73 44 74 45 75 50 76
REMARK SMILES IDX 46 77 47 78 49 79 51 80 48 81
REMARK H PARENT 14 6 18 24 68 43 42 54
REMARK Flexibility Score: inf
ROOT
ATOM      1  C   UNL     1      -1.742  -7.755  -4.324  1.00  0.00     0.042 C 
ENDROOT
BRANCH   1   2
ATOM      2  C   UNL     1      -2.203  -7.711  -2.861  1.00  0.00     0.118 C 
BRANCH   2   3
ATOM      3  N   UNL     1      -1.212  -8.277  -1.959  1.00  0.00    -0.352 N 
ATOM      4  C   UNL     1      -0.257  -7.753  -1.124  1.00  0.00     0.251 C 
ATOM      5  O   UNL     1       0.368  -8.565  -0.437  1.00  0.00    -0.269 OA
ATOM      6  H   UNL     1      -1.230  -9.261  -1.944  1.00  0.00     0.163 HD
BRANCH   4   7
ATOM      7  C   UNL     1       0.051  -6.298  -0.962  1.00  0.00     0.042 A 
ATOM      8  N   UNL     1       1.023  -2.366   0.026  1.00  0.00    -0.292 N 
ATOM      9  C   UNL     1       1.820  -2.577   1.173  1.00  0.00     0.329 A 
ATOM     10  C   UNL     1       0.622  -3.619  -0.467  1.00  0.00     0.069 A 
ATOM     11  O   UNL     1       2.378  -1.729   1.865  1.00  0.00    -0.248 OA
ATOM     12  N   UNL     1       1.865  -3.976   1.379  1.00  0.00    -0.292 N 
ATOM     13  C   UNL     1       1.112  -4.607   0.379  1.00  0.00     0.070 A 
ATOM     14  C   UNL     1      -0.104  -3.930  -1.595  1.00  0.00     0.029 A 
ATOM     15  C   UNL     1       0.835  -5.943   0.161  1.00  0.00     0.042 A 
ATOM     16  C   UNL     1      -0.358  -5.285  -1.853  1.00  0.00     0.016 A 
BRANCH   8  17
ATOM     17  C   UNL     1       0.643  -1.117  -0.602  1.00  0.00     0.124 C 
ATOM     18  C   UNL     1       1.058   0.156   0.114  1.00  0.00     0.028 C 
ENDBRANCH   8  17
BRANCH  12  19
ATOM     19  C   UNL     1       2.621  -4.628   2.420  1.00  0.00     0.124 C 
ATOM     20  C   UNL     1       1.746  -5.204   3.521  1.00  0.00     0.028 C 
ENDBRANCH  12  19
ENDBRANCH   4   7
ENDBRANCH   2   3
ENDBRANCH   1   2
BRANCH   1  21
ATOM     21  C   UNL     1      -1.896  -9.133  -4.975  1.00  0.00     0.118 C 
BRANCH  21  22
ATOM     22  N   UNL     1      -3.260  -9.635  -4.956  1.00  0.00    -0.352 N 
ATOM     23  C   UNL     1      -4.367  -9.543  -5.750  1.00  0.00     0.251 C 
ATOM     24  H   UNL     1      -3.430 -10.188  -4.160  1.00  0.00     0.163 HD
ATOM     25  O   UNL     1      -5.341 -10.199  -5.368  1.00  0.00    -0.269 OA
BRANCH  23  26
ATOM     26  C   UNL     1      -4.522  -8.705  -6.973  1.00  0.00     0.039 A 
ATOM     27  C   UNL     1      -3.545  -7.895  -7.544  1.00  0.00     0.014 A 
ATOM     28  C   UNL     1      -5.805  -8.720  -7.567  1.00  0.00     0.014 A 
ATOM     29  C   UNL     1      -3.872  -7.067  -8.623  1.00  0.00     0.010 A 
ATOM     30  C   UNL     1      -6.132  -7.902  -8.647  1.00  0.00     0.010 A 
ATOM     31  C   UNL     1      -5.175  -7.039  -9.155  1.00  0.00    -0.014 A 
BRANCH  31  32
ATOM     32  C   UNL     1      -5.426  -6.208 -10.338  1.00  0.00     0.031 A 
ATOM     33  C   UNL     1      -4.525  -6.527 -11.477  1.00  0.00     0.074 A 
ATOM     34  C   UNL     1      -6.382  -5.263 -10.485  1.00  0.00     0.049 A 
ATOM     35  N   UNL     1      -3.513  -5.831 -11.876  1.00  0.00    -0.248 NA
ATOM     36  C   UNL     1      -4.655  -7.832 -12.141  1.00  0.00     0.031 C 
ATOM     37  C   UNL     1      -7.521  -4.968  -9.614  1.00  0.00     0.029 A 
ATOM     38  N   UNL     1      -6.551  -4.368 -11.511  1.00  0.00    -0.354 N 
ATOM     39  C   UNL     1      -2.991  -6.503 -12.976  1.00  0.00     0.074 A 
ATOM     40  C   UNL     1      -3.628  -7.794 -12.994  1.00  0.00     0.031 C 
ATOM     41  C   UNL     1      -8.363  -4.110 -10.241  1.00  0.00     0.029 A 
ATOM     42  C   UNL     1      -7.758  -3.673 -11.490  1.00  0.00     0.049 A 
ATOM     43  H   UNL     1      -5.871  -4.228 -12.209  1.00  0.00     0.167 HD
ATOM     44  C   UNL     1      -2.257  -5.831 -13.906  1.00  0.00     0.037 A 
ATOM     45  C   UNL     1      -8.227  -2.803 -12.425  1.00  0.00     0.037 A 
ATOM     46  C   UNL     1      -1.790  -4.570 -13.378  1.00  0.00     0.049 A 
ATOM     47  C   UNL     1      -7.068  -2.304 -13.197  1.00  0.00     0.074 A 
ATOM     48  C   UNL     1      -0.997  -4.173 -12.318  1.00  0.00     0.029 A 
ATOM     49  N   UNL     1      -2.456  -3.440 -13.780  1.00  0.00    -0.354 N 
ATOM     50  N   UNL     1      -6.176  -1.488 -12.719  1.00  0.00    -0.248 NA
ATOM     51  C   UNL     1      -6.673  -3.035 -14.388  1.00  0.00     0.031 C 
ATOM     52  C   UNL     1      -1.585  -2.960 -11.846  1.00  0.00     0.029 A 
ATOM     53  C   UNL     1      -2.659  -2.652 -12.681  1.00  0.00     0.049 A 
ATOM     54  H   UNL     1      -2.739  -3.233 -14.700  1.00  0.00     0.167 HD
ATOM     55  C   UNL     1      -4.977  -1.956 -13.229  1.00  0.00     0.074 A 
ATOM     56  C   UNL     1      -5.355  -2.829 -14.338  1.00  0.00     0.031 C 
ATOM     57  C   UNL     1      -3.819  -1.811 -12.519  1.00  0.00     0.037 A 
BRANCH  44  58
ATOM     58  C   UNL     1      -2.355  -6.072 -15.399  1.00  0.00     0.057 A 
ATOM     59  C   UNL     1      -3.414  -6.755 -16.029  1.00  0.00     0.134 A 
ATOM     60  C   UNL     1      -1.559  -5.288 -16.260  1.00  0.00     0.134 A 
ATOM     61  F   UNL     1      -4.274  -7.532 -15.363  1.00  0.00    -0.206 F 
ATOM     62  C   UNL     1      -3.716  -6.597 -17.385  1.00  0.00     0.040 A 
ATOM     63  C   UNL     1      -1.882  -5.086 -17.607  1.00  0.00     0.040 A 
ATOM     64  F   UNL     1      -0.505  -4.603 -15.790  1.00  0.00    -0.206 F 
ATOM     65  C   UNL     1      -2.978  -5.725 -18.169  1.00  0.00     0.006 A 
ENDBRANCH  44  58
BRANCH  45  66
ATOM     66  C   UNL     1      -9.611  -2.514 -12.877  1.00  0.00     0.057 A 
ATOM     67  C   UNL     1     -10.604  -3.505 -12.835  1.00  0.00     0.134 A 
ATOM     68  C   UNL     1      -9.908  -1.381 -13.656  1.00  0.00     0.134 A 
ATOM     69  F   UNL     1     -10.399  -4.655 -12.177  1.00  0.00    -0.206 F 
ATOM     70  C   UNL     1     -11.802  -3.397 -13.551  1.00  0.00     0.040 A 
ATOM     71  C   UNL     1     -11.103  -1.262 -14.381  1.00  0.00     0.040 A 
ATOM     72  F   UNL     1      -9.012  -0.393 -13.796  1.00  0.00    -0.206 F 
ATOM     73  C   UNL     1     -12.049  -2.280 -14.342  1.00  0.00     0.006 A 
ENDBRANCH  45  66
BRANCH  57  74
ATOM     74  C   UNL     1      -3.833  -0.848 -11.364  1.00  0.00     0.057 A 
ATOM     75  C   UNL     1      -2.899   0.194 -11.359  1.00  0.00     0.134 A 
ATOM     76  C   UNL     1      -4.676  -0.947 -10.246  1.00  0.00     0.134 A 
ATOM     77  F   UNL     1      -2.021   0.321 -12.367  1.00  0.00    -0.206 F 
ATOM     78  C   UNL     1      -2.825   1.116 -10.313  1.00  0.00     0.040 A 
ATOM     79  C   UNL     1      -4.639  -0.006  -9.211  1.00  0.00     0.040 A 
ATOM     80  F   UNL     1      -5.530  -1.969 -10.104  1.00  0.00    -0.206 F 
ATOM     81  C   UNL     1      -3.711   1.030  -9.244  1.00  0.00     0.006 A 
ENDBRANCH  57  74
ENDBRANCH  31  32
ENDBRANCH  23  26
ENDBRANCH  21  22
ENDBRANCH   1  21
TORSDOF 12
