REMARK SMILES C[C@H]1[C@H](C(=O)NCCCNC(=O)c2ccc(-c3c4nc(c(-c5c(F)cccc5F)c5ccc([nH]5)c(-c5c(F)cccc5F)c5nc(c(-c6c(F)cccc6F)c6ccc3[nH]6)C=C5)C=C4)cc2)CCN1C(=O)N(C)CCS(C)(=O)=O
REMARK SMILES IDX 4 1 5 2 6 3 3 5 1 6 2 7 69 8 67 9 68 10 70 11 71 12 72 13
REMARK SMILES IDX 73 14 74 15 75 16 76 17 77 18 78 19 79 20 7 21 8 22 9 23
REMARK SMILES IDX 10 24 11 25 12 27 13 28 14 29 66 30 15 31 65 32 16 33 17 34
REMARK SMILES IDX 18 35 59 36 19 37 64 38 58 39 60 40 20 41 63 42 57 43 56 44
REMARK SMILES IDX 21 46 47 47 30 48 46 49 31 50 34 51 45 52 61 53 32 54 33 55
REMARK SMILES IDX 44 57 62 58 35 59 22 60 23 61 28 62 24 63 25 64 27 65 29 66
REMARK SMILES IDX 26 67 48 68 49 69 54 70 50 71 51 72 53 73 55 74 52 75 36 76
REMARK SMILES IDX 37 77 42 78 38 79 39 80 41 81 43 82 40 83
REMARK H PARENT 6 4 10 26 60 45 34 56
REMARK Flexibility Score: inf
ROOT
ATOM      1  C   UNL     1      -0.249   2.273   1.144  1.00  0.00     0.225 C 
ATOM      2  O   UNL     1       0.085   3.457   1.041  1.00  0.00    -0.275 OA
ATOM      3  N   UNL     1      -0.705   1.860   2.356  1.00  0.00    -0.356 N 
ATOM      4  H   UNL     1      -0.727   2.568   3.041  1.00  0.00     0.163 HD
ENDROOT
BRANCH   1   5
ATOM      5  C   UNL     1      -0.102   1.339  -0.047  1.00  0.00     0.102 C 
ATOM      6  C   UNL     1       2.122   0.395  -0.755  1.00  0.00     0.032 C 
ATOM      7  C   UNL     1       0.947   0.246   0.218  1.00  0.00     0.096 C 
ATOM      8  N   UNL     1       0.269  -1.028   0.003  1.00  0.00    -0.321 N 
ATOM      9  C   UNL     1      -1.386   0.637  -0.468  1.00  0.00     0.037 C 
ATOM     10  C   UNL     1      -0.988  -0.808  -0.702  1.00  0.00     0.122 C 
BRANCH   8  11
ATOM     11  C   UNL     1       0.635  -2.329   0.213  1.00  0.00     0.320 C 
ATOM     12  O   UNL     1       0.011  -3.213  -0.391  1.00  0.00    -0.248 OA
BRANCH  11  13
ATOM     13  N   UNL     1       1.620  -2.713   1.099  1.00  0.00    -0.327 N 
ATOM     14  C   UNL     1       2.619  -1.929   1.813  1.00  0.00     0.148 C 
BRANCH  13  15
ATOM     15  C   UNL     1       1.678  -4.154   1.403  1.00  0.00     0.137 C 
BRANCH  15  16
ATOM     16  C   UNL     1       0.830  -4.594   2.590  1.00  0.00     0.158 C 
BRANCH  16  17
ATOM     17  S   UNL     1      -0.920  -4.794   2.316  1.00  0.00     0.149 S 
ATOM     18  C   UNL     1      -1.099  -5.819   0.865  1.00  0.00     0.158 C 
ATOM     19  O   UNL     1      -1.409  -5.592   3.431  1.00  0.00    -0.229 OA
ATOM     20  O   UNL     1      -1.511  -3.492   2.080  1.00  0.00    -0.229 OA
ENDBRANCH  16  17
ENDBRANCH  15  16
ENDBRANCH  13  15
ENDBRANCH  11  13
ENDBRANCH   8  11
ENDBRANCH   1   5
BRANCH   3  21
ATOM     21  C   UNL     1      -1.166   0.561   2.825  1.00  0.00     0.117 C 
BRANCH  21  22
ATOM     22  C   UNL     1      -0.245  -0.045   3.876  1.00  0.00     0.042 C 
BRANCH  22  23
ATOM     23  C   UNL     1      -0.146   0.756   5.168  1.00  0.00     0.118 C 
BRANCH  23  24
ATOM     24  N   UNL     1      -1.415   0.865   5.870  1.00  0.00    -0.352 N 
ATOM     25  C   UNL     1      -1.778   0.457   7.129  1.00  0.00     0.251 C 
ATOM     26  H   UNL     1      -2.132   1.305   5.357  1.00  0.00     0.163 HD
ATOM     27  O   UNL     1      -2.959   0.510   7.463  1.00  0.00    -0.269 OA
BRANCH  25  28
ATOM     28  C   UNL     1      -0.773  -0.060   8.082  1.00  0.00     0.039 A 
ATOM     29  C   UNL     1      -1.113  -1.154   8.884  1.00  0.00     0.014 A 
ATOM     30  C   UNL     1       0.481   0.540   8.223  1.00  0.00     0.014 A 
ATOM     31  C   UNL     1      -0.178  -1.680   9.778  1.00  0.00     0.010 A 
ATOM     32  C   UNL     1       1.441  -0.036   9.052  1.00  0.00     0.010 A 
ATOM     33  C   UNL     1       1.120  -1.149   9.844  1.00  0.00    -0.014 A 
BRANCH  33  34
ATOM     34  C   UNL     1       2.149  -1.750  10.731  1.00  0.00     0.031 A 
ATOM     35  C   UNL     1       2.743  -0.956  11.861  1.00  0.00     0.074 A 
ATOM     36  C   UNL     1       2.588  -3.000  10.484  1.00  0.00     0.049 A 
ATOM     37  N   UNL     1       3.679  -1.298  12.710  1.00  0.00    -0.248 NA
ATOM     38  C   UNL     1       2.239   0.414  12.046  1.00  0.00     0.031 C 
ATOM     39  C   UNL     1       2.132  -3.856   9.387  1.00  0.00     0.029 A 
ATOM     40  N   UNL     1       3.521  -3.766  11.137  1.00  0.00    -0.354 N 
ATOM     41  C   UNL     1       3.880  -0.188  13.522  1.00  0.00     0.074 A 
ATOM     42  C   UNL     1       3.014   0.859  13.025  1.00  0.00     0.031 C 
ATOM     43  C   UNL     1       2.766  -5.037   9.459  1.00  0.00     0.029 A 
ATOM     44  C   UNL     1       3.699  -5.010  10.581  1.00  0.00     0.049 A 
ATOM     45  H   UNL     1       4.017  -3.454  11.928  1.00  0.00     0.167 HD
ATOM     46  C   UNL     1       4.691  -0.060  14.599  1.00  0.00     0.037 A 
ATOM     47  C   UNL     1       4.522  -6.015  10.933  1.00  0.00     0.037 A 
ATOM     48  C   UNL     1       5.540  -1.108  15.104  1.00  0.00     0.049 A 
ATOM     49  C   UNL     1       5.411  -5.850  12.133  1.00  0.00     0.074 A 
ATOM     50  C   UNL     1       6.361  -1.093  16.218  1.00  0.00     0.029 A 
ATOM     51  N   UNL     1       5.678  -2.361  14.524  1.00  0.00    -0.354 N 
ATOM     52  N   UNL     1       5.543  -4.816  12.929  1.00  0.00    -0.248 NA
ATOM     53  C   UNL     1       6.260  -6.995  12.490  1.00  0.00     0.031 C 
ATOM     54  C   UNL     1       7.029  -2.320  16.287  1.00  0.00     0.029 A 
ATOM     55  C   UNL     1       6.587  -3.119  15.245  1.00  0.00     0.049 A 
ATOM     56  H   UNL     1       5.202  -2.666  13.718  1.00  0.00     0.167 HD
ATOM     57  C   UNL     1       6.469  -5.194  13.892  1.00  0.00     0.074 A 
ATOM     58  C   UNL     1       6.851  -6.558  13.592  1.00  0.00     0.031 C 
ATOM     59  C   UNL     1       6.961  -4.475  14.931  1.00  0.00     0.037 A 
BRANCH  46  60
ATOM     60  C   UNL     1       4.691   1.264  15.309  1.00  0.00     0.057 A 
ATOM     61  C   UNL     1       3.586   1.705  16.050  1.00  0.00     0.134 A 
ATOM     62  C   UNL     1       5.817   2.096  15.276  1.00  0.00     0.134 A 
ATOM     63  F   UNL     1       2.470   0.962  16.114  1.00  0.00    -0.206 F 
ATOM     64  C   UNL     1       3.588   2.937  16.706  1.00  0.00     0.040 A 
ATOM     65  C   UNL     1       5.843   3.318  15.952  1.00  0.00     0.040 A 
ATOM     66  F   UNL     1       6.913   1.734  14.593  1.00  0.00    -0.206 F 
ATOM     67  C   UNL     1       4.723   3.745  16.663  1.00  0.00     0.006 A 
ENDBRANCH  46  60
BRANCH  47  68
ATOM     68  C   UNL     1       4.524  -7.277  10.152  1.00  0.00     0.057 A 
ATOM     69  C   UNL     1       4.010  -8.462  10.690  1.00  0.00     0.134 A 
ATOM     70  C   UNL     1       5.040  -7.330   8.851  1.00  0.00     0.134 A 
ATOM     71  F   UNL     1       3.518  -8.479  11.938  1.00  0.00    -0.206 F 
ATOM     72  C   UNL     1       4.025  -9.659   9.971  1.00  0.00     0.040 A 
ATOM     73  C   UNL     1       5.039  -8.514   8.112  1.00  0.00     0.040 A 
ATOM     74  F   UNL     1       5.538  -6.226   8.274  1.00  0.00    -0.206 F 
ATOM     75  C   UNL     1       4.537  -9.685   8.675  1.00  0.00     0.006 A 
ENDBRANCH  47  68
BRANCH  59  76
ATOM     76  C   UNL     1       7.948  -5.162  15.831  1.00  0.00     0.057 A 
ATOM     77  C   UNL     1       9.253  -5.453  15.412  1.00  0.00     0.134 A 
ATOM     78  C   UNL     1       7.594  -5.518  17.138  1.00  0.00     0.134 A 
ATOM     79  F   UNL     1       9.651  -5.150  14.167  1.00  0.00    -0.206 F 
ATOM     80  C   UNL     1      10.161  -6.100  16.251  1.00  0.00     0.040 A 
ATOM     81  C   UNL     1       8.502  -6.140  17.996  1.00  0.00     0.040 A 
ATOM     82  F   UNL     1       6.363  -5.260  17.606  1.00  0.00    -0.206 F 
ATOM     83  C   UNL     1       9.787  -6.441  17.550  1.00  0.00     0.006 A 
ENDBRANCH  59  76
ENDBRANCH  33  34
ENDBRANCH  25  28
ENDBRANCH  23  24
ENDBRANCH  22  23
ENDBRANCH  21  22
ENDBRANCH   3  21
TORSDOF 15
