REMARK SMILES CC[C@H](C)N1C(=O)c2ccccc2[C@@H](C(=O)NCCCNC(=O)c2ccc(-c3c4nc(c(-c5c(F)cccc5F)c5ccc([nH]5)c(-c5c(F)cccc5F)c5nc(c(-c6c(F)cccc6F)c6ccc3[nH]6)C=C5)C=C4)cc2)C12CCCCC2
REMARK SMILES IDX 19 1 18 2 17 3 15 4 16 5 14 7 5 8 6 9 78 10 7 11 8 12 79 13
REMARK SMILES IDX 83 14 9 15 13 16 80 17 82 18 10 19 12 20 81 21 11 22 3 23
REMARK SMILES IDX 4 24 2 25 1 26 20 27 21 28 22 29 23 31 24 32 25 33 77 34
REMARK SMILES IDX 26 35 76 36 27 37 28 38 29 39 70 40 30 41 75 42 69 43 71 44
REMARK SMILES IDX 31 45 74 46 68 47 67 48 32 50 58 51 41 52 57 53 42 54 45 55
REMARK SMILES IDX 56 56 72 57 43 58 44 59 55 61 73 62 46 63 33 64 34 65 39 66
REMARK SMILES IDX 35 67 36 68 38 69 40 70 37 71 59 72 60 73 65 74 61 75 62 76
REMARK SMILES IDX 64 77 66 78 63 79 47 80 48 81 53 82 49 83 50 84 52 85 54 86
REMARK SMILES IDX 51 87
REMARK H PARENT 17 6 21 30 71 49 45 60
REMARK Flexibility Score: inf
ROOT
ATOM      1  C   UNL     1       0.318  -0.874  -8.746  1.00  0.00     0.042 C 
ENDROOT
BRANCH   1   2
ATOM      2  C   UNL     1      -0.520   0.286  -8.217  1.00  0.00     0.117 C 
BRANCH   2   3
ATOM      3  N   UNL     1      -1.831  -0.102  -7.712  1.00  0.00    -0.355 N 
ATOM      4  C   UNL     1      -2.428  -0.066  -6.488  1.00  0.00     0.229 C 
ATOM      5  O   UNL     1      -3.621  -0.389  -6.473  1.00  0.00    -0.274 OA
ATOM      6  H   UNL     1      -2.417  -0.472  -8.412  1.00  0.00     0.163 HD
BRANCH   4   7
ATOM      7  C   UNL     1      -1.731   0.404  -5.193  1.00  0.00     0.135 C 
ATOM      8  N   UNL     1       0.266   0.055  -3.622  1.00  0.00    -0.329 N 
ATOM      9  C   UNL     1       0.982   1.079  -4.292  1.00  0.00     0.254 C 
ATOM     10  C   UNL     1      -0.858  -0.671  -4.387  1.00  0.00     0.059 C 
ATOM     11  O   UNL     1       2.173   1.317  -4.106  1.00  0.00    -0.269 OA
ATOM     12  C   UNL     1       0.219   2.007  -5.147  1.00  0.00     0.044 A 
ATOM     13  C   UNL     1      -0.132  -1.722  -5.267  1.00  0.00     0.030 C 
ATOM     14  C   UNL     1      -1.840  -1.456  -3.466  1.00  0.00     0.030 C 
ATOM     15  C   UNL     1       0.832   3.187  -5.599  1.00  0.00     0.014 A 
ATOM     16  C   UNL     1      -1.113   1.763  -5.443  1.00  0.00    -0.020 A 
ATOM     17  C   UNL     1      -0.991  -2.793  -5.945  1.00  0.00     0.002 C 
ATOM     18  C   UNL     1      -2.770  -2.446  -4.169  1.00  0.00     0.002 C 
ATOM     19  C   UNL     1       0.100   4.145  -6.301  1.00  0.00     0.001 A 
ATOM     20  C   UNL     1      -1.865   2.774  -6.081  1.00  0.00     0.005 A 
ATOM     21  C   UNL     1      -1.990  -3.451  -5.007  1.00  0.00     0.000 C 
ATOM     22  C   UNL     1      -1.259   3.951  -6.516  1.00  0.00     0.000 A 
BRANCH   8  23
ATOM     23  C   UNL     1       0.947  -0.360  -2.347  1.00  0.00     0.082 C 
ATOM     24  C   UNL     1       0.748   0.753  -1.300  1.00  0.00     0.031 C 
BRANCH  23  25
ATOM     25  C   UNL     1       0.789  -1.764  -1.728  1.00  0.00     0.021 C 
ATOM     26  C   UNL     1      -0.236  -1.896  -0.601  1.00  0.00     0.006 C 
ENDBRANCH  23  25
ENDBRANCH   8  23
ENDBRANCH   4   7
ENDBRANCH   2   3
ENDBRANCH   1   2
BRANCH   1  27
ATOM     27  C   UNL     1      -0.435  -1.876  -9.603  1.00  0.00     0.118 C 
BRANCH  27  28
ATOM     28  N   UNL     1      -0.395  -1.525 -11.010  1.00  0.00    -0.352 N 
ATOM     29  C   UNL     1       0.279  -2.158 -12.024  1.00  0.00     0.251 C 
ATOM     30  H   UNL     1      -0.918  -0.732 -11.270  1.00  0.00     0.163 HD
ATOM     31  O   UNL     1       0.417  -1.598 -13.114  1.00  0.00    -0.269 OA
BRANCH  29  32
ATOM     32  C   UNL     1       0.861  -3.501 -11.804  1.00  0.00     0.039 A 
ATOM     33  C   UNL     1       0.141  -4.492 -11.130  1.00  0.00     0.014 A 
ATOM     34  C   UNL     1       2.142  -3.779 -12.288  1.00  0.00     0.014 A 
ATOM     35  C   UNL     1       0.753  -5.699 -10.811  1.00  0.00     0.010 A 
ATOM     36  C   UNL     1       2.717  -5.033 -12.054  1.00  0.00     0.010 A 
ATOM     37  C   UNL     1       2.041  -5.994 -11.286  1.00  0.00    -0.014 A 
BRANCH  37  38
ATOM     38  C   UNL     1       2.638  -7.327 -11.007  1.00  0.00     0.031 A 
ATOM     39  C   UNL     1       3.901  -7.462 -10.200  1.00  0.00     0.074 A 
ATOM     40  C   UNL     1       2.019  -8.431 -11.470  1.00  0.00     0.049 A 
ATOM     41  N   UNL     1       4.558  -8.547  -9.869  1.00  0.00    -0.248 NA
ATOM     42  C   UNL     1       4.512  -6.219  -9.707  1.00  0.00     0.031 C 
ATOM     43  C   UNL     1       0.792  -8.438 -12.270  1.00  0.00     0.029 A 
ATOM     44  N   UNL     1       2.326  -9.760 -11.325  1.00  0.00    -0.354 N 
ATOM     45  C   UNL     1       5.665  -8.118  -9.148  1.00  0.00     0.074 A 
ATOM     46  C   UNL     1       5.610  -6.672  -9.118  1.00  0.00     0.031 C 
ATOM     47  C   UNL     1       0.426  -9.706 -12.505  1.00  0.00     0.029 A 
ATOM     48  C   UNL     1       1.425 -10.600 -11.933  1.00  0.00     0.049 A 
ATOM     49  H   UNL     1       3.116 -10.081 -10.832  1.00  0.00     0.167 HD
ATOM     50  C   UNL     1       6.633  -8.861  -8.557  1.00  0.00     0.037 A 
ATOM     51  C   UNL     1       1.414 -11.941 -12.041  1.00  0.00     0.037 A 
ATOM     52  C   UNL     1       6.684 -10.302  -8.581  1.00  0.00     0.049 A 
ATOM     53  C   UNL     1       2.525 -12.736 -11.420  1.00  0.00     0.074 A 
ATOM     54  C   UNL     1       7.605 -11.144  -7.982  1.00  0.00     0.029 A 
ATOM     55  N   UNL     1       5.778 -11.114  -9.248  1.00  0.00    -0.354 N 
ATOM     56  N   UNL     1       3.547 -12.317 -10.714  1.00  0.00    -0.248 NA
ATOM     57  C   UNL     1       2.484 -14.190 -11.618  1.00  0.00     0.031 C 
ATOM     58  C   UNL     1       7.286 -12.463  -8.330  1.00  0.00     0.029 A 
ATOM     59  C   UNL     1       6.136 -12.446  -9.101  1.00  0.00     0.049 A 
ATOM     60  H   UNL     1       4.996 -10.792  -9.752  1.00  0.00     0.167 HD
ATOM     61  C   UNL     1       4.263 -13.457 -10.371  1.00  0.00     0.074 A 
ATOM     62  C   UNL     1       3.541 -14.585 -10.924  1.00  0.00     0.031 C 
ATOM     63  C   UNL     1       5.416 -13.559  -9.666  1.00  0.00     0.037 A 
BRANCH  50  64
ATOM     64  C   UNL     1       7.735  -8.121  -7.851  1.00  0.00     0.057 A 
ATOM     65  C   UNL     1       9.037  -8.118  -8.368  1.00  0.00     0.134 A 
ATOM     66  C   UNL     1       7.517  -7.427  -6.654  1.00  0.00     0.134 A 
ATOM     67  F   UNL     1       9.321  -8.770  -9.505  1.00  0.00    -0.206 F 
ATOM     68  C   UNL     1      10.079  -7.447  -7.724  1.00  0.00     0.040 A 
ATOM     69  C   UNL     1       8.544  -6.729  -6.015  1.00  0.00     0.040 A 
ATOM     70  F   UNL     1       6.291  -7.380  -6.109  1.00  0.00    -0.206 F 
ATOM     71  C   UNL     1       9.831  -6.742  -6.548  1.00  0.00     0.006 A 
ENDBRANCH  50  64
BRANCH  51  72
ATOM     72  C   UNL     1       0.319 -12.617 -12.782  1.00  0.00     0.057 A 
ATOM     73  C   UNL     1       0.189 -12.486 -14.170  1.00  0.00     0.134 A 
ATOM     74  C   UNL     1      -0.617 -13.418 -12.118  1.00  0.00     0.134 A 
ATOM     75  F   UNL     1       1.051 -11.727 -14.863  1.00  0.00    -0.206 F 
ATOM     76  C   UNL     1      -0.837 -13.120 -14.871  1.00  0.00     0.040 A 
ATOM     77  C   UNL     1      -1.631 -14.081 -12.810  1.00  0.00     0.040 A 
ATOM     78  F   UNL     1      -0.532 -13.597 -10.792  1.00  0.00    -0.206 F 
ATOM     79  C   UNL     1      -1.746 -13.927 -14.191  1.00  0.00     0.006 A 
ENDBRANCH  51  72
BRANCH  63  80
ATOM     80  C   UNL     1       5.949 -14.944  -9.438  1.00  0.00     0.057 A 
ATOM     81  C   UNL     1       5.904 -15.526  -8.165  1.00  0.00     0.134 A 
ATOM     82  C   UNL     1       6.504 -15.703 -10.477  1.00  0.00     0.134 A 
ATOM     83  F   UNL     1       5.391 -14.853  -7.125  1.00  0.00    -0.206 F 
ATOM     84  C   UNL     1       6.390 -16.814  -7.934  1.00  0.00     0.040 A 
ATOM     85  C   UNL     1       6.966 -17.003 -10.264  1.00  0.00     0.040 A 
ATOM     86  F   UNL     1       6.559 -15.211 -11.724  1.00  0.00    -0.206 F 
ATOM     87  C   UNL     1       6.913 -17.560  -8.988  1.00  0.00     0.006 A 
ENDBRANCH  63  80
ENDBRANCH  37  38
ENDBRANCH  29  32
ENDBRANCH  27  28
ENDBRANCH   1  27
TORSDOF 12
