REMARK SMILES N#Cc1nccnc1N(CC(=O)NCCCNC(=O)c1ccc(-c2c3nc(c(-c4c(F)cccc4F)c4ccc([nH]4)c(-c4c(F)cccc4F)c4nc(c(-c5c(F)cccc5F)c5ccc2[nH]5)C=C4)C=C3)cc1)CC(F)(F)F
REMARK SMILES IDX 14 1 13 2 11 3 12 4 10 6 9 7 8 8 3 9 4 10 5 11 7 12 6 13
REMARK SMILES IDX 2 14 1 15 74 16 75 17 76 18 77 19 78 20 15 21 16 22 17 23
REMARK SMILES IDX 18 24 19 26 20 27 21 28 73 29 22 30 72 31 23 32 24 33 25 34
REMARK SMILES IDX 66 35 26 36 71 37 65 38 67 39 27 40 70 41 64 42 63 43 28 45
REMARK SMILES IDX 54 46 37 47 53 48 38 49 41 50 52 51 68 52 39 53 40 54 51 56
REMARK SMILES IDX 69 57 42 58 29 59 30 60 35 61 31 62 32 63 34 64 36 65 33 66
REMARK SMILES IDX 55 67 56 68 61 69 57 70 58 71 60 72 62 73 59 74 43 75 44 76
REMARK SMILES IDX 49 77 45 78 46 79 48 80 50 81 47 82
REMARK H PARENT 13 5 17 25 67 44 41 55
REMARK Flexibility Score: inf
ROOT
ATOM      1  C   UNL     1       4.741  -3.387   2.574  1.00  0.00     0.117 C 
ENDROOT
BRANCH   1   2
ATOM      2  N   UNL     1       4.056  -4.447   1.857  1.00  0.00    -0.354 N 
ATOM      3  C   UNL     1       3.800  -4.550   0.521  1.00  0.00     0.239 C 
ATOM      4  O   UNL     1       3.138  -5.512   0.121  1.00  0.00    -0.273 OA
ATOM      5  H   UNL     1       3.732  -5.193   2.411  1.00  0.00     0.163 HD
BRANCH   3   6
ATOM      6  C   UNL     1       4.314  -3.485  -0.452  1.00  0.00     0.218 C 
BRANCH   6   7
ATOM      7  N   UNL     1       3.514  -2.231  -0.409  1.00  0.00    -0.336 N 
BRANCH   7   8
ATOM      8  C   UNL     1       4.195  -1.034  -0.251  1.00  0.00     0.166 A 
ATOM      9  C   UNL     1       3.701   0.284  -0.356  1.00  0.00     0.183 A 
ATOM     10  N   UNL     1       4.463   1.408  -0.152  1.00  0.00    -0.240 NA
ATOM     11  C   UNL     1       5.755   1.209   0.154  1.00  0.00     0.133 A 
ATOM     12  N   UNL     1       5.518  -1.159   0.053  1.00  0.00    -0.235 NA
ATOM     13  C   UNL     1       6.275  -0.055   0.249  1.00  0.00     0.133 A 
BRANCH   9  14
ATOM     14  C   UNL     1       2.360   0.618  -0.736  1.00  0.00     0.123 C 
ATOM     15  N   UNL     1       1.271   0.860  -1.058  1.00  0.00    -0.191 NA
ENDBRANCH   9  14
ENDBRANCH   7   8
BRANCH   7  16
ATOM     16  C   UNL     1       2.062  -2.394  -0.713  1.00  0.00     0.234 C 
BRANCH  16  17
ATOM     17  C   UNL     1       1.095  -2.270   0.481  1.00  0.00     0.405 C 
ATOM     18  F   UNL     1       1.312  -1.144   1.197  1.00  0.00    -0.169 F 
ATOM     19  F   UNL     1      -0.189  -2.247   0.059  1.00  0.00    -0.169 F 
ATOM     20  F   UNL     1       1.217  -3.311   1.337  1.00  0.00    -0.169 F 
ENDBRANCH  16  17
ENDBRANCH   7  16
ENDBRANCH   6   7
ENDBRANCH   3   6
ENDBRANCH   1   2
BRANCH   1  21
ATOM     21  C   UNL     1       3.771  -2.431   3.256  1.00  0.00     0.042 C 
BRANCH  21  22
ATOM     22  C   UNL     1       2.943  -3.093   4.351  1.00  0.00     0.118 C 
BRANCH  22  23
ATOM     23  N   UNL     1       3.748  -3.439   5.519  1.00  0.00    -0.352 N 
ATOM     24  C   UNL     1       3.669  -2.976   6.811  1.00  0.00     0.251 C 
ATOM     25  H   UNL     1       4.454  -4.105   5.356  1.00  0.00     0.163 HD
ATOM     26  O   UNL     1       4.574  -3.216   7.604  1.00  0.00    -0.269 OA
BRANCH  24  27
ATOM     27  C   UNL     1       2.508  -2.164   7.234  1.00  0.00     0.039 A 
ATOM     28  C   UNL     1       1.219  -2.506   6.823  1.00  0.00     0.014 A 
ATOM     29  C   UNL     1       2.711  -1.038   8.035  1.00  0.00     0.014 A 
ATOM     30  C   UNL     1       0.171  -1.621   7.038  1.00  0.00     0.010 A 
ATOM     31  C   UNL     1       1.631  -0.204   8.344  1.00  0.00     0.010 A 
ATOM     32  C   UNL     1       0.362  -0.458   7.800  1.00  0.00    -0.014 A 
BRANCH  32  33
ATOM     33  C   UNL     1      -0.778   0.476   8.003  1.00  0.00     0.031 A 
ATOM     34  C   UNL     1      -0.714   1.894   7.497  1.00  0.00     0.074 A 
ATOM     35  C   UNL     1      -1.899   0.028   8.604  1.00  0.00     0.049 A 
ATOM     36  N   UNL     1      -1.611   2.845   7.588  1.00  0.00    -0.248 NA
ATOM     37  C   UNL     1       0.518   2.303   6.806  1.00  0.00     0.031 C 
ATOM     38  C   UNL     1      -2.095  -1.326   9.127  1.00  0.00     0.029 A 
ATOM     39  N   UNL     1      -3.091   0.656   8.862  1.00  0.00    -0.354 N 
ATOM     40  C   UNL     1      -1.047   3.963   6.986  1.00  0.00     0.074 A 
ATOM     41  C   UNL     1       0.284   3.585   6.564  1.00  0.00     0.031 C 
ATOM     42  C   UNL     1      -3.342  -1.438   9.606  1.00  0.00     0.029 A 
ATOM     43  C   UNL     1      -4.008  -0.146   9.497  1.00  0.00     0.049 A 
ATOM     44  H   UNL     1      -3.272   1.592   8.617  1.00  0.00     0.167 HD
ATOM     45  C   UNL     1      -1.591   5.190   6.795  1.00  0.00     0.037 A 
ATOM     46  C   UNL     1      -5.235   0.134   9.972  1.00  0.00     0.037 A 
ATOM     47  C   UNL     1      -2.922   5.560   7.205  1.00  0.00     0.049 A 
ATOM     48  C   UNL     1      -5.781   1.526   9.807  1.00  0.00     0.074 A 
ATOM     49  C   UNL     1      -3.575   6.767   7.020  1.00  0.00     0.029 A 
ATOM     50  N   UNL     1      -3.798   4.734   7.891  1.00  0.00    -0.354 N 
ATOM     51  N   UNL     1      -5.249   2.560   9.203  1.00  0.00    -0.248 NA
ATOM     52  C   UNL     1      -7.101   1.788  10.395  1.00  0.00     0.031 C 
ATOM     53  C   UNL     1      -4.814   6.697   7.663  1.00  0.00     0.029 A 
ATOM     54  C   UNL     1      -4.968   5.420   8.176  1.00  0.00     0.049 A 
ATOM     55  H   UNL     1      -3.616   3.799   8.139  1.00  0.00     0.167 HD
ATOM     56  C   UNL     1      -6.180   3.585   9.314  1.00  0.00     0.074 A 
ATOM     57  C   UNL     1      -7.321   3.038  10.017  1.00  0.00     0.031 C 
ATOM     58  C   UNL     1      -6.098   4.865   8.877  1.00  0.00     0.037 A 
BRANCH  45  59
ATOM     59  C   UNL     1      -0.737   6.242   6.142  1.00  0.00     0.057 A 
ATOM     60  C   UNL     1      -0.314   7.362   6.871  1.00  0.00     0.134 A 
ATOM     61  C   UNL     1      -0.376   6.181   4.790  1.00  0.00     0.134 A 
ATOM     62  F   UNL     1      -0.633   7.492   8.168  1.00  0.00    -0.206 F 
ATOM     63  C   UNL     1       0.432   8.382   6.279  1.00  0.00     0.040 A 
ATOM     64  C   UNL     1       0.398   7.180   4.195  1.00  0.00     0.040 A 
ATOM     65  F   UNL     1      -0.741   5.135   4.035  1.00  0.00    -0.206 F 
ATOM     66  C   UNL     1       0.797   8.289   4.939  1.00  0.00     0.006 A 
ENDBRANCH  45  59
BRANCH  46  67
ATOM     67  C   UNL     1      -6.020  -0.901  10.695  1.00  0.00     0.057 A 
ATOM     68  C   UNL     1      -5.591  -1.405  11.930  1.00  0.00     0.134 A 
ATOM     69  C   UNL     1      -7.248  -1.361  10.205  1.00  0.00     0.134 A 
ATOM     70  F   UNL     1      -4.419  -1.015  12.453  1.00  0.00    -0.206 F 
ATOM     71  C   UNL     1      -6.356  -2.319  12.654  1.00  0.00     0.040 A 
ATOM     72  C   UNL     1      -8.042  -2.244  10.938  1.00  0.00     0.040 A 
ATOM     73  F   UNL     1      -7.722  -0.905   9.037  1.00  0.00    -0.206 F 
ATOM     74  C   UNL     1      -7.596  -2.727  12.166  1.00  0.00     0.006 A 
ENDBRANCH  46  67
BRANCH  58  75
ATOM     75  C   UNL     1      -7.296   5.744   9.107  1.00  0.00     0.057 A 
ATOM     76  C   UNL     1      -8.071   6.187   8.027  1.00  0.00     0.134 A 
ATOM     77  C   UNL     1      -7.683   6.158  10.389  1.00  0.00     0.134 A 
ATOM     78  F   UNL     1      -7.752   5.840   6.771  1.00  0.00    -0.206 F 
ATOM     79  C   UNL     1      -9.187   7.002   8.213  1.00  0.00     0.040 A 
ATOM     80  C   UNL     1      -8.820   6.941  10.591  1.00  0.00     0.040 A 
ATOM     81  F   UNL     1      -6.993   5.761  11.470  1.00  0.00    -0.206 F 
ATOM     82  C   UNL     1      -9.573   7.370   9.500  1.00  0.00     0.006 A 
ENDBRANCH  58  75
ENDBRANCH  32  33
ENDBRANCH  24  27
ENDBRANCH  22  23
ENDBRANCH  21  22
ENDBRANCH   1  21
TORSDOF 15
