REMARK SMILES Cc1ccc(C(=O)N2CCC3(CCC(=O)N(CC(=O)NCCCNC(=O)c4ccc(-c5c6nc(c(-c7c(F)cccc7F)c7ccc([nH]7)c(-c7c(F)cccc7F)c7nc(c(-c8c(F)cccc8F)c8ccc5[nH]8)C=C7)C=C6)cc4)C3)CC2)cc1O
REMARK SMILES IDX 21 1 20 2 18 3 19 4 17 6 16 7 6 8 7 9 8 10 9 11 83 12 10 13
REMARK SMILES IDX 82 14 11 15 12 16 81 17 13 18 14 19 15 20 5 21 1 22 2 23
REMARK SMILES IDX 3 24 85 25 4 26 84 27 86 28 22 30 23 31 24 32 25 33 26 35
REMARK SMILES IDX 27 36 28 37 80 38 29 39 79 40 30 41 31 42 32 43 73 44 33 45
REMARK SMILES IDX 78 46 72 47 74 48 34 49 77 50 71 51 70 52 35 54 61 55 44 56
REMARK SMILES IDX 60 57 45 58 48 59 59 60 75 61 46 62 47 63 58 65 76 66 49 67
REMARK SMILES IDX 36 68 37 69 42 70 38 71 39 72 41 73 43 74 40 75 62 76 63 77
REMARK SMILES IDX 68 78 64 79 65 80 67 81 69 82 66 83 50 84 51 85 56 86 52 87
REMARK SMILES IDX 53 88 55 89 57 90 54 91
REMARK H PARENT 20 5 86 29 24 34 74 53 48 64
REMARK Flexibility Score: inf
ROOT
ATOM      1  C   UNL     1       7.919  -5.148   2.908  1.00  0.00     0.117 C 
ENDROOT
BRANCH   1   2
ATOM      2  N   UNL     1       8.805  -4.588   3.900  1.00  0.00    -0.354 N 
ATOM      3  C   UNL     1       8.847  -3.320   4.396  1.00  0.00     0.239 C 
ATOM      4  O   UNL     1       9.548  -3.127   5.393  1.00  0.00    -0.273 OA
ATOM      5  H   UNL     1       9.472  -5.210   4.271  1.00  0.00     0.163 HD
BRANCH   3   6
ATOM      6  C   UNL     1       7.912  -2.234   3.851  1.00  0.00     0.219 C 
BRANCH   6   7
ATOM      7  N   UNL     1       8.032  -1.859   2.438  1.00  0.00    -0.333 N 
ATOM      8  C   UNL     1       3.027   1.500   0.173  1.00  0.00     0.253 C 
ATOM      9  O   UNL     1       2.893   2.667   0.541  1.00  0.00    -0.269 OA
ATOM     10  N   UNL     1       4.281   0.900   0.109  1.00  0.00    -0.339 N 
ATOM     11  C   UNL     1       5.316   1.392   1.003  1.00  0.00     0.120 C 
ATOM     12  C   UNL     1       4.737  -0.012  -0.934  1.00  0.00     0.120 C 
ATOM     13  C   UNL     1       5.950   0.202   1.711  1.00  0.00     0.030 C 
ATOM     14  C   UNL     1       5.460  -1.222  -0.333  1.00  0.00     0.030 C 
ATOM     15  C   UNL     1       6.534  -0.842   0.724  1.00  0.00    -0.008 C 
ATOM     16  C   UNL     1       7.811  -0.356   0.010  1.00  0.00     0.019 C 
ATOM     17  C   UNL     1       6.931  -2.100   1.514  1.00  0.00     0.127 C 
ATOM     18  C   UNL     1       8.967  -0.107   0.967  1.00  0.00     0.101 C 
ATOM     19  C   UNL     1       9.152  -1.133   2.069  1.00  0.00     0.223 C 
ATOM     20  O   UNL     1      10.206  -1.182   2.699  1.00  0.00    -0.275 OA
BRANCH   8  21
ATOM     21  C   UNL     1       1.795   0.683  -0.043  1.00  0.00     0.043 A 
ATOM     22  C   UNL     1      -1.906  -1.564  -0.061  1.00  0.00     0.048 C 
ATOM     23  C   UNL     1      -0.637  -0.764  -0.087  1.00  0.00    -0.009 A 
ATOM     24  C   UNL     1       0.589  -1.427   0.035  1.00  0.00     0.008 A 
ATOM     25  C   UNL     1      -0.626   0.632  -0.183  1.00  0.00     0.119 A 
ATOM     26  C   UNL     1       1.786  -0.709   0.081  1.00  0.00     0.014 A 
ATOM     27  C   UNL     1       0.571   1.349  -0.176  1.00  0.00     0.060 A 
BRANCH  25  28
ATOM     28  O   UNL     1      -1.771   1.374  -0.253  1.00  0.00    -0.508 OA
ATOM     29  H   UNL     1      -2.605   0.948  -0.261  1.00  0.00     0.293 HD
ENDBRANCH  25  28
ENDBRANCH   8  21
ENDBRANCH   6   7
ENDBRANCH   3   6
ENDBRANCH   1   2
BRANCH   1  30
ATOM     30  C   UNL     1       8.610  -5.342   1.567  1.00  0.00     0.042 C 
BRANCH  30  31
ATOM     31  C   UNL     1       9.742  -6.362   1.601  1.00  0.00     0.118 C 
BRANCH  31  32
ATOM     32  N   UNL     1       9.282  -7.697   1.960  1.00  0.00    -0.352 N 
ATOM     33  C   UNL     1       9.352  -8.876   1.265  1.00  0.00     0.251 C 
ATOM     34  H   UNL     1       8.851  -7.763   2.843  1.00  0.00     0.163 HD
ATOM     35  O   UNL     1       8.719  -9.854   1.665  1.00  0.00    -0.269 OA
BRANCH  33  36
ATOM     36  C   UNL     1      10.162  -8.980   0.034  1.00  0.00     0.039 A 
ATOM     37  C   UNL     1       9.659  -9.717  -1.042  1.00  0.00     0.014 A 
ATOM     38  C   UNL     1      11.421  -8.382  -0.056  1.00  0.00     0.014 A 
ATOM     39  C   UNL     1      10.390  -9.797  -2.229  1.00  0.00     0.010 A 
ATOM     40  C   UNL     1      12.108  -8.390  -1.266  1.00  0.00     0.010 A 
ATOM     41  C   UNL     1      11.602  -9.101  -2.364  1.00  0.00    -0.014 A 
BRANCH  41  42
ATOM     42  C   UNL     1      12.353  -9.105  -3.644  1.00  0.00     0.031 A 
ATOM     43  C   UNL     1      13.732  -9.701  -3.714  1.00  0.00     0.074 A 
ATOM     44  C   UNL     1      11.817  -8.514  -4.729  1.00  0.00     0.049 A 
ATOM     45  N   UNL     1      14.565  -9.742  -4.723  1.00  0.00    -0.248 NA
ATOM     46  C   UNL     1      14.253 -10.309  -2.480  1.00  0.00     0.031 C 
ATOM     47  C   UNL     1      10.506  -7.865  -4.779  1.00  0.00     0.029 A 
ATOM     48  N   UNL     1      12.312  -8.357  -5.999  1.00  0.00    -0.354 N 
ATOM     49  C   UNL     1      15.708 -10.369  -4.244  1.00  0.00     0.074 A 
ATOM     50  C   UNL     1      15.485 -10.636  -2.839  1.00  0.00     0.031 C 
ATOM     51  C   UNL     1      10.289  -7.407  -6.022  1.00  0.00     0.029 A 
ATOM     52  C   UNL     1      11.460  -7.689  -6.844  1.00  0.00     0.049 A 
ATOM     53  H   UNL     1      13.195  -8.692  -6.279  1.00  0.00     0.167 HD
ATOM     54  C   UNL     1      16.831 -10.714  -4.917  1.00  0.00     0.037 A 
ATOM     55  C   UNL     1      11.610  -7.336  -8.135  1.00  0.00     0.037 A 
ATOM     56  C   UNL     1      17.046 -10.454  -6.317  1.00  0.00     0.049 A 
ATOM     57  C   UNL     1      12.880  -7.701  -8.852  1.00  0.00     0.074 A 
ATOM     58  C   UNL     1      18.129 -10.804  -7.104  1.00  0.00     0.029 A 
ATOM     59  N   UNL     1      16.159  -9.772  -7.138  1.00  0.00    -0.354 N 
ATOM     60  N   UNL     1      13.926  -8.351  -8.404  1.00  0.00    -0.248 NA
ATOM     61  C   UNL     1      12.987  -7.285 -10.258  1.00  0.00     0.031 C 
ATOM     62  C   UNL     1      17.922 -10.289  -8.388  1.00  0.00     0.029 A 
ATOM     63  C   UNL     1      16.683  -9.669  -8.417  1.00  0.00     0.049 A 
ATOM     64  H   UNL     1      15.287  -9.415  -6.855  1.00  0.00     0.167 HD
ATOM     65  C   UNL     1      14.801  -8.451  -9.478  1.00  0.00     0.074 A 
ATOM     66  C   UNL     1      14.156  -7.806 -10.603  1.00  0.00     0.031 C 
ATOM     67  C   UNL     1      16.027  -9.028  -9.529  1.00  0.00     0.037 A 
BRANCH  54  68
ATOM     68  C   UNL     1      17.915 -11.408  -4.142  1.00  0.00     0.057 A 
ATOM     69  C   UNL     1      17.754 -12.711  -3.650  1.00  0.00     0.134 A 
ATOM     70  C   UNL     1      19.142 -10.776  -3.900  1.00  0.00     0.134 A 
ATOM     71  F   UNL     1      16.600 -13.371  -3.836  1.00  0.00    -0.206 F 
ATOM     72  C   UNL     1      18.759 -13.346  -2.917  1.00  0.00     0.040 A 
ATOM     73  C   UNL     1      20.165 -11.413  -3.195  1.00  0.00     0.040 A 
ATOM     74  F   UNL     1      19.368  -9.532  -4.348  1.00  0.00    -0.206 F 
ATOM     75  C   UNL     1      19.971 -12.698  -2.693  1.00  0.00     0.006 A 
ENDBRANCH  54  68
BRANCH  55  76
ATOM     76  C   UNL     1      10.518  -6.620  -8.841  1.00  0.00     0.057 A 
ATOM     77  C   UNL     1       9.783  -7.247  -9.854  1.00  0.00     0.134 A 
ATOM     78  C   UNL     1      10.184  -5.297  -8.527  1.00  0.00     0.134 A 
ATOM     79  F   UNL     1      10.067  -8.508 -10.211  1.00  0.00    -0.206 F 
ATOM     80  C   UNL     1       8.770  -6.579 -10.544  1.00  0.00     0.040 A 
ATOM     81  C   UNL     1       9.155  -4.625  -9.191  1.00  0.00     0.040 A 
ATOM     82  F   UNL     1      10.842  -4.642  -7.559  1.00  0.00    -0.206 F 
ATOM     83  C   UNL     1       8.450  -5.265 -10.208  1.00  0.00     0.006 A 
ENDBRANCH  55  76
BRANCH  67  84
ATOM     84  C   UNL     1      16.735  -9.023 -10.854  1.00  0.00     0.057 A 
ATOM     85  C   UNL     1      17.268  -7.851 -11.407  1.00  0.00     0.134 A 
ATOM     86  C   UNL     1      16.916 -10.215 -11.567  1.00  0.00     0.134 A 
ATOM     87  F   UNL     1      17.117  -6.674 -10.781  1.00  0.00    -0.206 F 
ATOM     88  C   UNL     1      17.933  -7.862 -12.634  1.00  0.00     0.040 A 
ATOM     89  C   UNL     1      17.605 -10.243 -12.780  1.00  0.00     0.040 A 
ATOM     90  F   UNL     1      16.438 -11.374 -11.091  1.00  0.00    -0.206 F 
ATOM     91  C   UNL     1      18.110  -9.062 -13.320  1.00  0.00     0.006 A 
ENDBRANCH  67  84
ENDBRANCH  41  42
ENDBRANCH  33  36
ENDBRANCH  31  32
ENDBRANCH  30  31
ENDBRANCH   1  30
TORSDOF 13
