REMARK SMILES O=C(NCCCNC(=O)[C@]1(CCCCO)CCc2ccccc2C1)c1ccc(-c2c3nc(c(-c4c(F)cccc4F)c4ccc([nH]4)c(-c4c(F)cccc4F)c4nc(c(-c5c(F)cccc5F)c5ccc2[nH]5)C=C4)C=C3)cc1
REMARK SMILES IDX 7 1 8 2 9 3 6 5 5 6 4 7 3 8 1 9 2 10 25 12 26 13 78 14 27 15
REMARK SMILES IDX 77 16 28 17 29 18 30 19 71 20 31 21 76 22 70 23 72 24 32 25
REMARK SMILES IDX 75 26 69 27 68 28 33 30 59 31 42 32 58 33 43 34 46 35 57 36
REMARK SMILES IDX 73 37 44 38 45 39 56 41 74 42 47 43 34 44 35 45 40 46 36 47
REMARK SMILES IDX 37 48 39 49 41 50 38 51 60 52 61 53 66 54 62 55 63 56 65 57
REMARK SMILES IDX 67 58 64 59 48 60 49 61 54 62 50 63 51 64 53 65 55 66 52 67
REMARK SMILES IDX 10 68 16 69 24 70 17 71 23 72 18 73 22 74 19 75 21 76 20 77
REMARK SMILES IDX 11 78 12 79 13 80 14 81 15 82
REMARK H PARENT 7 4 3 11 72 29 46 40 15 83
REMARK Flexibility Score: inf
ROOT
ATOM      1  N   UNL     1       5.149   2.037  -3.635  1.00  0.00    -0.356 N 
ATOM      2  C   UNL     1       5.999   2.289  -4.655  1.00  0.00     0.226 C 
ATOM      3  O   UNL     1       6.668   3.322  -4.512  1.00  0.00    -0.274 OA
ATOM      4  H   UNL     1       5.271   2.647  -2.873  1.00  0.00     0.163 HD
ENDROOT
BRANCH   1   5
ATOM      5  C   UNL     1       4.095   1.064  -3.418  1.00  0.00     0.117 C 
BRANCH   5   6
ATOM      6  C   UNL     1       4.494   0.053  -2.362  1.00  0.00     0.042 C 
BRANCH   6   7
ATOM      7  C   UNL     1       4.324   0.642  -0.970  1.00  0.00     0.118 C 
BRANCH   7   8
ATOM      8  N   UNL     1       2.914   0.753  -0.599  1.00  0.00    -0.352 N 
ATOM      9  O   UNL     1       0.999   0.123   0.416  1.00  0.00    -0.269 OA
ATOM     10  C   UNL     1       2.221   0.101   0.394  1.00  0.00     0.251 C 
ATOM     11  H   UNL     1       2.385   1.385  -1.137  1.00  0.00     0.163 HD
BRANCH  10  12
ATOM     12  C   UNL     1       2.977  -0.630   1.428  1.00  0.00     0.039 A 
ATOM     13  C   UNL     1       4.134  -0.063   1.961  1.00  0.00     0.014 A 
ATOM     14  C   UNL     1       2.541  -1.886   1.858  1.00  0.00     0.014 A 
ATOM     15  C   UNL     1       4.950  -0.822   2.780  1.00  0.00     0.010 A 
ATOM     16  C   UNL     1       3.302  -2.598   2.789  1.00  0.00     0.010 A 
ATOM     17  C   UNL     1       4.527  -2.082   3.235  1.00  0.00    -0.014 A 
BRANCH  17  18
ATOM     18  C   UNL     1       5.369  -2.767   4.245  1.00  0.00     0.031 A 
ATOM     19  C   UNL     1       6.032  -4.081   3.958  1.00  0.00     0.074 A 
ATOM     20  C   UNL     1       5.598  -2.122   5.406  1.00  0.00     0.049 A 
ATOM     21  N   UNL     1       6.864  -4.758   4.709  1.00  0.00    -0.248 NA
ATOM     22  C   UNL     1       5.721  -4.730   2.675  1.00  0.00     0.031 C 
ATOM     23  C   UNL     1       4.983  -0.846   5.792  1.00  0.00     0.029 A 
ATOM     24  N   UNL     1       6.440  -2.409   6.446  1.00  0.00    -0.354 N 
ATOM     25  C   UNL     1       7.160  -5.917   4.004  1.00  0.00     0.074 A 
ATOM     26  C   UNL     1       6.402  -5.864   2.772  1.00  0.00     0.031 C 
ATOM     27  C   UNL     1       5.535  -0.418   6.934  1.00  0.00     0.029 A 
ATOM     28  C   UNL     1       6.479  -1.423   7.403  1.00  0.00     0.049 A 
ATOM     29  H   UNL     1       6.965  -3.239   6.504  1.00  0.00     0.167 HD
ATOM     30  C   UNL     1       7.992  -6.926   4.356  1.00  0.00     0.037 A 
ATOM     31  C   UNL     1       7.191  -1.338   8.540  1.00  0.00     0.037 A 
ATOM     32  C   UNL     1       8.752  -6.958   5.580  1.00  0.00     0.049 A 
ATOM     33  C   UNL     1       8.119  -2.460   8.889  1.00  0.00     0.074 A 
ATOM     34  C   UNL     1       9.617  -7.939   6.035  1.00  0.00     0.029 A 
ATOM     35  N   UNL     1       8.744  -5.957   6.541  1.00  0.00    -0.354 N 
ATOM     36  N   UNL     1       8.379  -3.553   8.214  1.00  0.00    -0.248 NA
ATOM     37  C   UNL     1       8.844  -2.344  10.160  1.00  0.00     0.031 C 
ATOM     38  C   UNL     1      10.110  -7.543   7.284  1.00  0.00     0.029 A 
ATOM     39  C   UNL     1       9.584  -6.298   7.589  1.00  0.00     0.049 A 
ATOM     40  H   UNL     1       8.219  -5.125   6.486  1.00  0.00     0.167 HD
ATOM     41  C   UNL     1       9.290  -4.262   8.980  1.00  0.00     0.074 A 
ATOM     42  C   UNL     1       9.570  -3.453  10.151  1.00  0.00     0.031 C 
ATOM     43  C   UNL     1       9.835  -5.481   8.747  1.00  0.00     0.037 A 
BRANCH  30  44
ATOM     44  C   UNL     1       8.115  -8.087   3.413  1.00  0.00     0.057 A 
ATOM     45  C   UNL     1       8.825  -7.989   2.209  1.00  0.00     0.134 A 
ATOM     46  C   UNL     1       7.559  -9.332   3.735  1.00  0.00     0.134 A 
ATOM     47  F   UNL     1       9.369  -6.821   1.834  1.00  0.00    -0.206 F 
ATOM     48  C   UNL     1       8.967  -9.084   1.354  1.00  0.00     0.040 A 
ATOM     49  C   UNL     1       7.712 -10.439   2.898  1.00  0.00     0.040 A 
ATOM     50  F   UNL     1       6.870  -9.496   4.874  1.00  0.00    -0.206 F 
ATOM     51  C   UNL     1       8.416 -10.316   1.702  1.00  0.00     0.006 A 
ENDBRANCH  30  44
BRANCH  31  52
ATOM     52  C   UNL     1       7.029  -0.159   9.425  1.00  0.00     0.057 A 
ATOM     53  C   UNL     1       8.058   0.773   9.593  1.00  0.00     0.134 A 
ATOM     54  C   UNL     1       5.827   0.077  10.104  1.00  0.00     0.134 A 
ATOM     55  F   UNL     1       9.237   0.596   8.979  1.00  0.00    -0.206 F 
ATOM     56  C   UNL     1       7.903   1.891  10.414  1.00  0.00     0.040 A 
ATOM     57  C   UNL     1       5.647   1.205  10.904  1.00  0.00     0.040 A 
ATOM     58  F   UNL     1       4.798  -0.773   9.973  1.00  0.00    -0.206 F 
ATOM     59  C   UNL     1       6.691   2.113  11.066  1.00  0.00     0.006 A 
ENDBRANCH  31  52
BRANCH  43  60
ATOM     60  C   UNL     1      10.783  -5.996   9.786  1.00  0.00     0.057 A 
ATOM     61  C   UNL     1      10.327  -6.457  11.028  1.00  0.00     0.134 A 
ATOM     62  C   UNL     1      12.161  -6.026   9.545  1.00  0.00     0.134 A 
ATOM     63  F   UNL     1       9.018  -6.436  11.323  1.00  0.00    -0.206 F 
ATOM     64  C   UNL     1      11.214  -6.904  12.007  1.00  0.00     0.040 A 
ATOM     65  C   UNL     1      13.056  -6.493  10.508  1.00  0.00     0.040 A 
ATOM     66  F   UNL     1      12.658  -5.601   8.374  1.00  0.00    -0.206 F 
ATOM     67  C   UNL     1      12.584  -6.925  11.746  1.00  0.00     0.006 A 
ENDBRANCH  43  60
ENDBRANCH  17  18
ENDBRANCH  10  12
ENDBRANCH   7   8
ENDBRANCH   6   7
ENDBRANCH   5   6
ENDBRANCH   1   5
BRANCH   2  68
ATOM     68  C   UNL     1       6.104   1.464  -5.957  1.00  0.00     0.054 C 
ATOM     69  C   UNL     1       5.862  -0.053  -5.803  1.00  0.00     0.022 C 
ATOM     70  C   UNL     1       7.614   1.639  -6.371  1.00  0.00     0.052 C 
ATOM     71  C   UNL     1       6.218  -0.889  -7.033  1.00  0.00     0.037 C 
ATOM     72  C   UNL     1       8.194   0.642  -7.343  1.00  0.00    -0.044 A 
ATOM     73  C   UNL     1       7.567  -0.580  -7.605  1.00  0.00    -0.045 A 
ATOM     74  C   UNL     1       9.445   0.908  -7.923  1.00  0.00     0.004 A 
ATOM     75  C   UNL     1       8.183  -1.508  -8.458  1.00  0.00     0.004 A 
ATOM     76  C   UNL     1      10.055  -0.023  -8.764  1.00  0.00     0.000 A 
ATOM     77  C   UNL     1       9.424  -1.233  -9.030  1.00  0.00     0.000 A 
BRANCH  68  78
ATOM     78  C   UNL     1       5.217   2.143  -7.048  1.00  0.00     0.017 C 
BRANCH  78  79
ATOM     79  C   UNL     1       3.687   2.167  -6.873  1.00  0.00     0.003 C 
BRANCH  79  80
ATOM     80  C   UNL     1       3.069   3.209  -5.925  1.00  0.00     0.028 C 
BRANCH  80  81
ATOM     81  C   UNL     1       3.520   4.653  -6.096  1.00  0.00     0.156 C 
BRANCH  81  82
ATOM     82  O   UNL     1       3.063   5.173  -7.333  1.00  0.00    -0.396 OA
ATOM     83  H   UNL     1       3.430   4.646  -8.060  1.00  0.00     0.210 HD
ENDBRANCH  81  82
ENDBRANCH  80  81
ENDBRANCH  79  80
ENDBRANCH  78  79
ENDBRANCH  68  78
ENDBRANCH   2  68
TORSDOF 15
