REMARK SMILES CC(C)CSc1cc2c(cc1Cl)C=C(C(=O)NCCCNC(=O)c1ccc(-c3c4nc(c(-c5c(F)cccc5F)c5ccc([nH]5)c(-c5c(F)cccc5F)c5nc(c(-c6c(F)cccc6F)c6ccc3[nH]6)C=C5)C=C4)cc1)[C@H](C(F)(F)F)O2
REMARK SMILES IDX 18 1 17 2 15 3 16 4 14 6 6 7 7 8 11 9 8 10 10 11 12 12 9 13
REMARK SMILES IDX 83 14 13 15 78 16 5 17 4 18 2 19 1 20 3 21 79 22 80 23 81 24
REMARK SMILES IDX 82 25 19 26 20 27 21 28 22 29 23 31 24 32 25 33 77 34 26 35
REMARK SMILES IDX 76 36 27 37 28 38 29 39 70 40 30 41 75 42 69 43 71 44 31 45
REMARK SMILES IDX 74 46 68 47 67 48 32 50 58 51 41 52 57 53 42 54 45 55 56 56
REMARK SMILES IDX 72 57 43 58 44 59 55 61 73 62 46 63 33 64 34 65 39 66 35 67
REMARK SMILES IDX 36 68 38 69 40 70 37 71 59 72 60 73 65 74 61 75 62 76 64 77
REMARK SMILES IDX 66 78 63 79 47 80 48 81 53 82 49 83 50 84 52 85 54 86 51 87
REMARK H PARENT 17 5 21 30 71 49 45 60
REMARK Flexibility Score: inf
ROOT
ATOM      1  C   UNL     1      -2.403   8.319  -1.736  1.00  0.00     0.118 C 
ENDROOT
BRANCH   1   2
ATOM      2  N   UNL     1      -1.012   8.043  -2.056  1.00  0.00    -0.352 N 
ATOM      3  C   UNL     1      -0.238   6.943  -2.201  1.00  0.00     0.251 C 
ATOM      4  O   UNL     1       0.922   7.155  -2.566  1.00  0.00    -0.270 OA
ATOM      5  H   UNL     1      -0.501   8.871  -2.205  1.00  0.00     0.163 HD
BRANCH   3   6
ATOM      6  C   UNL     1      -0.693   5.544  -1.963  1.00  0.00     0.067 C 
ATOM      7  C   UNL     1      -0.964   0.502  -1.987  1.00  0.00     0.030 A 
ATOM      8  C   UNL     1      -1.755   1.524  -1.446  1.00  0.00     0.063 A 
ATOM      9  C   UNL     1       0.142   0.851  -2.781  1.00  0.00     0.055 A 
ATOM     10  C   UNL     1      -1.417   2.862  -1.645  1.00  0.00     0.129 A 
ATOM     11  C   UNL     1       0.479   2.196  -2.973  1.00  0.00     0.033 A 
ATOM     12  Cl  UNL     1       1.170  -0.333  -3.514  1.00  0.00    -0.083 Cl
ATOM     13  C   UNL     1      -0.299   3.205  -2.400  1.00  0.00     0.019 A 
ATOM     14  O   UNL     1      -2.256   3.784  -1.091  1.00  0.00    -0.475 OA
ATOM     15  C   UNL     1       0.025   4.606  -2.607  1.00  0.00     0.025 C 
ATOM     16  C   UNL     1      -1.789   5.160  -1.006  1.00  0.00     0.314 C 
BRANCH   7  17
ATOM     17  S   UNL     1      -1.409  -1.190  -1.626  1.00  0.00    -0.124 SA
BRANCH  17  18
ATOM     18  C   UNL     1      -0.944  -1.297   0.146  1.00  0.00     0.078 C 
BRANCH  18  19
ATOM     19  C   UNL     1       0.572  -1.431   0.394  1.00  0.00    -0.007 C 
ATOM     20  C   UNL     1       1.270  -0.077   0.553  1.00  0.00     0.008 C 
ATOM     21  C   UNL     1       0.819  -2.244   1.670  1.00  0.00     0.008 C 
ENDBRANCH  18  19
ENDBRANCH  17  18
ENDBRANCH   7  17
BRANCH  16  22
ATOM     22  C   UNL     1      -1.479   5.494   0.463  1.00  0.00     0.429 C 
ATOM     23  F   UNL     1      -0.560   6.477   0.599  1.00  0.00    -0.167 F 
ATOM     24  F   UNL     1      -2.605   5.925   1.089  1.00  0.00    -0.167 F 
ATOM     25  F   UNL     1      -1.020   4.426   1.154  1.00  0.00    -0.167 F 
ENDBRANCH  16  22
ENDBRANCH   3   6
ENDBRANCH   1   2
BRANCH   1  26
ATOM     26  C   UNL     1      -2.550   8.873  -0.324  1.00  0.00     0.042 C 
BRANCH  26  27
ATOM     27  C   UNL     1      -2.113  10.329  -0.215  1.00  0.00     0.118 C 
BRANCH  27  28
ATOM     28  N   UNL     1      -3.076  11.238  -0.828  1.00  0.00    -0.352 N 
ATOM     29  C   UNL     1      -3.880  12.194  -0.254  1.00  0.00     0.251 C 
ATOM     30  H   UNL     1      -3.163  11.154  -1.805  1.00  0.00     0.163 HD
ATOM     31  O   UNL     1      -4.795  12.691  -0.909  1.00  0.00    -0.269 OA
BRANCH  29  32
ATOM     32  C   UNL     1      -3.665  12.609   1.149  1.00  0.00     0.039 A 
ATOM     33  C   UNL     1      -2.374  12.751   1.656  1.00  0.00     0.014 A 
ATOM     34  C   UNL     1      -4.766  12.868   1.970  1.00  0.00     0.014 A 
ATOM     35  C   UNL     1      -2.185  12.943   3.017  1.00  0.00     0.010 A 
ATOM     36  C   UNL     1      -4.570  13.185   3.319  1.00  0.00     0.010 A 
ATOM     37  C   UNL     1      -3.278  13.173   3.868  1.00  0.00    -0.014 A 
BRANCH  37  38
ATOM     38  C   UNL     1      -3.029  13.399   5.317  1.00  0.00     0.031 A 
ATOM     39  C   UNL     1      -3.591  12.466   6.357  1.00  0.00     0.074 A 
ATOM     40  C   UNL     1      -2.228  14.417   5.691  1.00  0.00     0.049 A 
ATOM     41  N   UNL     1      -3.439  12.492   7.658  1.00  0.00    -0.248 NA
ATOM     42  C   UNL     1      -4.440  11.365   5.878  1.00  0.00     0.031 C 
ATOM     43  C   UNL     1      -1.619  15.390   4.780  1.00  0.00     0.029 A 
ATOM     44  N   UNL     1      -1.763  14.787   6.927  1.00  0.00    -0.354 N 
ATOM     45  C   UNL     1      -4.185  11.429   8.152  1.00  0.00     0.074 A 
ATOM     46  C   UNL     1      -4.822  10.801   7.015  1.00  0.00     0.031 C 
ATOM     47  C   UNL     1      -0.811  16.201   5.478  1.00  0.00     0.029 A 
ATOM     48  C   UNL     1      -0.905  15.860   6.891  1.00  0.00     0.049 A 
ATOM     49  H   UNL     1      -2.018  14.328   7.759  1.00  0.00     0.167 HD
ATOM     50  C   UNL     1      -4.317  11.005   9.433  1.00  0.00     0.037 A 
ATOM     51  C   UNL     1      -0.278  16.512   7.887  1.00  0.00     0.037 A 
ATOM     52  C   UNL     1      -3.675  11.627  10.563  1.00  0.00     0.049 A 
ATOM     53  C   UNL     1      -0.489  16.055   9.301  1.00  0.00     0.074 A 
ATOM     54  C   UNL     1      -3.729  11.262  11.898  1.00  0.00     0.029 A 
ATOM     55  N   UNL     1      -2.863  12.750  10.492  1.00  0.00    -0.354 N 
ATOM     56  N   UNL     1      -1.181  15.035   9.748  1.00  0.00    -0.248 NA
ATOM     57  C   UNL     1       0.165  16.847  10.351  1.00  0.00     0.031 C 
ATOM     58  C   UNL     1      -2.997  12.195  12.639  1.00  0.00     0.029 A 
ATOM     59  C   UNL     1      -2.434  13.108  11.761  1.00  0.00     0.049 A 
ATOM     60  H   UNL     1      -2.626  13.223   9.662  1.00  0.00     0.167 HD
ATOM     61  C   UNL     1      -1.031  15.052  11.129  1.00  0.00     0.074 A 
ATOM     62  C   UNL     1      -0.159  16.166  11.439  1.00  0.00     0.031 C 
ATOM     63  C   UNL     1      -1.571  14.224  12.056  1.00  0.00     0.037 A 
BRANCH  50  64
ATOM     64  C   UNL     1      -5.217   9.826   9.681  1.00  0.00     0.057 A 
ATOM     65  C   UNL     1      -6.431   9.986  10.362  1.00  0.00     0.134 A 
ATOM     66  C   UNL     1      -4.882   8.531   9.262  1.00  0.00     0.134 A 
ATOM     67  F   UNL     1      -6.813  11.195  10.801  1.00  0.00    -0.206 F 
ATOM     68  C   UNL     1      -7.280   8.905  10.611  1.00  0.00     0.040 A 
ATOM     69  C   UNL     1      -5.737   7.447   9.478  1.00  0.00     0.040 A 
ATOM     70  F   UNL     1      -3.740   8.306   8.594  1.00  0.00    -0.206 F 
ATOM     71  C   UNL     1      -6.938   7.633  10.159  1.00  0.00     0.006 A 
ENDBRANCH  50  64
BRANCH  51  72
ATOM     72  C   UNL     1       0.586  17.681   7.587  1.00  0.00     0.057 A 
ATOM     73  C   UNL     1       0.049  18.874   7.087  1.00  0.00     0.134 A 
ATOM     74  C   UNL     1       1.966  17.643   7.817  1.00  0.00     0.134 A 
ATOM     75  F   UNL     1      -1.265  18.974   6.838  1.00  0.00    -0.206 F 
ATOM     76  C   UNL     1       0.852  19.984   6.821  1.00  0.00     0.040 A 
ATOM     77  C   UNL     1       2.777  18.756   7.587  1.00  0.00     0.040 A 
ATOM     78  F   UNL     1       2.538  16.535   8.312  1.00  0.00    -0.206 F 
ATOM     79  C   UNL     1       2.219  19.930   7.083  1.00  0.00     0.006 A 
ENDBRANCH  51  72
BRANCH  63  80
ATOM     80  C   UNL     1      -1.202  14.482  13.489  1.00  0.00     0.057 A 
ATOM     81  C   UNL     1      -0.368  13.594  14.181  1.00  0.00     0.134 A 
ATOM     82  C   UNL     1      -1.661  15.610  14.183  1.00  0.00     0.134 A 
ATOM     83  F   UNL     1       0.101  12.490  13.580  1.00  0.00    -0.206 F 
ATOM     84  C   UNL     1      -0.000  13.821  15.507  1.00  0.00     0.040 A 
ATOM     85  C   UNL     1      -1.273  15.865  15.499  1.00  0.00     0.040 A 
ATOM     86  F   UNL     1      -2.448  16.509  13.573  1.00  0.00    -0.206 F 
ATOM     87  C   UNL     1      -0.443  14.966  16.166  1.00  0.00     0.006 A 
ENDBRANCH  63  80
ENDBRANCH  37  38
ENDBRANCH  29  32
ENDBRANCH  27  28
ENDBRANCH  26  27
ENDBRANCH   1  26
TORSDOF 14
