REMARK SMILES NC(=O)C[C@H](NC(=O)c1cccc2[nH]ccc12)C(=O)NCCCNC(=O)c1ccc(-c2c3nc(c(-c4c(F)cccc4F)c4ccc([nH]4)c(-c4c(F)cccc4F)c4nc(c(-c5c(F)cccc5F)c5ccc2[nH]5)C=C4)C=C3)cc1
REMARK SMILES IDX 22 1 21 2 20 3 18 4 19 5 5 7 4 8 2 9 1 10 3 13 6 14 7 15
REMARK SMILES IDX 8 17 9 18 10 19 17 20 11 21 13 22 16 23 12 24 14 25 15 26
REMARK SMILES IDX 23 28 24 29 25 30 26 32 27 33 28 34 80 35 29 36 79 37 30 38
REMARK SMILES IDX 31 39 32 40 73 41 33 42 78 43 72 44 74 45 34 46 77 47 71 48
REMARK SMILES IDX 70 49 35 51 61 52 44 53 60 54 45 55 48 56 59 57 75 58 46 59
REMARK SMILES IDX 47 60 58 62 76 63 49 64 36 65 37 66 42 67 38 68 39 69 41 70
REMARK SMILES IDX 43 71 40 72 62 73 63 74 68 75 64 76 65 77 67 78 69 79 66 80
REMARK SMILES IDX 50 81 51 82 56 83 52 84 53 85 55 86 57 87 54 88
REMARK H PARENT 20 6 1 11 1 12 6 16 14 27 24 31 74 50 48 61
REMARK Flexibility Score: inf
ROOT
ATOM      1  C   UNL     1       3.607   1.803  -4.037  1.00  0.00     0.042 C 
ENDROOT
BRANCH   1   2
ATOM      2  C   UNL     1       4.046   2.212  -2.637  1.00  0.00     0.117 C 
BRANCH   2   3
ATOM      3  N   UNL     1       3.518   3.511  -2.269  1.00  0.00    -0.354 N 
ATOM      4  C   UNL     1       2.557   3.836  -1.360  1.00  0.00     0.243 C 
ATOM      5  O   UNL     1       2.319   5.035  -1.180  1.00  0.00    -0.273 OA
ATOM      6  H   UNL     1       3.914   4.274  -2.748  1.00  0.00     0.163 HD
BRANCH   4   7
ATOM      7  C   UNL     1       1.901   2.771  -0.456  1.00  0.00     0.180 C 
BRANCH   7   8
ATOM      8  C   UNL     1       2.915   2.440   0.642  1.00  0.00     0.134 C 
BRANCH   8   9
ATOM      9  C   UNL     1       2.337   2.332   2.038  1.00  0.00     0.220 C 
ATOM     10  N   UNL     1       1.497   3.315   2.457  1.00  0.00    -0.370 N 
ATOM     11  H   UNL     1       1.104   3.275   3.359  1.00  0.00     0.159 HD
ATOM     12  H   UNL     1       1.282   4.067   1.859  1.00  0.00     0.159 HD
ATOM     13  O   UNL     1       2.657   1.443   2.822  1.00  0.00    -0.275 OA
ENDBRANCH   8   9
ENDBRANCH   7   8
BRANCH   7  14
ATOM     14  N   UNL     1       1.193   1.748  -1.259  1.00  0.00    -0.340 N 
ATOM     15  C   UNL     1       1.270   0.416  -1.563  1.00  0.00     0.252 C 
ATOM     16  H   UNL     1       0.423   2.155  -1.719  1.00  0.00     0.164 HD
ATOM     17  O   UNL     1       0.596   0.012  -2.510  1.00  0.00    -0.269 OA
BRANCH  15  18
ATOM     18  C   UNL     1       2.122  -0.531  -0.831  1.00  0.00     0.049 A 
ATOM     19  C   UNL     1       2.074  -0.597   0.564  1.00  0.00     0.014 A 
ATOM     20  C   UNL     1       2.943  -1.448  -1.530  1.00  0.00     0.012 A 
ATOM     21  C   UNL     1       2.975  -1.391   1.270  1.00  0.00     0.003 A 
ATOM     22  C   UNL     1       3.821  -2.248  -0.792  1.00  0.00     0.046 A 
ATOM     23  C   UNL     1       3.121  -1.810  -2.899  1.00  0.00     0.029 A 
ATOM     24  C   UNL     1       3.894  -2.203   0.604  1.00  0.00     0.027 A 
ATOM     25  N   UNL     1       4.527  -3.021  -1.688  1.00  0.00    -0.361 N 
ATOM     26  C   UNL     1       4.085  -2.789  -2.962  1.00  0.00     0.083 A 
ATOM     27  H   UNL     1       5.245  -3.649  -1.446  1.00  0.00     0.166 HD
ENDBRANCH  15  18
ENDBRANCH   7  14
ENDBRANCH   4   7
ENDBRANCH   2   3
ENDBRANCH   1   2
BRANCH   1  28
ATOM     28  C   UNL     1       4.278   2.611  -5.144  1.00  0.00     0.118 C 
BRANCH  28  29
ATOM     29  N   UNL     1       5.717   2.383  -5.205  1.00  0.00    -0.352 N 
ATOM     30  C   UNL     1       6.497   1.909  -6.228  1.00  0.00     0.251 C 
ATOM     31  H   UNL     1       6.207   2.606  -4.380  1.00  0.00     0.163 HD
ATOM     32  O   UNL     1       7.668   1.601  -6.004  1.00  0.00    -0.269 OA
BRANCH  30  33
ATOM     33  C   UNL     1       5.947   1.752  -7.589  1.00  0.00     0.039 A 
ATOM     34  C   UNL     1       6.297   0.621  -8.332  1.00  0.00     0.014 A 
ATOM     35  C   UNL     1       5.116   2.725  -8.151  1.00  0.00     0.014 A 
ATOM     36  C   UNL     1       5.763   0.433  -9.608  1.00  0.00     0.010 A 
ATOM     37  C   UNL     1       4.522   2.500  -9.390  1.00  0.00     0.010 A 
ATOM     38  C   UNL     1       4.840   1.353 -10.133  1.00  0.00    -0.014 A 
BRANCH  38  39
ATOM     39  C   UNL     1       4.186   1.123 -11.447  1.00  0.00     0.031 A 
ATOM     40  C   UNL     1       4.398   2.089 -12.581  1.00  0.00     0.074 A 
ATOM     41  C   UNL     1       3.341   0.084 -11.596  1.00  0.00     0.049 A 
ATOM     42  N   UNL     1       3.849   2.102 -13.769  1.00  0.00    -0.248 NA
ATOM     43  C   UNL     1       5.330   3.202 -12.341  1.00  0.00     0.031 C 
ATOM     44  C   UNL     1       3.010  -0.893 -10.556  1.00  0.00     0.029 A 
ATOM     45  N   UNL     1       2.589  -0.313 -12.674  1.00  0.00    -0.354 N 
ATOM     46  C   UNL     1       4.348   3.231 -14.406  1.00  0.00     0.074 A 
ATOM     47  C   UNL     1       5.213   3.902 -13.460  1.00  0.00     0.031 C 
ATOM     48  C   UNL     1       2.133  -1.782 -11.050  1.00  0.00     0.029 A 
ATOM     49  C   UNL     1       1.805  -1.414 -12.424  1.00  0.00     0.049 A 
ATOM     50  H   UNL     1       2.609   0.148 -13.544  1.00  0.00     0.167 HD
ATOM     51  C   UNL     1       4.119   3.659 -15.670  1.00  0.00     0.037 A 
ATOM     52  C   UNL     1       0.909  -2.046 -13.205  1.00  0.00     0.037 A 
ATOM     53  C   UNL     1       3.282   2.972 -16.618  1.00  0.00     0.049 A 
ATOM     54  C   UNL     1       0.676  -1.548 -14.605  1.00  0.00     0.074 A 
ATOM     55  C   UNL     1       3.054   3.282 -17.948  1.00  0.00     0.029 A 
ATOM     56  N   UNL     1       2.529   1.843 -16.337  1.00  0.00    -0.354 N 
ATOM     57  N   UNL     1       1.223  -0.530 -15.223  1.00  0.00    -0.248 NA
ATOM     58  C   UNL     1      -0.295  -2.291 -15.421  1.00  0.00     0.031 C 
ATOM     59  C   UNL     1       2.118   2.377 -18.454  1.00  0.00     0.029 A 
ATOM     60  C   UNL     1       1.810   1.464 -17.459  1.00  0.00     0.049 A 
ATOM     61  H   UNL     1       2.507   1.379 -15.468  1.00  0.00     0.167 HD
ATOM     62  C   UNL     1       0.687  -0.528 -16.504  1.00  0.00     0.074 A 
ATOM     63  C   UNL     1      -0.216  -1.657 -16.581  1.00  0.00     0.031 C 
ATOM     64  C   UNL     1       0.922   0.332 -17.526  1.00  0.00     0.037 A 
BRANCH  51  65
ATOM     65  C   UNL     1       4.778   4.936 -16.109  1.00  0.00     0.057 A 
ATOM     66  C   UNL     1       6.159   5.022 -16.328  1.00  0.00     0.134 A 
ATOM     67  C   UNL     1       4.010   6.076 -16.378  1.00  0.00     0.134 A 
ATOM     68  F   UNL     1       6.954   3.970 -16.081  1.00  0.00    -0.206 F 
ATOM     69  C   UNL     1       6.755   6.202 -16.779  1.00  0.00     0.040 A 
ATOM     70  C   UNL     1       4.590   7.252 -16.857  1.00  0.00     0.040 A 
ATOM     71  F   UNL     1       2.681   6.061 -16.198  1.00  0.00    -0.206 F 
ATOM     72  C   UNL     1       5.968   7.318 -17.054  1.00  0.00     0.006 A 
ENDBRANCH  51  65
BRANCH  52  73
ATOM     73  C   UNL     1       0.158  -3.218 -12.684  1.00  0.00     0.057 A 
ATOM     74  C   UNL     1       0.369  -4.503 -13.199  1.00  0.00     0.134 A 
ATOM     75  C   UNL     1      -0.806  -3.078 -11.679  1.00  0.00     0.134 A 
ATOM     76  F   UNL     1       1.266  -4.699 -14.177  1.00  0.00    -0.206 F 
ATOM     77  C   UNL     1      -0.371  -5.600 -12.754  1.00  0.00     0.040 A 
ATOM     78  C   UNL     1      -1.531  -4.172 -11.203  1.00  0.00     0.040 A 
ATOM     79  F   UNL     1      -1.051  -1.876 -11.137  1.00  0.00    -0.206 F 
ATOM     80  C   UNL     1      -1.322  -5.436 -11.749  1.00  0.00     0.006 A 
ENDBRANCH  52  73
BRANCH  64  81
ATOM     81  C   UNL     1       0.225   0.063 -18.828  1.00  0.00     0.057 A 
ATOM     82  C   UNL     1      -1.153   0.259 -18.988  1.00  0.00     0.134 A 
ATOM     83  C   UNL     1       0.952  -0.356 -19.950  1.00  0.00     0.134 A 
ATOM     84  F   UNL     1      -1.910   0.648 -17.950  1.00  0.00    -0.206 F 
ATOM     85  C   UNL     1      -1.785   0.026 -20.210  1.00  0.00     0.040 A 
ATOM     86  C   UNL     1       0.336  -0.563 -21.184  1.00  0.00     0.040 A 
ATOM     87  F   UNL     1       2.277  -0.553 -19.869  1.00  0.00    -0.206 F 
ATOM     88  C   UNL     1      -1.038  -0.379 -21.315  1.00  0.00     0.006 A 
ENDBRANCH  64  81
ENDBRANCH  38  39
ENDBRANCH  30  33
ENDBRANCH  28  29
ENDBRANCH   1  28
TORSDOF 14
