REMARK SMILES Cc1ccc(C(=O)[C@@H](C)[C@H](C)C(=O)NCCCNC(=O)c2ccc(-c3c4nc(c(-c5c(F)cccc5F)c5ccc([nH]5)c(-c5c(F)cccc5F)c5nc(c(-c6c(F)cccc6F)c6ccc3[nH]6)C=C5)C=C4)cc2)cc1
REMARK SMILES IDX 15 1 14 2 12 3 13 4 10 6 11 7 8 8 9 9 6 10 7 11 5 12 1 13
REMARK SMILES IDX 2 14 3 15 76 16 4 17 75 18 16 19 17 20 18 21 19 22 20 24
REMARK SMILES IDX 21 25 22 26 74 27 23 28 73 29 24 30 25 31 26 32 67 33 27 34
REMARK SMILES IDX 72 35 66 36 68 37 28 38 71 39 65 40 64 41 29 43 55 44 38 45
REMARK SMILES IDX 54 46 39 47 42 48 53 49 69 50 40 51 41 52 52 54 70 55 43 56
REMARK SMILES IDX 30 57 31 58 36 59 32 60 33 61 35 62 37 63 34 64 56 65 57 66
REMARK SMILES IDX 62 67 58 68 59 69 61 70 63 71 60 72 44 73 45 74 50 75 46 76
REMARK SMILES IDX 47 77 49 78 51 79 48 80
REMARK H PARENT 14 5 18 23 68 42 42 53
REMARK Flexibility Score: inf
ROOT
ATOM      1  C   UNL     1      -6.320   3.826  -1.814  1.00  0.00     0.117 C 
ENDROOT
BRANCH   1   2
ATOM      2  N   UNL     1      -4.883   4.037  -1.748  1.00  0.00    -0.356 N 
ATOM      3  C   UNL     1      -3.763   3.287  -1.667  1.00  0.00     0.223 C 
ATOM      4  O   UNL     1      -2.710   3.936  -1.760  1.00  0.00    -0.275 OA
ATOM      5  H   UNL     1      -4.665   4.997  -1.767  1.00  0.00     0.163 HD
BRANCH   3   6
ATOM      6  C   UNL     1      -3.665   1.775  -1.415  1.00  0.00     0.086 C 
ATOM      7  C   UNL     1      -3.962   1.433   0.045  1.00  0.00     0.019 C 
BRANCH   6   8
ATOM      8  C   UNL     1      -4.090   0.776  -2.530  1.00  0.00     0.070 C 
ATOM      9  C   UNL     1      -4.830   1.321  -3.748  1.00  0.00     0.017 C 
BRANCH   8  10
ATOM     10  C   UNL     1      -4.621  -0.618  -2.118  1.00  0.00     0.166 C 
ATOM     11  O   UNL     1      -3.933  -1.618  -2.337  1.00  0.00    -0.294 OA
BRANCH  10  12
ATOM     12  C   UNL     1      -5.957  -0.829  -1.474  1.00  0.00     0.018 A 
ATOM     13  C   UNL     1      -9.710  -1.439   0.601  1.00  0.00     0.044 C 
ATOM     14  C   UNL     1      -8.403  -1.252  -0.111  1.00  0.00    -0.051 A 
ATOM     15  C   UNL     1      -7.639  -2.335  -0.548  1.00  0.00     0.004 A 
ATOM     16  C   UNL     1      -7.931   0.031  -0.359  1.00  0.00     0.004 A 
ATOM     17  C   UNL     1      -6.417  -2.126  -1.210  1.00  0.00     0.012 A 
ATOM     18  C   UNL     1      -6.747   0.233  -1.067  1.00  0.00     0.012 A 
ENDBRANCH  10  12
ENDBRANCH   8  10
ENDBRANCH   6   8
ENDBRANCH   3   6
ENDBRANCH   1   2
BRANCH   1  19
ATOM     19  C   UNL     1      -6.975   3.772  -0.447  1.00  0.00     0.042 C 
BRANCH  19  20
ATOM     20  C   UNL     1      -8.492   3.926  -0.483  1.00  0.00     0.118 C 
BRANCH  20  21
ATOM     21  N   UNL     1      -9.260   2.882  -1.166  1.00  0.00    -0.352 N 
ATOM     22  C   UNL     1     -10.647   2.686  -1.173  1.00  0.00     0.251 C 
ATOM     23  H   UNL     1      -8.733   2.235  -1.687  1.00  0.00     0.163 HD
ATOM     24  O   UNL     1     -11.160   1.795  -1.801  1.00  0.00    -0.269 OA
BRANCH  22  25
ATOM     25  C   UNL     1     -11.479   3.706  -0.484  1.00  0.00     0.039 A 
ATOM     26  C   UNL     1     -12.167   4.593  -1.316  1.00  0.00     0.014 A 
ATOM     27  C   UNL     1     -11.151   4.047   0.820  1.00  0.00     0.014 A 
ATOM     28  C   UNL     1     -12.206   5.939  -0.966  1.00  0.00     0.010 A 
ATOM     29  C   UNL     1     -11.085   5.396   1.112  1.00  0.00     0.010 A 
ATOM     30  C   UNL     1     -11.516   6.352   0.172  1.00  0.00    -0.014 A 
BRANCH  30  31
ATOM     31  C   UNL     1     -10.969   7.707   0.337  1.00  0.00     0.031 A 
ATOM     32  C   UNL     1     -11.171   8.452   1.606  1.00  0.00     0.074 A 
ATOM     33  C   UNL     1     -10.104   8.206  -0.584  1.00  0.00     0.049 A 
ATOM     34  N   UNL     1     -10.726   9.643   1.824  1.00  0.00    -0.248 NA
ATOM     35  C   UNL     1     -11.963   7.937   2.721  1.00  0.00     0.031 C 
ATOM     36  C   UNL     1      -9.110   9.261  -0.382  1.00  0.00     0.029 A 
ATOM     37  N   UNL     1     -10.105   8.008  -1.976  1.00  0.00    -0.354 N 
ATOM     38  C   UNL     1     -10.929   9.945   3.146  1.00  0.00     0.074 A 
ATOM     39  C   UNL     1     -11.784   8.896   3.636  1.00  0.00     0.031 C 
ATOM     40  C   UNL     1      -8.811   9.819  -1.562  1.00  0.00     0.029 A 
ATOM     41  C   UNL     1      -9.709   9.248  -2.545  1.00  0.00     0.049 A 
ATOM     42  H   UNL     1     -10.333   7.181  -2.458  1.00  0.00     0.167 HD
ATOM     43  C   UNL     1     -10.270  11.012   3.677  1.00  0.00     0.037 A 
ATOM     44  C   UNL     1     -10.539   9.968  -3.354  1.00  0.00     0.037 A 
ATOM     45  C   UNL     1      -9.790  11.903   2.619  1.00  0.00     0.049 A 
ATOM     46  C   UNL     1     -10.895  11.353  -2.852  1.00  0.00     0.074 A 
ATOM     47  C   UNL     1      -8.570  12.223   2.052  1.00  0.00     0.029 A 
ATOM     48  N   UNL     1     -10.749  12.495   1.815  1.00  0.00    -0.354 N 
ATOM     49  N   UNL     1     -10.466  11.867  -1.733  1.00  0.00    -0.248 NA
ATOM     50  C   UNL     1     -11.862  12.225  -3.527  1.00  0.00     0.031 C 
ATOM     51  C   UNL     1      -8.823  12.972   0.859  1.00  0.00     0.029 A 
ATOM     52  C   UNL     1     -10.192  13.117   0.721  1.00  0.00     0.049 A 
ATOM     53  H   UNL     1     -11.715  12.473   2.004  1.00  0.00     0.167 HD
ATOM     54  C   UNL     1     -11.165  13.015  -1.472  1.00  0.00     0.074 A 
ATOM     55  C   UNL     1     -11.998  13.224  -2.639  1.00  0.00     0.031 C 
ATOM     56  C   UNL     1     -11.083  13.674  -0.283  1.00  0.00     0.037 A 
BRANCH  43  57
ATOM     57  C   UNL     1      -9.988  11.248   5.146  1.00  0.00     0.057 A 
ATOM     58  C   UNL     1      -9.240  12.374   5.549  1.00  0.00     0.134 A 
ATOM     59  C   UNL     1     -10.307  10.369   6.200  1.00  0.00     0.134 A 
ATOM     60  F   UNL     1      -8.835  13.302   4.670  1.00  0.00    -0.206 F 
ATOM     61  C   UNL     1      -8.840  12.597   6.875  1.00  0.00     0.040 A 
ATOM     62  C   UNL     1      -9.951  10.602   7.536  1.00  0.00     0.040 A 
ATOM     63  F   UNL     1     -10.931   9.205   6.007  1.00  0.00    -0.206 F 
ATOM     64  C   UNL     1      -9.202  11.713   7.878  1.00  0.00     0.006 A 
ENDBRANCH  43  57
BRANCH  44  65
ATOM     65  C   UNL     1     -11.433   9.110  -4.166  1.00  0.00     0.057 A 
ATOM     66  C   UNL     1     -10.866   8.310  -5.172  1.00  0.00     0.134 A 
ATOM     67  C   UNL     1     -12.720   8.784  -3.730  1.00  0.00     0.134 A 
ATOM     68  F   UNL     1      -9.630   8.571  -5.626  1.00  0.00    -0.206 F 
ATOM     69  C   UNL     1     -11.508   7.166  -5.646  1.00  0.00     0.040 A 
ATOM     70  C   UNL     1     -13.376   7.644  -4.204  1.00  0.00     0.040 A 
ATOM     71  F   UNL     1     -13.308   9.490  -2.754  1.00  0.00    -0.206 F 
ATOM     72  C   UNL     1     -12.755   6.813  -5.135  1.00  0.00     0.006 A 
ENDBRANCH  44  65
BRANCH  56  73
ATOM     73  C   UNL     1     -11.903  14.886   0.029  1.00  0.00     0.057 A 
ATOM     74  C   UNL     1     -11.863  16.032  -0.773  1.00  0.00     0.134 A 
ATOM     75  C   UNL     1     -12.658  14.981   1.213  1.00  0.00     0.134 A 
ATOM     76  F   UNL     1     -11.171  16.040  -1.922  1.00  0.00    -0.206 F 
ATOM     77  C   UNL     1     -12.524  17.212  -0.410  1.00  0.00     0.040 A 
ATOM     78  C   UNL     1     -13.288  16.163   1.606  1.00  0.00     0.040 A 
ATOM     79  F   UNL     1     -12.822  13.921   2.020  1.00  0.00    -0.206 F 
ATOM     80  C   UNL     1     -13.220  17.286   0.793  1.00  0.00     0.006 A 
ENDBRANCH  56  73
ENDBRANCH  30  31
ENDBRANCH  22  25
ENDBRANCH  20  21
ENDBRANCH  19  20
ENDBRANCH   1  19
TORSDOF 13
