REMARK SMILES CC[C@@H]1CCCN1C(=O)N1CC[C@@H](C(=O)NCCCNC(=O)c2ccc(-c3c4nc(c(-c5c(F)cccc5F)c5ccc([nH]5)c(-c5c(F)cccc5F)c5nc(c(-c6c(F)cccc6F)c6ccc3[nH]6)C=C5)C=C4)cc2)[C@@H]1C
REMARK SMILES IDX 17 1 16 2 14 3 15 4 13 6 10 7 11 8 77 9 12 10 78 11 8 12
REMARK SMILES IDX 9 13 7 14 3 15 4 16 5 17 6 18 2 19 1 20 18 21 19 22 20 23
REMARK SMILES IDX 21 24 22 26 23 27 24 28 76 29 25 30 75 31 26 32 27 33 28 34
REMARK SMILES IDX 69 35 29 36 74 37 68 38 70 39 30 40 73 41 67 42 66 43 31 45
REMARK SMILES IDX 57 46 40 47 56 48 41 49 44 50 55 51 71 52 42 53 43 54 54 56
REMARK SMILES IDX 72 57 45 58 32 59 33 60 38 61 34 62 35 63 37 64 39 65 36 66
REMARK SMILES IDX 58 67 59 68 64 69 60 70 61 71 63 72 65 73 62 74 46 75 47 76
REMARK SMILES IDX 52 77 48 78 49 79 51 80 53 81 50 82
REMARK H PARENT 16 5 20 25 70 44 44 55
REMARK Flexibility Score: inf
ROOT
ATOM      1  C   UNL     1       0.924   5.362   1.443  1.00  0.00     0.117 C 
ENDROOT
BRANCH   1   2
ATOM      2  N   UNL     1      -0.436   4.979   1.122  1.00  0.00    -0.356 N 
ATOM      3  C   UNL     1      -0.948   3.782   0.729  1.00  0.00     0.225 C 
ATOM      4  O   UNL     1      -2.160   3.724   0.514  1.00  0.00    -0.275 OA
ATOM      5  H   UNL     1      -1.098   5.704   1.202  1.00  0.00     0.163 HD
BRANCH   3   6
ATOM      6  C   UNL     1      -0.040   2.576   0.575  1.00  0.00     0.102 C 
ATOM      7  N   UNL     1      -0.321   0.364   1.403  1.00  0.00    -0.321 N 
ATOM      8  C   UNL     1      -1.225   0.500   0.280  1.00  0.00     0.122 C 
ATOM      9  C   UNL     1      -0.037   1.723   1.867  1.00  0.00     0.096 C 
ATOM     10  C   UNL     1      -0.605   1.634  -0.511  1.00  0.00     0.037 C 
ATOM     11  C   UNL     1       1.262   1.798   2.663  1.00  0.00     0.032 C 
BRANCH   7  12
ATOM     12  C   UNL     1      -0.531  -0.637   2.315  1.00  0.00     0.320 C 
ATOM     13  O   UNL     1      -1.073  -0.391   3.395  1.00  0.00    -0.248 OA
BRANCH  12  14
ATOM     14  N   UNL     1      -0.081  -1.903   2.004  1.00  0.00    -0.322 N 
ATOM     15  C   UNL     1       0.932  -2.404   1.052  1.00  0.00     0.086 C 
ATOM     16  C   UNL     1       0.674  -3.920   1.101  1.00  0.00     0.027 C 
ATOM     17  C   UNL     1       0.416  -4.172   2.572  1.00  0.00     0.024 C 
ATOM     18  C   UNL     1      -0.347  -2.932   3.008  1.00  0.00     0.122 C 
BRANCH  15  19
ATOM     19  C   UNL     1       0.965  -1.958  -0.410  1.00  0.00     0.022 C 
ATOM     20  C   UNL     1       1.966  -0.838  -0.660  1.00  0.00     0.006 C 
ENDBRANCH  15  19
ENDBRANCH  12  14
ENDBRANCH   7  12
ENDBRANCH   3   6
ENDBRANCH   1   2
BRANCH   1  21
ATOM     21  C   UNL     1       1.579   6.196   0.349  1.00  0.00     0.042 C 
BRANCH  21  22
ATOM     22  C   UNL     1       0.826   7.472  -0.017  1.00  0.00     0.118 C 
BRANCH  22  23
ATOM     23  N   UNL     1       0.605   8.354   1.122  1.00  0.00    -0.352 N 
ATOM     24  C   UNL     1       1.038   9.635   1.357  1.00  0.00     0.251 C 
ATOM     25  H   UNL     1       0.053   7.968   1.840  1.00  0.00     0.163 HD
ATOM     26  O   UNL     1       0.873  10.141   2.465  1.00  0.00    -0.269 OA
BRANCH  24  27
ATOM     27  C   UNL     1       1.730  10.398   0.299  1.00  0.00     0.039 A 
ATOM     28  C   UNL     1       2.891  11.105   0.627  1.00  0.00     0.014 A 
ATOM     29  C   UNL     1       1.242  10.421  -1.009  1.00  0.00     0.014 A 
ATOM     30  C   UNL     1       3.616  11.751  -0.376  1.00  0.00     0.010 A 
ATOM     31  C   UNL     1       2.002  11.003  -2.019  1.00  0.00     0.010 A 
ATOM     32  C   UNL     1       3.206  11.656  -1.716  1.00  0.00    -0.014 A 
BRANCH  32  33
ATOM     33  C   UNL     1       4.047  12.180  -2.822  1.00  0.00     0.031 A 
ATOM     34  C   UNL     1       3.538  13.279  -3.711  1.00  0.00     0.074 A 
ATOM     35  C   UNL     1       5.231  11.593  -3.084  1.00  0.00     0.049 A 
ATOM     36  N   UNL     1       4.071  13.775  -4.798  1.00  0.00    -0.248 NA
ATOM     37  C   UNL     1       2.249  13.884  -3.341  1.00  0.00     0.031 C 
ATOM     38  C   UNL     1       5.819  10.495  -2.314  1.00  0.00     0.029 A 
ATOM     39  N   UNL     1       6.144  11.822  -4.083  1.00  0.00    -0.354 N 
ATOM     40  C   UNL     1       3.180  14.741  -5.249  1.00  0.00     0.074 A 
ATOM     41  C   UNL     1       2.051  14.728  -4.344  1.00  0.00     0.031 C 
ATOM     42  C   UNL     1       6.997  10.154  -2.861  1.00  0.00     0.029 A 
ATOM     43  C   UNL     1       7.223  10.971  -4.049  1.00  0.00     0.049 A 
ATOM     44  H   UNL     1       6.037  12.530  -4.760  1.00  0.00     0.167 HD
ATOM     45  C   UNL     1       3.303  15.572  -6.311  1.00  0.00     0.037 A 
ATOM     46  C   UNL     1       8.264  10.843  -4.893  1.00  0.00     0.037 A 
ATOM     47  C   UNL     1       4.434  15.585  -7.202  1.00  0.00     0.049 A 
ATOM     48  C   UNL     1       8.350  11.743  -6.094  1.00  0.00     0.074 A 
ATOM     49  C   UNL     1       4.677  16.430  -8.271  1.00  0.00     0.029 A 
ATOM     50  N   UNL     1       5.504  14.705  -7.136  1.00  0.00    -0.354 N 
ATOM     51  N   UNL     1       7.535  12.698  -6.470  1.00  0.00    -0.248 NA
ATOM     52  C   UNL     1       9.497  11.545  -6.992  1.00  0.00     0.031 C 
ATOM     53  C   UNL     1       5.864  16.023  -8.888  1.00  0.00     0.029 A 
ATOM     54  C   UNL     1       6.391  14.962  -8.169  1.00  0.00     0.049 A 
ATOM     55  H   UNL     1       5.617  14.003  -6.456  1.00  0.00     0.167 HD
ATOM     56  C   UNL     1       8.081  13.230  -7.631  1.00  0.00     0.074 A 
ATOM     57  C   UNL     1       9.306  12.502  -7.889  1.00  0.00     0.031 C 
ATOM     58  C   UNL     1       7.608  14.230  -8.414  1.00  0.00     0.037 A 
BRANCH  45  59
ATOM     59  C   UNL     1       2.180  16.534  -6.574  1.00  0.00     0.057 A 
ATOM     60  C   UNL     1       1.923  17.621  -5.728  1.00  0.00     0.134 A 
ATOM     61  C   UNL     1       1.376  16.399  -7.713  1.00  0.00     0.134 A 
ATOM     62  F   UNL     1       2.650  17.804  -4.616  1.00  0.00    -0.206 F 
ATOM     63  C   UNL     1       0.890  18.523  -5.990  1.00  0.00     0.040 A 
ATOM     64  C   UNL     1       0.359  17.311  -8.002  1.00  0.00     0.040 A 
ATOM     65  F   UNL     1       1.572  15.387  -8.571  1.00  0.00    -0.206 F 
ATOM     66  C   UNL     1       0.109  18.373  -7.135  1.00  0.00     0.006 A 
ENDBRANCH  45  59
BRANCH  46  67
ATOM     67  C   UNL     1       9.308   9.817  -4.638  1.00  0.00     0.057 A 
ATOM     68  C   UNL     1      10.610  10.186  -4.281  1.00  0.00     0.134 A 
ATOM     69  C   UNL     1       9.035   8.448  -4.751  1.00  0.00     0.134 A 
ATOM     70  F   UNL     1      10.939  11.482  -4.175  1.00  0.00    -0.206 F 
ATOM     71  C   UNL     1      11.607   9.233  -4.065  1.00  0.00     0.040 A 
ATOM     72  C   UNL     1      10.015   7.484  -4.511  1.00  0.00     0.040 A 
ATOM     73  F   UNL     1       7.805   8.027  -5.082  1.00  0.00    -0.206 F 
ATOM     74  C   UNL     1      11.309   7.877  -4.175  1.00  0.00     0.006 A 
ENDBRANCH  46  67
BRANCH  58  75
ATOM     75  C   UNL     1       8.425  14.615  -9.613  1.00  0.00     0.057 A 
ATOM     76  C   UNL     1       8.502  13.797 -10.747  1.00  0.00     0.134 A 
ATOM     77  C   UNL     1       9.095  15.845  -9.656  1.00  0.00     0.134 A 
ATOM     78  F   UNL     1       7.897  12.600 -10.765  1.00  0.00    -0.206 F 
ATOM     79  C   UNL     1       9.226  14.184 -11.876  1.00  0.00     0.040 A 
ATOM     80  C   UNL     1       9.798  16.255 -10.789  1.00  0.00     0.040 A 
ATOM     81  F   UNL     1       9.056  16.679  -8.605  1.00  0.00    -0.206 F 
ATOM     82  C   UNL     1       9.868  15.421 -11.903  1.00  0.00     0.006 A 
ENDBRANCH  58  75
ENDBRANCH  32  33
ENDBRANCH  24  27
ENDBRANCH  22  23
ENDBRANCH  21  22
ENDBRANCH   1  21
TORSDOF 13
