REMARK SMILES O=C(NCCCNC(=O)c1ccc(S(=O)(=O)Nc2ccccc2I)cc1)c1ccc(-c2c3nc(c(-c4c(F)cccc4F)c4ccc([nH]4)c(-c4c(F)cccc4F)c4nc(c(-c5c(F)cccc5F)c5ccc2[nH]5)C=C4)C=C3)cc1
REMARK SMILES IDX 5 1 4 2 3 3 1 4 2 5 27 7 28 8 80 9 29 10 79 11 30 12 31 13
REMARK SMILES IDX 32 14 73 15 33 16 78 17 72 18 74 19 34 20 77 21 71 22 70 23
REMARK SMILES IDX 35 25 61 26 44 27 60 28 45 29 48 30 59 31 75 32 46 33 47 34
REMARK SMILES IDX 58 36 76 37 49 38 36 39 37 40 42 41 38 42 39 43 41 44 43 45
REMARK SMILES IDX 40 46 62 47 63 48 68 49 64 50 65 51 67 52 69 53 66 54 50 55
REMARK SMILES IDX 51 56 56 57 52 58 53 59 55 60 57 61 54 62 6 63 7 64 8 65
REMARK SMILES IDX 9 67 10 68 11 69 26 70 12 71 25 72 13 73 14 74 15 75 16 76
REMARK SMILES IDX 17 77 18 79 19 80 23 81 20 82 22 83 24 84 21 85
REMARK H PARENT 3 6 74 24 48 35 7 66 17 78
REMARK Flexibility Score: inf
ROOT
ATOM      1  C   UNL     1       5.143  -0.461   2.007  1.00  0.00     0.042 C 
ENDROOT
BRANCH   1   2
ATOM      2  C   UNL     1       4.645  -1.010   0.684  1.00  0.00     0.118 C 
BRANCH   2   3
ATOM      3  N   UNL     1       3.196  -0.940   0.557  1.00  0.00    -0.352 N 
ATOM      4  O   UNL     1       1.188  -0.061   0.059  1.00  0.00    -0.269 OA
ATOM      5  C   UNL     1       2.401  -0.062  -0.137  1.00  0.00     0.251 C 
ATOM      6  H   UNL     1       2.707  -1.638   1.050  1.00  0.00     0.163 HD
BRANCH   5   7
ATOM      7  C   UNL     1       2.991   0.899  -1.094  1.00  0.00     0.039 A 
ATOM      8  C   UNL     1       4.031   0.525  -1.947  1.00  0.00     0.014 A 
ATOM      9  C   UNL     1       2.464   2.192  -1.167  1.00  0.00     0.014 A 
ATOM     10  C   UNL     1       4.656   1.477  -2.743  1.00  0.00     0.010 A 
ATOM     11  C   UNL     1       3.022   3.121  -2.047  1.00  0.00     0.010 A 
ATOM     12  C   UNL     1       4.144   2.779  -2.818  1.00  0.00    -0.014 A 
BRANCH  12  13
ATOM     13  C   UNL     1       4.746   3.756  -3.757  1.00  0.00     0.031 A 
ATOM     14  C   UNL     1       5.380   5.017  -3.250  1.00  0.00     0.074 A 
ATOM     15  C   UNL     1       4.691   3.506  -5.079  1.00  0.00     0.049 A 
ATOM     16  N   UNL     1       5.864   6.026  -3.928  1.00  0.00    -0.248 NA
ATOM     17  C   UNL     1       5.474   5.171  -1.790  1.00  0.00     0.031 C 
ATOM     18  C   UNL     1       4.098   2.313  -5.687  1.00  0.00     0.029 A 
ATOM     19  N   UNL     1       5.129   4.242  -6.148  1.00  0.00    -0.354 N 
ATOM     20  C   UNL     1       6.290   6.949  -2.982  1.00  0.00     0.074 A 
ATOM     21  C   UNL     1       5.992   6.387  -1.681  1.00  0.00     0.031 C 
ATOM     22  C   UNL     1       4.218   2.393  -7.019  1.00  0.00     0.029 A 
ATOM     23  C   UNL     1       4.833   3.670  -7.360  1.00  0.00     0.049 A 
ATOM     24  H   UNL     1       5.607   5.098  -6.056  1.00  0.00     0.167 HD
ATOM     25  C   UNL     1       6.876   8.153  -3.184  1.00  0.00     0.037 A 
ATOM     26  C   UNL     1       4.999   4.135  -8.611  1.00  0.00     0.037 A 
ATOM     27  C   UNL     1       7.183   8.694  -4.483  1.00  0.00     0.049 A 
ATOM     28  C   UNL     1       5.623   5.483  -8.812  1.00  0.00     0.074 A 
ATOM     29  C   UNL     1       7.818   9.884  -4.794  1.00  0.00     0.029 A 
ATOM     30  N   UNL     1       6.868   8.082  -5.688  1.00  0.00    -0.354 N 
ATOM     31  N   UNL     1       6.047   6.334  -7.910  1.00  0.00    -0.248 NA
ATOM     32  C   UNL     1       5.790   5.937 -10.198  1.00  0.00     0.031 C 
ATOM     33  C   UNL     1       7.847  10.012  -6.187  1.00  0.00     0.029 A 
ATOM     34  C   UNL     1       7.273   8.880  -6.745  1.00  0.00     0.049 A 
ATOM     35  H   UNL     1       6.423   7.208  -5.778  1.00  0.00     0.167 HD
ATOM     36  C   UNL     1       6.549   7.417  -8.616  1.00  0.00     0.074 A 
ATOM     37  C   UNL     1       6.381   7.112 -10.023  1.00  0.00     0.031 C 
ATOM     38  C   UNL     1       7.103   8.558  -8.139  1.00  0.00     0.037 A 
BRANCH  25  39
ATOM     39  C   UNL     1       7.191   8.980  -1.971  1.00  0.00     0.057 A 
ATOM     40  C   UNL     1       8.220   8.640  -1.083  1.00  0.00     0.134 A 
ATOM     41  C   UNL     1       6.463  10.145  -1.698  1.00  0.00     0.134 A 
ATOM     42  F   UNL     1       8.948   7.530  -1.280  1.00  0.00    -0.206 F 
ATOM     43  C   UNL     1       8.492   9.411   0.049  1.00  0.00     0.040 A 
ATOM     44  C   UNL     1       6.742  10.938  -0.583  1.00  0.00     0.040 A 
ATOM     45  F   UNL     1       5.468  10.534  -2.510  1.00  0.00    -0.206 F 
ATOM     46  C   UNL     1       7.754  10.566   0.299  1.00  0.00     0.006 A 
ENDBRANCH  25  39
BRANCH  26  47
ATOM     47  C   UNL     1       4.541   3.310  -9.754  1.00  0.00     0.057 A 
ATOM     48  C   UNL     1       5.453   2.647 -10.580  1.00  0.00     0.134 A 
ATOM     49  C   UNL     1       3.177   3.109 -10.001  1.00  0.00     0.134 A 
ATOM     50  F   UNL     1       6.772   2.810 -10.396  1.00  0.00    -0.206 F 
ATOM     51  C   UNL     1       5.026   1.812 -11.613  1.00  0.00     0.040 A 
ATOM     52  C   UNL     1       2.736   2.259 -11.015  1.00  0.00     0.040 A 
ATOM     53  F   UNL     1       2.255   3.707  -9.232  1.00  0.00    -0.206 F 
ATOM     54  C   UNL     1       3.663   1.608 -11.825  1.00  0.00     0.006 A 
ENDBRANCH  26  47
BRANCH  38  55
ATOM     55  C   UNL     1       7.603   9.550  -9.145  1.00  0.00     0.057 A 
ATOM     56  C   UNL     1       6.730  10.375  -9.865  1.00  0.00     0.134 A 
ATOM     57  C   UNL     1       8.978   9.724  -9.347  1.00  0.00     0.134 A 
ATOM     58  F   UNL     1       5.402  10.245  -9.726  1.00  0.00    -0.206 F 
ATOM     59  C   UNL     1       7.209  11.335 -10.757  1.00  0.00     0.040 A 
ATOM     60  C   UNL     1       9.469  10.695 -10.219  1.00  0.00     0.040 A 
ATOM     61  F   UNL     1       9.864   8.967  -8.683  1.00  0.00    -0.206 F 
ATOM     62  C   UNL     1       8.582  11.504 -10.928  1.00  0.00     0.006 A 
ENDBRANCH  38  55
ENDBRANCH  12  13
ENDBRANCH   5   7
ENDBRANCH   2   3
ENDBRANCH   1   2
BRANCH   1  63
ATOM     63  C   UNL     1       4.719  -1.278   3.212  1.00  0.00     0.118 C 
BRANCH  63  64
ATOM     64  N   UNL     1       5.221  -2.647   3.198  1.00  0.00    -0.352 N 
ATOM     65  C   UNL     1       5.912  -3.374   4.140  1.00  0.00     0.251 C 
ATOM     66  H   UNL     1       5.030  -3.140   2.366  1.00  0.00     0.163 HD
ATOM     67  O   UNL     1       6.340  -4.485   3.837  1.00  0.00    -0.269 OA
BRANCH  65  68
ATOM     68  C   UNL     1       6.162  -2.838   5.501  1.00  0.00     0.039 A 
ATOM     69  C   UNL     1       7.316  -3.213   6.203  1.00  0.00     0.015 A 
ATOM     70  C   UNL     1       5.261  -1.966   6.100  1.00  0.00     0.015 A 
ATOM     71  C   UNL     1       7.571  -2.686   7.480  1.00  0.00     0.023 A 
ATOM     72  C   UNL     1       5.602  -1.317   7.274  1.00  0.00     0.023 A 
ATOM     73  C   UNL     1       6.703  -1.729   8.015  1.00  0.00     0.087 A 
BRANCH  73  74
ATOM     74  S   UNL     1       7.018  -0.973   9.591  1.00  0.00     0.261 S 
ATOM     75  O   UNL     1       8.063  -1.736  10.248  1.00  0.00    -0.201 OA
ATOM     76  O   UNL     1       7.187   0.443   9.353  1.00  0.00    -0.201 OA
BRANCH  74  77
ATOM     77  N   UNL     1       5.631  -1.145  10.585  1.00  0.00    -0.279 N 
ATOM     78  H   UNL     1       5.723  -1.408  11.530  1.00  0.00     0.180 HD
BRANCH  77  79
ATOM     79  C   UNL     1       4.328  -0.898  10.019  1.00  0.00     0.062 A 
ATOM     80  C   UNL     1       3.919   0.417   9.755  1.00  0.00     0.028 A 
ATOM     81  C   UNL     1       3.512  -1.968   9.606  1.00  0.00     0.037 A 
ATOM     82  C   UNL     1       2.736   0.658   9.046  1.00  0.00     0.002 A 
ATOM     83  C   UNL     1       2.330  -1.720   8.896  1.00  0.00     0.017 A 
ATOM     84  I   UNL     1       4.016  -3.970   9.979  1.00  0.00    -0.042 I 
ATOM     85  C   UNL     1       1.951  -0.408   8.607  1.00  0.00     0.001 A 
ENDBRANCH  77  79
ENDBRANCH  74  77
ENDBRANCH  73  74
ENDBRANCH  65  68
ENDBRANCH  63  64
ENDBRANCH   1  63
TORSDOF 13
