REMARK SMILES Cn1cc(C[C@@H](NC(=O)OCC2c3ccccc3-c3ccccc32)C(=O)NCCCNC(=O)c2ccc(-c3c4nc(c(-c5c(F)cccc5F)c5ccc([nH]5)c(-c5c(F)cccc5F)c5nc(c(-c6c(F)cccc6F)c6ccc3[nH]6)C=C5)C=C4)cc2)c2ccccc21
REMARK SMILES IDX 28 1 27 2 25 3 26 4 6 6 5 7 4 8 1 9 2 10 3 11 93 12 88 13
REMARK SMILES IDX 92 14 89 15 91 16 90 17 7 18 8 19 9 21 10 22 11 23 12 24
REMARK SMILES IDX 13 25 24 26 14 27 18 28 19 29 23 30 15 31 17 32 20 33 22 34
REMARK SMILES IDX 16 35 21 36 29 37 30 38 31 39 32 40 33 42 34 43 35 44 87 45
REMARK SMILES IDX 36 46 86 47 37 48 38 49 39 50 80 51 40 52 85 53 79 54 81 55
REMARK SMILES IDX 41 56 84 57 78 58 77 59 42 61 68 62 51 63 67 64 52 65 55 66
REMARK SMILES IDX 66 67 82 68 53 69 54 70 65 72 83 73 56 74 43 75 44 76 49 77
REMARK SMILES IDX 45 78 46 79 48 80 50 81 47 82 69 83 70 84 75 85 71 86 72 87
REMARK SMILES IDX 74 88 76 89 73 90 57 91 58 92 63 93 59 94 60 95 62 96 64 97
REMARK SMILES IDX 61 98
REMARK H PARENT 27 5 7 20 31 41 81 60 55 71
REMARK Flexibility Score: inf
ROOT
ATOM      1  C   UNL     1      -0.937  -5.601  -1.058  1.00  0.00     0.117 C 
ENDROOT
BRANCH   1   2
ATOM      2  N   UNL     1       0.035  -6.038  -0.069  1.00  0.00    -0.354 N 
ATOM      3  C   UNL     1       0.557  -5.367   1.004  1.00  0.00     0.243 C 
ATOM      4  O   UNL     1       1.354  -5.977   1.723  1.00  0.00    -0.273 OA
ATOM      5  H   UNL     1       0.369  -6.956  -0.190  1.00  0.00     0.163 HD
BRANCH   3   6
ATOM      6  C   UNL     1       0.277  -3.865   1.217  1.00  0.00     0.179 C 
BRANCH   6   7
ATOM      7  C   UNL     1       0.926  -3.091   0.038  1.00  0.00     0.073 C 
BRANCH   7   8
ATOM      8  C   UNL     1       0.910  -1.590   0.126  1.00  0.00    -0.020 A 
ATOM      9  C   UNL     1       2.508   1.660   0.313  1.00  0.00     0.149 C 
ATOM     10  N   UNL     1       1.615   0.523   0.271  1.00  0.00    -0.350 N 
ATOM     11  C   UNL     1       2.010  -0.785   0.354  1.00  0.00     0.090 A 
ATOM     12  C   UNL     1       0.255   0.600   0.070  1.00  0.00     0.048 A 
ATOM     13  C   UNL     1      -0.201  -0.709  -0.103  1.00  0.00     0.003 A 
ATOM     14  C   UNL     1      -0.604   1.710  -0.005  1.00  0.00     0.027 A 
ATOM     15  C   UNL     1      -1.559  -0.900  -0.438  1.00  0.00     0.010 A 
ATOM     16  C   UNL     1      -1.957   1.480  -0.267  1.00  0.00     0.002 A 
ATOM     17  C   UNL     1      -2.429   0.193  -0.492  1.00  0.00     0.001 A 
ENDBRANCH   7   8
ENDBRANCH   6   7
BRANCH   6  18
ATOM     18  N   UNL     1      -1.108  -3.465   1.493  1.00  0.00    -0.309 N 
ATOM     19  C   UNL     1      -2.272  -4.137   1.312  1.00  0.00     0.407 C 
ATOM     20  H   UNL     1      -1.209  -2.561   1.870  1.00  0.00     0.167 HD
ATOM     21  O   UNL     1      -3.266  -3.547   0.892  1.00  0.00    -0.225 OA
BRANCH  19  22
ATOM     22  O   UNL     1      -2.229  -5.455   1.629  1.00  0.00    -0.449 OA
BRANCH  22  23
ATOM     23  C   UNL     1      -3.483  -6.171   1.509  1.00  0.00     0.248 C 
BRANCH  23  24
ATOM     24  C   UNL     1      -4.255  -6.297   2.839  1.00  0.00     0.088 C 
ATOM     25  C   UNL     1      -3.634  -7.322   3.783  1.00  0.00    -0.029 A 
ATOM     26  C   UNL     1      -4.218  -5.036   3.689  1.00  0.00    -0.029 A 
ATOM     27  C   UNL     1      -3.543  -8.697   3.622  1.00  0.00     0.005 A 
ATOM     28  C   UNL     1      -3.187  -6.687   4.961  1.00  0.00    -0.014 A 
ATOM     29  C   UNL     1      -3.500  -5.276   4.880  1.00  0.00    -0.014 A 
ATOM     30  C   UNL     1      -4.722  -3.780   3.391  1.00  0.00     0.005 A 
ATOM     31  C   UNL     1      -2.983  -9.444   4.660  1.00  0.00     0.000 A 
ATOM     32  C   UNL     1      -2.622  -7.428   5.985  1.00  0.00     0.009 A 
ATOM     33  C   UNL     1      -3.208  -4.232   5.741  1.00  0.00     0.009 A 
ATOM     34  C   UNL     1      -4.415  -2.727   4.251  1.00  0.00     0.000 A 
ATOM     35  C   UNL     1      -2.523  -8.815   5.829  1.00  0.00     0.001 A 
ATOM     36  C   UNL     1      -3.653  -2.948   5.409  1.00  0.00     0.001 A 
ENDBRANCH  23  24
ENDBRANCH  22  23
ENDBRANCH  19  22
ENDBRANCH   6  18
ENDBRANCH   3   6
ENDBRANCH   1   2
BRANCH   1  37
ATOM     37  C   UNL     1      -0.452  -5.802  -2.480  1.00  0.00     0.042 C 
BRANCH  37  38
ATOM     38  C   UNL     1      -0.413  -7.266  -2.885  1.00  0.00     0.118 C 
BRANCH  38  39
ATOM     39  N   UNL     1      -1.738  -7.877  -2.921  1.00  0.00    -0.352 N 
ATOM     40  C   UNL     1      -2.354  -8.556  -3.943  1.00  0.00     0.251 C 
ATOM     41  H   UNL     1      -2.265  -7.791  -2.094  1.00  0.00     0.163 HD
ATOM     42  O   UNL     1      -3.535  -8.874  -3.857  1.00  0.00    -0.269 OA
BRANCH  40  43
ATOM     43  C   UNL     1      -1.582  -8.873  -5.159  1.00  0.00     0.039 A 
ATOM     44  C   UNL     1      -2.135  -8.591  -6.410  1.00  0.00     0.014 A 
ATOM     45  C   UNL     1      -0.295  -9.403  -5.052  1.00  0.00     0.014 A 
ATOM     46  C   UNL     1      -1.361  -8.770  -7.556  1.00  0.00     0.010 A 
ATOM     47  C   UNL     1       0.503  -9.496  -6.183  1.00  0.00     0.010 A 
ATOM     48  C   UNL     1      -0.024  -9.184  -7.446  1.00  0.00    -0.014 A 
BRANCH  48  49
ATOM     49  C   UNL     1       0.851  -9.317  -8.634  1.00  0.00     0.031 A 
ATOM     50  C   UNL     1       1.409 -10.663  -8.995  1.00  0.00     0.074 A 
ATOM     51  C   UNL     1       1.218  -8.219  -9.321  1.00  0.00     0.049 A 
ATOM     52  N   UNL     1       2.294 -10.974  -9.907  1.00  0.00    -0.248 NA
ATOM     53  C   UNL     1       0.940 -11.808  -8.197  1.00  0.00     0.031 C 
ATOM     54  C   UNL     1       0.788  -6.849  -9.031  1.00  0.00     0.029 A 
ATOM     55  N   UNL     1       2.052  -8.083 -10.401  1.00  0.00    -0.354 N 
ATOM     56  C   UNL     1       2.516 -12.337  -9.764  1.00  0.00     0.074 A 
ATOM     57  C   UNL     1       1.704 -12.788  -8.655  1.00  0.00     0.031 C 
ATOM     58  C   UNL     1       1.341  -6.016  -9.927  1.00  0.00     0.029 A 
ATOM     59  C   UNL     1       2.189  -6.786 -10.831  1.00  0.00     0.049 A 
ATOM     60  H   UNL     1       2.508  -8.844 -10.829  1.00  0.00     0.167 HD
ATOM     61  C   UNL     1       3.311 -13.145 -10.504  1.00  0.00     0.037 A 
ATOM     62  C   UNL     1       2.920  -6.279 -11.840  1.00  0.00     0.037 A 
ATOM     63  C   UNL     1       4.068 -12.706 -11.644  1.00  0.00     0.049 A 
ATOM     64  C   UNL     1       3.752  -7.205 -12.681  1.00  0.00     0.074 A 
ATOM     65  C   UNL     1       4.834 -13.460 -12.514  1.00  0.00     0.029 A 
ATOM     66  N   UNL     1       4.141 -11.391 -12.078  1.00  0.00    -0.354 N 
ATOM     67  N   UNL     1       3.910  -8.501 -12.570  1.00  0.00    -0.248 NA
ATOM     68  C   UNL     1       4.506  -6.597 -13.787  1.00  0.00     0.031 C 
ATOM     69  C   UNL     1       5.388 -12.597 -13.466  1.00  0.00     0.029 A 
ATOM     70  C   UNL     1       4.946 -11.311 -13.201  1.00  0.00     0.049 A 
ATOM     71  H   UNL     1       3.688 -10.628 -11.651  1.00  0.00     0.167 HD
ATOM     72  C   UNL     1       4.761  -8.869 -13.603  1.00  0.00     0.074 A 
ATOM     73  C   UNL     1       5.080  -7.659 -14.335  1.00  0.00     0.031 C 
ATOM     74  C   UNL     1       5.238 -10.097 -13.918  1.00  0.00     0.037 A 
BRANCH  61  75
ATOM     75  C   UNL     1       3.387 -14.586 -10.102  1.00  0.00     0.057 A 
ATOM     76  C   UNL     1       2.322 -15.469 -10.320  1.00  0.00     0.134 A 
ATOM     77  C   UNL     1       4.542 -15.099  -9.499  1.00  0.00     0.134 A 
ATOM     78  F   UNL     1       1.182 -15.034 -10.878  1.00  0.00    -0.206 F 
ATOM     79  C   UNL     1       2.392 -16.807  -9.928  1.00  0.00     0.040 A 
ATOM     80  C   UNL     1       4.632 -16.440  -9.123  1.00  0.00     0.040 A 
ATOM     81  F   UNL     1       5.597 -14.306  -9.262  1.00  0.00    -0.206 F 
ATOM     82  C   UNL     1       3.553 -17.297  -9.332  1.00  0.00     0.006 A 
ENDBRANCH  61  75
BRANCH  62  83
ATOM     83  C   UNL     1       2.867  -4.828 -12.137  1.00  0.00     0.057 A 
ATOM     84  C   UNL     1       2.163  -4.352 -13.249  1.00  0.00     0.134 A 
ATOM     85  C   UNL     1       3.508  -3.887 -11.325  1.00  0.00     0.134 A 
ATOM     86  F   UNL     1       1.543  -5.210 -14.072  1.00  0.00    -0.206 F 
ATOM     87  C   UNL     1       2.109  -2.991 -13.552  1.00  0.00     0.040 A 
ATOM     88  C   UNL     1       3.448  -2.521 -11.606  1.00  0.00     0.040 A 
ATOM     89  F   UNL     1       4.192  -4.282 -10.241  1.00  0.00    -0.206 F 
ATOM     90  C   UNL     1       2.751  -2.071 -12.726  1.00  0.00     0.006 A 
ENDBRANCH  62  83
BRANCH  74  91
ATOM     91  C   UNL     1       6.125 -10.195 -15.120  1.00  0.00     0.057 A 
ATOM     92  C   UNL     1       7.465  -9.796 -15.075  1.00  0.00     0.134 A 
ATOM     93  C   UNL     1       5.643 -10.734 -16.318  1.00  0.00     0.134 A 
ATOM     94  F   UNL     1       7.979  -9.260 -13.958  1.00  0.00    -0.206 F 
ATOM     95  C   UNL     1       8.295  -9.916 -16.190  1.00  0.00     0.040 A 
ATOM     96  C   UNL     1       6.468 -10.876 -17.434  1.00  0.00     0.040 A 
ATOM     97  F   UNL     1       4.368 -11.139 -16.419  1.00  0.00    -0.206 F 
ATOM     98  C   UNL     1       7.798 -10.464 -17.372  1.00  0.00     0.006 A 
ENDBRANCH  74  91
ENDBRANCH  48  49
ENDBRANCH  40  43
ENDBRANCH  38  39
ENDBRANCH  37  38
ENDBRANCH   1  37
TORSDOF 16
