REMARK SMILES O=C(NCCCNC(=O)c1ccc(-c2c3nc(c(-c4c(F)cccc4F)c4ccc([nH]4)c(-c4c(F)cccc4F)c4nc(c(-c5c(F)cccc5F)c5ccc2[nH]5)C=C4)C=C3)cc1)c1ccc(Cc2nc3ccccc3s2)cc1
REMARK SMILES IDX 5 1 4 2 3 3 1 4 2 5 64 7 65 8 79 9 66 10 78 11 67 12 68 13
REMARK SMILES IDX 69 14 70 15 77 16 71 17 76 18 72 19 75 20 73 21 74 22 6 23
REMARK SMILES IDX 7 24 8 25 9 27 10 28 11 29 63 30 12 31 62 32 13 33 14 34
REMARK SMILES IDX 15 35 56 36 16 37 61 38 55 39 57 40 17 41 60 42 54 43 53 44
REMARK SMILES IDX 18 46 44 47 27 48 43 49 28 50 31 51 42 52 58 53 29 54 30 55
REMARK SMILES IDX 41 57 59 58 32 59 19 60 20 61 25 62 21 63 22 64 24 65 26 66
REMARK SMILES IDX 23 67 45 68 46 69 51 70 47 71 48 72 50 73 52 74 49 75 33 76
REMARK SMILES IDX 34 77 39 78 35 79 36 80 38 81 40 82 37 83
REMARK H PARENT 3 6 7 26 57 45 31 56
REMARK Flexibility Score: inf
ROOT
ATOM      1  C   UNL     1       4.978   1.062  -1.970  1.00  0.00     0.042 C 
ENDROOT
BRANCH   1   2
ATOM      2  C   UNL     1       4.601   1.125  -0.496  1.00  0.00     0.118 C 
BRANCH   2   3
ATOM      3  N   UNL     1       3.168   0.980  -0.270  1.00  0.00    -0.352 N 
ATOM      4  O   UNL     1       1.249  -0.057   0.307  1.00  0.00    -0.269 OA
ATOM      5  C   UNL     1       2.475  -0.038   0.341  1.00  0.00     0.251 C 
ATOM      6  H   UNL     1       2.614   1.722  -0.606  1.00  0.00     0.163 HD
BRANCH   5   7
ATOM      7  C   UNL     1       3.213  -1.130   1.006  1.00  0.00     0.039 A 
ATOM      8  C   UNL     1       4.199  -0.856   1.958  1.00  0.00     0.014 A 
ATOM      9  C   UNL     1       2.932  -2.447   0.636  1.00  0.00     0.014 A 
ATOM     10  C   UNL     1       5.000  -1.890   2.440  1.00  0.00     0.005 A 
ATOM     11  C   UNL     1       3.723  -3.483   1.133  1.00  0.00     0.005 A 
ATOM     12  C   UNL     1       4.788  -3.207   2.006  1.00  0.00    -0.041 A 
BRANCH  12  13
ATOM     13  C   UNL     1       5.769  -4.298   2.382  1.00  0.00     0.103 C 
BRANCH  13  14
ATOM     14  C   UNL     1       6.968  -4.339   1.467  1.00  0.00     0.098 A 
ATOM     15  N   UNL     1       6.978  -3.933   0.213  1.00  0.00    -0.241 NA
ATOM     16  S   UNL     1       8.460  -4.973   2.042  1.00  0.00    -0.118 S 
ATOM     17  C   UNL     1       8.236  -4.101  -0.338  1.00  0.00     0.082 A 
ATOM     18  C   UNL     1       9.187  -4.665   0.511  1.00  0.00     0.055 A 
ATOM     19  C   UNL     1       8.614  -3.757  -1.652  1.00  0.00     0.030 A 
ATOM     20  C   UNL     1      10.506  -4.907   0.089  1.00  0.00     0.021 A 
ATOM     21  C   UNL     1       9.924  -3.990  -2.082  1.00  0.00     0.002 A 
ATOM     22  C   UNL     1      10.856  -4.560  -1.220  1.00  0.00     0.002 A 
ENDBRANCH  13  14
ENDBRANCH  12  13
ENDBRANCH   5   7
ENDBRANCH   2   3
ENDBRANCH   1   2
BRANCH   1  23
ATOM     23  C   UNL     1       4.415   2.199  -2.814  1.00  0.00     0.118 C 
BRANCH  23  24
ATOM     24  N   UNL     1       4.912   3.509  -2.412  1.00  0.00    -0.352 N 
ATOM     25  C   UNL     1       5.723   4.405  -3.068  1.00  0.00     0.251 C 
ATOM     26  H   UNL     1       4.617   3.802  -1.520  1.00  0.00     0.163 HD
ATOM     27  O   UNL     1       6.152   5.384  -2.469  1.00  0.00    -0.269 OA
BRANCH  25  28
ATOM     28  C   UNL     1       6.106   4.186  -4.481  1.00  0.00     0.039 A 
ATOM     29  C   UNL     1       7.425   4.441  -4.868  1.00  0.00     0.014 A 
ATOM     30  C   UNL     1       5.176   3.751  -5.427  1.00  0.00     0.014 A 
ATOM     31  C   UNL     1       7.832   4.170  -6.177  1.00  0.00     0.010 A 
ATOM     32  C   UNL     1       5.600   3.403  -6.707  1.00  0.00     0.010 A 
ATOM     33  C   UNL     1       6.935   3.599  -7.093  1.00  0.00    -0.014 A 
BRANCH  33  34
ATOM     34  C   UNL     1       7.366   3.178  -8.451  1.00  0.00     0.031 A 
ATOM     35  C   UNL     1       6.758   3.814  -9.669  1.00  0.00     0.074 A 
ATOM     36  C   UNL     1       8.241   2.162  -8.587  1.00  0.00     0.049 A 
ATOM     37  N   UNL     1       6.901   3.492 -10.930  1.00  0.00    -0.248 NA
ATOM     38  C   UNL     1       5.848   4.948  -9.438  1.00  0.00     0.031 C 
ATOM     39  C   UNL     1       8.881   1.439  -7.486  1.00  0.00     0.029 A 
ATOM     40  N   UNL     1       8.731   1.548  -9.714  1.00  0.00    -0.354 N 
ATOM     41  C   UNL     1       6.091   4.371 -11.639  1.00  0.00     0.074 A 
ATOM     42  C   UNL     1       5.423   5.208 -10.666  1.00  0.00     0.031 C 
ATOM     43  C   UNL     1       9.691   0.494  -7.991  1.00  0.00     0.029 A 
ATOM     44  C   UNL     1       9.591   0.510  -9.446  1.00  0.00     0.049 A 
ATOM     45  H   UNL     1       8.489   1.825 -10.627  1.00  0.00     0.167 HD
ATOM     46  C   UNL     1       5.936   4.485 -12.979  1.00  0.00     0.037 A 
ATOM     47  C   UNL     1      10.213  -0.346 -10.279  1.00  0.00     0.037 A 
ATOM     48  C   UNL     1       6.619   3.667 -13.947  1.00  0.00     0.049 A 
ATOM     49  C   UNL     1       9.991  -0.224 -11.761  1.00  0.00     0.074 A 
ATOM     50  C   UNL     1       6.563   3.739 -15.328  1.00  0.00     0.029 A 
ATOM     51  N   UNL     1       7.482   2.629 -13.634  1.00  0.00    -0.354 N 
ATOM     52  N   UNL     1       9.259   0.642 -12.418  1.00  0.00    -0.248 NA
ATOM     53  C   UNL     1      10.676  -1.204 -12.617  1.00  0.00     0.031 C 
ATOM     54  C   UNL     1       7.363   2.718 -15.852  1.00  0.00     0.029 A 
ATOM     55  C   UNL     1       7.949   2.038 -14.797  1.00  0.00     0.049 A 
ATOM     56  H   UNL     1       7.727   2.352 -12.722  1.00  0.00     0.167 HD
ATOM     57  C   UNL     1       9.418   0.330 -13.762  1.00  0.00     0.074 A 
ATOM     58  C   UNL     1      10.323  -0.797 -13.828  1.00  0.00     0.031 C 
ATOM     59  C   UNL     1       8.861   0.924 -14.845  1.00  0.00     0.037 A 
BRANCH  46  60
ATOM     60  C   UNL     1       4.998   5.543 -13.480  1.00  0.00     0.057 A 
ATOM     61  C   UNL     1       5.319   6.905 -13.405  1.00  0.00     0.134 A 
ATOM     62  C   UNL     1       3.782   5.197 -14.082  1.00  0.00     0.134 A 
ATOM     63  F   UNL     1       6.464   7.302 -12.830  1.00  0.00    -0.206 F 
ATOM     64  C   UNL     1       4.453   7.886 -13.890  1.00  0.00     0.040 A 
ATOM     65  C   UNL     1       2.920   6.169 -14.594  1.00  0.00     0.040 A 
ATOM     66  F   UNL     1       3.417   3.911 -14.193  1.00  0.00    -0.206 F 
ATOM     67  C   UNL     1       3.253   7.518 -14.493  1.00  0.00     0.006 A 
ENDBRANCH  46  60
BRANCH  47  68
ATOM     68  C   UNL     1      11.114  -1.395  -9.737  1.00  0.00     0.057 A 
ATOM     69  C   UNL     1      12.496  -1.332  -9.945  1.00  0.00     0.134 A 
ATOM     70  C   UNL     1      10.618  -2.493  -9.024  1.00  0.00     0.134 A 
ATOM     71  F   UNL     1      13.028  -0.315 -10.639  1.00  0.00    -0.206 F 
ATOM     72  C   UNL     1      13.352  -2.332  -9.482  1.00  0.00     0.040 A 
ATOM     73  C   UNL     1      11.465  -3.488  -8.534  1.00  0.00     0.040 A 
ATOM     74  F   UNL     1       9.303  -2.609  -8.786  1.00  0.00    -0.206 F 
ATOM     75  C   UNL     1      12.836  -3.413  -8.771  1.00  0.00     0.006 A 
ENDBRANCH  47  68
BRANCH  59  76
ATOM     76  C   UNL     1       9.240   0.390 -16.194  1.00  0.00     0.057 A 
ATOM     77  C   UNL     1       8.739  -0.827 -16.672  1.00  0.00     0.134 A 
ATOM     78  C   UNL     1      10.076   1.126 -17.043  1.00  0.00     0.134 A 
ATOM     79  F   UNL     1       7.945  -1.585 -15.900  1.00  0.00    -0.206 F 
ATOM     80  C   UNL     1       9.067  -1.300 -17.943  1.00  0.00     0.040 A 
ATOM     81  C   UNL     1      10.393   0.675 -18.324  1.00  0.00     0.040 A 
ATOM     82  F   UNL     1      10.584   2.303 -16.646  1.00  0.00    -0.206 F 
ATOM     83  C   UNL     1       9.890  -0.544 -18.776  1.00  0.00     0.006 A 
ENDBRANCH  59  76
ENDBRANCH  33  34
ENDBRANCH  25  28
ENDBRANCH  23  24
ENDBRANCH   1  23
TORSDOF 12
