REMARK SMILES Cc1occc1C(=O)NN1C(=O)/C(=C\c2ccc(O[C@H](C)C(=O)NCCCNC(=O)c3ccc(-c4c5nc(c(-c6c(F)cccc6F)c6ccc([nH]6)c(-c6c(F)cccc6F)c6nc(c(-c7c(F)cccc7F)c7ccc4[nH]7)C=C6)C=C5)cc3)cc2)SC1=S
REMARK SMILES IDX 22 1 23 2 24 3 20 5 21 6 19 7 18 8 15 9 16 10 86 11 17 12
REMARK SMILES IDX 85 13 14 14 10 15 11 16 88 17 12 18 13 19 87 20 89 21 9 22
REMARK SMILES IDX 7 23 8 24 6 26 1 27 2 28 3 29 4 30 5 31 25 32 26 33 27 34
REMARK SMILES IDX 28 35 29 36 30 38 31 39 32 40 84 41 33 42 83 43 34 44 35 45
REMARK SMILES IDX 36 46 77 47 37 48 82 49 76 50 78 51 38 52 81 53 75 54 74 55
REMARK SMILES IDX 39 57 65 58 48 59 64 60 49 61 52 62 63 63 79 64 50 65 51 66
REMARK SMILES IDX 62 68 80 69 53 70 40 71 41 72 46 73 42 74 43 75 45 76 47 77
REMARK SMILES IDX 44 78 66 79 67 80 72 81 68 82 69 83 71 84 73 85 70 86 54 87
REMARK SMILES IDX 55 88 60 89 56 90 57 91 59 92 61 93 58 94
REMARK H PARENT 24 4 9 25 28 37 78 56 52 67
REMARK Flexibility Score: inf
ROOT
ATOM      1  C   UNL     1       5.974  -3.995  -7.355  1.00  0.00     0.260 C 
ATOM      2  O   UNL     1       6.431  -4.055  -8.505  1.00  0.00    -0.271 OA
ATOM      3  N   UNL     1       5.379  -2.820  -7.021  1.00  0.00    -0.353 N 
ATOM      4  H   UNL     1       5.482  -2.108  -7.694  1.00  0.00     0.163 HD
ENDROOT
BRANCH   1   5
ATOM      5  C   UNL     1       6.205  -5.178  -6.374  1.00  0.00     0.258 C 
ATOM      6  C   UNL     1       7.632  -5.101  -5.833  1.00  0.00     0.064 C 
BRANCH   5   7
ATOM      7  O   UNL     1       5.179  -5.650  -5.515  1.00  0.00    -0.481 OA
BRANCH   7   8
ATOM      8  C   UNL     1       4.948  -5.261  -4.236  1.00  0.00     0.120 A 
ATOM      9  C   UNL     1       4.116  -4.452  -1.667  1.00  0.00    -0.024 A 
ATOM     10  C   UNL     1       5.443  -4.301  -2.074  1.00  0.00     0.012 A 
ATOM     11  C   UNL     1       3.196  -5.018  -2.548  1.00  0.00     0.012 A 
ATOM     12  C   UNL     1       5.856  -4.711  -3.344  1.00  0.00     0.047 A 
ATOM     13  C   UNL     1       3.621  -5.438  -3.815  1.00  0.00     0.047 A 
BRANCH   9  14
ATOM     14  C   UNL     1       3.801  -4.073  -0.289  1.00  0.00     0.029 C 
ATOM     15  N   UNL     1       3.206  -6.970   1.824  1.00  0.00    -0.198 N 
ATOM     16  C   UNL     1       3.493  -6.434   0.579  1.00  0.00     0.285 C 
ATOM     17  C   UNL     1       3.331  -6.159   2.930  1.00  0.00     0.168 C 
ATOM     18  O   UNL     1       3.640  -7.085  -0.441  1.00  0.00    -0.266 OA
ATOM     19  C   UNL     1       3.616  -4.953   0.704  1.00  0.00     0.082 C 
ATOM     20  S   UNL     1       3.539  -4.494   2.374  1.00  0.00    -0.052 SA
ATOM     21  S   UNL     1       3.320  -6.595   4.537  1.00  0.00    -0.050 S 
BRANCH  15  22
ATOM     22  N   UNL     1       3.040  -8.347   1.879  1.00  0.00    -0.254 N 
ATOM     23  C   UNL     1       1.853  -9.035   1.983  1.00  0.00     0.273 C 
ATOM     24  O   UNL     1       1.895 -10.246   1.752  1.00  0.00    -0.267 OA
ATOM     25  H   UNL     1       3.860  -8.890   1.840  1.00  0.00     0.192 HD
BRANCH  23  26
ATOM     26  C   UNL     1       0.620  -8.430   2.473  1.00  0.00     0.082 A 
ATOM     27  C   UNL     1       0.219  -6.013   1.412  1.00  0.00     0.088 C 
ATOM     28  C   UNL     1      -0.005  -7.210   2.246  1.00  0.00     0.113 A 
ATOM     29  O   UNL     1      -1.169  -7.136   2.959  1.00  0.00    -0.469 OA
ATOM     30  C   UNL     1      -1.345  -8.316   3.591  1.00  0.00     0.196 A 
ATOM     31  C   UNL     1      -0.298  -9.152   3.311  1.00  0.00     0.056 A 
ENDBRANCH  23  26
ENDBRANCH  15  22
ENDBRANCH   9  14
ENDBRANCH   7   8
ENDBRANCH   5   7
ENDBRANCH   1   5
BRANCH   3  32
ATOM     32  C   UNL     1       4.622  -2.431  -5.854  1.00  0.00     0.118 C 
BRANCH  32  33
ATOM     33  C   UNL     1       5.452  -1.650  -4.840  1.00  0.00     0.042 C 
BRANCH  33  34
ATOM     34  C   UNL     1       5.490  -0.152  -5.130  1.00  0.00     0.118 C 
BRANCH  34  35
ATOM     35  N   UNL     1       4.183   0.470  -4.947  1.00  0.00    -0.352 N 
ATOM     36  C   UNL     1       3.797   1.541  -4.184  1.00  0.00     0.251 C 
ATOM     37  H   UNL     1       3.455   0.050  -5.460  1.00  0.00     0.163 HD
ATOM     38  O   UNL     1       2.599   1.761  -4.020  1.00  0.00    -0.269 OA
BRANCH  36  39
ATOM     39  C   UNL     1       4.796   2.424  -3.546  1.00  0.00     0.039 A 
ATOM     40  C   UNL     1       4.517   2.942  -2.277  1.00  0.00     0.014 A 
ATOM     41  C   UNL     1       5.971   2.792  -4.205  1.00  0.00     0.014 A 
ATOM     42  C   UNL     1       5.438   3.783  -1.649  1.00  0.00     0.010 A 
ATOM     43  C   UNL     1       6.921   3.570  -3.550  1.00  0.00     0.010 A 
ATOM     44  C   UNL     1       6.660   4.080  -2.270  1.00  0.00    -0.014 A 
BRANCH  44  45
ATOM     45  C   UNL     1       7.675   4.932  -1.604  1.00  0.00     0.031 A 
ATOM     46  C   UNL     1       8.048   6.262  -2.196  1.00  0.00     0.074 A 
ATOM     47  C   UNL     1       8.305   4.478  -0.505  1.00  0.00     0.049 A 
ATOM     48  N   UNL     1       8.969   7.109  -1.813  1.00  0.00    -0.248 NA
ATOM     49  C   UNL     1       7.304   6.684  -3.394  1.00  0.00     0.031 C 
ATOM     50  C   UNL     1       8.055   3.188   0.142  1.00  0.00     0.029 A 
ATOM     51  N   UNL     1       9.292   5.047   0.258  1.00  0.00    -0.354 N 
ATOM     52  C   UNL     1       8.928   8.152  -2.730  1.00  0.00     0.074 A 
ATOM     53  C   UNL     1       7.927   7.807  -3.717  1.00  0.00     0.031 C 
ATOM     54  C   UNL     1       8.850   3.076   1.219  1.00  0.00     0.029 A 
ATOM     55  C   UNL     1       9.689   4.266   1.316  1.00  0.00     0.049 A 
ATOM     56  H   UNL     1       9.679   5.932   0.067  1.00  0.00     0.167 HD
ATOM     57  C   UNL     1       9.643   9.302  -2.737  1.00  0.00     0.037 A 
ATOM     58  C   UNL     1      10.629   4.484   2.254  1.00  0.00     0.037 A 
ATOM     59  C   UNL     1      10.620   9.652  -1.740  1.00  0.00     0.049 A 
ATOM     60  C   UNL     1      11.416   5.763   2.220  1.00  0.00     0.074 A 
ATOM     61  C   UNL     1      11.363  10.813  -1.628  1.00  0.00     0.029 A 
ATOM     62  N   UNL     1      10.986   8.838  -0.678  1.00  0.00    -0.354 N 
ATOM     63  N   UNL     1      11.333   6.762   1.375  1.00  0.00    -0.248 NA
ATOM     64  C   UNL     1      12.425   5.946   3.272  1.00  0.00     0.031 C 
ATOM     65  C   UNL     1      12.205  10.688  -0.517  1.00  0.00     0.029 A 
ATOM     66  C   UNL     1      11.957   9.465   0.086  1.00  0.00     0.049 A 
ATOM     67  H   UNL     1      10.612   7.946  -0.494  1.00  0.00     0.167 HD
ATOM     68  C   UNL     1      12.257   7.703   1.807  1.00  0.00     0.074 A 
ATOM     69  C   UNL     1      12.883   7.160   2.996  1.00  0.00     0.031 C 
ATOM     70  C   UNL     1      12.561   8.910   1.269  1.00  0.00     0.037 A 
BRANCH  57  71
ATOM     71  C   UNL     1       9.387  10.264  -3.861  1.00  0.00     0.057 A 
ATOM     72  C   UNL     1       8.189  10.985  -3.955  1.00  0.00     0.134 A 
ATOM     73  C   UNL     1      10.351  10.481  -4.854  1.00  0.00     0.134 A 
ATOM     74  F   UNL     1       7.219  10.813  -3.045  1.00  0.00    -0.206 F 
ATOM     75  C   UNL     1       7.946  11.864  -5.013  1.00  0.00     0.040 A 
ATOM     76  C   UNL     1      10.130  11.377  -5.901  1.00  0.00     0.040 A 
ATOM     77  F   UNL     1      11.522   9.828  -4.822  1.00  0.00    -0.206 F 
ATOM     78  C   UNL     1       8.921  12.065  -5.987  1.00  0.00     0.006 A 
ENDBRANCH  57  71
BRANCH  58  79
ATOM     79  C   UNL     1      10.852   3.482   3.325  1.00  0.00     0.057 A 
ATOM     80  C   UNL     1      10.454   3.741   4.642  1.00  0.00     0.134 A 
ATOM     81  C   UNL     1      11.460   2.249   3.064  1.00  0.00     0.134 A 
ATOM     82  F   UNL     1       9.881   4.913   4.955  1.00  0.00    -0.206 F 
ATOM     83  C   UNL     1      10.665   2.816   5.665  1.00  0.00     0.040 A 
ATOM     84  C   UNL     1      11.657   1.305   4.074  1.00  0.00     0.040 A 
ATOM     85  F   UNL     1      11.855   1.938   1.821  1.00  0.00    -0.206 F 
ATOM     86  C   UNL     1      11.264   1.590   5.380  1.00  0.00     0.006 A 
ENDBRANCH  58  79
BRANCH  70  87
ATOM     87  C   UNL     1      13.591   9.735   1.982  1.00  0.00     0.057 A 
ATOM     88  C   UNL     1      14.954   9.418   1.933  1.00  0.00     0.134 A 
ATOM     89  C   UNL     1      13.215  10.878   2.699  1.00  0.00     0.134 A 
ATOM     90  F   UNL     1      15.375   8.328   1.275  1.00  0.00    -0.206 F 
ATOM     91  C   UNL     1      15.906  10.200   2.589  1.00  0.00     0.040 A 
ATOM     92  C   UNL     1      14.160  11.680   3.339  1.00  0.00     0.040 A 
ATOM     93  F   UNL     1      11.925  11.238   2.779  1.00  0.00    -0.206 F 
ATOM     94  C   UNL     1      15.510  11.338   3.289  1.00  0.00     0.006 A 
ENDBRANCH  70  87
ENDBRANCH  44  45
ENDBRANCH  36  39
ENDBRANCH  34  35
ENDBRANCH  33  34
ENDBRANCH  32  33
ENDBRANCH   3  32
TORSDOF 15
