REMARK SMILES CC1(C)C(NC(=O)[C@@H]2CCC[C@@H](C(=O)NCCCNC(=O)c3ccc(-c4c5nc(c(-c6c(F)cccc6F)c6ccc([nH]6)c(-c6c(F)cccc6F)c6nc(c(-c7c(F)cccc7F)c7ccc4[nH]7)C=C6)C=C5)cc3)C2)C1(C)C
REMARK SMILES IDX 17 1 16 2 15 3 13 4 14 5 12 7 8 8 9 9 76 10 10 11 11 12 6 13
REMARK SMILES IDX 5 14 7 16 4 17 1 18 2 19 3 20 77 21 78 22 79 23 18 24 19 25
REMARK SMILES IDX 20 26 21 28 22 29 23 30 75 31 24 32 74 33 25 34 26 35 27 36
REMARK SMILES IDX 68 37 28 38 73 39 67 40 69 41 29 42 72 43 66 44 65 45 30 47
REMARK SMILES IDX 56 48 39 49 55 50 40 51 43 52 54 53 70 54 41 55 42 56 53 58
REMARK SMILES IDX 71 59 44 60 31 61 32 62 37 63 33 64 34 65 36 66 38 67 35 68
REMARK SMILES IDX 57 69 58 70 63 71 59 72 60 73 62 74 64 75 61 76 45 77 46 78
REMARK SMILES IDX 51 79 47 80 48 81 50 82 52 83 49 84
REMARK H PARENT 15 6 5 15 19 27 69 46 43 57
REMARK Flexibility Score: inf
ROOT
ATOM      1  C   UNL     1       3.653   9.335   2.886  1.00  0.00     0.042 C 
ENDROOT
BRANCH   1   2
ATOM      2  C   UNL     1       2.948   8.897   1.603  1.00  0.00     0.117 C 
BRANCH   2   3
ATOM      3  N   UNL     1       3.463   7.628   1.120  1.00  0.00    -0.356 N 
ATOM      4  C   UNL     1       2.975   6.366   1.254  1.00  0.00     0.223 C 
ATOM      5  O   UNL     1       3.693   5.436   0.884  1.00  0.00    -0.275 OA
ATOM      6  H   UNL     1       4.305   7.692   0.613  1.00  0.00     0.163 HD
BRANCH   4   7
ATOM      7  C   UNL     1       1.560   6.139   1.784  1.00  0.00     0.079 C 
ATOM      8  C   UNL     1       0.760   4.362   0.124  1.00  0.00     0.079 C 
ATOM      9  C   UNL     1       0.503   3.417   1.300  1.00  0.00     0.013 C 
ATOM     10  C   UNL     1       0.619   5.815   0.608  1.00  0.00     0.027 C 
ATOM     11  C   UNL     1       1.550   3.633   2.384  1.00  0.00     0.002 C 
ATOM     12  C   UNL     1       1.543   5.072   2.889  1.00  0.00     0.013 C 
BRANCH   8  13
ATOM     13  C   UNL     1      -0.154   4.047  -1.059  1.00  0.00     0.223 C 
ATOM     14  N   UNL     1       0.087   2.898  -1.776  1.00  0.00    -0.352 N 
ATOM     15  H   UNL     1      -0.493   2.746  -2.558  1.00  0.00     0.163 HD
ATOM     16  O   UNL     1      -1.079   4.786  -1.397  1.00  0.00    -0.275 OA
BRANCH  14  17
ATOM     17  C   UNL     1       1.078   1.897  -1.524  1.00  0.00     0.094 C 
ATOM     18  C   UNL     1       1.357  -0.255  -0.117  1.00  0.00     0.014 C 
ATOM     19  C   UNL     1       0.682   0.450  -1.275  1.00  0.00    -0.007 C 
ATOM     20  C   UNL     1      -0.767   0.029  -1.411  1.00  0.00     0.014 C 
ATOM     21  C   UNL     1       1.490   0.839  -2.529  1.00  0.00    -0.007 C 
ATOM     22  C   UNL     1       2.971   0.518  -2.598  1.00  0.00     0.014 C 
ATOM     23  C   UNL     1       0.855   0.821  -3.901  1.00  0.00     0.014 C 
ENDBRANCH  14  17
ENDBRANCH   8  13
ENDBRANCH   4   7
ENDBRANCH   2   3
ENDBRANCH   1   2
BRANCH   1  24
ATOM     24  C   UNL     1       5.153   9.589   2.721  1.00  0.00     0.118 C 
BRANCH  24  25
ATOM     25  N   UNL     1       5.444  10.630   1.746  1.00  0.00    -0.352 N 
ATOM     26  C   UNL     1       6.144  11.799   1.867  1.00  0.00     0.251 C 
ATOM     27  H   UNL     1       5.074  10.466   0.848  1.00  0.00     0.163 HD
ATOM     28  O   UNL     1       6.106  12.619   0.944  1.00  0.00    -0.269 OA
BRANCH  26  29
ATOM     29  C   UNL     1       6.935  12.108   3.077  1.00  0.00     0.039 A 
ATOM     30  C   UNL     1       6.944  13.425   3.548  1.00  0.00     0.014 A 
ATOM     31  C   UNL     1       7.715  11.139   3.712  1.00  0.00     0.014 A 
ATOM     32  C   UNL     1       7.693  13.758   4.679  1.00  0.00     0.010 A 
ATOM     33  C   UNL     1       8.409  11.456   4.880  1.00  0.00     0.010 A 
ATOM     34  C   UNL     1       8.412  12.770   5.371  1.00  0.00    -0.014 A 
BRANCH  34  35
ATOM     35  C   UNL     1       9.171  13.107   6.602  1.00  0.00     0.031 A 
ATOM     36  C   UNL     1      10.671  13.000   6.628  1.00  0.00     0.074 A 
ATOM     37  C   UNL     1       8.504  13.470   7.714  1.00  0.00     0.049 A 
ATOM     38  N   UNL     1      11.499  13.228   7.617  1.00  0.00    -0.248 NA
ATOM     39  C   UNL     1      11.327  12.556   5.388  1.00  0.00     0.031 C 
ATOM     40  C   UNL     1       7.048  13.563   7.835  1.00  0.00     0.029 A 
ATOM     41  N   UNL     1       8.964  13.826   8.957  1.00  0.00    -0.354 N 
ATOM     42  C   UNL     1      12.766  12.942   7.125  1.00  0.00     0.074 A 
ATOM     43  C   UNL     1      12.595  12.478   5.765  1.00  0.00     0.031 C 
ATOM     44  C   UNL     1       6.736  13.974   9.074  1.00  0.00     0.029 A 
ATOM     45  C   UNL     1       7.965  14.147   9.842  1.00  0.00     0.049 A 
ATOM     46  H   UNL     1       9.920  13.848   9.192  1.00  0.00     0.167 HD
ATOM     47  C   UNL     1      13.966  13.075   7.741  1.00  0.00     0.037 A 
ATOM     48  C   UNL     1       8.031  14.539  11.128  1.00  0.00     0.037 A 
ATOM     49  C   UNL     1      14.139  13.563   9.085  1.00  0.00     0.049 A 
ATOM     50  C   UNL     1       9.374  14.700  11.782  1.00  0.00     0.074 A 
ATOM     51  C   UNL     1      15.318  13.785   9.777  1.00  0.00     0.029 A 
ATOM     52  N   UNL     1      13.103  13.905   9.940  1.00  0.00    -0.354 N 
ATOM     53  N   UNL     1      10.567  14.489  11.282  1.00  0.00    -0.248 NA
ATOM     54  C   UNL     1       9.380  15.166  13.175  1.00  0.00     0.031 C 
ATOM     55  C   UNL     1      14.993  14.230  11.063  1.00  0.00     0.029 A 
ATOM     56  C   UNL     1      13.614  14.324  11.158  1.00  0.00     0.049 A 
ATOM     57  H   UNL     1      12.146  13.856   9.715  1.00  0.00     0.167 HD
ATOM     58  C   UNL     1      11.465  14.822  12.288  1.00  0.00     0.074 A 
ATOM     59  C   UNL     1      10.678  15.263  13.421  1.00  0.00     0.031 C 
ATOM     60  C   UNL     1      12.819  14.767  12.274  1.00  0.00     0.037 A 
BRANCH  47  61
ATOM     61  C   UNL     1      15.189  12.692   6.959  1.00  0.00     0.057 A 
ATOM     62  C   UNL     1      15.651  13.467   5.887  1.00  0.00     0.134 A 
ATOM     63  C   UNL     1      15.930  11.555   7.301  1.00  0.00     0.134 A 
ATOM     64  F   UNL     1      14.980  14.563   5.501  1.00  0.00    -0.206 F 
ATOM     65  C   UNL     1      16.791  13.109   5.165  1.00  0.00     0.040 A 
ATOM     66  C   UNL     1      17.087  11.200   6.603  1.00  0.00     0.040 A 
ATOM     67  F   UNL     1      15.548  10.772   8.321  1.00  0.00    -0.206 F 
ATOM     68  C   UNL     1      17.516  11.975   5.527  1.00  0.00     0.006 A 
ENDBRANCH  47  61
BRANCH  48  69
ATOM     69  C   UNL     1       6.785  14.844  11.875  1.00  0.00     0.057 A 
ATOM     70  C   UNL     1       6.450  16.161  12.209  1.00  0.00     0.134 A 
ATOM     71  C   UNL     1       5.907  13.832  12.276  1.00  0.00     0.134 A 
ATOM     72  F   UNL     1       7.263  17.172  11.866  1.00  0.00    -0.206 F 
ATOM     73  C   UNL     1       5.295  16.461  12.932  1.00  0.00     0.040 A 
ATOM     74  C   UNL     1       4.736  14.119  12.981  1.00  0.00     0.040 A 
ATOM     75  F   UNL     1       6.168  12.550  11.979  1.00  0.00    -0.206 F 
ATOM     76  C   UNL     1       4.432  15.437  13.317  1.00  0.00     0.006 A 
ENDBRANCH  48  69
BRANCH  60  77
ATOM     77  C   UNL     1      13.533  15.229  13.510  1.00  0.00     0.057 A 
ATOM     78  C   UNL     1      13.536  14.472  14.689  1.00  0.00     0.134 A 
ATOM     79  C   UNL     1      14.240  16.437  13.514  1.00  0.00     0.134 A 
ATOM     80  F   UNL     1      12.865  13.312  14.755  1.00  0.00    -0.206 F 
ATOM     81  C   UNL     1      14.195  14.915  15.837  1.00  0.00     0.040 A 
ATOM     82  C   UNL     1      14.924  16.879  14.648  1.00  0.00     0.040 A 
ATOM     83  F   UNL     1      14.283  17.205  12.415  1.00  0.00    -0.206 F 
ATOM     84  C   UNL     1      14.895  16.120  15.816  1.00  0.00     0.006 A 
ENDBRANCH  60  77
ENDBRANCH  34  35
ENDBRANCH  26  29
ENDBRANCH  24  25
ENDBRANCH   1  24
TORSDOF 12
