REMARK SMILES O=C(COc1ccc2c(c1)O/C(=C\c1cccs1)C2=O)NCCCNC(=O)c1ccc(-c2c3nc(c(-c4c(F)cccc4F)c4ccc([nH]4)c(-c4c(F)cccc4F)c4nc(c(-c5c(F)cccc5F)c5ccc2[nH]5)C=C4)C=C3)cc1
REMARK SMILES IDX 22 1 21 2 1 3 2 4 3 6 4 7 5 8 6 9 10 10 7 11 9 12 8 13 11 14
REMARK SMILES IDX 19 15 12 16 20 17 13 18 14 19 15 20 18 21 16 22 17 23 23 24
REMARK SMILES IDX 24 25 25 26 26 27 27 29 28 30 29 31 81 32 30 33 80 34 31 35
REMARK SMILES IDX 32 36 33 37 74 38 34 39 79 40 73 41 75 42 35 43 78 44 72 45
REMARK SMILES IDX 71 46 36 48 62 49 45 50 61 51 46 52 49 53 60 54 76 55 47 56
REMARK SMILES IDX 48 57 59 59 77 60 50 61 37 62 38 63 43 64 39 65 40 66 42 67
REMARK SMILES IDX 44 68 41 69 63 70 64 71 69 72 65 73 66 74 68 75 70 76 67 77
REMARK SMILES IDX 51 78 52 79 57 80 53 81 54 82 56 83 58 84 55 85
REMARK H PARENT 21 5 25 28 75 47 49 58
REMARK Flexibility Score: inf
ROOT
ATOM      1  C   UNL     1       2.246   1.967   1.332  1.00  0.00     0.117 C 
ENDROOT
BRANCH   1   2
ATOM      2  N   UNL     1       2.915   0.913   0.598  1.00  0.00    -0.353 N 
ATOM      3  O   UNL     1       1.143  -0.553   0.593  1.00  0.00    -0.271 OA
ATOM      4  C   UNL     1       2.244  -0.215   0.168  1.00  0.00     0.257 C 
ATOM      5  H   UNL     1       3.875   1.003   0.400  1.00  0.00     0.163 HD
BRANCH   4   6
ATOM      6  C   UNL     1       2.974  -0.988  -0.933  1.00  0.00     0.329 C 
BRANCH   6   7
ATOM      7  O   UNL     1       3.826  -0.218  -1.781  1.00  0.00    -0.484 OA
BRANCH   7   8
ATOM      8  C   UNL     1       3.200   0.512  -2.760  1.00  0.00     0.123 A 
ATOM      9  C   UNL     1       2.160   1.431  -2.498  1.00  0.00     0.047 A 
ATOM     10  C   UNL     1       3.754   0.419  -4.043  1.00  0.00     0.094 A 
ATOM     11  C   UNL     1       1.678   2.288  -3.490  1.00  0.00     0.020 A 
ATOM     12  C   UNL     1       3.249   1.254  -5.020  1.00  0.00     0.142 A 
ATOM     13  C   UNL     1       2.251   2.180  -4.734  1.00  0.00     0.069 A 
ATOM     14  O   UNL     1       3.670   1.310  -6.328  1.00  0.00    -0.452 OA
ATOM     15  C   UNL     1       2.012   2.959  -5.939  1.00  0.00     0.232 C 
ATOM     16  C   UNL     1       2.947   2.349  -6.913  1.00  0.00     0.176 C 
ATOM     17  O   UNL     1       1.238   3.880  -6.086  1.00  0.00    -0.285 OA
ATOM     18  C   UNL     1       3.075   2.789  -8.170  1.00  0.00     0.070 C 
BRANCH  18  19
ATOM     19  C   UNL     1       3.955   2.150  -9.079  1.00  0.00     0.031 A 
ATOM     20  C   UNL     1       3.974   0.828  -9.489  1.00  0.00     0.020 A 
ATOM     21  S   UNL     1       5.203   3.045  -9.847  1.00  0.00    -0.144 S 
ATOM     22  C   UNL     1       5.033   0.545 -10.396  1.00  0.00     0.012 A 
ATOM     23  C   UNL     1       5.792   1.661 -10.659  1.00  0.00     0.065 A 
ENDBRANCH  18  19
ENDBRANCH   7   8
ENDBRANCH   6   7
ENDBRANCH   4   6
ENDBRANCH   1   2
BRANCH   1  24
ATOM     24  C   UNL     1       2.575   1.973   2.813  1.00  0.00     0.042 C 
BRANCH  24  25
ATOM     25  C   UNL     1       4.051   2.185   3.118  1.00  0.00     0.118 C 
BRANCH  25  26
ATOM     26  N   UNL     1       4.551   3.482   2.681  1.00  0.00    -0.352 N 
ATOM     27  C   UNL     1       5.222   4.456   3.380  1.00  0.00     0.251 C 
ATOM     28  H   UNL     1       4.381   3.694   1.735  1.00  0.00     0.163 HD
ATOM     29  O   UNL     1       5.437   5.541   2.847  1.00  0.00    -0.269 OA
BRANCH  27  30
ATOM     30  C   UNL     1       5.662   4.223   4.774  1.00  0.00     0.039 A 
ATOM     31  C   UNL     1       5.537   5.265   5.697  1.00  0.00     0.014 A 
ATOM     32  C   UNL     1       6.210   3.002   5.176  1.00  0.00     0.014 A 
ATOM     33  C   UNL     1       5.898   5.061   7.030  1.00  0.00     0.010 A 
ATOM     34  C   UNL     1       6.482   2.770   6.522  1.00  0.00     0.010 A 
ATOM     35  C   UNL     1       6.337   3.799   7.464  1.00  0.00    -0.014 A 
BRANCH  35  36
ATOM     36  C   UNL     1       6.640   3.547   8.898  1.00  0.00     0.031 A 
ATOM     37  C   UNL     1       8.028   3.158   9.330  1.00  0.00     0.074 A 
ATOM     38  C   UNL     1       5.652   3.628   9.810  1.00  0.00     0.049 A 
ATOM     39  N   UNL     1       8.474   2.882  10.530  1.00  0.00    -0.248 NA
ATOM     40  C   UNL     1       9.045   3.039   8.273  1.00  0.00     0.031 C 
ATOM     41  C   UNL     1       4.252   3.945   9.516  1.00  0.00     0.029 A 
ATOM     42  N   UNL     1       5.671   3.450  11.171  1.00  0.00    -0.354 N 
ATOM     43  C   UNL     1       9.814   2.553  10.371  1.00  0.00     0.074 A 
ATOM     44  C   UNL     1      10.094   2.601   8.953  1.00  0.00     0.031 C 
ATOM     45  C   UNL     1       3.557   3.973  10.664  1.00  0.00     0.029 A 
ATOM     46  C   UNL     1       4.447   3.634  11.769  1.00  0.00     0.049 A 
ATOM     47  H   UNL     1       6.485   3.212  11.672  1.00  0.00     0.167 HD
ATOM     48  C   UNL     1      10.735   2.263  11.321  1.00  0.00     0.037 A 
ATOM     49  C   UNL     1       4.081   3.537  13.061  1.00  0.00     0.037 A 
ATOM     50  C   UNL     1      10.457   2.228  12.734  1.00  0.00     0.049 A 
ATOM     51  C   UNL     1       5.119   3.193  14.094  1.00  0.00     0.074 A 
ATOM     52  C   UNL     1      11.335   1.996  13.779  1.00  0.00     0.029 A 
ATOM     53  N   UNL     1       9.206   2.421  13.300  1.00  0.00    -0.354 N 
ATOM     54  N   UNL     1       6.399   2.959  13.937  1.00  0.00    -0.248 NA
ATOM     55  C   UNL     1       4.661   3.109  15.488  1.00  0.00     0.031 C 
ATOM     56  C   UNL     1      10.604   1.990  14.971  1.00  0.00     0.029 A 
ATOM     57  C   UNL     1       9.283   2.285  14.677  1.00  0.00     0.049 A 
ATOM     58  H   UNL     1       8.384   2.625  12.797  1.00  0.00     0.167 HD
ATOM     59  C   UNL     1       6.905   2.732  15.211  1.00  0.00     0.074 A 
ATOM     60  C   UNL     1       5.796   2.875  16.131  1.00  0.00     0.031 C 
ATOM     61  C   UNL     1       8.173   2.433  15.585  1.00  0.00     0.037 A 
BRANCH  48  62
ATOM     62  C   UNL     1      12.134   1.960  10.863  1.00  0.00     0.057 A 
ATOM     63  C   UNL     1      12.961   2.943  10.301  1.00  0.00     0.134 A 
ATOM     64  C   UNL     1      12.677   0.678  11.020  1.00  0.00     0.134 A 
ATOM     65  F   UNL     1      12.502   4.190  10.113  1.00  0.00    -0.206 F 
ATOM     66  C   UNL     1      14.262   2.656   9.886  1.00  0.00     0.040 A 
ATOM     67  C   UNL     1      13.988   0.387  10.638  1.00  0.00     0.040 A 
ATOM     68  F   UNL     1      11.947  -0.311  11.557  1.00  0.00    -0.206 F 
ATOM     69  C   UNL     1      14.782   1.376  10.062  1.00  0.00     0.006 A 
ENDBRANCH  48  62
BRANCH  49  70
ATOM     70  C   UNL     1       2.671   3.787  13.458  1.00  0.00     0.057 A 
ATOM     71  C   UNL     1       2.322   4.902  14.231  1.00  0.00     0.134 A 
ATOM     72  C   UNL     1       1.642   2.912  13.091  1.00  0.00     0.134 A 
ATOM     73  F   UNL     1       3.265   5.768  14.630  1.00  0.00    -0.206 F 
ATOM     74  C   UNL     1       1.008   5.123  14.646  1.00  0.00     0.040 A 
ATOM     75  C   UNL     1       0.318   3.137  13.473  1.00  0.00     0.040 A 
ATOM     76  F   UNL     1       1.906   1.830  12.345  1.00  0.00    -0.206 F 
ATOM     77  C   UNL     1       0.001   4.241  14.262  1.00  0.00     0.006 A 
ENDBRANCH  49  70
BRANCH  61  78
ATOM     78  C   UNL     1       8.440   2.282  17.056  1.00  0.00     0.057 A 
ATOM     79  C   UNL     1       7.944   1.201  17.796  1.00  0.00     0.134 A 
ATOM     80  C   UNL     1       9.227   3.222  17.735  1.00  0.00     0.134 A 
ATOM     81  F   UNL     1       7.174   0.272  17.211  1.00  0.00    -0.206 F 
ATOM     82  C   UNL     1       8.194   1.078  19.165  1.00  0.00     0.040 A 
ATOM     83  C   UNL     1       9.512   3.091  19.095  1.00  0.00     0.040 A 
ATOM     84  F   UNL     1       9.744   4.276  17.086  1.00  0.00    -0.206 F 
ATOM     85  C   UNL     1       8.986   2.021  19.816  1.00  0.00     0.006 A 
ENDBRANCH  61  78
ENDBRANCH  35  36
ENDBRANCH  27  30
ENDBRANCH  25  26
ENDBRANCH  24  25
ENDBRANCH   1  24
TORSDOF 13
