REMARK SMILES O=C(NCCCNC(=O)[C@H](CO)NC(=O)[C@H](Cc1ccc(O)cc1)NC(=O)c1ccc(F)cc1)c1ccc(-c2c3nc(c(-c4c(F)cccc4F)c4ccc([nH]4)c(-c4c(F)cccc4F)c4nc(c(-c5c(F)cccc5F)c5ccc2[nH]5)C=C4)C=C3)cc1
REMARK SMILES IDX 7 1 8 2 9 3 6 5 5 6 4 7 3 8 1 9 2 10 35 12 36 13 88 14 37 15
REMARK SMILES IDX 87 16 38 17 39 18 40 19 81 20 41 21 86 22 80 23 82 24 42 25
REMARK SMILES IDX 85 26 79 27 78 28 43 30 69 31 52 32 68 33 53 34 56 35 67 36
REMARK SMILES IDX 83 37 54 38 55 39 66 41 84 42 57 43 44 44 45 45 50 46 46 47
REMARK SMILES IDX 47 48 49 49 51 50 48 51 70 52 71 53 76 54 72 55 73 56 75 57
REMARK SMILES IDX 77 58 74 59 58 60 59 61 64 62 60 63 61 64 63 65 65 66 62 67
REMARK SMILES IDX 10 68 13 69 14 70 15 72 16 73 25 74 26 75 27 77 28 78 29 79
REMARK SMILES IDX 34 80 30 81 33 82 31 83 32 84 17 85 18 86 19 87 24 88 20 89
REMARK SMILES IDX 23 90 21 91 22 92 11 94 12 95
REMARK H PARENT 7 4 3 11 82 29 56 40 13 71 25 76 22 93 12 96
REMARK Flexibility Score: inf
ROOT
ATOM      1  N   UNL     1       4.765  -0.467   3.663  1.00  0.00    -0.354 N 
ATOM      2  C   UNL     1       4.971  -1.034   4.974  1.00  0.00     0.244 C 
ATOM      3  O   UNL     1       3.719  -1.381   5.022  1.00  0.00    -0.273 OA
ATOM      4  H   UNL     1       4.004  -0.928   3.243  1.00  0.00     0.163 HD
ENDROOT
BRANCH   1   5
ATOM      5  C   UNL     1       5.273   0.551   2.714  1.00  0.00     0.117 C 
BRANCH   5   6
ATOM      6  C   UNL     1       6.271   0.036   1.680  1.00  0.00     0.042 C 
BRANCH   6   7
ATOM      7  C   UNL     1       5.618  -0.884   0.660  1.00  0.00     0.118 C 
BRANCH   7   8
ATOM      8  N   UNL     1       4.974  -0.082  -0.371  1.00  0.00    -0.352 N 
ATOM      9  O   UNL     1       5.158   1.486  -1.983  1.00  0.00    -0.269 OA
ATOM     10  C   UNL     1       5.572   0.440  -1.494  1.00  0.00     0.251 C 
ATOM     11  H   UNL     1       4.015   0.105  -0.252  1.00  0.00     0.163 HD
BRANCH  10  12
ATOM     12  C   UNL     1       6.690  -0.291  -2.130  1.00  0.00     0.039 A 
ATOM     13  C   UNL     1       6.653  -1.687  -2.196  1.00  0.00     0.014 A 
ATOM     14  C   UNL     1       7.713   0.415  -2.771  1.00  0.00     0.014 A 
ATOM     15  C   UNL     1       7.661  -2.381  -2.848  1.00  0.00     0.010 A 
ATOM     16  C   UNL     1       8.675  -0.279  -3.509  1.00  0.00     0.010 A 
ATOM     17  C   UNL     1       8.638  -1.680  -3.570  1.00  0.00    -0.014 A 
BRANCH  17  18
ATOM     18  C   UNL     1       9.480  -2.432  -4.530  1.00  0.00     0.031 A 
ATOM     19  C   UNL     1      10.960  -2.543  -4.357  1.00  0.00     0.074 A 
ATOM     20  C   UNL     1       8.859  -3.025  -5.570  1.00  0.00     0.049 A 
ATOM     21  N   UNL     1      11.828  -3.152  -5.121  1.00  0.00    -0.248 NA
ATOM     22  C   UNL     1      11.547  -1.879  -3.184  1.00  0.00     0.031 C 
ATOM     23  C   UNL     1       7.417  -2.959  -5.831  1.00  0.00     0.029 A 
ATOM     24  N   UNL     1       9.340  -3.810  -6.584  1.00  0.00    -0.354 N 
ATOM     25  C   UNL     1      13.068  -2.923  -4.542  1.00  0.00     0.074 A 
ATOM     26  C   UNL     1      12.841  -2.112  -3.365  1.00  0.00     0.031 C 
ATOM     27  C   UNL     1       7.124  -3.721  -6.891  1.00  0.00     0.029 A 
ATOM     28  C   UNL     1       8.362  -4.257  -7.440  1.00  0.00     0.049 A 
ATOM     29  H   UNL     1      10.293  -4.033  -6.689  1.00  0.00     0.167 HD
ATOM     30  C   UNL     1      14.279  -3.353  -4.968  1.00  0.00     0.037 A 
ATOM     31  C   UNL     1       8.449  -4.992  -8.563  1.00  0.00     0.037 A 
ATOM     32  C   UNL     1      14.474  -4.174  -6.137  1.00  0.00     0.049 A 
ATOM     33  C   UNL     1       9.802  -5.440  -9.020  1.00  0.00     0.074 A 
ATOM     34  C   UNL     1      15.654  -4.705  -6.627  1.00  0.00     0.029 A 
ATOM     35  N   UNL     1      13.464  -4.574  -7.003  1.00  0.00    -0.354 N 
ATOM     36  N   UNL     1      10.965  -5.237  -8.451  1.00  0.00    -0.248 NA
ATOM     37  C   UNL     1       9.865  -6.197 -10.275  1.00  0.00     0.031 C 
ATOM     38  C   UNL     1      15.366  -5.380  -7.817  1.00  0.00     0.029 A 
ATOM     39  C   UNL     1      13.999  -5.318  -8.042  1.00  0.00     0.049 A 
ATOM     40  H   UNL     1      12.510  -4.360  -6.894  1.00  0.00     0.167 HD
ATOM     41  C   UNL     1      11.902  -5.840  -9.275  1.00  0.00     0.074 A 
ATOM     42  C   UNL     1      11.167  -6.433 -10.376  1.00  0.00     0.031 C 
ATOM     43  C   UNL     1      13.248  -5.891  -9.132  1.00  0.00     0.037 A 
BRANCH  30  44
ATOM     44  C   UNL     1      15.489  -2.920  -4.193  1.00  0.00     0.057 A 
ATOM     45  C   UNL     1      16.399  -2.012  -4.749  1.00  0.00     0.134 A 
ATOM     46  C   UNL     1      15.785  -3.433  -2.924  1.00  0.00     0.134 A 
ATOM     47  F   UNL     1      16.180  -1.486  -5.964  1.00  0.00    -0.206 F 
ATOM     48  C   UNL     1      17.562  -1.634  -4.075  1.00  0.00     0.040 A 
ATOM     49  C   UNL     1      16.933  -3.045  -2.228  1.00  0.00     0.040 A 
ATOM     50  F   UNL     1      14.950  -4.299  -2.328  1.00  0.00    -0.206 F 
ATOM     51  C   UNL     1      17.829  -2.148  -2.808  1.00  0.00     0.006 A 
ENDBRANCH  30  44
BRANCH  31  52
ATOM     52  C   UNL     1       7.209  -5.315  -9.309  1.00  0.00     0.057 A 
ATOM     53  C   UNL     1       6.476  -4.315  -9.965  1.00  0.00     0.134 A 
ATOM     54  C   UNL     1       6.666  -6.603  -9.289  1.00  0.00     0.134 A 
ATOM     55  F   UNL     1       6.937  -3.056 -10.005  1.00  0.00    -0.206 F 
ATOM     56  C   UNL     1       5.231  -4.576 -10.537  1.00  0.00     0.040 A 
ATOM     57  C   UNL     1       5.432  -6.884  -9.879  1.00  0.00     0.040 A 
ATOM     58  F   UNL     1       7.324  -7.603  -8.685  1.00  0.00    -0.206 F 
ATOM     59  C   UNL     1       4.704  -5.865 -10.492  1.00  0.00     0.006 A 
ENDBRANCH  31  52
BRANCH  43  60
ATOM     60  C   UNL     1      14.022  -6.618 -10.189  1.00  0.00     0.057 A 
ATOM     61  C   UNL     1      14.611  -7.858  -9.914  1.00  0.00     0.134 A 
ATOM     62  C   UNL     1      14.259  -6.047 -11.445  1.00  0.00     0.134 A 
ATOM     63  F   UNL     1      14.425  -8.452  -8.725  1.00  0.00    -0.206 F 
ATOM     64  C   UNL     1      15.430  -8.496 -10.845  1.00  0.00     0.040 A 
ATOM     65  C   UNL     1      15.059  -6.686 -12.393  1.00  0.00     0.040 A 
ATOM     66  F   UNL     1      13.711  -4.867 -11.770  1.00  0.00    -0.206 F 
ATOM     67  C   UNL     1      15.656  -7.909 -12.089  1.00  0.00     0.006 A 
ENDBRANCH  43  60
ENDBRANCH  17  18
ENDBRANCH  10  12
ENDBRANCH   7   8
ENDBRANCH   6   7
ENDBRANCH   5   6
ENDBRANCH   1   5
BRANCH   2  68
ATOM     68  C   UNL     1       6.591  -1.307   6.413  1.00  0.00     0.197 C 
BRANCH  68  69
ATOM     69  N   UNL     1       6.612  -2.157   7.875  1.00  0.00    -0.340 N 
ATOM     70  C   UNL     1       6.154  -1.820   9.119  1.00  0.00     0.243 C 
ATOM     71  H   UNL     1       7.027  -3.049   7.821  1.00  0.00     0.164 HD
ATOM     72  O   UNL     1       6.260  -2.654  10.021  1.00  0.00    -0.273 OA
BRANCH  70  73
ATOM     73  C   UNL     1       5.534  -0.427   9.364  1.00  0.00     0.176 C 
BRANCH  73  74
ATOM     74  N   UNL     1       6.638   0.544   9.325  1.00  0.00    -0.340 N 
ATOM     75  C   UNL     1       7.408   1.047  10.338  1.00  0.00     0.251 C 
ATOM     76  H   UNL     1       6.858   0.886   8.428  1.00  0.00     0.164 HD
ATOM     77  O   UNL     1       8.405   1.712  10.072  1.00  0.00    -0.269 OA
BRANCH  75  78
ATOM     78  C   UNL     1       6.976   0.916  11.740  1.00  0.00     0.040 A 
ATOM     79  C   UNL     1       6.795  -0.321  12.366  1.00  0.00     0.017 A 
ATOM     80  C   UNL     1       6.734   2.106  12.437  1.00  0.00     0.017 A 
ATOM     81  C   UNL     1       6.278  -0.366  13.661  1.00  0.00     0.040 A 
ATOM     82  C   UNL     1       6.233   2.057  13.736  1.00  0.00     0.040 A 
ATOM     83  C   UNL     1       5.991   0.822  14.328  1.00  0.00     0.123 A 
ATOM     84  F   UNL     1       5.472   0.776  15.561  1.00  0.00    -0.207 F 
ENDBRANCH  75  78
ENDBRANCH  73  74
BRANCH  73  85
ATOM     85  C   UNL     1       4.364  -0.113   8.404  1.00  0.00     0.070 C 
BRANCH  85  86
ATOM     86  C   UNL     1       4.715  -0.515   6.992  1.00  0.00    -0.045 A 
ATOM     87  C   UNL     1       5.696   0.618   6.006  1.00  0.00     0.007 A 
ATOM     88  C   UNL     1       4.714  -2.298   6.646  1.00  0.00     0.007 A 
ATOM     89  C   UNL     1       6.803  -0.069   4.768  1.00  0.00     0.046 A 
ATOM     90  C   UNL     1       5.743  -2.949   5.338  1.00  0.00     0.046 A 
ATOM     91  C   UNL     1       6.764  -1.848   4.393  1.00  0.00     0.115 A 
BRANCH  91  92
ATOM     92  O   UNL     1       7.628  -2.361   3.471  1.00  0.00    -0.508 OA
ATOM     93  H   UNL     1       8.171  -1.787   2.967  1.00  0.00     0.293 HD
ENDBRANCH  91  92
ENDBRANCH  85  86
ENDBRANCH  73  85
ENDBRANCH  70  73
ENDBRANCH  68  69
BRANCH  68  94
ATOM     94  C   UNL     1       8.338  -1.633   6.237  1.00  0.00     0.191 C 
BRANCH  94  95
ATOM     95  O   UNL     1       9.170  -0.861   5.374  1.00  0.00    -0.394 OA
ATOM     96  H   UNL     1       8.917  -1.023   4.452  1.00  0.00     0.210 HD
ENDBRANCH  94  95
ENDBRANCH  68  94
ENDBRANCH   2  68
TORSDOF 19
