REMARK SMILES COCC[N@@H+](CC(=O)NCCCNC(=O)c1ccc(-c2c3nc(c(-c4c(F)cccc4F)c4ccc([nH]4)c(-c4c(F)cccc4F)c4nc(c(-c5c(F)cccc5F)c5ccc2[nH]5)C=C4)C=C3)cc1)Cc1cc(F)cc(Br)c1
REMARK SMILES IDX 10 1 9 2 7 3 8 4 6 6 5 7 4 9 3 10 2 11 1 12 70 13 71 14
REMARK SMILES IDX 72 15 78 16 73 17 76 18 74 19 75 20 77 21 11 22 12 23 13 24
REMARK SMILES IDX 14 25 15 27 16 28 17 29 69 30 18 31 68 32 19 33 20 34 21 35
REMARK SMILES IDX 62 36 22 37 67 38 61 39 63 40 23 41 66 42 60 43 59 44 24 46
REMARK SMILES IDX 50 47 33 48 49 49 34 50 37 51 48 52 64 53 35 54 36 55 47 57
REMARK SMILES IDX 65 58 38 59 25 60 26 61 31 62 27 63 28 64 30 65 32 66 29 67
REMARK SMILES IDX 51 68 52 69 57 70 53 71 54 72 56 73 58 74 55 75 39 76 40 77
REMARK SMILES IDX 45 78 41 79 42 80 44 81 46 82 43 83
REMARK H PARENT 9 5 5 8 13 26 63 45 37 56
REMARK Flexibility Score: inf
ROOT
ATOM      1  C   UNL     1      -1.293   0.774   4.772  1.00  0.00     0.118 C 
ENDROOT
BRANCH   1   2
ATOM      2  N   UNL     1      -1.713  -0.515   4.250  1.00  0.00    -0.351 N 
ATOM      3  C   UNL     1      -0.996  -1.619   3.898  1.00  0.00     0.275 C 
ATOM      4  O   UNL     1      -1.611  -2.692   3.865  1.00  0.00    -0.269 OA
ATOM      5  H   UNL     1      -2.686  -0.608   4.131  1.00  0.00     0.163 HD
BRANCH   3   6
ATOM      6  C   UNL     1       0.503  -1.583   3.593  1.00  0.00     0.363 C 
BRANCH   6   7
ATOM      7  N   UNL     1       0.908  -1.002   2.293  1.00  0.00    -0.322 N 
ATOM      8  H   UNL     1       1.880  -1.282   2.162  1.00  0.00     0.348 HD
BRANCH   7   9
ATOM      9  C   UNL     1       0.995   0.455   2.316  1.00  0.00     0.291 C 
BRANCH   9  10
ATOM     10  C   UNL     1       1.868   1.164   1.268  1.00  0.00     0.221 C 
BRANCH  10  11
ATOM     11  O   UNL     1       1.092   1.611   0.158  1.00  0.00    -0.379 OA
ATOM     12  C   UNL     1       1.458   1.036  -1.086  1.00  0.00     0.195 C 
ENDBRANCH  10  11
ENDBRANCH   9  10
ENDBRANCH   7   9
BRANCH   7  13
ATOM     13  C   UNL     1       0.329  -1.634   1.098  1.00  0.00     0.299 C 
BRANCH  13  14
ATOM     14  C   UNL     1      -1.168  -1.519   0.872  1.00  0.00     0.010 A 
ATOM     15  C   UNL     1      -1.798  -0.296   0.607  1.00  0.00     0.048 A 
ATOM     16  C   UNL     1      -1.975  -2.670   0.942  1.00  0.00     0.025 A 
ATOM     17  C   UNL     1      -3.188  -0.218   0.525  1.00  0.00     0.124 A 
ATOM     18  C   UNL     1      -3.367  -2.577   0.844  1.00  0.00     0.021 A 
ATOM     19  F   UNL     1      -3.768   0.977   0.352  1.00  0.00    -0.207 F 
ATOM     20  C   UNL     1      -3.983  -1.347   0.651  1.00  0.00     0.055 A 
ATOM     21  Br  UNL     1      -4.426  -4.135   1.017  1.00  0.00    -0.051 Br
ENDBRANCH  13  14
ENDBRANCH   7  13
ENDBRANCH   6   7
ENDBRANCH   3   6
ENDBRANCH   1   2
BRANCH   1  22
ATOM     22  C   UNL     1      -1.766   1.979   3.953  1.00  0.00     0.042 C 
BRANCH  22  23
ATOM     23  C   UNL     1      -3.267   2.056   3.707  1.00  0.00     0.118 C 
BRANCH  23  24
ATOM     24  N   UNL     1      -3.960   2.715   4.798  1.00  0.00    -0.352 N 
ATOM     25  C   UNL     1      -4.406   4.011   4.904  1.00  0.00     0.251 C 
ATOM     26  H   UNL     1      -4.137   2.148   5.583  1.00  0.00     0.163 HD
ATOM     27  O   UNL     1      -4.731   4.442   6.006  1.00  0.00    -0.269 OA
BRANCH  25  28
ATOM     28  C   UNL     1      -4.483   4.905   3.720  1.00  0.00     0.039 A 
ATOM     29  C   UNL     1      -4.126   6.249   3.875  1.00  0.00     0.014 A 
ATOM     30  C   UNL     1      -4.971   4.463   2.487  1.00  0.00     0.014 A 
ATOM     31  C   UNL     1      -4.208   7.129   2.791  1.00  0.00     0.010 A 
ATOM     32  C   UNL     1      -4.986   5.324   1.387  1.00  0.00     0.010 A 
ATOM     33  C   UNL     1      -4.613   6.669   1.528  1.00  0.00    -0.014 A 
BRANCH  33  34
ATOM     34  C   UNL     1      -4.656   7.582   0.354  1.00  0.00     0.031 A 
ATOM     35  C   UNL     1      -5.965   7.913  -0.311  1.00  0.00     0.074 A 
ATOM     36  C   UNL     1      -3.509   8.080  -0.148  1.00  0.00     0.049 A 
ATOM     37  N   UNL     1      -6.192   8.641  -1.376  1.00  0.00    -0.248 NA
ATOM     38  C   UNL     1      -7.178   7.335   0.288  1.00  0.00     0.031 C 
ATOM     39  C   UNL     1      -2.170   7.812   0.378  1.00  0.00     0.029 A 
ATOM     40  N   UNL     1      -3.285   8.907  -1.221  1.00  0.00    -0.354 N 
ATOM     41  C   UNL     1      -7.566   8.598  -1.581  1.00  0.00     0.074 A 
ATOM     42  C   UNL     1      -8.117   7.737  -0.556  1.00  0.00     0.031 C 
ATOM     43  C   UNL     1      -1.266   8.475  -0.361  1.00  0.00     0.029 A 
ATOM     44  C   UNL     1      -1.956   9.182  -1.437  1.00  0.00     0.049 A 
ATOM     45  H   UNL     1      -4.008   9.269  -1.783  1.00  0.00     0.167 HD
ATOM     46  C   UNL     1      -8.304   9.233  -2.523  1.00  0.00     0.037 A 
ATOM     47  C   UNL     1      -1.357   9.909  -2.399  1.00  0.00     0.037 A 
ATOM     48  C   UNL     1      -7.761  10.106  -3.532  1.00  0.00     0.049 A 
ATOM     49  C   UNL     1      -2.196  10.582  -3.449  1.00  0.00     0.074 A 
ATOM     50  C   UNL     1      -8.438  10.841  -4.491  1.00  0.00     0.029 A 
ATOM     51  N   UNL     1      -6.410  10.355  -3.718  1.00  0.00    -0.354 N 
ATOM     52  N   UNL     1      -3.499  10.585  -3.589  1.00  0.00    -0.248 NA
ATOM     53  C   UNL     1      -1.480  11.355  -4.475  1.00  0.00     0.031 C 
ATOM     54  C   UNL     1      -7.493  11.499  -5.286  1.00  0.00     0.029 A 
ATOM     55  C   UNL     1      -6.231  11.211  -4.793  1.00  0.00     0.049 A 
ATOM     56  H   UNL     1      -5.686   9.980  -3.167  1.00  0.00     0.167 HD
ATOM     57  C   UNL     1      -3.761  11.373  -4.703  1.00  0.00     0.074 A 
ATOM     58  C   UNL     1      -2.482  11.846  -5.191  1.00  0.00     0.031 C 
ATOM     59  C   UNL     1      -4.954  11.675  -5.271  1.00  0.00     0.037 A 
BRANCH  46  60
ATOM     60  C   UNL     1      -9.789   9.007  -2.509  1.00  0.00     0.057 A 
ATOM     61  C   UNL     1     -10.608   9.545  -1.509  1.00  0.00     0.134 A 
ATOM     62  C   UNL     1     -10.411   8.278  -3.531  1.00  0.00     0.134 A 
ATOM     63  F   UNL     1     -10.074  10.246  -0.497  1.00  0.00    -0.206 F 
ATOM     64  C   UNL     1     -11.990   9.345  -1.510  1.00  0.00     0.040 A 
ATOM     65  C   UNL     1     -11.795   8.093  -3.557  1.00  0.00     0.040 A 
ATOM     66  F   UNL     1      -9.687   7.743  -4.525  1.00  0.00    -0.206 F 
ATOM     67  C   UNL     1     -12.588   8.622  -2.541  1.00  0.00     0.006 A 
ENDBRANCH  46  60
BRANCH  47  68
ATOM     68  C   UNL     1       0.121  10.048  -2.412  1.00  0.00     0.057 A 
ATOM     69  C   UNL     1       0.735  11.268  -2.109  1.00  0.00     0.134 A 
ATOM     70  C   UNL     1       0.954   8.970  -2.737  1.00  0.00     0.134 A 
ATOM     71  F   UNL     1      -0.011  12.343  -1.812  1.00  0.00    -0.206 F 
ATOM     72  C   UNL     1       2.122  11.418  -2.144  1.00  0.00     0.040 A 
ATOM     73  C   UNL     1       2.343   9.098  -2.751  1.00  0.00     0.040 A 
ATOM     74  F   UNL     1       0.427   7.773  -3.034  1.00  0.00    -0.206 F 
ATOM     75  C   UNL     1       2.931  10.328  -2.461  1.00  0.00     0.006 A 
ENDBRANCH  47  68
BRANCH  59  76
ATOM     76  C   UNL     1      -4.934  12.576  -6.471  1.00  0.00     0.057 A 
ATOM     77  C   UNL     1      -4.484  12.130  -7.720  1.00  0.00     0.134 A 
ATOM     78  C   UNL     1      -5.406  13.892  -6.384  1.00  0.00     0.134 A 
ATOM     79  F   UNL     1      -4.006  10.885  -7.866  1.00  0.00    -0.206 F 
ATOM     80  C   UNL     1      -4.485  12.969  -8.836  1.00  0.00     0.040 A 
ATOM     81  C   UNL     1      -5.435  14.731  -7.499  1.00  0.00     0.040 A 
ATOM     82  F   UNL     1      -5.858  14.379  -5.219  1.00  0.00    -0.206 F 
ATOM     83  C   UNL     1      -4.968  14.271  -8.728  1.00  0.00     0.006 A 
ENDBRANCH  59  76
ENDBRANCH  33  34
ENDBRANCH  25  28
ENDBRANCH  23  24
ENDBRANCH  22  23
ENDBRANCH   1  22
TORSDOF 16
