REMARK SMILES O=C(NCCCNC(=O)c1cccc(Nc2ccc([N+](=O)[O-])cc2)c1)c1ccc(-c2c3nc(c(-c4c(F)cccc4F)c4ccc([nH]4)c(-c4c(F)cccc4F)c4nc(c(-c5c(F)cccc5F)c5ccc2[nH]5)C=C4)C=C3)cc1
REMARK SMILES IDX 5 1 4 2 3 3 1 4 2 5 26 7 27 8 79 9 28 10 78 11 29 12 30 13
REMARK SMILES IDX 31 14 72 15 32 16 77 17 71 18 73 19 33 20 76 21 70 22 69 23
REMARK SMILES IDX 34 25 60 26 43 27 59 28 44 29 47 30 58 31 74 32 45 33 46 34
REMARK SMILES IDX 57 36 75 37 48 38 35 39 36 40 41 41 37 42 38 43 40 44 42 45
REMARK SMILES IDX 39 46 61 47 62 48 67 49 63 50 64 51 66 52 68 53 65 54 49 55
REMARK SMILES IDX 50 56 55 57 51 58 52 59 54 60 56 61 53 62 6 63 7 64 8 65
REMARK SMILES IDX 9 67 10 68 11 69 25 70 12 71 14 72 13 73 15 74 16 76 17 77
REMARK SMILES IDX 24 78 18 79 23 80 19 81 20 82 21 83 22 84
REMARK H PARENT 3 6 73 24 47 35 7 66 15 75
REMARK Flexibility Score: inf
ROOT
ATOM      1  C   UNL     1       5.012  -0.704   2.208  1.00  0.00     0.042 C 
ENDROOT
BRANCH   1   2
ATOM      2  C   UNL     1       4.650  -0.966   0.752  1.00  0.00     0.118 C 
BRANCH   2   3
ATOM      3  N   UNL     1       3.213  -0.952   0.517  1.00  0.00    -0.352 N 
ATOM      4  O   UNL     1       1.207  -0.137  -0.082  1.00  0.00    -0.269 OA
ATOM      5  C   UNL     1       2.431  -0.062  -0.173  1.00  0.00     0.251 C 
ATOM      6  H   UNL     1       2.723  -1.704   0.921  1.00  0.00     0.163 HD
BRANCH   5   7
ATOM      7  C   UNL     1       3.038   0.997  -1.007  1.00  0.00     0.039 A 
ATOM      8  C   UNL     1       4.127   0.733  -1.843  1.00  0.00     0.014 A 
ATOM      9  C   UNL     1       2.467   2.273  -0.990  1.00  0.00     0.014 A 
ATOM     10  C   UNL     1       4.726   1.769  -2.555  1.00  0.00     0.010 A 
ATOM     11  C   UNL     1       3.022   3.295  -1.764  1.00  0.00     0.010 A 
ATOM     12  C   UNL     1       4.174   3.057  -2.529  1.00  0.00    -0.014 A 
BRANCH  12  13
ATOM     13  C   UNL     1       4.774   4.146  -3.337  1.00  0.00     0.031 A 
ATOM     14  C   UNL     1       5.392   5.341  -2.671  1.00  0.00     0.074 A 
ATOM     15  C   UNL     1       4.734   4.067  -4.680  1.00  0.00     0.049 A 
ATOM     16  N   UNL     1       5.880   6.428  -3.212  1.00  0.00    -0.248 NA
ATOM     17  C   UNL     1       5.461   5.317  -1.202  1.00  0.00     0.031 C 
ATOM     18  C   UNL     1       4.157   2.959  -5.442  1.00  0.00     0.029 A 
ATOM     19  N   UNL     1       5.174   4.941  -5.641  1.00  0.00    -0.354 N 
ATOM     20  C   UNL     1       6.287   7.229  -2.153  1.00  0.00     0.074 A 
ATOM     21  C   UNL     1       5.975   6.510  -0.936  1.00  0.00     0.031 C 
ATOM     22  C   UNL     1       4.285   3.215  -6.752  1.00  0.00     0.029 A 
ATOM     23  C   UNL     1       4.901   4.527  -6.921  1.00  0.00     0.049 A 
ATOM     24  H   UNL     1       5.640   5.783  -5.433  1.00  0.00     0.167 HD
ATOM     25  C   UNL     1       6.871   8.451  -2.195  1.00  0.00     0.037 A 
ATOM     26  C   UNL     1       5.094   5.146  -8.100  1.00  0.00     0.037 A 
ATOM     27  C   UNL     1       7.197   9.153  -3.409  1.00  0.00     0.049 A 
ATOM     28  C   UNL     1       5.721   6.508  -8.122  1.00  0.00     0.074 A 
ATOM     29  C   UNL     1       7.831  10.375  -3.556  1.00  0.00     0.029 A 
ATOM     30  N   UNL     1       6.907   8.697  -4.687  1.00  0.00    -0.354 N 
ATOM     31  N   UNL     1       6.128   7.242  -7.115  1.00  0.00    -0.248 NA
ATOM     32  C   UNL     1       5.913   7.129  -9.439  1.00  0.00     0.031 C 
ATOM     33  C   UNL     1       7.890  10.676  -4.921  1.00  0.00     0.029 A 
ATOM     34  C   UNL     1       7.330   9.623  -5.627  1.00  0.00     0.049 A 
ATOM     35  H   UNL     1       6.466   7.842  -4.895  1.00  0.00     0.167 HD
ATOM     36  C   UNL     1       6.643   8.402  -7.675  1.00  0.00     0.074 A 
ATOM     37  C   UNL     1       6.501   8.273  -9.112  1.00  0.00     0.031 C 
ATOM     38  C   UNL     1       7.187   9.476  -7.053  1.00  0.00     0.037 A 
BRANCH  25  39
ATOM     39  C   UNL     1       7.172   9.117  -0.885  1.00  0.00     0.057 A 
ATOM     40  C   UNL     1       8.210   8.681  -0.051  1.00  0.00     0.134 A 
ATOM     41  C   UNL     1       6.423  10.223  -0.461  1.00  0.00     0.134 A 
ATOM     42  F   UNL     1       8.956   7.619  -0.392  1.00  0.00    -0.206 F 
ATOM     43  C   UNL     1       8.476   9.305   1.169  1.00  0.00     0.040 A 
ATOM     44  C   UNL     1       6.695  10.869   0.746  1.00  0.00     0.040 A 
ATOM     45  F   UNL     1       5.419  10.694  -1.215  1.00  0.00    -0.206 F 
ATOM     46  C   UNL     1       7.720  10.406   1.568  1.00  0.00     0.006 A 
ENDBRANCH  25  39
BRANCH  26  47
ATOM     47  C   UNL     1       4.669   4.470  -9.348  1.00  0.00     0.057 A 
ATOM     48  C   UNL     1       5.607   3.912 -10.222  1.00  0.00     0.134 A 
ATOM     49  C   UNL     1       3.314   4.317  -9.666  1.00  0.00     0.134 A 
ATOM     50  F   UNL     1       6.919   4.038  -9.976  1.00  0.00    -0.206 F 
ATOM     51  C   UNL     1       5.212   3.223 -11.370  1.00  0.00     0.040 A 
ATOM     52  C   UNL     1       2.905   3.613 -10.798  1.00  0.00     0.040 A 
ATOM     53  F   UNL     1       2.369   4.822  -8.859  1.00  0.00    -0.206 F 
ATOM     54  C   UNL     1       3.857   3.065 -11.655  1.00  0.00     0.006 A 
ENDBRANCH  26  47
BRANCH  38  55
ATOM     55  C   UNL     1       7.702  10.584  -7.921  1.00  0.00     0.057 A 
ATOM     56  C   UNL     1       6.840  11.498  -8.538  1.00  0.00     0.134 A 
ATOM     57  C   UNL     1       9.079  10.770  -8.092  1.00  0.00     0.134 A 
ATOM     58  F   UNL     1       5.510  11.363  -8.422  1.00  0.00    -0.206 F 
ATOM     59  C   UNL     1       7.330  12.556  -9.303  1.00  0.00     0.040 A 
ATOM     60  C   UNL     1       9.582  11.836  -8.839  1.00  0.00     0.040 A 
ATOM     61  F   UNL     1       9.956   9.931  -7.522  1.00  0.00    -0.206 F 
ATOM     62  C   UNL     1       8.706  12.732  -9.449  1.00  0.00     0.006 A 
ENDBRANCH  38  55
ENDBRANCH  12  13
ENDBRANCH   5   7
ENDBRANCH   2   3
ENDBRANCH   1   2
BRANCH   1  63
ATOM     63  C   UNL     1       4.476  -1.741   3.188  1.00  0.00     0.118 C 
BRANCH  63  64
ATOM     64  N   UNL     1       4.960  -3.081   2.893  1.00  0.00    -0.352 N 
ATOM     65  C   UNL     1       5.804  -3.893   3.604  1.00  0.00     0.251 C 
ATOM     66  H   UNL     1       4.629  -3.465   2.049  1.00  0.00     0.163 HD
ATOM     67  O   UNL     1       6.266  -4.901   3.073  1.00  0.00    -0.269 OA
BRANCH  65  68
ATOM     68  C   UNL     1       6.163  -3.573   5.000  1.00  0.00     0.041 A 
ATOM     69  C   UNL     1       7.491  -3.724   5.402  1.00  0.00     0.014 A 
ATOM     70  C   UNL     1       5.183  -3.205   5.930  1.00  0.00     0.039 A 
ATOM     71  C   UNL     1       7.842  -3.455   6.721  1.00  0.00     0.003 A 
ATOM     72  C   UNL     1       5.522  -2.918   7.257  1.00  0.00     0.039 A 
ATOM     73  C   UNL     1       6.865  -3.043   7.634  1.00  0.00     0.026 A 
BRANCH  72  74
ATOM     74  N   UNL     1       4.507  -2.498   8.136  1.00  0.00    -0.356 N 
ATOM     75  H   UNL     1       3.594  -2.606   7.784  1.00  0.00     0.167 HD
BRANCH  74  76
ATOM     76  C   UNL     1       4.571  -1.952   9.427  1.00  0.00     0.039 A 
ATOM     77  C   UNL     1       3.671  -2.417  10.398  1.00  0.00     0.033 A 
ATOM     78  C   UNL     1       5.556  -1.032   9.811  1.00  0.00     0.033 A 
ATOM     79  C   UNL     1       3.768  -2.002  11.729  1.00  0.00     0.088 A 
ATOM     80  C   UNL     1       5.662  -0.602  11.138  1.00  0.00     0.088 A 
ATOM     81  C   UNL     1       4.775  -1.103  12.096  1.00  0.00     0.269 A 
BRANCH  81  82
ATOM     82  N   UNL     1       4.914  -0.702  13.501  1.00  0.00     0.062 N 
ATOM     83  O   UNL     1       4.121  -1.188  14.320  1.00  0.00    -0.258 OA
ATOM     84  O   UNL     1       5.820   0.094  13.786  1.00  0.00    -0.258 OA
ENDBRANCH  81  82
ENDBRANCH  74  76
ENDBRANCH  72  74
ENDBRANCH  65  68
ENDBRANCH  63  64
ENDBRANCH   1  63
TORSDOF 13
