REMARK SMILES Cc1ccccc1C(=O)Nc1ccc(OCC(=O)NCCCNC(=O)c2ccc(-c3c4nc(c(-c5c(F)cccc5F)c5ccc([nH]5)c(-c5c(F)cccc5F)c5nc(c(-c6c(F)cccc6F)c6ccc3[nH]6)C=C5)C=C4)cc2)c(-c2nc3ccccc3s2)c1
REMARK SMILES IDX 20 1 19 2 17 3 18 4 16 6 15 7 14 8 11 9 12 10 90 11 13 12
REMARK SMILES IDX 80 13 10 14 8 15 9 16 7 18 1 19 2 20 3 21 4 22 6 23 5 24
REMARK SMILES IDX 81 25 82 26 89 27 83 28 88 29 84 30 87 31 85 32 86 33 21 34
REMARK SMILES IDX 22 35 23 36 24 37 25 39 26 40 27 41 79 42 28 43 78 44 29 45
REMARK SMILES IDX 30 46 31 47 72 48 32 49 77 50 71 51 73 52 33 53 76 54 70 55
REMARK SMILES IDX 69 56 34 58 60 59 43 60 59 61 44 62 47 63 58 64 74 65 45 66
REMARK SMILES IDX 46 67 57 69 75 70 48 71 35 72 36 73 41 74 37 75 38 76 40 77
REMARK SMILES IDX 42 78 39 79 61 80 62 81 67 82 63 83 64 84 66 85 68 86 65 87
REMARK SMILES IDX 49 88 50 89 55 90 51 91 52 92 54 93 56 94 53 95
REMARK H PARENT 19 5 10 17 23 38 73 57 47 68
REMARK Flexibility Score: inf
ROOT
ATOM      1  C   UNL     1       5.086  -4.830   1.917  1.00  0.00     0.117 C 
ENDROOT
BRANCH   1   2
ATOM      2  N   UNL     1       4.032  -4.544   0.964  1.00  0.00    -0.353 N 
ATOM      3  C   UNL     1       4.089  -3.725  -0.132  1.00  0.00     0.257 C 
ATOM      4  O   UNL     1       3.021  -3.457  -0.677  1.00  0.00    -0.271 OA
ATOM      5  H   UNL     1       3.171  -4.993   1.125  1.00  0.00     0.163 HD
BRANCH   3   6
ATOM      6  C   UNL     1       5.481  -3.223  -0.617  1.00  0.00     0.329 C 
BRANCH   6   7
ATOM      7  O   UNL     1       5.660  -2.163  -1.553  1.00  0.00    -0.483 OA
BRANCH   7   8
ATOM      8  C   UNL     1       4.908  -1.054  -1.276  1.00  0.00     0.130 A 
ATOM      9  C   UNL     1       3.378   1.143  -0.500  1.00  0.00     0.042 A 
ATOM     10  C   UNL     1       4.627   0.931   0.083  1.00  0.00     0.030 A 
ATOM     11  C   UNL     1       2.971   0.343  -1.571  1.00  0.00     0.041 A 
ATOM     12  C   UNL     1       5.375  -0.188  -0.279  1.00  0.00     0.049 A 
ATOM     13  C   UNL     1       3.747  -0.752  -2.014  1.00  0.00     0.055 A 
BRANCH   9  14
ATOM     14  N   UNL     1       2.570   2.138   0.065  1.00  0.00    -0.322 N 
ATOM     15  C   UNL     1       1.204   2.193   0.247  1.00  0.00     0.255 C 
ATOM     16  O   UNL     1       0.703   3.265   0.594  1.00  0.00    -0.269 OA
ATOM     17  H   UNL     1       3.059   2.930   0.385  1.00  0.00     0.170 HD
BRANCH  15  18
ATOM     18  C   UNL     1       0.315   0.997   0.141  1.00  0.00     0.043 A 
ATOM     19  C   UNL     1       1.788  -0.611   1.526  1.00  0.00     0.045 C 
ATOM     20  C   UNL     1       0.583  -0.272   0.698  1.00  0.00    -0.038 A 
ATOM     21  C   UNL     1      -0.351  -1.308   0.499  1.00  0.00     0.004 A 
ATOM     22  C   UNL     1      -1.573  -1.070  -0.127  1.00  0.00     0.000 A 
ATOM     23  C   UNL     1      -0.937   1.230  -0.457  1.00  0.00     0.014 A 
ATOM     24  C   UNL     1      -1.879   0.207  -0.579  1.00  0.00     0.001 A 
ENDBRANCH  15  18
ENDBRANCH   9  14
BRANCH  13  25
ATOM     25  C   UNL     1       3.225  -1.535  -3.163  1.00  0.00     0.128 A 
ATOM     26  N   UNL     1       2.174  -1.165  -3.875  1.00  0.00    -0.236 NA
ATOM     27  S   UNL     1       3.909  -3.029  -3.692  1.00  0.00    -0.114 S 
ATOM     28  C   UNL     1       1.716  -2.227  -4.636  1.00  0.00     0.082 A 
ATOM     29  C   UNL     1       2.487  -3.383  -4.568  1.00  0.00     0.055 A 
ATOM     30  C   UNL     1       0.542  -2.247  -5.412  1.00  0.00     0.030 A 
ATOM     31  C   UNL     1       2.092  -4.590  -5.161  1.00  0.00     0.021 A 
ATOM     32  C   UNL     1       0.137  -3.441  -6.018  1.00  0.00     0.002 A 
ATOM     33  C   UNL     1       0.890  -4.603  -5.871  1.00  0.00     0.002 A 
ENDBRANCH  13  25
ENDBRANCH   7   8
ENDBRANCH   6   7
ENDBRANCH   3   6
ENDBRANCH   1   2
BRANCH   1  34
ATOM     34  C   UNL     1       5.223  -3.690   2.921  1.00  0.00     0.042 C 
BRANCH  34  35
ATOM     35  C   UNL     1       4.128  -3.707   3.978  1.00  0.00     0.118 C 
BRANCH  35  36
ATOM     36  N   UNL     1       4.429  -4.567   5.114  1.00  0.00    -0.352 N 
ATOM     37  C   UNL     1       3.653  -4.917   6.207  1.00  0.00     0.251 C 
ATOM     38  H   UNL     1       5.330  -4.963   5.105  1.00  0.00     0.163 HD
ATOM     39  O   UNL     1       4.127  -5.638   7.068  1.00  0.00    -0.269 OA
BRANCH  37  40
ATOM     40  C   UNL     1       2.215  -4.545   6.254  1.00  0.00     0.039 A 
ATOM     41  C   UNL     1       1.314  -5.506   6.732  1.00  0.00     0.014 A 
ATOM     42  C   UNL     1       1.736  -3.379   5.665  1.00  0.00     0.014 A 
ATOM     43  C   UNL     1      -0.031  -5.421   6.381  1.00  0.00     0.010 A 
ATOM     44  C   UNL     1       0.429  -3.341   5.227  1.00  0.00     0.010 A 
ATOM     45  C   UNL     1      -0.433  -4.397   5.527  1.00  0.00    -0.014 A 
BRANCH  45  46
ATOM     46  C   UNL     1      -1.693  -4.413   4.801  1.00  0.00     0.031 A 
ATOM     47  C   UNL     1      -2.805  -3.537   5.212  1.00  0.00     0.074 A 
ATOM     48  C   UNL     1      -1.795  -5.170   3.687  1.00  0.00     0.049 A 
ATOM     49  N   UNL     1      -4.045  -3.781   4.959  1.00  0.00    -0.248 NA
ATOM     50  C   UNL     1      -2.601  -2.317   5.982  1.00  0.00     0.031 C 
ATOM     51  C   UNL     1      -2.843  -5.120   2.673  1.00  0.00     0.029 A 
ATOM     52  N   UNL     1      -1.037  -6.302   3.352  1.00  0.00    -0.354 N 
ATOM     53  C   UNL     1      -4.766  -2.653   5.278  1.00  0.00     0.074 A 
ATOM     54  C   UNL     1      -3.831  -1.794   5.969  1.00  0.00     0.031 C 
ATOM     55  C   UNL     1      -2.857  -6.286   2.008  1.00  0.00     0.029 A 
ATOM     56  C   UNL     1      -1.916  -7.172   2.673  1.00  0.00     0.049 A 
ATOM     57  H   UNL     1      -0.085  -6.458   3.550  1.00  0.00     0.167 HD
ATOM     58  C   UNL     1      -6.037  -2.512   4.802  1.00  0.00     0.037 A 
ATOM     59  C   UNL     1      -2.227  -8.403   3.172  1.00  0.00     0.037 A 
ATOM     60  C   UNL     1      -6.433  -3.676   4.014  1.00  0.00     0.049 A 
ATOM     61  C   UNL     1      -3.699  -8.596   3.440  1.00  0.00     0.074 A 
ATOM     62  C   UNL     1      -6.410  -3.922   2.651  1.00  0.00     0.029 A 
ATOM     63  N   UNL     1      -6.621  -4.905   4.635  1.00  0.00    -0.354 N 
ATOM     64  N   UNL     1      -4.543  -7.614   3.596  1.00  0.00    -0.248 NA
ATOM     65  C   UNL     1      -4.335  -9.904   3.571  1.00  0.00     0.031 C 
ATOM     66  C   UNL     1      -6.539  -5.317   2.453  1.00  0.00     0.029 A 
ATOM     67  C   UNL     1      -6.662  -5.916   3.695  1.00  0.00     0.049 A 
ATOM     68  H   UNL     1      -6.712  -5.036   5.606  1.00  0.00     0.167 HD
ATOM     69  C   UNL     1      -5.791  -8.119   3.856  1.00  0.00     0.074 A 
ATOM     70  C   UNL     1      -5.612  -9.558   3.812  1.00  0.00     0.031 C 
ATOM     71  C   UNL     1      -6.861  -7.302   4.091  1.00  0.00     0.037 A 
BRANCH  58  72
ATOM     72  C   UNL     1      -6.784  -1.198   4.787  1.00  0.00     0.057 A 
ATOM     73  C   UNL     1      -7.689  -0.889   3.752  1.00  0.00     0.134 A 
ATOM     74  C   UNL     1      -6.620  -0.175   5.735  1.00  0.00     0.134 A 
ATOM     75  F   UNL     1      -8.052  -1.796   2.835  1.00  0.00    -0.206 F 
ATOM     76  C   UNL     1      -8.274   0.375   3.600  1.00  0.00     0.040 A 
ATOM     77  C   UNL     1      -7.155   1.112   5.569  1.00  0.00     0.040 A 
ATOM     78  F   UNL     1      -5.979  -0.391   6.891  1.00  0.00    -0.206 F 
ATOM     79  C   UNL     1      -7.973   1.396   4.486  1.00  0.00     0.006 A 
ENDBRANCH  58  72
BRANCH  59  80
ATOM     80  C   UNL     1      -1.126  -9.015   3.960  1.00  0.00     0.057 A 
ATOM     81  C   UNL     1       0.055  -9.381   3.291  1.00  0.00     0.134 A 
ATOM     82  C   UNL     1      -1.056  -8.886   5.350  1.00  0.00     0.134 A 
ATOM     83  F   UNL     1       0.057  -9.521   1.955  1.00  0.00    -0.206 F 
ATOM     84  C   UNL     1       1.277  -9.501   3.958  1.00  0.00     0.040 A 
ATOM     85  C   UNL     1       0.161  -9.012   6.030  1.00  0.00     0.040 A 
ATOM     86  F   UNL     1      -2.135  -8.520   6.056  1.00  0.00    -0.206 F 
ATOM     87  C   UNL     1       1.337  -9.281   5.330  1.00  0.00     0.006 A 
ENDBRANCH  59  80
BRANCH  71  88
ATOM     88  C   UNL     1      -8.216  -7.718   4.615  1.00  0.00     0.057 A 
ATOM     89  C   UNL     1      -8.444  -8.845   5.415  1.00  0.00     0.134 A 
ATOM     90  C   UNL     1      -9.339  -6.873   4.443  1.00  0.00     0.134 A 
ATOM     91  F   UNL     1      -7.453  -9.679   5.757  1.00  0.00    -0.206 F 
ATOM     92  C   UNL     1      -9.703  -9.140   5.959  1.00  0.00     0.040 A 
ATOM     93  C   UNL     1     -10.583  -7.128   5.026  1.00  0.00     0.040 A 
ATOM     94  F   UNL     1      -9.272  -5.745   3.720  1.00  0.00    -0.206 F 
ATOM     95  C   UNL     1     -10.774  -8.275   5.777  1.00  0.00     0.006 A 
ENDBRANCH  71  88
ENDBRANCH  45  46
ENDBRANCH  37  40
ENDBRANCH  35  36
ENDBRANCH  34  35
ENDBRANCH   1  34
TORSDOF 15
