REMARK SMILES Cc1cc(C)cc(N(C)S(=O)(=O)c2ccc(F)c(C(=O)NCCCNC(=O)c3ccc(-c4c5nc(c(-c6c(F)cccc6F)c6ccc([nH]6)c(-c6c(F)cccc6F)c6nc(c(-c7c(F)cccc7F)c7ccc4[nH]7)C=C6)C=C5)cc3)c2)c1
REMARK SMILES IDX 22 1 21 2 19 3 20 4 18 6 13 7 14 8 82 9 15 10 16 11 17 12
REMARK SMILES IDX 10 13 11 14 12 15 8 16 9 17 7 18 1 19 2 20 3 21 83 22 4 23
REMARK SMILES IDX 5 24 6 25 23 26 24 27 25 28 26 29 27 31 28 32 29 33 81 34
REMARK SMILES IDX 30 35 80 36 31 37 32 38 33 39 74 40 34 41 79 42 73 43 75 44
REMARK SMILES IDX 35 45 78 46 72 47 71 48 36 50 62 51 45 52 61 53 46 54 49 55
REMARK SMILES IDX 60 56 76 57 47 58 48 59 59 61 77 62 50 63 37 64 38 65 43 66
REMARK SMILES IDX 39 67 40 68 42 69 44 70 41 71 63 72 64 73 69 74 65 75 66 76
REMARK SMILES IDX 68 77 70 78 67 79 51 80 52 81 57 82 53 83 54 84 56 85 58 86
REMARK SMILES IDX 55 87
REMARK H PARENT 21 5 25 30 75 49 49 60
REMARK Flexibility Score: inf
ROOT
ATOM      1  C   UNL     1      -1.036 -10.828  -0.642  1.00  0.00     0.118 C 
ENDROOT
BRANCH   1   2
ATOM      2  N   UNL     1      -1.810  -9.631  -0.396  1.00  0.00    -0.352 N 
ATOM      3  C   UNL     1      -1.465  -8.343  -0.111  1.00  0.00     0.254 C 
ATOM      4  O   UNL     1      -2.394  -7.551   0.079  1.00  0.00    -0.269 OA
ATOM      5  H   UNL     1      -2.783  -9.775  -0.442  1.00  0.00     0.163 HD
BRANCH   3   6
ATOM      6  C   UNL     1      -0.084  -7.804  -0.050  1.00  0.00     0.076 A 
ATOM      7  C   UNL     1       1.183  -5.711  -0.107  1.00  0.00     0.089 A 
ATOM      8  C   UNL     1       2.330  -6.404   0.299  1.00  0.00     0.025 A 
ATOM      9  C   UNL     1       0.022  -6.435  -0.368  1.00  0.00     0.039 A 
ATOM     10  C   UNL     1       2.271  -7.783   0.519  1.00  0.00     0.041 A 
ATOM     11  C   UNL     1       1.058  -8.464   0.394  1.00  0.00     0.136 A 
ATOM     12  F   UNL     1       1.052  -9.751   0.752  1.00  0.00    -0.206 F 
BRANCH   7  13
ATOM     13  S   UNL     1       1.303  -3.944  -0.414  1.00  0.00     0.264 S 
ATOM     14  O   UNL     1       1.188  -3.796  -1.849  1.00  0.00    -0.201 OA
ATOM     15  O   UNL     1       2.520  -3.554   0.277  1.00  0.00    -0.201 OA
BRANCH  13  16
ATOM     16  N   UNL     1      -0.036  -3.086   0.341  1.00  0.00    -0.269 N 
ATOM     17  C   UNL     1      -1.363  -3.713   0.100  1.00  0.00     0.164 C 
BRANCH  16  18
ATOM     18  C   UNL     1       0.004  -1.603   0.148  1.00  0.00     0.052 A 
ATOM     19  C   UNL     1       2.576   1.236   0.009  1.00  0.00     0.044 C 
ATOM     20  C   UNL     1       1.259   0.517   0.033  1.00  0.00    -0.049 A 
ATOM     21  C   UNL     1       0.072   1.243  -0.039  1.00  0.00     0.007 A 
ATOM     22  C   UNL     1       1.210  -0.885   0.154  1.00  0.00     0.030 A 
ATOM     23  C   UNL     1      -1.152   0.582   0.018  1.00  0.00    -0.049 A 
ATOM     24  C   UNL     1      -2.428   1.373  -0.018  1.00  0.00     0.044 C 
ATOM     25  C   UNL     1      -1.171  -0.822   0.128  1.00  0.00     0.030 A 
ENDBRANCH  16  18
ENDBRANCH  13  16
ENDBRANCH   7  13
ENDBRANCH   3   6
ENDBRANCH   1   2
BRANCH   1  26
ATOM     26  C   UNL     1      -0.978 -11.705   0.609  1.00  0.00     0.042 C 
BRANCH  26  27
ATOM     27  C   UNL     1      -2.323 -12.322   0.989  1.00  0.00     0.118 C 
BRANCH  27  28
ATOM     28  N   UNL     1      -2.774 -13.294   0.006  1.00  0.00    -0.352 N 
ATOM     29  C   UNL     1      -2.938 -14.650   0.116  1.00  0.00     0.251 C 
ATOM     30  H   UNL     1      -2.995 -12.919  -0.877  1.00  0.00     0.163 HD
ATOM     31  O   UNL     1      -3.062 -15.327  -0.901  1.00  0.00    -0.269 OA
BRANCH  29  32
ATOM     32  C   UNL     1      -2.978 -15.307   1.441  1.00  0.00     0.039 A 
ATOM     33  C   UNL     1      -2.375 -16.561   1.585  1.00  0.00     0.014 A 
ATOM     34  C   UNL     1      -3.670 -14.739   2.514  1.00  0.00     0.014 A 
ATOM     35  C   UNL     1      -2.439 -17.227   2.810  1.00  0.00     0.010 A 
ATOM     36  C   UNL     1      -3.675 -15.373   3.756  1.00  0.00     0.010 A 
ATOM     37  C   UNL     1      -3.074 -16.630   3.911  1.00  0.00    -0.014 A 
BRANCH  37  38
ATOM     38  C   UNL     1      -3.130 -17.320   5.224  1.00  0.00     0.031 A 
ATOM     39  C   UNL     1      -4.449 -17.773   5.789  1.00  0.00     0.074 A 
ATOM     40  C   UNL     1      -1.995 -17.509   5.923  1.00  0.00     0.049 A 
ATOM     41  N   UNL     1      -4.699 -18.360   6.932  1.00  0.00    -0.248 NA
ATOM     42  C   UNL     1      -5.647 -17.511   4.975  1.00  0.00     0.031 C 
ATOM     43  C   UNL     1      -0.662 -17.079   5.498  1.00  0.00     0.029 A 
ATOM     44  N   UNL     1      -1.780 -18.112   7.136  1.00  0.00    -0.354 N 
ATOM     45  C   UNL     1      -6.078 -18.525   6.978  1.00  0.00     0.074 A 
ATOM     46  C   UNL     1      -6.616 -17.933   5.773  1.00  0.00     0.031 C 
ATOM     47  C   UNL     1       0.236 -17.461   6.420  1.00  0.00     0.029 A 
ATOM     48  C   UNL     1      -0.460 -18.133   7.513  1.00  0.00     0.049 A 
ATOM     49  H   UNL     1      -2.503 -18.493   7.685  1.00  0.00     0.167 HD
ATOM     50  C   UNL     1      -6.824 -19.138   7.928  1.00  0.00     0.037 A 
ATOM     51  C   UNL     1       0.126 -18.640   8.615  1.00  0.00     0.037 A 
ATOM     52  C   UNL     1      -6.282 -19.754   9.110  1.00  0.00     0.049 A 
ATOM     53  C   UNL     1      -0.722 -19.326   9.648  1.00  0.00     0.074 A 
ATOM     54  C   UNL     1      -6.952 -20.440  10.107  1.00  0.00     0.029 A 
ATOM     55  N   UNL     1      -4.937 -19.763   9.449  1.00  0.00    -0.354 N 
ATOM     56  N   UNL     1      -2.019 -19.513   9.657  1.00  0.00    -0.248 NA
ATOM     57  C   UNL     1      -0.026 -19.876  10.819  1.00  0.00     0.031 C 
ATOM     58  C   UNL     1      -6.016 -20.835  11.069  1.00  0.00     0.029 A 
ATOM     59  C   UNL     1      -4.759 -20.434  10.648  1.00  0.00     0.049 A 
ATOM     60  H   UNL     1      -4.217 -19.354   8.917  1.00  0.00     0.167 HD
ATOM     61  C   UNL     1      -2.293 -20.221  10.820  1.00  0.00     0.074 A 
ATOM     62  C   UNL     1      -1.025 -20.441  11.484  1.00  0.00     0.031 C 
ATOM     63  C   UNL     1      -3.489 -20.649  11.293  1.00  0.00     0.037 A 
BRANCH  50  64
ATOM     64  C   UNL     1      -8.310 -19.189   7.722  1.00  0.00     0.057 A 
ATOM     65  C   UNL     1      -9.174 -18.452   8.542  1.00  0.00     0.134 A 
ATOM     66  C   UNL     1      -8.889 -20.014   6.749  1.00  0.00     0.134 A 
ATOM     67  F   UNL     1      -8.686 -17.647   9.498  1.00  0.00    -0.206 F 
ATOM     68  C   UNL     1     -10.561 -18.541   8.407  1.00  0.00     0.040 A 
ATOM     69  C   UNL     1     -10.274 -20.092   6.588  1.00  0.00     0.040 A 
ATOM     70  F   UNL     1      -8.117 -20.737   5.924  1.00  0.00    -0.206 F 
ATOM     71  C   UNL     1     -11.114 -19.360   7.425  1.00  0.00     0.006 A 
ENDBRANCH  50  64
BRANCH  51  72
ATOM     72  C   UNL     1       1.599 -18.557   8.765  1.00  0.00     0.057 A 
ATOM     73  C   UNL     1       2.244 -17.341   9.021  1.00  0.00     0.134 A 
ATOM     74  C   UNL     1       2.401 -19.695   8.622  1.00  0.00     0.134 A 
ATOM     75  F   UNL     1       1.532 -16.213   9.159  1.00  0.00    -0.206 F 
ATOM     76  C   UNL     1       3.634 -17.257   9.114  1.00  0.00     0.040 A 
ATOM     77  C   UNL     1       3.790 -19.630   8.734  1.00  0.00     0.040 A 
ATOM     78  F   UNL     1       1.839 -20.891   8.392  1.00  0.00    -0.206 F 
ATOM     79  C   UNL     1       4.411 -18.405   8.973  1.00  0.00     0.006 A 
ENDBRANCH  51  72
BRANCH  63  80
ATOM     80  C   UNL     1      -3.487 -21.419  12.579  1.00  0.00     0.057 A 
ATOM     81  C   UNL     1      -3.760 -22.793  12.587  1.00  0.00     0.134 A 
ATOM     82  C   UNL     1      -3.286 -20.791  13.813  1.00  0.00     0.134 A 
ATOM     83  F   UNL     1      -3.973 -23.453  11.438  1.00  0.00    -0.206 F 
ATOM     84  C   UNL     1      -3.843 -23.513  13.779  1.00  0.00     0.040 A 
ATOM     85  C   UNL     1      -3.343 -21.504  15.011  1.00  0.00     0.040 A 
ATOM     86  F   UNL     1      -3.011 -19.479  13.871  1.00  0.00    -0.206 F 
ATOM     87  C   UNL     1      -3.631 -22.868  14.996  1.00  0.00     0.006 A 
ENDBRANCH  63  80
ENDBRANCH  37  38
ENDBRANCH  29  32
ENDBRANCH  27  28
ENDBRANCH  26  27
ENDBRANCH   1  26
TORSDOF 13
