REMARK SMILES COc1ccc(-c2cc([C@@H]3CC[N@@H+](CC(=O)NCCCNC(=O)c4ccc(-c5c6nc(c(-c7c(F)cccc7F)c7ccc([nH]7)c(-c7c(F)cccc7F)c7nc(c(-c8c(F)cccc8F)c8ccc5[nH]8)C=C7)C=C6)cc4)C3)ccn2)c2ccc(C)nc12
REMARK SMILES IDX 18 1 17 2 15 3 16 4 14 6 13 7 10 8 11 9 78 10 12 11 9 13
REMARK SMILES IDX 7 14 8 15 81 16 80 17 79 18 6 19 3 20 4 21 88 22 5 23 82 24
REMARK SMILES IDX 87 25 83 26 85 27 84 28 86 29 2 30 1 31 19 32 20 33 21 34
REMARK SMILES IDX 22 35 23 37 24 38 25 39 77 40 26 41 76 42 27 43 28 44 29 45
REMARK SMILES IDX 70 46 30 47 75 48 69 49 71 50 31 51 74 52 68 53 67 54 32 56
REMARK SMILES IDX 58 57 41 58 57 59 42 60 45 61 56 62 72 63 43 64 44 65 55 67
REMARK SMILES IDX 73 68 46 69 33 70 34 71 39 72 35 73 36 74 38 75 40 76 37 77
REMARK SMILES IDX 59 78 60 79 65 80 61 81 62 82 64 83 66 84 63 85 47 86 48 87
REMARK SMILES IDX 53 88 49 89 50 90 52 91 54 92 51 93
REMARK H PARENT 17 5 13 12 21 36 71 55 45 66
REMARK Flexibility Score: inf
ROOT
ATOM      1  C   UNL     1       4.587   7.296  -8.682  1.00  0.00     0.118 C 
ENDROOT
BRANCH   1   2
ATOM      2  N   UNL     1       5.275   8.316  -7.900  1.00  0.00    -0.351 N 
ATOM      3  C   UNL     1       6.112   8.259  -6.822  1.00  0.00     0.275 C 
ATOM      4  O   UNL     1       6.515   9.339  -6.376  1.00  0.00    -0.269 OA
ATOM      5  H   UNL     1       5.101   9.233  -8.213  1.00  0.00     0.163 HD
BRANCH   3   6
ATOM      6  C   UNL     1       6.518   6.934  -6.165  1.00  0.00     0.363 C 
BRANCH   6   7
ATOM      7  N   UNL     1       5.733   6.548  -4.968  1.00  0.00    -0.327 N 
ATOM      8  C   UNL     1       4.340   8.169  -3.777  1.00  0.00     0.080 C 
ATOM      9  C   UNL     1       3.616   7.604  -5.003  1.00  0.00     0.075 C 
ATOM     10  C   UNL     1       5.743   7.522  -3.855  1.00  0.00     0.271 C 
ATOM     11  C   UNL     1       4.335   6.292  -5.282  1.00  0.00     0.263 C 
ATOM     12  H   UNL     1       6.215   5.703  -4.661  1.00  0.00     0.348 HD
BRANCH   8  13
ATOM     13  C   UNL     1       3.485   7.859  -2.559  1.00  0.00    -0.035 A 
ATOM     14  C   UNL     1       2.230   6.230  -1.274  1.00  0.00     0.071 A 
ATOM     15  C   UNL     1       3.265   6.541  -2.156  1.00  0.00     0.033 A 
ATOM     16  N   UNL     1       1.459   7.189  -0.715  1.00  0.00    -0.256 NA
ATOM     17  C   UNL     1       1.729   8.472  -1.052  1.00  0.00     0.112 A 
ATOM     18  C   UNL     1       2.705   8.851  -1.964  1.00  0.00     0.024 A 
BRANCH  14  19
ATOM     19  C   UNL     1       1.808   4.825  -1.094  1.00  0.00     0.010 A 
ATOM     20  C   UNL     1       0.968   2.154  -1.161  1.00  0.00     0.145 A 
ATOM     21  C   UNL     1       0.062   3.176  -1.446  1.00  0.00     0.049 A 
ATOM     22  C   UNL     1       2.315   2.418  -0.859  1.00  0.00     0.113 A 
ATOM     23  C   UNL     1       0.478   4.499  -1.410  1.00  0.00     0.015 A 
ATOM     24  C   UNL     1       2.723   3.772  -0.780  1.00  0.00     0.013 A 
ATOM     25  N   UNL     1       3.202   1.408  -0.677  1.00  0.00    -0.249 NA
ATOM     26  C   UNL     1       4.062   4.006  -0.398  1.00  0.00     0.013 A 
ATOM     27  C   UNL     1       4.496   1.676  -0.391  1.00  0.00     0.038 A 
ATOM     28  C   UNL     1       4.956   2.962  -0.211  1.00  0.00     0.024 A 
ATOM     29  C   UNL     1       5.414   0.503  -0.238  1.00  0.00     0.067 C 
BRANCH  20  30
ATOM     30  O   UNL     1       0.420   0.891  -1.266  1.00  0.00    -0.494 OA
ATOM     31  C   UNL     1       0.747   0.037  -0.172  1.00  0.00     0.278 C 
ENDBRANCH  20  30
ENDBRANCH  14  19
ENDBRANCH   8  13
ENDBRANCH   6   7
ENDBRANCH   3   6
ENDBRANCH   1   2
BRANCH   1  32
ATOM     32  C   UNL     1       3.071   7.189  -8.432  1.00  0.00     0.042 C 
BRANCH  32  33
ATOM     33  C   UNL     1       2.295   8.502  -8.317  1.00  0.00     0.118 C 
BRANCH  33  34
ATOM     34  N   UNL     1       1.681   8.872  -9.575  1.00  0.00    -0.352 N 
ATOM     35  C   UNL     1       0.355   9.059  -9.877  1.00  0.00     0.251 C 
ATOM     36  H   UNL     1       2.306   9.008 -10.323  1.00  0.00     0.163 HD
ATOM     37  O   UNL     1       0.016   9.109 -11.056  1.00  0.00    -0.269 OA
BRANCH  35  38
ATOM     38  C   UNL     1      -0.680   9.212  -8.820  1.00  0.00     0.039 A 
ATOM     39  C   UNL     1      -1.936   8.632  -9.038  1.00  0.00     0.014 A 
ATOM     40  C   UNL     1      -0.483  10.018  -7.693  1.00  0.00     0.014 A 
ATOM     41  C   UNL     1      -2.986   8.857  -8.141  1.00  0.00     0.010 A 
ATOM     42  C   UNL     1      -1.525  10.213  -6.776  1.00  0.00     0.010 A 
ATOM     43  C   UNL     1      -2.793   9.656  -7.004  1.00  0.00    -0.014 A 
BRANCH  43  44
ATOM     44  C   UNL     1      -3.929   9.949  -6.088  1.00  0.00     0.031 A 
ATOM     45  C   UNL     1      -4.548  11.322  -6.055  1.00  0.00     0.074 A 
ATOM     46  C   UNL     1      -4.412   8.988  -5.278  1.00  0.00     0.049 A 
ATOM     47  N   UNL     1      -5.539  11.767  -5.322  1.00  0.00    -0.248 NA
ATOM     48  C   UNL     1      -3.970  12.330  -6.957  1.00  0.00     0.031 C 
ATOM     49  C   UNL     1      -3.900   7.621  -5.191  1.00  0.00     0.029 A 
ATOM     50  N   UNL     1      -5.443   9.018  -4.370  1.00  0.00    -0.354 N 
ATOM     51  C   UNL     1      -5.698  13.103  -5.666  1.00  0.00     0.074 A 
ATOM     52  C   UNL     1      -4.679  13.407  -6.649  1.00  0.00     0.031 C 
ATOM     53  C   UNL     1      -4.624   6.940  -4.287  1.00  0.00     0.029 A 
ATOM     54  C   UNL     1      -5.636   7.826  -3.717  1.00  0.00     0.049 A 
ATOM     55  H   UNL     1      -5.991   9.819  -4.204  1.00  0.00     0.167 HD
ATOM     56  C   UNL     1      -6.618  13.994  -5.221  1.00  0.00     0.037 A 
ATOM     57  C   UNL     1      -6.525   7.484  -2.765  1.00  0.00     0.037 A 
ATOM     58  C   UNL     1      -7.651  13.698  -4.262  1.00  0.00     0.049 A 
ATOM     59  C   UNL     1      -7.532   8.490  -2.283  1.00  0.00     0.074 A 
ATOM     60  C   UNL     1      -8.653  14.529  -3.790  1.00  0.00     0.029 A 
ATOM     61  N   UNL     1      -7.814  12.477  -3.629  1.00  0.00    -0.354 N 
ATOM     62  N   UNL     1      -7.700   9.735  -2.655  1.00  0.00    -0.248 NA
ATOM     63  C   UNL     1      -8.480   8.039  -1.252  1.00  0.00     0.031 C 
ATOM     64  C   UNL     1      -9.406  13.818  -2.848  1.00  0.00     0.029 A 
ATOM     65  C   UNL     1      -8.891  12.536  -2.758  1.00  0.00     0.049 A 
ATOM     66  H   UNL     1      -7.249  11.684  -3.776  1.00  0.00     0.167 HD
ATOM     67  C   UNL     1      -8.780  10.209  -1.923  1.00  0.00     0.074 A 
ATOM     68  C   UNL     1      -9.238   9.115  -1.092  1.00  0.00     0.031 C 
ATOM     69  C   UNL     1      -9.341  11.442  -1.938  1.00  0.00     0.037 A 
BRANCH  56  70
ATOM     70  C   UNL     1      -6.552  15.387  -5.774  1.00  0.00     0.057 A 
ATOM     71  C   UNL     1      -6.976  15.681  -7.076  1.00  0.00     0.134 A 
ATOM     72  C   UNL     1      -6.103  16.451  -4.982  1.00  0.00     0.134 A 
ATOM     73  F   UNL     1      -7.408  14.704  -7.887  1.00  0.00    -0.206 F 
ATOM     74  C   UNL     1      -6.936  16.983  -7.578  1.00  0.00     0.040 A 
ATOM     75  C   UNL     1      -6.078  17.759  -5.466  1.00  0.00     0.040 A 
ATOM     76  F   UNL     1      -5.690  16.237  -3.723  1.00  0.00    -0.206 F 
ATOM     77  C   UNL     1      -6.491  18.027  -6.770  1.00  0.00     0.006 A 
ENDBRANCH  56  70
BRANCH  57  78
ATOM     78  C   UNL     1      -6.515   6.109  -2.210  1.00  0.00     0.057 A 
ATOM     79  C   UNL     1      -7.517   5.190  -2.541  1.00  0.00     0.134 A 
ATOM     80  C   UNL     1      -5.509   5.685  -1.335  1.00  0.00     0.134 A 
ATOM     81  F   UNL     1      -8.518   5.548  -3.357  1.00  0.00    -0.206 F 
ATOM     82  C   UNL     1      -7.525   3.899  -2.011  1.00  0.00     0.040 A 
ATOM     83  C   UNL     1      -5.494   4.391  -0.813  1.00  0.00     0.040 A 
ATOM     84  F   UNL     1      -4.521   6.521  -0.983  1.00  0.00    -0.206 F 
ATOM     85  C   UNL     1      -6.508   3.495  -1.148  1.00  0.00     0.006 A 
ENDBRANCH  57  78
BRANCH  69  86
ATOM     86  C   UNL     1     -10.527  11.668  -1.049  1.00  0.00     0.057 A 
ATOM     87  C   UNL     1     -10.388  11.828   0.335  1.00  0.00     0.134 A 
ATOM     88  C   UNL     1     -11.817  11.758  -1.586  1.00  0.00     0.134 A 
ATOM     89  F   UNL     1      -9.180  11.740   0.911  1.00  0.00    -0.206 F 
ATOM     90  C   UNL     1     -11.494  12.051   1.157  1.00  0.00     0.040 A 
ATOM     91  C   UNL     1     -12.928  12.000  -0.776  1.00  0.00     0.040 A 
ATOM     92  F   UNL     1     -12.017  11.620  -2.905  1.00  0.00    -0.206 F 
ATOM     93  C   UNL     1     -12.768  12.143   0.601  1.00  0.00     0.006 A 
ENDBRANCH  69  86
ENDBRANCH  43  44
ENDBRANCH  35  38
ENDBRANCH  33  34
ENDBRANCH  32  33
ENDBRANCH   1  32
TORSDOF 14
