REMARK SMILES C[NH2+][C@@]1(C(=O)NCCCNC(=O)c2ccc(-c3c4nc(c(-c5c(F)cccc5F)c5ccc([nH]5)c(-c5c(F)cccc5F)c5nc(c(-c6c(F)cccc6F)c6ccc3[nH]6)C=C5)C=C4)cc2)CCC[C@H]([N@H+](C)C2CC[NH+](C)CC2)C1
REMARK SMILES IDX 8 1 7 2 6 3 4 4 5 5 3 7 67 8 80 9 68 10 70 11 69 12 2 13
REMARK SMILES IDX 1 14 71 17 72 18 73 20 74 21 79 22 75 23 78 24 76 25 77 26
REMARK SMILES IDX 9 28 10 29 11 30 12 32 13 33 14 34 66 35 15 36 65 37 16 38
REMARK SMILES IDX 17 39 18 40 59 41 19 42 64 43 58 44 60 45 20 46 63 47 57 48
REMARK SMILES IDX 56 49 21 51 47 52 30 53 46 54 31 55 34 56 45 57 61 58 32 59
REMARK SMILES IDX 33 60 44 62 62 63 35 64 22 65 23 66 28 67 24 68 25 69 27 70
REMARK SMILES IDX 29 71 26 72 48 73 49 74 54 75 50 76 51 77 53 78 55 79 52 80
REMARK SMILES IDX 36 81 37 82 42 83 38 84 39 85 41 86 43 87 40 88
REMARK H PARENT 6 6 2 15 2 16 71 19 76 27 10 31 60 50 34 61
REMARK Flexibility Score: inf
ROOT
ATOM      1  C   UNL     1      -3.995   3.425  -3.250  1.00  0.00     0.042 C 
ENDROOT
BRANCH   1   2
ATOM      2  C   UNL     1      -3.080   2.197  -3.180  1.00  0.00     0.118 C 
BRANCH   2   3
ATOM      3  N   UNL     1      -1.956   2.296  -2.243  1.00  0.00    -0.351 N 
ATOM      4  C   UNL     1      -1.431   1.139  -1.654  1.00  0.00     0.281 C 
ATOM      5  O   UNL     1      -1.477   0.057  -2.244  1.00  0.00    -0.268 OA
ATOM      6  H   UNL     1      -1.571   3.176  -2.027  1.00  0.00     0.163 HD
BRANCH   4   7
ATOM      7  C   UNL     1      -0.742   1.287  -0.229  1.00  0.00     0.181 C 
ATOM      8  C   UNL     1      -0.621  -0.065   0.548  1.00  0.00     0.079 C 
ATOM      9  C   UNL     1      -1.533   2.290   0.651  1.00  0.00     0.144 C 
ATOM     10  C   UNL     1      -1.827  -0.560   1.327  1.00  0.00     0.013 C 
ATOM     11  C   UNL     1      -2.897   1.745   1.200  1.00  0.00     0.190 C 
ATOM     12  C   UNL     1      -2.580   0.525   2.059  1.00  0.00     0.065 C 
BRANCH   7  13
ATOM     13  N   UNL     1       0.641   1.844  -0.475  1.00  0.00    -0.336 N 
ATOM     14  C   UNL     1       1.667   0.816  -0.712  1.00  0.00     0.331 C 
ATOM     15  H   UNL     1       0.601   2.451  -1.294  1.00  0.00     0.346 HD
ATOM     16  H   UNL     1       0.913   2.342   0.372  1.00  0.00     0.346 HD
ENDBRANCH   7  13
BRANCH  11  17
ATOM     17  N   UNL     1      -3.962   1.727   0.142  1.00  0.00    -0.332 N 
ATOM     18  C   UNL     1      -4.509   3.121   0.166  1.00  0.00     0.333 C 
ATOM     19  H   UNL     1      -3.482   1.387  -0.692  1.00  0.00     0.348 HD
BRANCH  17  20
ATOM     20  C   UNL     1      -5.116   0.751   0.153  1.00  0.00     0.195 C 
ATOM     21  C   UNL     1      -4.934  -0.766   0.339  1.00  0.00     0.126 C 
ATOM     22  C   UNL     1      -5.995   0.796  -1.146  1.00  0.00     0.126 C 
ATOM     23  C   UNL     1      -4.230  -1.431  -0.843  1.00  0.00     0.268 C 
ATOM     24  C   UNL     1      -5.672  -0.190  -2.303  1.00  0.00     0.268 C 
ATOM     25  N   UNL     1      -5.066  -1.486  -2.028  1.00  0.00    -0.337 N 
ATOM     26  C   UNL     1      -4.242  -1.907  -3.181  1.00  0.00     0.332 C 
ATOM     27  H   UNL     1      -5.817  -2.157  -1.868  1.00  0.00     0.347 HD
ENDBRANCH  17  20
ENDBRANCH  11  17
ENDBRANCH   4   7
ENDBRANCH   2   3
ENDBRANCH   1   2
BRANCH   1  28
ATOM     28  C   UNL     1      -5.289   3.416  -4.107  1.00  0.00     0.118 C 
BRANCH  28  29
ATOM     29  N   UNL     1      -6.197   2.264  -4.107  1.00  0.00    -0.352 N 
ATOM     30  C   UNL     1      -7.555   2.135  -3.845  1.00  0.00     0.251 C 
ATOM     31  H   UNL     1      -5.758   1.414  -4.339  1.00  0.00     0.163 HD
ATOM     32  O   UNL     1      -8.107   1.034  -3.913  1.00  0.00    -0.269 OA
BRANCH  30  33
ATOM     33  C   UNL     1      -8.399   3.294  -3.513  1.00  0.00     0.039 A 
ATOM     34  C   UNL     1      -9.454   3.208  -2.587  1.00  0.00     0.014 A 
ATOM     35  C   UNL     1      -8.193   4.468  -4.220  1.00  0.00     0.014 A 
ATOM     36  C   UNL     1     -10.252   4.333  -2.333  1.00  0.00     0.010 A 
ATOM     37  C   UNL     1      -8.880   5.609  -3.867  1.00  0.00     0.010 A 
ATOM     38  C   UNL     1      -9.946   5.549  -2.957  1.00  0.00    -0.014 A 
BRANCH  38  39
ATOM     39  C   UNL     1     -10.730   6.798  -2.813  1.00  0.00     0.031 A 
ATOM     40  C   UNL     1     -11.252   7.443  -4.072  1.00  0.00     0.074 A 
ATOM     41  C   UNL     1     -10.766   7.442  -1.634  1.00  0.00     0.049 A 
ATOM     42  N   UNL     1     -11.588   8.685  -4.296  1.00  0.00    -0.248 NA
ATOM     43  C   UNL     1     -11.288   6.586  -5.274  1.00  0.00     0.031 C 
ATOM     44  C   UNL     1     -10.236   6.936  -0.367  1.00  0.00     0.029 A 
ATOM     45  N   UNL     1     -11.232   8.693  -1.324  1.00  0.00    -0.354 N 
ATOM     46  C   UNL     1     -11.790   8.772  -5.669  1.00  0.00     0.074 A 
ATOM     47  C   UNL     1     -11.467   7.481  -6.232  1.00  0.00     0.031 C 
ATOM     48  C   UNL     1     -10.418   7.864   0.587  1.00  0.00     0.029 A 
ATOM     49  C   UNL     1     -11.031   9.045  -0.012  1.00  0.00     0.049 A 
ATOM     50  H   UNL     1     -11.669   9.284  -1.980  1.00  0.00     0.167 HD
ATOM     51  C   UNL     1     -12.235   9.829  -6.389  1.00  0.00     0.037 A 
ATOM     52  C   UNL     1     -11.303  10.200   0.621  1.00  0.00     0.037 A 
ATOM     53  C   UNL     1     -12.643  11.066  -5.782  1.00  0.00     0.049 A 
ATOM     54  C   UNL     1     -11.904  11.326  -0.176  1.00  0.00     0.074 A 
ATOM     55  C   UNL     1     -13.217  12.175  -6.374  1.00  0.00     0.029 A 
ATOM     56  N   UNL     1     -12.546  11.337  -4.423  1.00  0.00    -0.354 N 
ATOM     57  N   UNL     1     -12.139  11.392  -1.466  1.00  0.00    -0.248 NA
ATOM     58  C   UNL     1     -12.287  12.533   0.567  1.00  0.00     0.031 C 
ATOM     59  C   UNL     1     -13.450  13.126  -5.374  1.00  0.00     0.029 A 
ATOM     60  C   UNL     1     -13.056  12.593  -4.155  1.00  0.00     0.049 A 
ATOM     61  H   UNL     1     -12.169  10.725  -3.751  1.00  0.00     0.167 HD
ATOM     62  C   UNL     1     -12.727  12.630  -1.685  1.00  0.00     0.074 A 
ATOM     63  C   UNL     1     -12.823  13.276  -0.390  1.00  0.00     0.031 C 
ATOM     64  C   UNL     1     -13.149  13.189  -2.846  1.00  0.00     0.037 A 
BRANCH  51  65
ATOM     65  C   UNL     1     -12.332   9.672  -7.882  1.00  0.00     0.057 A 
ATOM     66  C   UNL     1     -13.224   8.768  -8.479  1.00  0.00     0.134 A 
ATOM     67  C   UNL     1     -11.526  10.432  -8.739  1.00  0.00     0.134 A 
ATOM     68  F   UNL     1     -14.021   7.999  -7.721  1.00  0.00    -0.206 F 
ATOM     69  C   UNL     1     -13.277   8.592  -9.863  1.00  0.00     0.040 A 
ATOM     70  C   UNL     1     -11.596  10.292 -10.128  1.00  0.00     0.040 A 
ATOM     71  F   UNL     1     -10.653  11.323  -8.245  1.00  0.00    -0.206 F 
ATOM     72  C   UNL     1     -12.464   9.361 -10.693  1.00  0.00     0.006 A 
ENDBRANCH  51  65
BRANCH  52  73
ATOM     73  C   UNL     1     -11.076  10.320   2.084  1.00  0.00     0.057 A 
ATOM     74  C   UNL     1     -12.161  10.356   2.969  1.00  0.00     0.134 A 
ATOM     75  C   UNL     1      -9.793  10.372   2.640  1.00  0.00     0.134 A 
ATOM     76  F   UNL     1     -13.416  10.318   2.498  1.00  0.00    -0.206 F 
ATOM     77  C   UNL     1     -11.980  10.459   4.349  1.00  0.00     0.040 A 
ATOM     78  C   UNL     1      -9.596  10.450   4.021  1.00  0.00     0.040 A 
ATOM     79  F   UNL     1      -8.709  10.323   1.851  1.00  0.00    -0.206 F 
ATOM     80  C   UNL     1     -10.693  10.501   4.880  1.00  0.00     0.006 A 
ENDBRANCH  52  73
BRANCH  64  81
ATOM     81  C   UNL     1     -13.791  14.539  -2.755  1.00  0.00     0.057 A 
ATOM     82  C   UNL     1     -13.041  15.697  -2.519  1.00  0.00     0.134 A 
ATOM     83  C   UNL     1     -15.168  14.684  -2.963  1.00  0.00     0.134 A 
ATOM     84  F   UNL     1     -11.720  15.620  -2.302  1.00  0.00    -0.206 F 
ATOM     85  C   UNL     1     -13.645  16.954  -2.471  1.00  0.00     0.040 A 
ATOM     86  C   UNL     1     -15.778  15.937  -2.945  1.00  0.00     0.040 A 
ATOM     87  F   UNL     1     -15.937  13.611  -3.206  1.00  0.00    -0.206 F 
ATOM     88  C   UNL     1     -15.016  17.076  -2.693  1.00  0.00     0.006 A 
ENDBRANCH  64  81
ENDBRANCH  38  39
ENDBRANCH  30  33
ENDBRANCH  28  29
ENDBRANCH   1  28
TORSDOF 13
