REMARK SMILES [NH3+]C[C@H]1CC[C@@H](C(=O)N[C@H](C(=O)NCCCNC(=O)c2ccc(-c3c4nc(c(-c5c(F)cccc5F)c5ccc([nH]5)c(-c5c(F)cccc5F)c5nc(c(-c6c(F)cccc6F)c6ccc3[nH]6)C=C5)C=C4)cc2)C2CCCCC2)O1
REMARK SMILES IDX 14 1 13 2 11 3 12 4 10 6 9 7 7 8 8 9 6 11 3 12 4 13 80 14
REMARK SMILES IDX 5 15 2 16 1 17 74 21 75 22 79 23 76 24 78 25 77 26 15 27
REMARK SMILES IDX 16 28 17 29 18 30 19 32 20 33 21 34 73 35 22 36 72 37 23 38
REMARK SMILES IDX 24 39 25 40 66 41 26 42 71 43 65 44 67 45 27 46 70 47 64 48
REMARK SMILES IDX 63 49 28 51 54 52 37 53 53 54 38 55 41 56 52 57 68 58 39 59
REMARK SMILES IDX 40 60 51 62 69 63 42 64 29 65 30 66 35 67 31 68 32 69 34 70
REMARK SMILES IDX 36 71 33 72 55 73 56 74 61 75 57 76 58 77 60 78 62 79 59 80
REMARK SMILES IDX 43 81 44 82 49 83 45 84 46 85 48 86 50 87 47 88
REMARK H PARENT 13 5 9 10 1 18 1 19 1 20 17 31 67 50 41 61
REMARK Flexibility Score: inf
ROOT
ATOM      1  C   UNL     1      -2.260  -8.842   0.121  1.00  0.00     0.117 C 
ENDROOT
BRANCH   1   2
ATOM      2  N   UNL     1      -2.477  -7.517   0.673  1.00  0.00    -0.354 N 
ATOM      3  C   UNL     1      -3.444  -6.585   0.407  1.00  0.00     0.242 C 
ATOM      4  O   UNL     1      -3.587  -5.675   1.229  1.00  0.00    -0.273 OA
ATOM      5  H   UNL     1      -1.820  -7.244   1.353  1.00  0.00     0.163 HD
BRANCH   3   6
ATOM      6  C   UNL     1      -4.450  -6.777  -0.750  1.00  0.00     0.174 C 
BRANCH   6   7
ATOM      7  N   UNL     1      -3.741  -7.178  -1.975  1.00  0.00    -0.342 N 
ATOM      8  C   UNL     1      -2.845  -6.517  -2.759  1.00  0.00     0.249 C 
ATOM      9  O   UNL     1      -2.513  -7.096  -3.803  1.00  0.00    -0.272 OA
ATOM     10  H   UNL     1      -3.953  -8.089  -2.284  1.00  0.00     0.164 HD
BRANCH   8  11
ATOM     11  C   UNL     1      -2.229  -5.132  -2.415  1.00  0.00     0.207 C 
ATOM     12  C   UNL     1      -1.078  -3.989  -0.700  1.00  0.00     0.174 C 
ATOM     13  C   UNL     1      -0.197  -3.995  -1.937  1.00  0.00     0.041 C 
ATOM     14  O   UNL     1      -2.339  -4.575  -1.113  1.00  0.00    -0.359 OA
ATOM     15  C   UNL     1      -0.731  -5.166  -2.719  1.00  0.00     0.045 C 
BRANCH  12  16
ATOM     16  C   UNL     1      -0.524  -4.801   0.491  1.00  0.00     0.291 C 
BRANCH  16  17
ATOM     17  N   UNL     1       0.821  -4.483   0.967  1.00  0.00    -0.355 N 
ATOM     18  H   UNL     1       1.057  -5.091   1.751  1.00  0.00     0.344 HD
ATOM     19  H   UNL     1       0.853  -3.510   1.270  1.00  0.00     0.344 HD
ATOM     20  H   UNL     1       1.492  -4.626   0.212  1.00  0.00     0.344 HD
ENDBRANCH  16  17
ENDBRANCH  12  16
ENDBRANCH   8  11
ENDBRANCH   6   7
BRANCH   6  21
ATOM     21  C   UNL     1      -5.467  -7.860  -0.255  1.00  0.00     0.021 C 
ATOM     22  C   UNL     1      -6.263  -7.414   0.989  1.00  0.00     0.006 C 
ATOM     23  C   UNL     1      -6.461  -8.411  -1.291  1.00  0.00     0.006 C 
ATOM     24  C   UNL     1      -6.956  -8.620   1.620  1.00  0.00     0.000 C 
ATOM     25  C   UNL     1      -7.197  -9.626  -0.702  1.00  0.00     0.000 C 
ATOM     26  C   UNL     1      -7.880  -9.320   0.631  1.00  0.00     0.000 C 
ENDBRANCH   6  21
ENDBRANCH   3   6
ENDBRANCH   1   2
BRANCH   1  27
ATOM     27  C   UNL     1      -1.000  -8.996  -0.711  1.00  0.00     0.042 C 
BRANCH  27  28
ATOM     28  C   UNL     1       0.313  -8.630  -0.045  1.00  0.00     0.118 C 
BRANCH  28  29
ATOM     29  N   UNL     1       0.413  -8.951   1.367  1.00  0.00    -0.352 N 
ATOM     30  C   UNL     1       1.550  -9.242   2.079  1.00  0.00     0.251 C 
ATOM     31  H   UNL     1      -0.432  -8.961   1.872  1.00  0.00     0.163 HD
ATOM     32  O   UNL     1       1.491  -9.531   3.269  1.00  0.00    -0.269 OA
BRANCH  30  33
ATOM     33  C   UNL     1       2.842  -9.261   1.368  1.00  0.00     0.039 A 
ATOM     34  C   UNL     1       3.614 -10.423   1.423  1.00  0.00     0.014 A 
ATOM     35  C   UNL     1       3.248  -8.168   0.598  1.00  0.00     0.014 A 
ATOM     36  C   UNL     1       4.774 -10.510   0.655  1.00  0.00     0.010 A 
ATOM     37  C   UNL     1       4.366  -8.284  -0.222  1.00  0.00     0.010 A 
ATOM     38  C   UNL     1       5.141  -9.454  -0.195  1.00  0.00    -0.014 A 
BRANCH  38  39
ATOM     39  C   UNL     1       6.353  -9.551  -1.044  1.00  0.00     0.031 A 
ATOM     40  C   UNL     1       7.520  -8.642  -0.785  1.00  0.00     0.074 A 
ATOM     41  C   UNL     1       6.384 -10.420  -2.072  1.00  0.00     0.049 A 
ATOM     42  N   UNL     1       8.650  -8.541  -1.438  1.00  0.00    -0.248 NA
ATOM     43  C   UNL     1       7.391  -7.703   0.341  1.00  0.00     0.031 C 
ATOM     44  C   UNL     1       5.295 -11.322  -2.454  1.00  0.00     0.029 A 
ATOM     45  N   UNL     1       7.370 -10.682  -2.990  1.00  0.00    -0.354 N 
ATOM     46  C   UNL     1       9.357  -7.524  -0.811  1.00  0.00     0.074 A 
ATOM     47  C   UNL     1       8.509  -7.001   0.238  1.00  0.00     0.031 C 
ATOM     48  C   UNL     1       5.682 -12.052  -3.513  1.00  0.00     0.029 A 
ATOM     49  C   UNL     1       7.032 -11.652  -3.901  1.00  0.00     0.049 A 
ATOM     50  H   UNL     1       8.239 -10.218  -2.994  1.00  0.00     0.167 HD
ATOM     51  C   UNL     1      10.610  -7.082  -1.069  1.00  0.00     0.037 A 
ATOM     52  C   UNL     1       7.732 -12.160  -4.932  1.00  0.00     0.037 A 
ATOM     53  C   UNL     1      11.463  -7.622  -2.093  1.00  0.00     0.049 A 
ATOM     54  C   UNL     1       9.126 -11.657  -5.193  1.00  0.00     0.074 A 
ATOM     55  C   UNL     1      12.769  -7.280  -2.396  1.00  0.00     0.029 A 
ATOM     56  N   UNL     1      11.094  -8.623  -2.979  1.00  0.00    -0.354 N 
ATOM     57  N   UNL     1       9.807 -10.740  -4.550  1.00  0.00    -0.248 NA
ATOM     58  C   UNL     1       9.850 -12.267  -6.317  1.00  0.00     0.031 C 
ATOM     59  C   UNL     1      13.179  -8.050  -3.490  1.00  0.00     0.029 A 
ATOM     60  C   UNL     1      12.142  -8.901  -3.840  1.00  0.00     0.049 A 
ATOM     61  H   UNL     1      10.217  -9.069  -2.994  1.00  0.00     0.167 HD
ATOM     62  C   UNL     1      11.049 -10.686  -5.169  1.00  0.00     0.074 A 
ATOM     63  C   UNL     1      11.030 -11.668  -6.233  1.00  0.00     0.031 C 
ATOM     64  C   UNL     1      12.111  -9.893  -4.883  1.00  0.00     0.037 A 
BRANCH  51  65
ATOM     65  C   UNL     1      11.133  -5.962  -0.219  1.00  0.00     0.057 A 
ATOM     66  C   UNL     1      11.471  -6.154   1.127  1.00  0.00     0.134 A 
ATOM     67  C   UNL     1      11.326  -4.684  -0.758  1.00  0.00     0.134 A 
ATOM     68  F   UNL     1      11.296  -7.351   1.707  1.00  0.00    -0.206 F 
ATOM     69  C   UNL     1      11.958  -5.109   1.914  1.00  0.00     0.040 A 
ATOM     70  C   UNL     1      11.838  -3.638   0.011  1.00  0.00     0.040 A 
ATOM     71  F   UNL     1      11.027  -4.433  -2.042  1.00  0.00    -0.206 F 
ATOM     72  C   UNL     1      12.149  -3.848   1.353  1.00  0.00     0.006 A 
ENDBRANCH  51  65
BRANCH  52  73
ATOM     73  C   UNL     1       7.144 -13.227  -5.779  1.00  0.00     0.057 A 
ATOM     74  C   UNL     1       7.622 -14.541  -5.720  1.00  0.00     0.134 A 
ATOM     75  C   UNL     1       6.103 -12.959  -6.675  1.00  0.00     0.134 A 
ATOM     76  F   UNL     1       8.631 -14.854  -4.894  1.00  0.00    -0.206 F 
ATOM     77  C   UNL     1       7.103 -15.546  -6.536  1.00  0.00     0.040 A 
ATOM     78  C   UNL     1       5.557 -13.960  -7.481  1.00  0.00     0.040 A 
ATOM     79  F   UNL     1       5.596 -11.721  -6.774  1.00  0.00    -0.206 F 
ATOM     80  C   UNL     1       6.064 -15.257  -7.418  1.00  0.00     0.006 A 
ENDBRANCH  52  73
BRANCH  64  81
ATOM     81  C   UNL     1      13.352 -10.085  -5.702  1.00  0.00     0.057 A 
ATOM     82  C   UNL     1      13.437  -9.647  -7.029  1.00  0.00     0.134 A 
ATOM     83  C   UNL     1      14.489 -10.679  -5.140  1.00  0.00     0.134 A 
ATOM     84  F   UNL     1      12.378  -9.081  -7.628  1.00  0.00    -0.206 F 
ATOM     85  C   UNL     1      14.605  -9.811  -7.775  1.00  0.00     0.040 A 
ATOM     86  C   UNL     1      15.670 -10.826  -5.868  1.00  0.00     0.040 A 
ATOM     87  F   UNL     1      14.475 -11.113  -3.870  1.00  0.00    -0.206 F 
ATOM     88  C   UNL     1      15.728 -10.396  -7.192  1.00  0.00     0.006 A 
ENDBRANCH  64  81
ENDBRANCH  38  39
ENDBRANCH  30  33
ENDBRANCH  28  29
ENDBRANCH  27  28
ENDBRANCH   1  27
TORSDOF 15
