REMARK SMILES COC(=O)c1ccc([C@H]2CC(=O)Nc3c(C(=O)NCCCNC(=O)c4ccc(-c5c6nc(c(-c7c(F)cccc7F)c7ccc([nH]7)c(-c7c(F)cccc7F)c7nc(c(-c8c(F)cccc8F)c8ccc5[nH]8)C=C7)C=C6)cc4)cn(-c4cc(OC)ccc4OC)c32)cc1
REMARK SMILES IDX 19 1 18 2 16 3 17 4 15 6 9 7 10 8 91 9 11 10 14 11 80 12
REMARK SMILES IDX 12 13 13 14 79 15 8 17 5 18 6 19 93 20 7 21 92 22 3 23 4 24
REMARK SMILES IDX 2 25 1 26 81 27 82 28 88 29 83 30 87 31 86 32 89 33 90 34
REMARK SMILES IDX 84 35 85 36 20 37 21 38 22 39 23 40 24 42 25 43 26 44 78 45
REMARK SMILES IDX 27 46 77 47 28 48 29 49 30 50 71 51 31 52 76 53 70 54 72 55
REMARK SMILES IDX 32 56 75 57 69 58 68 59 33 61 59 62 42 63 58 64 43 65 46 66
REMARK SMILES IDX 57 67 73 68 44 69 45 70 56 72 74 73 47 74 34 75 35 76 40 77
REMARK SMILES IDX 36 78 37 79 39 80 41 81 38 82 60 83 61 84 66 85 62 86 63 87
REMARK SMILES IDX 65 88 67 89 64 90 48 91 49 92 54 93 50 94 51 95 53 96 55 97
REMARK SMILES IDX 52 98
REMARK H PARENT 18 5 13 16 22 41 72 60 46 71
REMARK Flexibility Score: inf
ROOT
ATOM      1  C   UNL     1      -5.686   6.497  -5.700  1.00  0.00     0.118 C 
ENDROOT
BRANCH   1   2
ATOM      2  N   UNL     1      -4.860   6.270  -6.860  1.00  0.00    -0.352 N 
ATOM      3  C   UNL     1      -3.531   5.997  -7.021  1.00  0.00     0.254 C 
ATOM      4  O   UNL     1      -3.209   5.689  -8.175  1.00  0.00    -0.269 OA
ATOM      5  H   UNL     1      -5.355   6.321  -7.710  1.00  0.00     0.163 HD
BRANCH   3   6
ATOM      6  C   UNL     1      -2.500   6.112  -5.979  1.00  0.00     0.081 A 
ATOM      7  C   UNL     1      -0.503   7.326  -3.040  1.00  0.00     0.078 C 
ATOM      8  C   UNL     1      -1.604   8.133  -2.331  1.00  0.00     0.115 C 
ATOM      9  C   UNL     1      -1.032   6.717  -4.325  1.00  0.00     0.055 A 
ATOM     10  C   UNL     1      -2.997   7.611  -2.530  1.00  0.00     0.225 C 
ATOM     11  C   UNL     1      -2.371   6.627  -4.654  1.00  0.00     0.076 A 
ATOM     12  N   UNL     1      -0.316   6.093  -5.332  1.00  0.00    -0.314 N 
ATOM     13  O   UNL     1      -3.896   7.822  -1.716  1.00  0.00    -0.275 OA
ATOM     14  N   UNL     1      -3.289   7.001  -3.710  1.00  0.00    -0.324 N 
ATOM     15  C   UNL     1      -1.217   5.654  -6.269  1.00  0.00     0.107 A 
ATOM     16  H   UNL     1      -4.237   6.813  -3.901  1.00  0.00     0.170 HD
BRANCH   7  17
ATOM     17  C   UNL     1       0.703   8.261  -3.137  1.00  0.00    -0.038 A 
ATOM     18  C   UNL     1       2.922  10.004  -3.211  1.00  0.00     0.060 A 
ATOM     19  C   UNL     1       2.509   9.443  -1.999  1.00  0.00     0.016 A 
ATOM     20  C   UNL     1       2.208   9.720  -4.377  1.00  0.00     0.016 A 
ATOM     21  C   UNL     1       1.420   8.568  -1.966  1.00  0.00     0.005 A 
ATOM     22  C   UNL     1       1.083   8.897  -4.324  1.00  0.00     0.005 A 
BRANCH  18  23
ATOM     23  C   UNL     1       4.115  10.891  -3.216  1.00  0.00     0.337 C 
ATOM     24  O   UNL     1       4.893  10.984  -2.292  1.00  0.00    -0.246 OA
BRANCH  23  25
ATOM     25  O   UNL     1       4.170  11.577  -4.389  1.00  0.00    -0.465 OA
ATOM     26  C   UNL     1       5.272  12.475  -4.488  1.00  0.00     0.282 C 
ENDBRANCH  23  25
ENDBRANCH  18  23
ENDBRANCH   7  17
BRANCH  12  27
ATOM     27  C   UNL     1       1.075   5.872  -5.391  1.00  0.00     0.091 A 
ATOM     28  C   UNL     1       1.631   5.208  -4.278  1.00  0.00     0.077 A 
ATOM     29  C   UNL     1       1.902   6.351  -6.418  1.00  0.00     0.143 A 
ATOM     30  C   UNL     1       3.009   5.076  -4.127  1.00  0.00     0.121 A 
ATOM     31  C   UNL     1       3.288   6.182  -6.251  1.00  0.00     0.052 A 
ATOM     32  C   UNL     1       3.841   5.571  -5.120  1.00  0.00     0.050 A 
BRANCH  29  33
ATOM     33  O   UNL     1       1.658   7.061  -7.555  1.00  0.00    -0.495 OA
ATOM     34  C   UNL     1       0.383   7.513  -7.965  1.00  0.00     0.278 C 
ENDBRANCH  29  33
BRANCH  30  35
ATOM     35  O   UNL     1       3.406   4.454  -2.978  1.00  0.00    -0.497 OA
ATOM     36  C   UNL     1       4.769   4.630  -2.609  1.00  0.00     0.278 C 
ENDBRANCH  30  35
ENDBRANCH  12  27
ENDBRANCH   3   6
ENDBRANCH   1   2
BRANCH   1  37
ATOM     37  C   UNL     1      -5.697   7.969  -5.259  1.00  0.00     0.042 C 
BRANCH  37  38
ATOM     38  C   UNL     1      -6.942   8.702  -5.716  1.00  0.00     0.118 C 
BRANCH  38  39
ATOM     39  N   UNL     1      -8.133   8.201  -5.015  1.00  0.00    -0.352 N 
ATOM     40  C   UNL     1      -9.467   8.372  -5.319  1.00  0.00     0.251 C 
ATOM     41  H   UNL     1      -7.951   7.665  -4.209  1.00  0.00     0.163 HD
ATOM     42  O   UNL     1     -10.338   8.175  -4.483  1.00  0.00    -0.269 OA
BRANCH  40  43
ATOM     43  C   UNL     1      -9.817   8.813  -6.675  1.00  0.00     0.039 A 
ATOM     44  C   UNL     1     -10.779   9.798  -6.896  1.00  0.00     0.014 A 
ATOM     45  C   UNL     1      -9.070   8.288  -7.721  1.00  0.00     0.014 A 
ATOM     46  C   UNL     1     -10.907  10.318  -8.179  1.00  0.00     0.010 A 
ATOM     47  C   UNL     1      -9.030   8.965  -8.906  1.00  0.00     0.010 A 
ATOM     48  C   UNL     1     -10.000   9.919  -9.175  1.00  0.00    -0.014 A 
BRANCH  48  49
ATOM     49  C   UNL     1     -10.009  10.533 -10.495  1.00  0.00     0.031 A 
ATOM     50  C   UNL     1     -10.039  12.020 -10.499  1.00  0.00     0.074 A 
ATOM     51  C   UNL     1      -9.832   9.832 -11.636  1.00  0.00     0.049 A 
ATOM     52  N   UNL     1     -11.010  12.784 -10.873  1.00  0.00    -0.248 NA
ATOM     53  C   UNL     1      -8.908  12.743  -9.896  1.00  0.00     0.031 C 
ATOM     54  C   UNL     1      -9.483   8.417 -11.822  1.00  0.00     0.029 A 
ATOM     55  N   UNL     1      -9.861  10.294 -12.913  1.00  0.00    -0.354 N 
ATOM     56  C   UNL     1     -10.553  14.090 -10.731  1.00  0.00     0.074 A 
ATOM     57  C   UNL     1      -9.324  14.009  -9.984  1.00  0.00     0.031 C 
ATOM     58  C   UNL     1      -9.113   8.200 -13.102  1.00  0.00     0.029 A 
ATOM     59  C   UNL     1      -9.394   9.399 -13.864  1.00  0.00     0.049 A 
ATOM     60  H   UNL     1     -10.189  11.193 -13.145  1.00  0.00     0.167 HD
ATOM     61  C   UNL     1     -11.122  15.117 -11.421  1.00  0.00     0.037 A 
ATOM     62  C   UNL     1      -9.253   9.631 -15.190  1.00  0.00     0.037 A 
ATOM     63  C   UNL     1     -12.414  14.744 -11.942  1.00  0.00     0.049 A 
ATOM     64  C   UNL     1     -10.119  10.787 -15.524  1.00  0.00     0.074 A 
ATOM     65  C   UNL     1     -13.603  14.337 -11.367  1.00  0.00     0.029 A 
ATOM     66  N   UNL     1     -12.493  14.362 -13.259  1.00  0.00    -0.354 N 
ATOM     67  N   UNL     1     -11.422  10.750 -15.483  1.00  0.00    -0.248 NA
ATOM     68  C   UNL     1      -9.528  12.113 -15.445  1.00  0.00     0.031 C 
ATOM     69  C   UNL     1     -14.088  13.302 -12.221  1.00  0.00     0.029 A 
ATOM     70  C   UNL     1     -13.210  13.192 -13.301  1.00  0.00     0.049 A 
ATOM     71  H   UNL     1     -12.107  14.838 -14.029  1.00  0.00     0.167 HD
ATOM     72  C   UNL     1     -11.795  11.975 -14.947  1.00  0.00     0.074 A 
ATOM     73  C   UNL     1     -10.592  12.803 -15.024  1.00  0.00     0.031 C 
ATOM     74  C   UNL     1     -12.952  12.116 -14.234  1.00  0.00     0.037 A 
BRANCH  61  75
ATOM     75  C   UNL     1     -10.376  16.335 -11.896  1.00  0.00     0.057 A 
ATOM     76  C   UNL     1     -11.086  17.428 -12.424  1.00  0.00     0.134 A 
ATOM     77  C   UNL     1      -8.981  16.372 -12.104  1.00  0.00     0.134 A 
ATOM     78  F   UNL     1     -12.421  17.498 -12.316  1.00  0.00    -0.206 F 
ATOM     79  C   UNL     1     -10.460  18.452 -13.146  1.00  0.00     0.040 A 
ATOM     80  C   UNL     1      -8.340  17.414 -12.778  1.00  0.00     0.040 A 
ATOM     81  F   UNL     1      -8.180  15.357 -11.756  1.00  0.00    -0.206 F 
ATOM     82  C   UNL     1      -9.082  18.446 -13.328  1.00  0.00     0.006 A 
ENDBRANCH  61  75
BRANCH  62  83
ATOM     83  C   UNL     1      -8.209   9.121 -16.102  1.00  0.00     0.057 A 
ATOM     84  C   UNL     1      -8.370   9.185 -17.492  1.00  0.00     0.134 A 
ATOM     85  C   UNL     1      -6.914   8.826 -15.639  1.00  0.00     0.134 A 
ATOM     86  F   UNL     1      -9.561   9.495 -18.024  1.00  0.00    -0.206 F 
ATOM     87  C   UNL     1      -7.297   9.001 -18.373  1.00  0.00     0.040 A 
ATOM     88  C   UNL     1      -5.835   8.636 -16.508  1.00  0.00     0.040 A 
ATOM     89  F   UNL     1      -6.636   8.805 -14.328  1.00  0.00    -0.206 F 
ATOM     90  C   UNL     1      -6.021   8.740 -17.881  1.00  0.00     0.006 A 
ENDBRANCH  62  83
BRANCH  74  91
ATOM     91  C   UNL     1     -13.924  10.962 -14.230  1.00  0.00     0.057 A 
ATOM     92  C   UNL     1     -13.641   9.691 -13.705  1.00  0.00     0.134 A 
ATOM     93  C   UNL     1     -15.243  11.188 -14.637  1.00  0.00     0.134 A 
ATOM     94  F   UNL     1     -12.438   9.401 -13.198  1.00  0.00    -0.206 F 
ATOM     95  C   UNL     1     -14.610   8.684 -13.630  1.00  0.00     0.040 A 
ATOM     96  C   UNL     1     -16.230  10.203 -14.536  1.00  0.00     0.040 A 
ATOM     97  F   UNL     1     -15.610  12.395 -15.098  1.00  0.00    -0.206 F 
ATOM     98  C   UNL     1     -15.913   8.941 -14.040  1.00  0.00     0.006 A 
ENDBRANCH  74  91
ENDBRANCH  48  49
ENDBRANCH  40  43
ENDBRANCH  38  39
ENDBRANCH  37  38
ENDBRANCH   1  37
TORSDOF 16
