REMARK SMILES CC(C)Oc1ccc(-c2ccc(/C(=C\c3ccc(S(C)(=O)=O)cc3)C(=O)NCCCNC(=O)c3ccc(-c4c5nc(c(-c6c(F)cccc6F)c6ccc([nH]6)c(-c6c(F)cccc6F)c6nc(c(-c7c(F)cccc7F)c7ccc4[nH]7)C=C6)C=C5)cc3)cc2)cc1
REMARK SMILES IDX 28 1 27 2 25 3 26 4 13 6 14 7 12 8 9 9 10 10 89 11 11 12
REMARK SMILES IDX 88 13 8 14 5 15 6 16 91 17 7 18 90 19 4 20 2 21 1 22 3 23
REMARK SMILES IDX 15 24 16 25 24 26 17 27 23 28 18 29 19 30 20 31 21 32 22 33
REMARK SMILES IDX 29 34 30 35 31 36 32 37 33 39 34 40 35 41 87 42 36 43 86 44
REMARK SMILES IDX 37 45 38 46 39 47 80 48 40 49 85 50 79 51 81 52 41 53 84 54
REMARK SMILES IDX 78 55 77 56 42 58 68 59 51 60 67 61 52 62 55 63 66 64 82 65
REMARK SMILES IDX 53 66 54 67 65 69 83 70 56 71 43 72 44 73 49 74 45 75 46 76
REMARK SMILES IDX 48 77 50 78 47 79 69 80 70 81 75 82 71 83 72 84 74 85 76 86
REMARK SMILES IDX 73 87 57 88 58 89 63 90 59 91 60 92 62 93 64 94 61 95
REMARK H PARENT 27 5 31 38 81 57 55 68
REMARK Flexibility Score: inf
ROOT
ATOM      1  C   UNL     1      -9.293   4.433   8.029  1.00  0.00     0.118 C 
ENDROOT
BRANCH   1   2
ATOM      2  N   UNL     1      -8.534   4.907   6.889  1.00  0.00    -0.352 N 
ATOM      3  C   UNL     1      -7.477   4.434   6.176  1.00  0.00     0.251 C 
ATOM      4  O   UNL     1      -7.099   5.193   5.281  1.00  0.00    -0.269 OA
ATOM      5  H   UNL     1      -8.858   5.774   6.553  1.00  0.00     0.163 HD
BRANCH   3   6
ATOM      6  C   UNL     1      -6.836   3.069   6.398  1.00  0.00     0.047 C 
ATOM      7  C   UNL     1      -6.824   2.564   7.656  1.00  0.00     0.022 C 
BRANCH   6   8
ATOM      8  C   UNL     1      -6.086   2.403   5.271  1.00  0.00    -0.013 A 
ATOM      9  C   UNL     1      -4.302   1.153   3.383  1.00  0.00    -0.018 A 
ATOM     10  C   UNL     1      -5.094   0.403   4.261  1.00  0.00     0.009 A 
ATOM     11  C   UNL     1      -4.495   2.539   3.405  1.00  0.00     0.009 A 
ATOM     12  C   UNL     1      -6.006   1.012   5.136  1.00  0.00     0.009 A 
ATOM     13  C   UNL     1      -5.340   3.148   4.346  1.00  0.00     0.009 A 
BRANCH   9  14
ATOM     14  C   UNL     1      -3.315   0.513   2.483  1.00  0.00    -0.018 A 
ATOM     15  C   UNL     1      -1.437  -0.703   0.733  1.00  0.00     0.119 A 
ATOM     16  C   UNL     1      -2.592  -1.379   1.112  1.00  0.00     0.047 A 
ATOM     17  C   UNL     1      -1.217   0.582   1.212  1.00  0.00     0.047 A 
ATOM     18  C   UNL     1      -3.516  -0.781   1.975  1.00  0.00     0.012 A 
ATOM     19  C   UNL     1      -2.136   1.173   2.091  1.00  0.00     0.012 A 
BRANCH  15  20
ATOM     20  O   UNL     1      -0.667  -1.318  -0.207  1.00  0.00    -0.491 OA
BRANCH  20  21
ATOM     21  C   UNL     1       0.742  -1.471   0.016  1.00  0.00     0.167 C 
ATOM     22  C   UNL     1       1.545  -0.207  -0.270  1.00  0.00     0.052 C 
ATOM     23  C   UNL     1       1.093  -2.116   1.354  1.00  0.00     0.052 C 
ENDBRANCH  20  21
ENDBRANCH  15  20
ENDBRANCH   9  14
ENDBRANCH   6   8
BRANCH   7  24
ATOM     24  C   UNL     1      -6.389   1.244   8.136  1.00  0.00    -0.025 A 
ATOM     25  C   UNL     1      -7.378   0.294   8.446  1.00  0.00     0.009 A 
ATOM     26  C   UNL     1      -5.039   0.890   8.214  1.00  0.00     0.009 A 
ATOM     27  C   UNL     1      -7.024  -1.014   8.776  1.00  0.00     0.021 A 
ATOM     28  C   UNL     1      -4.679  -0.420   8.541  1.00  0.00     0.021 A 
ATOM     29  C   UNL     1      -5.673  -1.365   8.815  1.00  0.00     0.067 A 
BRANCH  29  30
ATOM     30  S   UNL     1      -5.231  -3.060   9.117  1.00  0.00     0.175 S 
ATOM     31  C   UNL     1      -5.447  -3.242  10.867  1.00  0.00     0.163 C 
ATOM     32  O   UNL     1      -6.218  -3.884   8.448  1.00  0.00    -0.224 OA
ATOM     33  O   UNL     1      -3.817  -3.207   8.825  1.00  0.00    -0.224 OA
ENDBRANCH  29  30
ENDBRANCH   7  24
ENDBRANCH   3   6
ENDBRANCH   1   2
BRANCH   1  34
ATOM     34  C   UNL     1      -8.792   5.084   9.321  1.00  0.00     0.042 C 
BRANCH  34  35
ATOM     35  C   UNL     1      -9.109   6.573   9.413  1.00  0.00     0.118 C 
BRANCH  35  36
ATOM     36  N   UNL     1     -10.541   6.813   9.484  1.00  0.00    -0.352 N 
ATOM     37  C   UNL     1     -11.295   7.359  10.488  1.00  0.00     0.251 C 
ATOM     38  H   UNL     1     -11.048   6.540   8.685  1.00  0.00     0.163 HD
ATOM     39  O   UNL     1     -12.513   7.201  10.477  1.00  0.00    -0.269 OA
BRANCH  37  40
ATOM     40  C   UNL     1     -10.665   8.144  11.571  1.00  0.00     0.039 A 
ATOM     41  C   UNL     1     -11.228   8.092  12.849  1.00  0.00     0.014 A 
ATOM     42  C   UNL     1      -9.587   8.998  11.319  1.00  0.00     0.014 A 
ATOM     43  C   UNL     1     -10.704   8.885  13.871  1.00  0.00     0.010 A 
ATOM     44  C   UNL     1      -9.008   9.719  12.360  1.00  0.00     0.010 A 
ATOM     45  C   UNL     1      -9.582   9.698  13.638  1.00  0.00    -0.014 A 
BRANCH  45  46
ATOM     46  C   UNL     1      -9.048  10.580  14.706  1.00  0.00     0.031 A 
ATOM     47  C   UNL     1      -9.084  12.077  14.532  1.00  0.00     0.074 A 
ATOM     48  C   UNL     1      -8.523  10.038  15.821  1.00  0.00     0.049 A 
ATOM     49  N   UNL     1      -8.647  13.014  15.336  1.00  0.00    -0.248 NA
ATOM     50  C   UNL     1      -9.664  12.589  13.279  1.00  0.00     0.031 C 
ATOM     51  C   UNL     1      -8.394   8.603  16.086  1.00  0.00     0.029 A 
ATOM     52  N   UNL     1      -7.999  10.630  16.941  1.00  0.00    -0.354 N 
ATOM     53  C   UNL     1      -8.903  14.217  14.688  1.00  0.00     0.074 A 
ATOM     54  C   UNL     1      -9.459  13.892  13.394  1.00  0.00     0.031 C 
ATOM     55  C   UNL     1      -7.854   8.428  17.303  1.00  0.00     0.029 A 
ATOM     56  C   UNL     1      -7.567   9.733  17.888  1.00  0.00     0.049 A 
ATOM     57  H   UNL     1      -7.939  11.606  17.056  1.00  0.00     0.167 HD
ATOM     58  C   UNL     1      -8.729  15.481  15.144  1.00  0.00     0.037 A 
ATOM     59  C   UNL     1      -7.002   9.944  19.091  1.00  0.00     0.037 A 
ATOM     60  C   UNL     1      -8.188  15.803  16.438  1.00  0.00     0.049 A 
ATOM     61  C   UNL     1      -6.804  11.360  19.564  1.00  0.00     0.074 A 
ATOM     62  C   UNL     1      -7.974  17.049  17.000  1.00  0.00     0.029 A 
ATOM     63  N   UNL     1      -7.782  14.866  17.376  1.00  0.00    -0.354 N 
ATOM     64  N   UNL     1      -7.094  12.486  18.958  1.00  0.00    -0.248 NA
ATOM     65  C   UNL     1      -6.216  11.532  20.899  1.00  0.00     0.031 C 
ATOM     66  C   UNL     1      -7.408  16.867  18.266  1.00  0.00     0.029 A 
ATOM     67  C   UNL     1      -7.320  15.506  18.514  1.00  0.00     0.049 A 
ATOM     68  H   UNL     1      -7.817  13.890  17.252  1.00  0.00     0.167 HD
ATOM     69  C   UNL     1      -6.765  13.496  19.854  1.00  0.00     0.074 A 
ATOM     70  C   UNL     1      -6.275  12.846  21.051  1.00  0.00     0.031 C 
ATOM     71  C   UNL     1      -6.857  14.840  19.703  1.00  0.00     0.037 A 
BRANCH  58  72
ATOM     72  C   UNL     1      -9.154  16.607  14.244  1.00  0.00     0.057 A 
ATOM     73  C   UNL     1     -10.506  16.853  13.968  1.00  0.00     0.134 A 
ATOM     74  C   UNL     1      -8.213  17.478  13.682  1.00  0.00     0.134 A 
ATOM     75  F   UNL     1     -11.459  16.048  14.462  1.00  0.00    -0.206 F 
ATOM     76  C   UNL     1     -10.905  17.910  13.147  1.00  0.00     0.040 A 
ATOM     77  C   UNL     1      -8.602  18.556  12.884  1.00  0.00     0.040 A 
ATOM     78  F   UNL     1      -6.902  17.304  13.907  1.00  0.00    -0.206 F 
ATOM     79  C   UNL     1      -9.951  18.771  12.610  1.00  0.00     0.006 A 
ENDBRANCH  58  72
BRANCH  59  80
ATOM     80  C   UNL     1      -6.596   8.800  19.949  1.00  0.00     0.057 A 
ATOM     81  C   UNL     1      -7.226   8.550  21.174  1.00  0.00     0.134 A 
ATOM     82  C   UNL     1      -5.532   7.963  19.592  1.00  0.00     0.134 A 
ATOM     83  F   UNL     1      -8.244   9.324  21.581  1.00  0.00    -0.206 F 
ATOM     84  C   UNL     1      -6.783   7.544  22.035  1.00  0.00     0.040 A 
ATOM     85  C   UNL     1      -5.100   6.932  20.427  1.00  0.00     0.040 A 
ATOM     86  F   UNL     1      -4.894   8.138  18.425  1.00  0.00    -0.206 F 
ATOM     87  C   UNL     1      -5.716   6.731  21.660  1.00  0.00     0.006 A 
ENDBRANCH  59  80
BRANCH  71  88
ATOM     88  C   UNL     1      -6.483  15.686  20.887  1.00  0.00     0.057 A 
ATOM     89  C   UNL     1      -5.162  15.793  21.342  1.00  0.00     0.134 A 
ATOM     90  C   UNL     1      -7.465  16.404  21.581  1.00  0.00     0.134 A 
ATOM     91  F   UNL     1      -4.175  15.122  20.729  1.00  0.00    -0.206 F 
ATOM     92  C   UNL     1      -4.840  16.544  22.474  1.00  0.00     0.040 A 
ATOM     93  C   UNL     1      -7.150  17.187  22.692  1.00  0.00     0.040 A 
ATOM     94  F   UNL     1      -8.748  16.359  21.191  1.00  0.00    -0.206 F 
ATOM     95  C   UNL     1      -5.835  17.247  23.150  1.00  0.00     0.006 A 
ENDBRANCH  71  88
ENDBRANCH  45  46
ENDBRANCH  37  40
ENDBRANCH  35  36
ENDBRANCH  34  35
ENDBRANCH   1  34
TORSDOF 16
