REMARK SMILES CO[C@@H]1C[C@H](C(=O)NCCCNC(=O)c2ccc(-c3c4nc(c(-c5c(F)cccc5F)c5ccc([nH]5)c(-c5c(F)cccc5F)c5nc(c(-c6c(F)cccc6F)c6ccc3[nH]6)C=C5)C=C4)cc2)N(C(=O)[C@H](CC(C)C)NC(N)=O)C1
REMARK SMILES IDX 9 1 8 2 6 3 7 4 5 6 3 7 4 8 81 9 69 10 2 11 1 12 70 13 71 14
REMARK SMILES IDX 72 15 77 16 78 17 79 19 80 20 73 23 74 24 75 25 76 26 10 27
REMARK SMILES IDX 11 28 12 29 13 30 14 32 15 33 16 34 68 35 17 36 67 37 18 38
REMARK SMILES IDX 19 39 20 40 61 41 21 42 66 43 60 44 62 45 22 46 65 47 59 48
REMARK SMILES IDX 58 49 23 51 49 52 32 53 48 54 33 55 36 56 47 57 63 58 34 59
REMARK SMILES IDX 35 60 46 62 64 63 37 64 24 65 25 66 30 67 26 68 27 69 29 70
REMARK SMILES IDX 31 71 28 72 50 73 51 74 56 75 52 76 53 77 55 78 57 79 54 80
REMARK SMILES IDX 38 81 39 82 44 83 40 84 41 85 43 86 45 87 42 88
REMARK H PARENT 8 5 77 18 79 21 79 22 12 31 62 50 36 61
REMARK Flexibility Score: inf
ROOT
ATOM      1  C   UNL     1       3.056   9.728  -4.965  1.00  0.00     0.117 C 
ENDROOT
BRANCH   1   2
ATOM      2  N   UNL     1       3.598  10.017  -3.655  1.00  0.00    -0.354 N 
ATOM      3  C   UNL     1       3.027   9.990  -2.423  1.00  0.00     0.242 C 
ATOM      4  O   UNL     1       3.628  10.624  -1.547  1.00  0.00    -0.273 OA
ATOM      5  H   UNL     1       4.546  10.280  -3.657  1.00  0.00     0.163 HD
BRANCH   3   6
ATOM      6  C   UNL     1       1.656   9.342  -2.091  1.00  0.00     0.177 C 
ATOM      7  C   UNL     1      -0.263   9.372  -3.638  1.00  0.00     0.139 C 
ATOM      8  C   UNL     1       0.457  10.175  -2.547  1.00  0.00     0.069 C 
ATOM      9  C   UNL     1       0.334   7.964  -3.573  1.00  0.00     0.152 C 
ATOM     10  N   UNL     1       1.422   8.002  -2.616  1.00  0.00    -0.326 N 
BRANCH   7  11
ATOM     11  O   UNL     1      -0.047  10.028  -4.884  1.00  0.00    -0.380 OA
ATOM     12  C   UNL     1      -0.807   9.500  -5.964  1.00  0.00     0.195 C 
ENDBRANCH   7  11
BRANCH  10  13
ATOM     13  C   UNL     1       2.048   6.823  -2.258  1.00  0.00     0.246 C 
ATOM     14  O   UNL     1       2.050   5.888  -3.063  1.00  0.00    -0.272 OA
BRANCH  13  15
ATOM     15  C   UNL     1       2.803   6.737  -0.903  1.00  0.00     0.173 C 
BRANCH  15  16
ATOM     16  N   UNL     1       1.981   7.199   0.217  1.00  0.00    -0.327 N 
ATOM     17  C   UNL     1       2.464   8.070   1.147  1.00  0.00     0.312 C 
ATOM     18  H   UNL     1       1.056   6.873   0.300  1.00  0.00     0.166 HD
ATOM     19  N   UNL     1       1.521   8.511   2.011  1.00  0.00    -0.352 N 
ATOM     20  O   UNL     1       3.609   8.483   1.196  1.00  0.00    -0.249 OA
ATOM     21  H   UNL     1       0.601   8.165   1.954  1.00  0.00     0.161 HD
ATOM     22  H   UNL     1       1.754   9.178   2.696  1.00  0.00     0.161 HD
ENDBRANCH  15  16
BRANCH  15  23
ATOM     23  C   UNL     1       3.425   5.354  -0.599  1.00  0.00     0.038 C 
BRANCH  23  24
ATOM     24  C   UNL     1       2.500   4.175  -0.198  1.00  0.00    -0.015 C 
ATOM     25  C   UNL     1       1.565   3.694  -1.307  1.00  0.00     0.007 C 
ATOM     26  C   UNL     1       3.371   2.986   0.239  1.00  0.00     0.007 C 
ENDBRANCH  23  24
ENDBRANCH  15  23
ENDBRANCH  13  15
ENDBRANCH  10  13
ENDBRANCH   3   6
ENDBRANCH   1   2
BRANCH   1  27
ATOM     27  C   UNL     1       2.604  11.008  -5.666  1.00  0.00     0.042 C 
BRANCH  27  28
ATOM     28  C   UNL     1       3.686  11.642  -6.525  1.00  0.00     0.118 C 
BRANCH  28  29
ATOM     29  N   UNL     1       3.994  10.824  -7.695  1.00  0.00    -0.352 N 
ATOM     30  C   UNL     1       3.655  10.948  -9.020  1.00  0.00     0.251 C 
ATOM     31  H   UNL     1       4.548  10.035  -7.497  1.00  0.00     0.163 HD
ATOM     32  O   UNL     1       3.807   9.978  -9.760  1.00  0.00    -0.269 OA
BRANCH  30  33
ATOM     33  C   UNL     1       3.112  12.208  -9.580  1.00  0.00     0.039 A 
ATOM     34  C   UNL     1       2.267  12.145 -10.695  1.00  0.00     0.014 A 
ATOM     35  C   UNL     1       3.475  13.455  -9.074  1.00  0.00     0.014 A 
ATOM     36  C   UNL     1       1.753  13.318 -11.256  1.00  0.00     0.010 A 
ATOM     37  C   UNL     1       2.864  14.610  -9.547  1.00  0.00     0.010 A 
ATOM     38  C   UNL     1       2.016  14.562 -10.662  1.00  0.00    -0.014 A 
BRANCH  38  39
ATOM     39  C   UNL     1       1.461  15.829 -11.204  1.00  0.00     0.031 A 
ATOM     40  C   UNL     1       2.391  16.933 -11.637  1.00  0.00     0.074 A 
ATOM     41  C   UNL     1       0.127  16.018 -11.234  1.00  0.00     0.049 A 
ATOM     42  N   UNL     1       2.109  18.151 -12.025  1.00  0.00    -0.248 NA
ATOM     43  C   UNL     1       3.834  16.643 -11.591  1.00  0.00     0.031 C 
ATOM     44  C   UNL     1      -0.878  15.047 -10.798  1.00  0.00     0.029 A 
ATOM     45  N   UNL     1      -0.613  17.101 -11.639  1.00  0.00    -0.354 N 
ATOM     46  C   UNL     1       3.333  18.773 -12.239  1.00  0.00     0.074 A 
ATOM     47  C   UNL     1       4.360  17.824 -11.874  1.00  0.00     0.031 C 
ATOM     48  C   UNL     1      -2.102  15.566 -10.985  1.00  0.00     0.029 A 
ATOM     49  C   UNL     1      -1.969  16.922 -11.507  1.00  0.00     0.049 A 
ATOM     50  H   UNL     1      -0.211  17.928 -11.990  1.00  0.00     0.167 HD
ATOM     51  C   UNL     1       3.583  20.014 -12.723  1.00  0.00     0.037 A 
ATOM     52  C   UNL     1      -2.990  17.761 -11.765  1.00  0.00     0.037 A 
ATOM     53  C   UNL     1       2.557  20.942 -13.117  1.00  0.00     0.049 A 
ATOM     54  C   UNL     1      -2.688  19.134 -12.299  1.00  0.00     0.074 A 
ATOM     55  C   UNL     1       2.700  22.198 -13.678  1.00  0.00     0.029 A 
ATOM     56  N   UNL     1       1.195  20.711 -12.992  1.00  0.00    -0.354 N 
ATOM     57  N   UNL     1      -1.526  19.686 -12.556  1.00  0.00    -0.248 NA
ATOM     58  C   UNL     1      -3.840  20.001 -12.584  1.00  0.00     0.031 C 
ATOM     59  C   UNL     1       1.426  22.749 -13.844  1.00  0.00     0.029 A 
ATOM     60  C   UNL     1       0.487  21.812 -13.445  1.00  0.00     0.049 A 
ATOM     61  H   UNL     1       0.791  19.887 -12.635  1.00  0.00     0.167 HD
ATOM     62  C   UNL     1      -1.808  20.947 -13.065  1.00  0.00     0.074 A 
ATOM     63  C   UNL     1      -3.250  21.073 -13.092  1.00  0.00     0.031 C 
ATOM     64  C   UNL     1      -0.951  21.914 -13.475  1.00  0.00     0.037 A 
BRANCH  51  65
ATOM     65  C   UNL     1       5.020  20.433 -12.857  1.00  0.00     0.057 A 
ATOM     66  C   UNL     1       5.883  19.841 -13.790  1.00  0.00     0.134 A 
ATOM     67  C   UNL     1       5.542  21.462 -12.062  1.00  0.00     0.134 A 
ATOM     68  F   UNL     1       5.453  18.842 -14.576  1.00  0.00    -0.206 F 
ATOM     69  C   UNL     1       7.218  20.233 -13.905  1.00  0.00     0.040 A 
ATOM     70  C   UNL     1       6.867  21.885 -12.190  1.00  0.00     0.040 A 
ATOM     71  F   UNL     1       4.773  22.079 -11.152  1.00  0.00    -0.206 F 
ATOM     72  C   UNL     1       7.711  21.264 -13.108  1.00  0.00     0.006 A 
ENDBRANCH  51  65
BRANCH  52  73
ATOM     73  C   UNL     1      -4.392  17.321 -11.546  1.00  0.00     0.057 A 
ATOM     74  C   UNL     1      -5.261  17.119 -12.625  1.00  0.00     0.134 A 
ATOM     75  C   UNL     1      -4.901  17.101 -10.261  1.00  0.00     0.134 A 
ATOM     76  F   UNL     1      -4.839  17.328 -13.880  1.00  0.00    -0.206 F 
ATOM     77  C   UNL     1      -6.591  16.740 -12.433  1.00  0.00     0.040 A 
ATOM     78  C   UNL     1      -6.220  16.694 -10.055  1.00  0.00     0.040 A 
ATOM     79  F   UNL     1      -4.118  17.266  -9.184  1.00  0.00    -0.206 F 
ATOM     80  C   UNL     1      -7.072  16.522 -11.144  1.00  0.00     0.006 A 
ENDBRANCH  52  73
BRANCH  64  81
ATOM     81  C   UNL     1      -1.548  23.173 -14.034  1.00  0.00     0.057 A 
ATOM     82  C   UNL     1      -2.210  24.105 -13.225  1.00  0.00     0.134 A 
ATOM     83  C   UNL     1      -1.421  23.473 -15.397  1.00  0.00     0.134 A 
ATOM     84  F   UNL     1      -2.376  23.873 -11.915  1.00  0.00    -0.206 F 
ATOM     85  C   UNL     1      -2.747  25.279 -13.757  1.00  0.00     0.040 A 
ATOM     86  C   UNL     1      -1.925  24.658 -15.934  1.00  0.00     0.040 A 
ATOM     87  F   UNL     1      -0.789  22.628 -16.225  1.00  0.00    -0.206 F 
ATOM     88  C   UNL     1      -2.598  25.561 -15.114  1.00  0.00     0.006 A 
ENDBRANCH  64  81
ENDBRANCH  38  39
ENDBRANCH  30  33
ENDBRANCH  28  29
ENDBRANCH  27  28
ENDBRANCH   1  27
TORSDOF 16
