REMARK SMILES COCCNC(=O)Cn1ccc(C(=O)NCCCNC(=O)c2ccc(-c3c4nc(c(-c5c(F)cccc5F)c5ccc([nH]5)c(-c5c(F)cccc5F)c5nc(c(-c6c(F)cccc6F)c6ccc3[nH]6)C=C5)C=C4)cc2)c1
REMARK SMILES IDX 13 1 14 2 15 3 12 5 9 6 10 7 76 8 11 9 8 10 6 11 5 12 7 14
REMARK SMILES IDX 4 15 3 16 2 17 1 18 16 19 17 20 18 21 19 22 20 23 21 25
REMARK SMILES IDX 22 26 23 27 75 28 24 29 74 30 25 31 26 32 27 33 68 34 28 35
REMARK SMILES IDX 73 36 67 37 69 38 29 39 72 40 66 41 65 42 30 44 56 45 39 46
REMARK SMILES IDX 55 47 40 48 43 49 54 50 70 51 41 52 42 53 53 55 71 56 44 57
REMARK SMILES IDX 31 58 32 59 37 60 33 61 34 62 36 63 38 64 35 65 57 66 58 67
REMARK SMILES IDX 63 68 59 69 60 70 62 71 64 72 61 73 45 74 46 75 51 76 47 77
REMARK SMILES IDX 48 78 50 79 52 80 49 81
REMARK H PARENT 15 4 5 13 19 24 69 43 43 54
REMARK Flexibility Score: inf
ROOT
ATOM      1  C   UNL     1       5.859   2.227   3.791  1.00  0.00     0.252 C 
ATOM      2  O   UNL     1       6.052   3.421   3.596  1.00  0.00    -0.269 OA
ATOM      3  N   UNL     1       6.949   1.394   3.713  1.00  0.00    -0.352 N 
ATOM      4  H   UNL     1       7.783   1.844   3.447  1.00  0.00     0.163 HD
ENDROOT
BRANCH   1   5
ATOM      5  C   UNL     1       4.534   1.719   4.146  1.00  0.00     0.057 A 
ATOM      6  N   UNL     1       2.736   0.445   4.569  1.00  0.00    -0.344 N 
ATOM      7  C   UNL     1       2.410   1.710   4.972  1.00  0.00     0.087 A 
ATOM      8  C   UNL     1       3.994   0.450   4.021  1.00  0.00     0.100 A 
ATOM      9  C   UNL     1       3.484   2.524   4.693  1.00  0.00     0.033 A 
BRANCH   6  10
ATOM     10  C   UNL     1       1.908  -0.735   4.755  1.00  0.00     0.221 C 
BRANCH  10  11
ATOM     11  C   UNL     1       1.601  -1.460   3.463  1.00  0.00     0.239 C 
ATOM     12  N   UNL     1       0.718  -0.928   2.570  1.00  0.00    -0.352 N 
ATOM     13  H   UNL     1       0.461  -1.518   1.825  1.00  0.00     0.163 HD
ATOM     14  O   UNL     1       2.105  -2.556   3.208  1.00  0.00    -0.273 OA
BRANCH  12  15
ATOM     15  C   UNL     1       0.102   0.394   2.565  1.00  0.00     0.144 C 
BRANCH  15  16
ATOM     16  C   UNL     1       0.873   1.407   1.706  1.00  0.00     0.181 C 
BRANCH  16  17
ATOM     17  O   UNL     1       0.491   1.366   0.327  1.00  0.00    -0.383 OA
ATOM     18  C   UNL     1       1.025   0.262  -0.388  1.00  0.00     0.194 C 
ENDBRANCH  16  17
ENDBRANCH  15  16
ENDBRANCH  12  15
ENDBRANCH  10  11
ENDBRANCH   6  10
ENDBRANCH   1   5
BRANCH   3  19
ATOM     19  C   UNL     1       7.090  -0.027   3.954  1.00  0.00     0.118 C 
BRANCH  19  20
ATOM     20  C   UNL     1       7.112  -0.810   2.638  1.00  0.00     0.042 C 
BRANCH  20  21
ATOM     21  C   UNL     1       8.497  -0.781   1.991  1.00  0.00     0.118 C 
BRANCH  21  22
ATOM     22  N   UNL     1       9.437  -1.572   2.772  1.00  0.00    -0.352 N 
ATOM     23  C   UNL     1      10.759  -1.859   2.571  1.00  0.00     0.251 C 
ATOM     24  H   UNL     1       9.054  -1.971   3.587  1.00  0.00     0.163 HD
ATOM     25  O   UNL     1      11.260  -2.787   3.203  1.00  0.00    -0.269 OA
BRANCH  23  26
ATOM     26  C   UNL     1      11.591  -1.107   1.613  1.00  0.00     0.039 A 
ATOM     27  C   UNL     1      12.571  -1.826   0.915  1.00  0.00     0.014 A 
ATOM     28  C   UNL     1      11.498   0.281   1.462  1.00  0.00     0.014 A 
ATOM     29  C   UNL     1      13.413  -1.170   0.027  1.00  0.00     0.010 A 
ATOM     30  C   UNL     1      12.322   0.940   0.554  1.00  0.00     0.010 A 
ATOM     31  C   UNL     1      13.266   0.209  -0.174  1.00  0.00    -0.014 A 
BRANCH  31  32
ATOM     32  C   UNL     1      13.986   0.820  -1.313  1.00  0.00     0.031 A 
ATOM     33  C   UNL     1      13.286   0.482  -2.650  1.00  0.00     0.074 A 
ATOM     34  C   UNL     1      15.132   1.510  -1.021  1.00  0.00     0.049 A 
ATOM     35  N   UNL     1      13.776   0.364  -3.845  1.00  0.00    -0.248 NA
ATOM     36  C   UNL     1      11.828   0.159  -2.646  1.00  0.00     0.031 C 
ATOM     37  C   UNL     1      15.617   1.790   0.348  1.00  0.00     0.029 A 
ATOM     38  N   UNL     1      16.120   2.109  -1.781  1.00  0.00    -0.354 N 
ATOM     39  C   UNL     1      12.697   0.158  -4.739  1.00  0.00     0.074 A 
ATOM     40  C   UNL     1      11.542  -0.075  -3.930  1.00  0.00     0.031 C 
ATOM     41  C   UNL     1      16.818   2.407   0.323  1.00  0.00     0.029 A 
ATOM     42  C   UNL     1      17.241   2.601  -1.050  1.00  0.00     0.049 A 
ATOM     43  H   UNL     1      16.054   2.191  -2.760  1.00  0.00     0.167 HD
ATOM     44  C   UNL     1      12.807   0.326  -6.091  1.00  0.00     0.037 A 
ATOM     45  C   UNL     1      18.439   3.082  -1.517  1.00  0.00     0.037 A 
ATOM     46  C   UNL     1      14.145   0.678  -6.418  1.00  0.00     0.049 A 
ATOM     47  C   UNL     1      18.271   3.170  -2.971  1.00  0.00     0.074 A 
ATOM     48  C   UNL     1      15.302  -0.052  -6.431  1.00  0.00     0.029 A 
ATOM     49  N   UNL     1      14.446   2.018  -6.407  1.00  0.00    -0.354 N 
ATOM     50  N   UNL     1      17.564   4.075  -3.577  1.00  0.00    -0.248 NA
ATOM     51  C   UNL     1      18.857   2.120  -3.813  1.00  0.00     0.031 C 
ATOM     52  C   UNL     1      16.251   0.855  -5.925  1.00  0.00     0.029 A 
ATOM     53  C   UNL     1      15.704   2.143  -5.878  1.00  0.00     0.049 A 
ATOM     54  H   UNL     1      13.867   2.750  -6.720  1.00  0.00     0.167 HD
ATOM     55  C   UNL     1      17.339   3.488  -4.797  1.00  0.00     0.074 A 
ATOM     56  C   UNL     1      18.397   2.521  -4.995  1.00  0.00     0.031 C 
ATOM     57  C   UNL     1      16.068   3.398  -5.266  1.00  0.00     0.037 A 
BRANCH  44  58
ATOM     58  C   UNL     1      11.799   0.448  -7.200  1.00  0.00     0.057 A 
ATOM     59  C   UNL     1      12.245   0.265  -8.533  1.00  0.00     0.134 A 
ATOM     60  C   UNL     1      10.562   1.080  -7.055  1.00  0.00     0.134 A 
ATOM     61  F   UNL     1      13.395  -0.378  -8.795  1.00  0.00    -0.206 F 
ATOM     62  C   UNL     1      11.579   0.807  -9.633  1.00  0.00     0.040 A 
ATOM     63  C   UNL     1       9.861   1.588  -8.159  1.00  0.00     0.040 A 
ATOM     64  F   UNL     1      10.037   1.313  -5.845  1.00  0.00    -0.206 F 
ATOM     65  C   UNL     1      10.390   1.494  -9.445  1.00  0.00     0.006 A 
ENDBRANCH  44  58
BRANCH  45  66
ATOM     66  C   UNL     1      19.816   3.445  -0.992  1.00  0.00     0.057 A 
ATOM     67  C   UNL     1      20.186   3.580   0.348  1.00  0.00     0.134 A 
ATOM     68  C   UNL     1      20.906   3.615  -1.897  1.00  0.00     0.134 A 
ATOM     69  F   UNL     1      19.274   3.585   1.325  1.00  0.00    -0.206 F 
ATOM     70  C   UNL     1      21.531   3.742   0.752  1.00  0.00     0.040 A 
ATOM     71  C   UNL     1      22.246   3.728  -1.512  1.00  0.00     0.040 A 
ATOM     72  F   UNL     1      20.730   3.680  -3.223  1.00  0.00    -0.206 F 
ATOM     73  C   UNL     1      22.569   3.772  -0.174  1.00  0.00     0.006 A 
ENDBRANCH  45  66
BRANCH  57  74
ATOM     74  C   UNL     1      15.124   4.458  -4.726  1.00  0.00     0.057 A 
ATOM     75  C   UNL     1      15.393   5.814  -4.956  1.00  0.00     0.134 A 
ATOM     76  C   UNL     1      14.032   4.197  -3.885  1.00  0.00     0.134 A 
ATOM     77  F   UNL     1      16.406   6.172  -5.760  1.00  0.00    -0.206 F 
ATOM     78  C   UNL     1      14.642   6.841  -4.366  1.00  0.00     0.040 A 
ATOM     79  C   UNL     1      13.264   5.210  -3.292  1.00  0.00     0.040 A 
ATOM     80  F   UNL     1      13.670   2.949  -3.600  1.00  0.00    -0.206 F 
ATOM     81  C   UNL     1      13.575   6.541  -3.525  1.00  0.00     0.006 A 
ENDBRANCH  57  74
ENDBRANCH  31  32
ENDBRANCH  23  26
ENDBRANCH  21  22
ENDBRANCH  20  21
ENDBRANCH  19  20
ENDBRANCH   3  19
TORSDOF 15
