REMARK SMILES O=C(NCCCNC(=O)[C@@H]1CCCN(c2ccc3cc(S(=O)(=O)N4CCCCC4)ccc3n2)C1)c1ccc(-c2c3nc(c(-c4c(F)cccc4F)c4ccc([nH]4)c(-c4c(F)cccc4F)c4nc(c(-c5c(F)cccc5F)c5ccc2[nH]5)C=C4)C=C3)cc1
REMARK SMILES IDX 5 1 4 2 3 3 1 4 2 5 35 7 36 8 88 9 37 10 87 11 38 12 39 13
REMARK SMILES IDX 40 14 81 15 41 16 86 17 80 18 82 19 42 20 85 21 79 22 78 23
REMARK SMILES IDX 43 25 69 26 52 27 68 28 53 29 56 30 67 31 83 32 54 33 55 34
REMARK SMILES IDX 66 36 84 37 57 38 44 39 45 40 50 41 46 42 47 43 49 44 51 45
REMARK SMILES IDX 48 46 70 47 71 48 76 49 72 50 73 51 75 52 77 53 74 54 58 55
REMARK SMILES IDX 59 56 64 57 60 58 61 59 63 60 65 61 62 62 6 63 7 64 8 65
REMARK SMILES IDX 9 67 10 68 11 69 34 70 12 71 14 72 13 73 15 74 16 75 33 76
REMARK SMILES IDX 17 77 32 78 18 79 31 80 19 81 30 82 20 83 21 84 22 85 23 86
REMARK SMILES IDX 24 87 25 88 29 89 26 90 28 91 27 92
REMARK H PARENT 3 6 82 24 56 35 7 66
REMARK Flexibility Score: inf
ROOT
ATOM      1  C   UNL     1       5.562  -1.335   1.197  1.00  0.00     0.042 C 
ENDROOT
BRANCH   1   2
ATOM      2  C   UNL     1       4.925  -1.111  -0.167  1.00  0.00     0.118 C 
BRANCH   2   3
ATOM      3  N   UNL     1       3.469  -1.072  -0.154  1.00  0.00    -0.352 N 
ATOM      4  O   UNL     1       1.385  -0.208  -0.231  1.00  0.00    -0.269 OA
ATOM      5  C   UNL     1       2.595  -0.019  -0.301  1.00  0.00     0.251 C 
ATOM      6  H   UNL     1       3.037  -1.946  -0.018  1.00  0.00     0.163 HD
BRANCH   5   7
ATOM      7  C   UNL     1       3.118   1.347  -0.497  1.00  0.00     0.039 A 
ATOM      8  C   UNL     1       4.144   1.578  -1.408  1.00  0.00     0.014 A 
ATOM      9  C   UNL     1       2.607   2.402   0.265  1.00  0.00     0.014 A 
ATOM     10  C   UNL     1       4.823   2.784  -1.380  1.00  0.00     0.010 A 
ATOM     11  C   UNL     1       3.203   3.666   0.185  1.00  0.00     0.010 A 
ATOM     12  C   UNL     1       4.349   3.853  -0.601  1.00  0.00    -0.014 A 
BRANCH  12  13
ATOM     13  C   UNL     1       5.049   5.158  -0.702  1.00  0.00     0.031 A 
ATOM     14  C   UNL     1       5.731   5.780   0.483  1.00  0.00     0.074 A 
ATOM     15  C   UNL     1       5.131   5.736  -1.917  1.00  0.00     0.049 A 
ATOM     16  N   UNL     1       6.437   6.883   0.539  1.00  0.00    -0.248 NA
ATOM     17  C   UNL     1       5.604   5.088   1.775  1.00  0.00     0.031 C 
ATOM     18  C   UNL     1       4.499   5.218  -3.135  1.00  0.00     0.029 A 
ATOM     19  N   UNL     1       5.807   6.847  -2.345  1.00  0.00    -0.354 N 
ATOM     20  C   UNL     1       6.810   7.033   1.869  1.00  0.00     0.074 A 
ATOM     21  C   UNL     1       6.244   5.914   2.592  1.00  0.00     0.031 C 
ATOM     22  C   UNL     1       4.885   5.957  -4.182  1.00  0.00     0.029 A 
ATOM     23  C   UNL     1       5.717   7.051  -3.701  1.00  0.00     0.049 A 
ATOM     24  H   UNL     1       6.308   7.442  -1.741  1.00  0.00     0.167 HD
ATOM     25  C   UNL     1       7.556   8.016   2.428  1.00  0.00     0.037 A 
ATOM     26  C   UNL     1       6.232   8.023  -4.475  1.00  0.00     0.037 A 
ATOM     27  C   UNL     1       8.130   9.113   1.691  1.00  0.00     0.049 A 
ATOM     28  C   UNL     1       7.051   9.097  -3.827  1.00  0.00     0.074 A 
ATOM     29  C   UNL     1       8.917  10.152   2.159  1.00  0.00     0.029 A 
ATOM     30  N   UNL     1       7.978   9.312   0.325  1.00  0.00    -0.354 N 
ATOM     31  N   UNL     1       7.397   9.221  -2.569  1.00  0.00    -0.248 NA
ATOM     32  C   UNL     1       7.537  10.172  -4.699  1.00  0.00     0.031 C 
ATOM     33  C   UNL     1       9.209  10.999   1.084  1.00  0.00     0.029 A 
ATOM     34  C   UNL     1       8.641  10.466  -0.062  1.00  0.00     0.049 A 
ATOM     35  H   UNL     1       7.474   8.721  -0.279  1.00  0.00     0.167 HD
ATOM     36  C   UNL     1       8.141  10.387  -2.495  1.00  0.00     0.074 A 
ATOM     37  C   UNL     1       8.222  10.916  -3.843  1.00  0.00     0.031 C 
ATOM     38  C   UNL     1       8.699  10.975  -1.409  1.00  0.00     0.037 A 
BRANCH  25  39
ATOM     39  C   UNL     1       7.771   7.969   3.914  1.00  0.00     0.057 A 
ATOM     40  C   UNL     1       8.629   7.037   4.513  1.00  0.00     0.134 A 
ATOM     41  C   UNL     1       7.143   8.898   4.754  1.00  0.00     0.134 A 
ATOM     42  F   UNL     1       9.254   6.112   3.770  1.00  0.00    -0.206 F 
ATOM     43  C   UNL     1       8.840   7.020   5.895  1.00  0.00     0.040 A 
ATOM     44  C   UNL     1       7.363   8.905   6.133  1.00  0.00     0.040 A 
ATOM     45  F   UNL     1       6.314   9.823   4.247  1.00  0.00    -0.206 F 
ATOM     46  C   UNL     1       8.210   7.961   6.708  1.00  0.00     0.006 A 
ENDBRANCH  25  39
BRANCH  26  47
ATOM     47  C   UNL     1       5.963   8.020  -5.934  1.00  0.00     0.057 A 
ATOM     48  C   UNL     1       6.978   7.759  -6.859  1.00  0.00     0.134 A 
ATOM     49  C   UNL     1       4.672   8.236  -6.434  1.00  0.00     0.134 A 
ATOM     50  F   UNL     1       8.237   7.559  -6.443  1.00  0.00    -0.206 F 
ATOM     51  C   UNL     1       6.721   7.717  -8.231  1.00  0.00     0.040 A 
ATOM     52  C   UNL     1       4.395   8.167  -7.799  1.00  0.00     0.040 A 
ATOM     53  F   UNL     1       3.653   8.480  -5.597  1.00  0.00    -0.206 F 
ATOM     54  C   UNL     1       5.424   7.911  -8.703  1.00  0.00     0.006 A 
ENDBRANCH  26  47
BRANCH  38  55
ATOM     55  C   UNL     1       9.451  12.248  -1.649  1.00  0.00     0.057 A 
ATOM     56  C   UNL     1       8.789  13.452  -1.916  1.00  0.00     0.134 A 
ATOM     57  C   UNL     1      10.850  12.271  -1.599  1.00  0.00     0.134 A 
ATOM     58  F   UNL     1       7.450  13.489  -1.994  1.00  0.00    -0.206 F 
ATOM     59  C   UNL     1       9.494  14.633  -2.150  1.00  0.00     0.040 A 
ATOM     60  C   UNL     1      11.565  13.450  -1.808  1.00  0.00     0.040 A 
ATOM     61  F   UNL     1      11.541  11.150  -1.343  1.00  0.00    -0.206 F 
ATOM     62  C   UNL     1      10.887  14.634  -2.091  1.00  0.00     0.006 A 
ENDBRANCH  38  55
ENDBRANCH  12  13
ENDBRANCH   5   7
ENDBRANCH   2   3
ENDBRANCH   1   2
BRANCH   1  63
ATOM     63  C   UNL     1       5.268  -2.687   1.821  1.00  0.00     0.117 C 
BRANCH  63  64
ATOM     64  N   UNL     1       5.572  -3.800   0.948  1.00  0.00    -0.356 N 
ATOM     65  C   UNL     1       5.666  -5.126   1.212  1.00  0.00     0.224 C 
ATOM     66  H   UNL     1       5.737  -3.554   0.009  1.00  0.00     0.163 HD
ATOM     67  O   UNL     1       5.773  -5.853   0.218  1.00  0.00    -0.275 OA
BRANCH  65  68
ATOM     68  C   UNL     1       5.756  -5.676   2.636  1.00  0.00     0.098 C 
ATOM     69  C   UNL     1       5.770  -7.225   2.594  1.00  0.00     0.017 C 
ATOM     70  C   UNL     1       4.666  -5.235   3.617  1.00  0.00     0.131 C 
ATOM     71  C   UNL     1       4.386  -7.814   2.270  1.00  0.00     0.022 C 
ATOM     72  N   UNL     1       3.390  -5.822   3.253  1.00  0.00    -0.356 N 
ATOM     73  C   UNL     1       3.296  -7.265   3.187  1.00  0.00     0.118 C 
BRANCH  72  74
ATOM     74  C   UNL     1       2.416  -5.010   2.733  1.00  0.00     0.129 A 
ATOM     75  C   UNL     1       2.204  -4.912   1.362  1.00  0.00     0.047 A 
ATOM     76  N   UNL     1       1.722  -4.254   3.605  1.00  0.00    -0.231 NA
ATOM     77  C   UNL     1       1.280  -3.990   0.875  1.00  0.00     0.014 A 
ATOM     78  C   UNL     1       0.793  -3.403   3.142  1.00  0.00     0.073 A 
ATOM     79  C   UNL     1       0.551  -3.205   1.771  1.00  0.00     0.002 A 
ATOM     80  C   UNL     1       0.035  -2.686   4.051  1.00  0.00     0.030 A 
ATOM     81  C   UNL     1      -0.392  -2.247   1.347  1.00  0.00     0.032 A 
ATOM     82  C   UNL     1      -0.920  -1.750   3.641  1.00  0.00     0.024 A 
ATOM     83  C   UNL     1      -1.111  -1.499   2.285  1.00  0.00     0.083 A 
BRANCH  83  84
ATOM     84  S   UNL     1      -2.251  -0.261   1.675  1.00  0.00     0.243 S 
ATOM     85  O   UNL     1      -1.520   0.983   1.603  1.00  0.00    -0.207 OA
ATOM     86  O   UNL     1      -2.892  -0.842   0.509  1.00  0.00    -0.207 OA
BRANCH  84  87
ATOM     87  N   UNL     1      -3.477  -0.079   2.860  1.00  0.00    -0.198 NA
ATOM     88  C   UNL     1      -4.305  -1.279   3.114  1.00  0.00     0.102 C 
ATOM     89  C   UNL     1      -3.175   0.846   3.979  1.00  0.00     0.102 C 
ATOM     90  C   UNL     1      -5.459  -0.994   4.062  1.00  0.00     0.017 C 
ATOM     91  C   UNL     1      -4.325   1.002   4.966  1.00  0.00     0.017 C 
ATOM     92  C   UNL     1      -4.955  -0.331   5.332  1.00  0.00     0.003 C 
ENDBRANCH  84  87
ENDBRANCH  83  84
ENDBRANCH  72  74
ENDBRANCH  65  68
ENDBRANCH  63  64
ENDBRANCH   1  63
TORSDOF 13
