REMARK SMILES C[N@H+]1[C@H]2CC[C@@H]1[C@@H](C(=O)NCCCNC(=O)c1ccc(-c3c4nc(c(-c5c(F)cccc5F)c5ccc([nH]5)c(-c5c(F)cccc5F)c5nc(c(-c6c(F)cccc6F)c6ccc3[nH]6)C=C5)C=C4)cc1)[C@@H](OC(=O)c1ccccc1)C2
REMARK SMILES IDX 11 1 10 2 8 3 9 4 7 6 1 7 2 8 3 9 6 10 4 12 81 13 5 14 71 15
REMARK SMILES IDX 72 16 73 17 74 18 75 19 76 20 80 21 77 22 79 23 78 24 12 25
REMARK SMILES IDX 13 26 14 27 15 28 16 30 17 31 18 32 70 33 19 34 69 35 20 36
REMARK SMILES IDX 21 37 22 38 63 39 23 40 68 41 62 42 64 43 24 44 67 45 61 46
REMARK SMILES IDX 60 47 25 49 51 50 34 51 50 52 35 53 38 54 49 55 65 56 36 57
REMARK SMILES IDX 37 58 48 60 66 61 39 62 26 63 27 64 32 65 28 66 29 67 31 68
REMARK SMILES IDX 33 69 30 70 52 71 53 72 58 73 54 74 55 75 57 76 59 77 56 78
REMARK SMILES IDX 40 79 41 80 46 81 42 82 43 83 45 84 47 85 44 86
REMARK H PARENT 10 5 2 11 14 29 64 48 38 59
REMARK Flexibility Score: inf
ROOT
ATOM      1  C   UNL     1      -2.377  -1.754  -0.619  1.00  0.00     0.117 C 
ENDROOT
BRANCH   1   2
ATOM      2  N   UNL     1      -1.854  -2.433   0.560  1.00  0.00    -0.355 N 
ATOM      3  C   UNL     1      -0.917  -2.100   1.493  1.00  0.00     0.232 C 
ATOM      4  O   UNL     1      -1.041  -2.681   2.583  1.00  0.00    -0.274 OA
ATOM      5  H   UNL     1      -2.261  -3.316   0.715  1.00  0.00     0.163 HD
BRANCH   3   6
ATOM      6  C   UNL     1       0.284  -1.149   1.312  1.00  0.00     0.177 C 
ATOM      7  C   UNL     1      -1.837   1.505   0.071  1.00  0.00     0.333 C 
ATOM      8  N   UNL     1      -0.745   0.560   0.053  1.00  0.00    -0.332 N 
ATOM      9  C   UNL     1       0.291   0.621  -0.974  1.00  0.00     0.188 C 
ATOM     10  C   UNL     1      -0.062   0.349   1.308  1.00  0.00     0.200 C 
ATOM     11  H   UNL     1      -1.352  -0.220  -0.200  1.00  0.00     0.348 HD
ATOM     12  C   UNL     1       1.299   1.558  -0.338  1.00  0.00     0.071 C 
ATOM     13  C   UNL     1       0.868  -0.826  -1.172  1.00  0.00     0.111 C 
ATOM     14  C   UNL     1       1.159   1.285   1.166  1.00  0.00     0.072 C 
ATOM     15  C   UNL     1       1.213  -1.550   0.156  1.00  0.00     0.201 C 
BRANCH  15  16
ATOM     16  O   UNL     1       1.435  -2.995   0.226  1.00  0.00    -0.457 OA
BRANCH  16  17
ATOM     17  C   UNL     1       0.952  -3.875  -0.671  1.00  0.00     0.338 C 
ATOM     18  O   UNL     1       0.559  -3.611  -1.799  1.00  0.00    -0.246 OA
BRANCH  17  19
ATOM     19  C   UNL     1       0.881  -5.267  -0.137  1.00  0.00     0.060 A 
ATOM     20  C   UNL     1       0.009  -6.163  -0.782  1.00  0.00     0.015 A 
ATOM     21  C   UNL     1       1.665  -5.732   0.925  1.00  0.00     0.015 A 
ATOM     22  C   UNL     1      -0.051  -7.506  -0.402  1.00  0.00     0.001 A 
ATOM     23  C   UNL     1       1.608  -7.084   1.299  1.00  0.00     0.001 A 
ATOM     24  C   UNL     1       0.759  -7.970   0.630  1.00  0.00     0.000 A 
ENDBRANCH  17  19
ENDBRANCH  16  17
ENDBRANCH  15  16
ENDBRANCH   3   6
ENDBRANCH   1   2
BRANCH   1  25
ATOM     25  C   UNL     1      -2.525  -2.573  -1.884  1.00  0.00     0.042 C 
BRANCH  25  26
ATOM     26  C   UNL     1      -3.531  -3.685  -1.756  1.00  0.00     0.118 C 
BRANCH  26  27
ATOM     27  N   UNL     1      -4.881  -3.163  -1.930  1.00  0.00    -0.352 N 
ATOM     28  C   UNL     1      -5.596  -3.037  -3.100  1.00  0.00     0.251 C 
ATOM     29  H   UNL     1      -5.338  -2.864  -1.111  1.00  0.00     0.163 HD
ATOM     30  O   UNL     1      -6.517  -2.231  -3.180  1.00  0.00    -0.269 OA
BRANCH  28  31
ATOM     31  C   UNL     1      -5.232  -3.875  -4.265  1.00  0.00     0.039 A 
ATOM     32  C   UNL     1      -5.270  -3.338  -5.554  1.00  0.00     0.014 A 
ATOM     33  C   UNL     1      -4.844  -5.202  -4.072  1.00  0.00     0.014 A 
ATOM     34  C   UNL     1      -4.843  -4.113  -6.636  1.00  0.00     0.010 A 
ATOM     35  C   UNL     1      -4.304  -5.924  -5.124  1.00  0.00     0.010 A 
ATOM     36  C   UNL     1      -4.311  -5.395  -6.421  1.00  0.00    -0.014 A 
BRANCH  36  37
ATOM     37  C   UNL     1      -3.763  -6.223  -7.524  1.00  0.00     0.031 A 
ATOM     38  C   UNL     1      -4.356  -7.577  -7.804  1.00  0.00     0.074 A 
ATOM     39  C   UNL     1      -2.673  -5.804  -8.196  1.00  0.00     0.049 A 
ATOM     40  N   UNL     1      -3.938  -8.512  -8.618  1.00  0.00    -0.248 NA
ATOM     41  C   UNL     1      -5.558  -7.946  -7.037  1.00  0.00     0.031 C 
ATOM     42  C   UNL     1      -1.978  -4.534  -7.977  1.00  0.00     0.029 A 
ATOM     43  N   UNL     1      -1.943  -6.414  -9.185  1.00  0.00    -0.354 N 
ATOM     44  C   UNL     1      -4.809  -9.581  -8.443  1.00  0.00     0.074 A 
ATOM     45  C   UNL     1      -5.740  -9.205  -7.404  1.00  0.00     0.031 C 
ATOM     46  C   UNL     1      -0.937  -4.450  -8.820  1.00  0.00     0.029 A 
ATOM     47  C   UNL     1      -0.857  -5.681  -9.599  1.00  0.00     0.049 A 
ATOM     48  H   UNL     1      -2.176  -7.293  -9.562  1.00  0.00     0.167 HD
ATOM     49  C   UNL     1      -4.844 -10.759  -9.108  1.00  0.00     0.037 A 
ATOM     50  C   UNL     1       0.109  -5.979 -10.488  1.00  0.00     0.037 A 
ATOM     51  C   UNL     1      -3.928 -11.112 -10.159  1.00  0.00     0.049 A 
ATOM     52  C   UNL     1       0.065  -7.307 -11.193  1.00  0.00     0.074 A 
ATOM     53  C   UNL     1      -3.921 -12.247 -10.950  1.00  0.00     0.029 A 
ATOM     54  N   UNL     1      -2.849 -10.337 -10.558  1.00  0.00    -0.354 N 
ATOM     55  N   UNL     1      -0.814  -8.274 -11.080  1.00  0.00    -0.248 NA
ATOM     56  C   UNL     1       1.149  -7.589 -12.145  1.00  0.00     0.031 C 
ATOM     57  C   UNL     1      -2.802 -12.187 -11.785  1.00  0.00     0.029 A 
ATOM     58  C   UNL     1      -2.144 -10.989 -11.556  1.00  0.00     0.049 A 
ATOM     59  H   UNL     1      -2.619  -9.454 -10.187  1.00  0.00     0.167 HD
ATOM     60  C   UNL     1      -0.400  -9.269 -11.955  1.00  0.00     0.074 A 
ATOM     61  C   UNL     1       0.796  -8.779 -12.610  1.00  0.00     0.031 C 
ATOM     62  C   UNL     1      -0.955 -10.483 -12.192  1.00  0.00     0.037 A 
BRANCH  49  63
ATOM     63  C   UNL     1      -5.904 -11.749  -8.717  1.00  0.00     0.057 A 
ATOM     64  C   UNL     1      -7.263 -11.520  -8.970  1.00  0.00     0.134 A 
ATOM     65  C   UNL     1      -5.558 -12.964  -8.111  1.00  0.00     0.134 A 
ATOM     66  F   UNL     1      -7.666 -10.372  -9.537  1.00  0.00    -0.206 F 
ATOM     67  C   UNL     1      -8.242 -12.447  -8.608  1.00  0.00     0.040 A 
ATOM     68  C   UNL     1      -6.525 -13.913  -7.773  1.00  0.00     0.040 A 
ATOM     69  F   UNL     1      -4.276 -13.253  -7.845  1.00  0.00    -0.206 F 
ATOM     70  C   UNL     1      -7.872 -13.652  -8.014  1.00  0.00     0.006 A 
ENDBRANCH  49  63
BRANCH  50  71
ATOM     71  C   UNL     1       1.198  -5.006 -10.760  1.00  0.00     0.057 A 
ATOM     72  C   UNL     1       1.301  -4.363 -11.999  1.00  0.00     0.134 A 
ATOM     73  C   UNL     1       2.163  -4.695  -9.793  1.00  0.00     0.134 A 
ATOM     74  F   UNL     1       0.419  -4.631 -12.973  1.00  0.00    -0.206 F 
ATOM     75  C   UNL     1       2.332  -3.463 -12.274  1.00  0.00     0.040 A 
ATOM     76  C   UNL     1       3.182  -3.775 -10.044  1.00  0.00     0.040 A 
ATOM     77  F   UNL     1       2.119  -5.271  -8.582  1.00  0.00    -0.206 F 
ATOM     78  C   UNL     1       3.273  -3.162 -11.292  1.00  0.00     0.006 A 
ENDBRANCH  50  71
BRANCH  62  79
ATOM     79  C   UNL     1      -0.283 -11.362 -13.206  1.00  0.00     0.057 A 
ATOM     80  C   UNL     1       0.937 -11.994 -12.938  1.00  0.00     0.134 A 
ATOM     81  C   UNL     1      -0.896 -11.631 -14.437  1.00  0.00     0.134 A 
ATOM     82  F   UNL     1       1.581 -11.767 -11.783  1.00  0.00    -0.206 F 
ATOM     83  C   UNL     1       1.531 -12.853 -13.863  1.00  0.00     0.040 A 
ATOM     84  C   UNL     1      -0.326 -12.511 -15.357  1.00  0.00     0.040 A 
ATOM     85  F   UNL     1      -2.071 -11.065 -14.752  1.00  0.00    -0.206 F 
ATOM     86  C   UNL     1       0.893 -13.121 -15.073  1.00  0.00     0.006 A 
ENDBRANCH  62  79
ENDBRANCH  36  37
ENDBRANCH  28  31
ENDBRANCH  26  27
ENDBRANCH  25  26
ENDBRANCH   1  25
TORSDOF 13
