REMARK SMILES C[C@@](NC(=O)NCC(N)=O)(C(=O)NCCCNC(=O)c1ccc(-c2c3nc(c(-c4c(F)cccc4F)c4ccc([nH]4)c(-c4c(F)cccc4F)c4nc(c(-c5c(F)cccc5F)c5ccc2[nH]5)C=C4)C=C3)cc1)C(F)(F)F
REMARK SMILES IDX 14 1 13 2 11 3 12 4 2 6 1 7 3 8 4 9 5 11 6 12 7 14 8 15 9 16
REMARK SMILES IDX 10 17 74 20 75 21 76 22 77 23 15 24 16 25 17 26 18 27 19 29
REMARK SMILES IDX 20 30 21 31 73 32 22 33 72 34 23 35 24 36 25 37 66 38 26 39
REMARK SMILES IDX 71 40 65 41 67 42 27 43 70 44 64 45 63 46 28 48 54 49 37 50
REMARK SMILES IDX 53 51 38 52 41 53 52 54 68 55 39 56 40 57 51 59 69 60 42 61
REMARK SMILES IDX 29 62 30 63 35 64 31 65 32 66 34 67 36 68 33 69 55 70 56 71
REMARK SMILES IDX 61 72 57 73 58 74 60 75 62 76 59 77 43 78 44 79 49 80 45 81
REMARK SMILES IDX 46 82 48 83 50 84 47 85
REMARK H PARENT 13 5 3 10 6 13 9 18 9 19 17 28 67 47 41 58
REMARK Flexibility Score: inf
ROOT
ATOM      1  C   UNL     1      -0.799  -1.874  -0.854  1.00  0.00     0.117 C 
ENDROOT
BRANCH   1   2
ATOM      2  N   UNL     1      -1.148  -0.648  -0.150  1.00  0.00    -0.354 N 
ATOM      3  C   UNL     1      -0.561   0.586  -0.189  1.00  0.00     0.255 C 
ATOM      4  O   UNL     1      -1.090   1.447   0.518  1.00  0.00    -0.272 OA
ATOM      5  H   UNL     1      -1.929  -0.719   0.446  1.00  0.00     0.163 HD
BRANCH   3   6
ATOM      6  C   UNL     1       0.754   0.814  -0.944  1.00  0.00     0.213 C 
ATOM      7  C   UNL     1       1.838   0.220  -0.007  1.00  0.00     0.056 C 
BRANCH   6   8
ATOM      8  N   UNL     1       0.830   0.093  -2.254  1.00  0.00    -0.316 N 
ATOM      9  C   UNL     1       0.188   0.181  -3.424  1.00  0.00     0.316 C 
ATOM     10  H   UNL     1       1.515  -0.614  -2.254  1.00  0.00     0.166 HD
ATOM     11  O   UNL     1       0.749  -0.325  -4.397  1.00  0.00    -0.249 OA
ATOM     12  N   UNL     1      -1.016   0.727  -3.599  1.00  0.00    -0.329 N 
ATOM     13  H   UNL     1      -1.237   0.877  -4.547  1.00  0.00     0.165 HD
BRANCH  12  14
ATOM     14  C   UNL     1      -2.069   1.145  -2.699  1.00  0.00     0.217 C 
BRANCH  14  15
ATOM     15  C   UNL     1      -3.185   1.958  -3.344  1.00  0.00     0.236 C 
ATOM     16  N   UNL     1      -4.290   2.111  -2.549  1.00  0.00    -0.368 N 
ATOM     17  O   UNL     1      -3.112   2.481  -4.449  1.00  0.00    -0.273 OA
ATOM     18  H   UNL     1      -4.323   1.680  -1.665  1.00  0.00     0.159 HD
ATOM     19  H   UNL     1      -5.050   2.652  -2.862  1.00  0.00     0.159 HD
ENDBRANCH  14  15
ENDBRANCH  12  14
ENDBRANCH   6   8
BRANCH   6  20
ATOM     20  C   UNL     1       1.047   2.324  -1.069  1.00  0.00     0.420 C 
ATOM     21  F   UNL     1       1.091   2.952   0.127  1.00  0.00    -0.168 F 
ATOM     22  F   UNL     1       2.272   2.506  -1.635  1.00  0.00    -0.168 F 
ATOM     23  F   UNL     1       0.164   2.980  -1.849  1.00  0.00    -0.168 F 
ENDBRANCH   6  20
ENDBRANCH   3   6
ENDBRANCH   1   2
BRANCH   1  24
ATOM     24  C   UNL     1      -1.159  -3.094  -0.032  1.00  0.00     0.042 C 
BRANCH  24  25
ATOM     25  C   UNL     1      -2.658  -3.312   0.054  1.00  0.00     0.118 C 
BRANCH  25  26
ATOM     26  N   UNL     1      -3.221  -3.844  -1.177  1.00  0.00    -0.352 N 
ATOM     27  C   UNL     1      -3.988  -4.972  -1.343  1.00  0.00     0.251 C 
ATOM     28  H   UNL     1      -3.027  -3.331  -1.996  1.00  0.00     0.163 HD
ATOM     29  O   UNL     1      -4.254  -5.386  -2.466  1.00  0.00    -0.269 OA
BRANCH  27  30
ATOM     30  C   UNL     1      -4.459  -5.699  -0.147  1.00  0.00     0.039 A 
ATOM     31  C   UNL     1      -4.320  -7.086  -0.100  1.00  0.00     0.014 A 
ATOM     32  C   UNL     1      -4.989  -5.002   0.943  1.00  0.00     0.014 A 
ATOM     33  C   UNL     1      -4.672  -7.769   1.065  1.00  0.00     0.010 A 
ATOM     34  C   UNL     1      -5.225  -5.668   2.138  1.00  0.00     0.010 A 
ATOM     35  C   UNL     1      -5.100  -7.063   2.202  1.00  0.00    -0.014 A 
BRANCH  35  36
ATOM     36  C   UNL     1      -5.476  -7.779   3.446  1.00  0.00     0.031 A 
ATOM     37  C   UNL     1      -6.886  -7.689   3.966  1.00  0.00     0.074 A 
ATOM     38  C   UNL     1      -4.549  -8.491   4.117  1.00  0.00     0.049 A 
ATOM     39  N   UNL     1      -7.416  -8.255   5.020  1.00  0.00    -0.248 NA
ATOM     40  C   UNL     1      -7.817  -6.825   3.222  1.00  0.00     0.031 C 
ATOM     41  C   UNL     1      -3.135  -8.602   3.750  1.00  0.00     0.029 A 
ATOM     42  N   UNL     1      -4.661  -9.263   5.244  1.00  0.00    -0.354 N 
ATOM     43  C   UNL     1      -8.731  -7.808   5.066  1.00  0.00     0.074 A 
ATOM     44  C   UNL     1      -8.897  -6.864   3.985  1.00  0.00     0.031 C 
ATOM     45  C   UNL     1      -2.523  -9.433   4.609  1.00  0.00     0.029 A 
ATOM     46  C   UNL     1      -3.490  -9.886   5.603  1.00  0.00     0.049 A 
ATOM     47  H   UNL     1      -5.500  -9.361   5.749  1.00  0.00     0.167 HD
ATOM     48  C   UNL     1      -9.725  -8.178   5.908  1.00  0.00     0.037 A 
ATOM     49  C   UNL     1      -3.233 -10.737   6.614  1.00  0.00     0.037 A 
ATOM     50  C   UNL     1      -9.562  -9.137   6.967  1.00  0.00     0.049 A 
ATOM     51  C   UNL     1      -4.356 -11.143   7.530  1.00  0.00     0.074 A 
ATOM     52  C   UNL     1     -10.514  -9.620   7.848  1.00  0.00     0.029 A 
ATOM     53  N   UNL     1      -8.365  -9.761   7.288  1.00  0.00    -0.354 N 
ATOM     54  N   UNL     1      -5.613 -10.770   7.516  1.00  0.00    -0.248 NA
ATOM     55  C   UNL     1      -4.026 -12.103   8.591  1.00  0.00     0.031 C 
ATOM     56  C   UNL     1      -9.881 -10.500   8.733  1.00  0.00     0.029 A 
ATOM     57  C   UNL     1      -8.550 -10.612   8.364  1.00  0.00     0.049 A 
ATOM     58  H   UNL     1      -7.511  -9.618   6.820  1.00  0.00     0.167 HD
ATOM     59  C   UNL     1      -6.231 -11.477   8.539  1.00  0.00     0.074 A 
ATOM     60  C   UNL     1      -5.212 -12.313   9.140  1.00  0.00     0.031 C 
ATOM     61  C   UNL     1      -7.525 -11.442   8.945  1.00  0.00     0.037 A 
BRANCH  48  62
ATOM     62  C   UNL     1     -11.072  -7.545   5.706  1.00  0.00     0.057 A 
ATOM     63  C   UNL     1     -11.856  -7.815   4.575  1.00  0.00     0.134 A 
ATOM     64  C   UNL     1     -11.601  -6.667   6.660  1.00  0.00     0.134 A 
ATOM     65  F   UNL     1     -11.403  -8.633   3.612  1.00  0.00    -0.206 F 
ATOM     66  C   UNL     1     -13.100  -7.211   4.385  1.00  0.00     0.040 A 
ATOM     67  C   UNL     1     -12.858  -6.082   6.497  1.00  0.00     0.040 A 
ATOM     68  F   UNL     1     -10.907  -6.365   7.767  1.00  0.00    -0.206 F 
ATOM     69  C   UNL     1     -13.608  -6.347   5.352  1.00  0.00     0.006 A 
ENDBRANCH  48  62
BRANCH  49  70
ATOM     70  C   UNL     1      -1.868 -11.298   6.790  1.00  0.00     0.057 A 
ATOM     71  C   UNL     1      -1.609 -12.656   6.566  1.00  0.00     0.134 A 
ATOM     72  C   UNL     1      -0.796 -10.499   7.203  1.00  0.00     0.134 A 
ATOM     73  F   UNL     1      -2.597 -13.478   6.183  1.00  0.00    -0.206 F 
ATOM     74  C   UNL     1      -0.342 -13.204   6.773  1.00  0.00     0.040 A 
ATOM     75  C   UNL     1       0.482 -11.027   7.387  1.00  0.00     0.040 A 
ATOM     76  F   UNL     1      -0.975  -9.188   7.424  1.00  0.00    -0.206 F 
ATOM     77  C   UNL     1       0.710 -12.386   7.182  1.00  0.00     0.006 A 
ENDBRANCH  49  70
BRANCH  61  78
ATOM     78  C   UNL     1      -7.918 -12.373  10.056  1.00  0.00     0.057 A 
ATOM     79  C   UNL     1      -7.470 -12.196  11.372  1.00  0.00     0.134 A 
ATOM     80  C   UNL     1      -8.768 -13.458   9.804  1.00  0.00     0.134 A 
ATOM     81  F   UNL     1      -6.646 -11.183  11.680  1.00  0.00    -0.206 F 
ATOM     82  C   UNL     1      -7.817 -13.090  12.386  1.00  0.00     0.040 A 
ATOM     83  C   UNL     1      -9.150 -14.338  10.817  1.00  0.00     0.040 A 
ATOM     84  F   UNL     1      -9.246 -13.677   8.570  1.00  0.00    -0.206 F 
ATOM     85  C   UNL     1      -8.663 -14.162  12.111  1.00  0.00     0.006 A 
ENDBRANCH  61  78
ENDBRANCH  35  36
ENDBRANCH  27  30
ENDBRANCH  25  26
ENDBRANCH  24  25
ENDBRANCH   1  24
TORSDOF 14
