REMARK SMILES Cc1ccc(O)c(C[N@H+]2CC[C@](C)(C(=O)NCCCNC(=O)c3ccc(-c4c5nc(c(-c6c(F)cccc6F)c6ccc([nH]6)c(-c6c(F)cccc6F)c6nc(c(-c7c(F)cccc7F)c7ccc4[nH]7)C=C6)C=C5)cc3)C2)n1
REMARK SMILES IDX 17 1 16 2 14 3 15 4 12 6 9 7 10 8 77 9 11 11 13 12 8 13 7 14
REMARK SMILES IDX 1 15 2 16 3 17 78 18 4 19 5 20 6 21 18 23 19 24 20 25 21 26
REMARK SMILES IDX 22 28 23 29 24 30 76 31 25 32 75 33 26 34 27 35 28 36 69 37
REMARK SMILES IDX 29 38 74 39 68 40 70 41 30 42 73 43 67 44 66 45 31 47 57 48
REMARK SMILES IDX 40 49 56 50 41 51 44 52 55 53 71 54 42 55 43 56 54 58 72 59
REMARK SMILES IDX 45 60 32 61 33 62 38 63 34 64 35 65 37 66 39 67 36 68 58 69
REMARK SMILES IDX 59 70 64 71 60 72 61 73 63 74 65 75 62 76 46 77 47 78 52 79
REMARK SMILES IDX 48 80 49 81 51 82 53 83 50 84
REMARK H PARENT 16 5 9 10 6 22 20 27 70 46 44 57
REMARK Flexibility Score: inf
ROOT
ATOM      1  C   UNL     1       3.705  -4.262  -1.449  1.00  0.00     0.117 C 
ENDROOT
BRANCH   1   2
ATOM      2  N   UNL     1       3.025  -4.901  -2.564  1.00  0.00    -0.355 N 
ATOM      3  C   UNL     1       1.869  -4.589  -3.221  1.00  0.00     0.231 C 
ATOM      4  O   UNL     1       1.584  -5.286  -4.198  1.00  0.00    -0.274 OA
ATOM      5  H   UNL     1       3.479  -5.703  -2.907  1.00  0.00     0.163 HD
BRANCH   3   6
ATOM      6  C   UNL     1       0.996  -3.410  -2.788  1.00  0.00     0.100 C 
ATOM      7  N   UNL     1      -0.861  -3.148  -1.259  1.00  0.00    -0.329 N 
ATOM      8  C   UNL     1      -1.269  -2.635  -2.559  1.00  0.00     0.263 C 
ATOM      9  C   UNL     1       0.537  -3.580  -1.332  1.00  0.00     0.279 C 
ATOM     10  H   UNL     1      -1.431  -3.968  -1.052  1.00  0.00     0.348 HD
ATOM     11  C   UNL     1      -0.362  -3.393  -3.520  1.00  0.00     0.084 C 
ATOM     12  C   UNL     1       1.712  -2.079  -3.092  1.00  0.00     0.028 C 
BRANCH   7  13
ATOM     13  C   UNL     1      -1.209  -2.304  -0.105  1.00  0.00     0.323 C 
BRANCH  13  14
ATOM     14  C   UNL     1      -0.570  -0.923  -0.029  1.00  0.00     0.136 A 
ATOM     15  C   UNL     1       2.894   0.315   0.196  1.00  0.00     0.067 C 
ATOM     16  C   UNL     1       1.398   0.332   0.136  1.00  0.00     0.038 A 
ATOM     17  C   UNL     1       0.687   1.523   0.106  1.00  0.00     0.027 A 
ATOM     18  N   UNL     1       0.789  -0.873   0.082  1.00  0.00    -0.248 NA
ATOM     19  C   UNL     1      -0.703   1.473   0.023  1.00  0.00     0.050 A 
ATOM     20  C   UNL     1      -1.340   0.238  -0.046  1.00  0.00     0.142 A 
BRANCH  20  21
ATOM     21  O   UNL     1      -2.701   0.174  -0.127  1.00  0.00    -0.506 OA
ATOM     22  H   UNL     1      -3.207   0.962  -0.137  1.00  0.00     0.293 HD
ENDBRANCH  20  21
ENDBRANCH  13  14
ENDBRANCH   7  13
ENDBRANCH   3   6
ENDBRANCH   1   2
BRANCH   1  23
ATOM     23  C   UNL     1       3.654  -5.075  -0.161  1.00  0.00     0.042 C 
BRANCH  23  24
ATOM     24  C   UNL     1       4.354  -6.426  -0.231  1.00  0.00     0.118 C 
BRANCH  24  25
ATOM     25  N   UNL     1       5.774  -6.315  -0.537  1.00  0.00    -0.352 N 
ATOM     26  C   UNL     1       6.880  -6.704   0.167  1.00  0.00     0.251 C 
ATOM     27  H   UNL     1       5.972  -5.885  -1.401  1.00  0.00     0.163 HD
ATOM     28  O   UNL     1       7.994  -6.345  -0.229  1.00  0.00    -0.269 OA
BRANCH  26  29
ATOM     29  C   UNL     1       6.781  -7.528   1.393  1.00  0.00     0.039 A 
ATOM     30  C   UNL     1       7.696  -7.296   2.428  1.00  0.00     0.014 A 
ATOM     31  C   UNL     1       5.855  -8.567   1.514  1.00  0.00     0.014 A 
ATOM     32  C   UNL     1       7.650  -8.067   3.591  1.00  0.00     0.010 A 
ATOM     33  C   UNL     1       5.758  -9.284   2.707  1.00  0.00     0.010 A 
ATOM     34  C   UNL     1       6.664  -9.053   3.752  1.00  0.00    -0.014 A 
BRANCH  34  35
ATOM     35  C   UNL     1       6.593  -9.871   4.989  1.00  0.00     0.031 A 
ATOM     36  C   UNL     1       6.845 -11.354   4.930  1.00  0.00     0.074 A 
ATOM     37  C   UNL     1       6.267  -9.290   6.160  1.00  0.00     0.049 A 
ATOM     38  N   UNL     1       6.772 -12.244   5.888  1.00  0.00    -0.248 NA
ATOM     39  C   UNL     1       7.204 -11.915   3.617  1.00  0.00     0.031 C 
ATOM     40  C   UNL     1       5.956  -7.872   6.345  1.00  0.00     0.029 A 
ATOM     41  N   UNL     1       6.135  -9.826   7.417  1.00  0.00    -0.354 N 
ATOM     42  C   UNL     1       7.063 -13.465   5.292  1.00  0.00     0.074 A 
ATOM     43  C   UNL     1       7.263 -13.211   3.882  1.00  0.00     0.031 C 
ATOM     44  C   UNL     1       5.690  -7.646   7.642  1.00  0.00     0.029 A 
ATOM     45  C   UNL     1       5.782  -8.905   8.373  1.00  0.00     0.049 A 
ATOM     46  H   UNL     1       6.279 -10.780   7.614  1.00  0.00     0.167 HD
ATOM     47  C   UNL     1       7.181 -14.684   5.870  1.00  0.00     0.037 A 
ATOM     48  C   UNL     1       5.557  -9.061   9.691  1.00  0.00     0.037 A 
ATOM     49  C   UNL     1       7.013 -14.937   7.276  1.00  0.00     0.049 A 
ATOM     50  C   UNL     1       5.709 -10.422  10.310  1.00  0.00     0.074 A 
ATOM     51  C   UNL     1       7.138 -16.134   7.959  1.00  0.00     0.029 A 
ATOM     52  N   UNL     1       6.693 -13.970   8.216  1.00  0.00    -0.354 N 
ATOM     53  N   UNL     1       6.026 -11.559   9.739  1.00  0.00    -0.248 NA
ATOM     54  C   UNL     1       5.483 -10.521  11.760  1.00  0.00     0.031 C 
ATOM     55  C   UNL     1       6.876 -15.895   9.313  1.00  0.00     0.029 A 
ATOM     56  C   UNL     1       6.617 -14.543   9.474  1.00  0.00     0.049 A 
ATOM     57  H   UNL     1       6.543 -13.018   8.018  1.00  0.00     0.167 HD
ATOM     58  C   UNL     1       6.060 -12.500  10.760  1.00  0.00     0.074 A 
ATOM     59  C   UNL     1       5.748 -11.799  11.988  1.00  0.00     0.031 C 
ATOM     60  C   UNL     1       6.322 -13.827  10.686  1.00  0.00     0.037 A 
BRANCH  47  61
ATOM     61  C   UNL     1       7.532 -15.838   4.978  1.00  0.00     0.057 A 
ATOM     62  C   UNL     1       8.821 -15.988   4.451  1.00  0.00     0.134 A 
ATOM     63  C   UNL     1       6.590 -16.828   4.675  1.00  0.00     0.134 A 
ATOM     64  F   UNL     1       9.766 -15.066   4.694  1.00  0.00    -0.206 F 
ATOM     65  C   UNL     1       9.156 -17.070   3.636  1.00  0.00     0.040 A 
ATOM     66  C   UNL     1       6.918 -17.928   3.881  1.00  0.00     0.040 A 
ATOM     67  F   UNL     1       5.339 -16.748   5.153  1.00  0.00    -0.206 F 
ATOM     68  C   UNL     1       8.204 -18.049   3.355  1.00  0.00     0.006 A 
ENDBRANCH  47  61
BRANCH  48  69
ATOM     69  C   UNL     1       5.185  -7.893  10.527  1.00  0.00     0.057 A 
ATOM     70  C   UNL     1       6.084  -7.353  11.454  1.00  0.00     0.134 A 
ATOM     71  C   UNL     1       3.918  -7.304  10.437  1.00  0.00     0.134 A 
ATOM     72  F   UNL     1       7.306  -7.887  11.598  1.00  0.00    -0.206 F 
ATOM     73  C   UNL     1       5.730  -6.285  12.279  1.00  0.00     0.040 A 
ATOM     74  C   UNL     1       3.558  -6.221  11.240  1.00  0.00     0.040 A 
ATOM     75  F   UNL     1       3.015  -7.772   9.563  1.00  0.00    -0.206 F 
ATOM     76  C   UNL     1       4.463  -5.714  12.171  1.00  0.00     0.006 A 
ENDBRANCH  48  69
BRANCH  60  77
ATOM     77  C   UNL     1       6.319 -14.596  11.972  1.00  0.00     0.057 A 
ATOM     78  C   UNL     1       5.127 -14.933  12.624  1.00  0.00     0.134 A 
ATOM     79  C   UNL     1       7.519 -15.034  12.543  1.00  0.00     0.134 A 
ATOM     80  F   UNL     1       3.945 -14.531  12.132  1.00  0.00    -0.206 F 
ATOM     81  C   UNL     1       5.130 -15.664  13.813  1.00  0.00     0.040 A 
ATOM     82  C   UNL     1       7.535 -15.783  13.720  1.00  0.00     0.040 A 
ATOM     83  F   UNL     1       8.694 -14.749  11.963  1.00  0.00    -0.206 F 
ATOM     84  C   UNL     1       6.337 -16.096  14.361  1.00  0.00     0.006 A 
ENDBRANCH  60  77
ENDBRANCH  34  35
ENDBRANCH  26  29
ENDBRANCH  24  25
ENDBRANCH  23  24
ENDBRANCH   1  23
TORSDOF 13
