REMARK SMILES COCC[C@H](NC(=O)N1CCN2C(=O)NC[C@H]2C1)C(=O)NCCCNC(=O)c1ccc(-c2c3nc(c(-c4c(F)cccc4F)c4ccc([nH]4)c(-c4c(F)cccc4F)c4nc(c(-c5c(F)cccc5F)c5ccc2[nH]5)C=C4)C=C3)cc1
REMARK SMILES IDX 22 1 21 2 19 3 20 4 5 6 4 7 3 8 2 9 1 10 6 11 7 12 8 14 9 15
REMARK SMILES IDX 10 16 18 17 11 18 17 19 12 20 16 21 13 22 15 23 14 24 23 26
REMARK SMILES IDX 24 27 25 28 26 29 27 31 28 32 29 33 81 34 30 35 80 36 31 37
REMARK SMILES IDX 32 38 33 39 74 40 34 41 79 42 73 43 75 44 35 45 78 46 72 47
REMARK SMILES IDX 71 48 36 50 62 51 45 52 61 53 46 54 49 55 60 56 76 57 47 58
REMARK SMILES IDX 48 59 59 61 77 62 50 63 37 64 38 65 43 66 39 67 40 68 42 69
REMARK SMILES IDX 44 70 41 71 63 72 64 73 69 74 65 75 66 76 68 77 70 78 67 79
REMARK SMILES IDX 51 80 52 81 57 82 53 83 54 84 56 85 58 86 55 87
REMARK H PARENT 21 5 6 13 15 25 25 30 75 49 49 60
REMARK Flexibility Score: inf
ROOT
ATOM      1  C   UNL     1       1.373  -1.015   5.337  1.00  0.00     0.117 C 
ENDROOT
BRANCH   1   2
ATOM      2  N   UNL     1       0.282  -1.703   4.702  1.00  0.00    -0.354 N 
ATOM      3  C   UNL     1      -0.054  -1.687   3.384  1.00  0.00     0.242 C 
ATOM      4  O   UNL     1      -0.970  -2.433   3.027  1.00  0.00    -0.273 OA
ATOM      5  H   UNL     1      -0.288  -2.249   5.290  1.00  0.00     0.163 HD
BRANCH   3   6
ATOM      6  C   UNL     1       0.806  -0.933   2.335  1.00  0.00     0.175 C 
BRANCH   6   7
ATOM      7  C   UNL     1       2.060  -1.769   2.105  1.00  0.00     0.063 C 
BRANCH   7   8
ATOM      8  C   UNL     1       2.206  -2.356   0.705  1.00  0.00     0.162 C 
BRANCH   8   9
ATOM      9  O   UNL     1       2.275  -1.371  -0.319  1.00  0.00    -0.385 OA
ATOM     10  C   UNL     1       1.022  -1.049  -0.912  1.00  0.00     0.194 C 
ENDBRANCH   8   9
ENDBRANCH   7   8
ENDBRANCH   6   7
BRANCH   6  11
ATOM     11  N   UNL     1       0.933   0.538   2.531  1.00  0.00    -0.326 N 
ATOM     12  C   UNL     1       1.790   1.428   3.075  1.00  0.00     0.318 C 
ATOM     13  H   UNL     1       0.155   1.003   2.147  1.00  0.00     0.166 HD
ATOM     14  O   UNL     1       1.284   2.437   3.573  1.00  0.00    -0.249 OA
BRANCH  12  15
ATOM     15  N   UNL     1       3.123   1.183   3.188  1.00  0.00    -0.321 N 
ATOM     16  C   UNL     1       4.038   0.897   2.064  1.00  0.00     0.143 C 
ATOM     17  C   UNL     1       3.830   1.639   4.398  1.00  0.00     0.148 C 
ATOM     18  C   UNL     1       5.182  -0.087   2.446  1.00  0.00     0.143 C 
ATOM     19  C   UNL     1       4.666   0.462   4.868  1.00  0.00     0.125 C 
ATOM     20  N   UNL     1       5.587   0.008   3.844  1.00  0.00    -0.317 N 
ATOM     21  C   UNL     1       5.563   0.612   6.081  1.00  0.00     0.144 C 
ATOM     22  C   UNL     1       6.620  -0.699   4.450  1.00  0.00     0.317 C 
ATOM     23  N   UNL     1       6.569  -0.389   5.811  1.00  0.00    -0.336 N 
ATOM     24  O   UNL     1       7.402  -1.464   3.925  1.00  0.00    -0.249 OA
ATOM     25  H   UNL     1       7.144  -0.800   6.497  1.00  0.00     0.165 HD
ENDBRANCH  12  15
ENDBRANCH   6  11
ENDBRANCH   3   6
ENDBRANCH   1   2
BRANCH   1  26
ATOM     26  C   UNL     1       0.885   0.059   6.290  1.00  0.00     0.042 C 
BRANCH  26  27
ATOM     27  C   UNL     1       0.418  -0.528   7.609  1.00  0.00     0.118 C 
BRANCH  27  28
ATOM     28  N   UNL     1       1.516  -1.157   8.338  1.00  0.00    -0.352 N 
ATOM     29  C   UNL     1       1.937  -0.968   9.627  1.00  0.00     0.251 C 
ATOM     30  H   UNL     1       2.032  -1.819   7.823  1.00  0.00     0.163 HD
ATOM     31  O   UNL     1       3.025  -1.413   9.979  1.00  0.00    -0.269 OA
BRANCH  29  32
ATOM     32  C   UNL     1       1.097  -0.211  10.573  1.00  0.00     0.039 A 
ATOM     33  C   UNL     1       1.720   0.632  11.495  1.00  0.00     0.014 A 
ATOM     34  C   UNL     1      -0.296  -0.329  10.554  1.00  0.00     0.014 A 
ATOM     35  C   UNL     1       0.939   1.401  12.355  1.00  0.00     0.010 A 
ATOM     36  C   UNL     1      -1.072   0.517  11.334  1.00  0.00     0.010 A 
ATOM     37  C   UNL     1      -0.462   1.381  12.252  1.00  0.00    -0.014 A 
BRANCH  37  38
ATOM     38  C   UNL     1      -1.290   2.276  13.092  1.00  0.00     0.031 A 
ATOM     39  C   UNL     1      -2.277   1.712  14.073  1.00  0.00     0.074 A 
ATOM     40  C   UNL     1      -1.176   3.608  12.930  1.00  0.00     0.049 A 
ATOM     41  N   UNL     1      -3.059   2.344  14.910  1.00  0.00    -0.248 NA
ATOM     42  C   UNL     1      -2.431   0.249  14.098  1.00  0.00     0.031 C 
ATOM     43  C   UNL     1      -0.317   4.269  11.945  1.00  0.00     0.029 A 
ATOM     44  N   UNL     1      -1.783   4.644  13.590  1.00  0.00    -0.354 N 
ATOM     45  C   UNL     1      -3.802   1.360  15.549  1.00  0.00     0.074 A 
ATOM     46  C   UNL     1      -3.426   0.095  14.957  1.00  0.00     0.031 C 
ATOM     47  C   UNL     1      -0.420   5.598  12.092  1.00  0.00     0.029 A 
ATOM     48  C   UNL     1      -1.380   5.882  13.153  1.00  0.00     0.049 A 
ATOM     49  H   UNL     1      -2.444   4.514  14.308  1.00  0.00     0.167 HD
ATOM     50  C   UNL     1      -4.699   1.497  16.555  1.00  0.00     0.037 A 
ATOM     51  C   UNL     1      -1.744   7.111  13.563  1.00  0.00     0.037 A 
ATOM     52  C   UNL     1      -5.058   2.761  17.142  1.00  0.00     0.049 A 
ATOM     53  C   UNL     1      -2.717   7.238  14.699  1.00  0.00     0.074 A 
ATOM     54  C   UNL     1      -5.891   3.007  18.219  1.00  0.00     0.029 A 
ATOM     55  N   UNL     1      -4.615   3.997  16.690  1.00  0.00    -0.354 N 
ATOM     56  N   UNL     1      -3.332   6.294  15.371  1.00  0.00    -0.248 NA
ATOM     57  C   UNL     1      -3.033   8.600  15.146  1.00  0.00     0.031 C 
ATOM     58  C   UNL     1      -6.005   4.394  18.375  1.00  0.00     0.029 A 
ATOM     59  C   UNL     1      -5.188   5.011  17.441  1.00  0.00     0.049 A 
ATOM     60  H   UNL     1      -3.986   4.133  15.944  1.00  0.00     0.167 HD
ATOM     61  C   UNL     1      -4.100   6.945  16.327  1.00  0.00     0.074 A 
ATOM     62  C   UNL     1      -3.843   8.363  16.167  1.00  0.00     0.031 C 
ATOM     63  C   UNL     1      -4.942   6.420  17.252  1.00  0.00     0.037 A 
BRANCH  50  64
ATOM     64  C   UNL     1      -5.359   0.246  17.066  1.00  0.00     0.057 A 
ATOM     65  C   UNL     1      -4.646  -0.752  17.746  1.00  0.00     0.134 A 
ATOM     66  C   UNL     1      -6.732   0.040  16.882  1.00  0.00     0.134 A 
ATOM     67  F   UNL     1      -3.325  -0.627  17.946  1.00  0.00    -0.206 F 
ATOM     68  C   UNL     1      -5.264  -1.924  18.187  1.00  0.00     0.040 A 
ATOM     69  C   UNL     1      -7.369  -1.112  17.349  1.00  0.00     0.040 A 
ATOM     70  F   UNL     1      -7.480   0.954  16.246  1.00  0.00    -0.206 F 
ATOM     71  C   UNL     1      -6.632  -2.103  17.994  1.00  0.00     0.006 A 
ENDBRANCH  50  64
BRANCH  51  72
ATOM     72  C   UNL     1      -1.162   8.307  12.904  1.00  0.00     0.057 A 
ATOM     73  C   UNL     1      -0.251   9.135  13.568  1.00  0.00     0.134 A 
ATOM     74  C   UNL     1      -1.484   8.633  11.580  1.00  0.00     0.134 A 
ATOM     75  F   UNL     1       0.088   8.883  14.841  1.00  0.00    -0.206 F 
ATOM     76  C   UNL     1       0.307  10.254  12.947  1.00  0.00     0.040 A 
ATOM     77  C   UNL     1      -0.912   9.731  10.938  1.00  0.00     0.040 A 
ATOM     78  F   UNL     1      -2.340   7.870  10.884  1.00  0.00    -0.206 F 
ATOM     79  C   UNL     1      -0.018  10.550  11.624  1.00  0.00     0.006 A 
ENDBRANCH  51  72
BRANCH  63  80
ATOM     80  C   UNL     1      -5.637   7.392  18.163  1.00  0.00     0.057 A 
ATOM     81  C   UNL     1      -6.615   8.280  17.694  1.00  0.00     0.134 A 
ATOM     82  C   UNL     1      -5.322   7.443  19.527  1.00  0.00     0.134 A 
ATOM     83  F   UNL     1      -6.957   8.292  16.396  1.00  0.00    -0.206 F 
ATOM     84  C   UNL     1      -7.222   9.211  18.538  1.00  0.00     0.040 A 
ATOM     85  C   UNL     1      -5.948   8.346  20.388  1.00  0.00     0.040 A 
ATOM     86  F   UNL     1      -4.405   6.614  20.047  1.00  0.00    -0.206 F 
ATOM     87  C   UNL     1      -6.891   9.243  19.891  1.00  0.00     0.006 A 
ENDBRANCH  63  80
ENDBRANCH  37  38
ENDBRANCH  29  32
ENDBRANCH  27  28
ENDBRANCH  26  27
ENDBRANCH   1  26
TORSDOF 15
