REMARK SMILES O=C(NCCCNC(=O)[C@H](CO)NC(=O)[C@H](CS)NC(=O)[C@H](Cc1c[nH]c2ccccc12)NC(=O)c1ccc(F)cc1)c1ccc(-c2c3nc(c(-c4c(F)cccc4F)c4ccc([nH]4)c(-c4c(F)cccc4F)c4nc(c(-c5c(F)cccc5F)c5ccc2[nH]5)C=C4)C=C3)cc1
REMARK SMILES IDX 7 1 8 2 9 3 6 5 5 6 4 7 3 8 1 9 2 10 43 12 44 13 96 14 45 15
REMARK SMILES IDX 95 16 46 17 47 18 48 19 89 20 49 21 94 22 88 23 90 24 50 25
REMARK SMILES IDX 93 26 87 27 86 28 51 30 77 31 60 32 76 33 61 34 64 35 75 36
REMARK SMILES IDX 91 37 62 38 63 39 74 41 92 42 65 43 52 44 53 45 58 46 54 47
REMARK SMILES IDX 55 48 57 49 59 50 56 51 78 52 79 53 84 54 80 55 81 56 83 57
REMARK SMILES IDX 85 58 82 59 66 60 67 61 72 62 68 63 69 64 71 65 73 66 70 67
REMARK SMILES IDX 10 68 13 69 14 70 15 72 16 73 19 74 20 75 21 77 22 78 33 79
REMARK SMILES IDX 34 80 35 82 36 83 37 84 42 85 38 86 41 87 39 88 40 89 23 90
REMARK SMILES IDX 24 91 25 92 32 93 26 94 27 95 31 96 28 98 30 99 29 100
REMARK SMILES IDX 17 101 18 102 11 104 12 105
REMARK H PARENT 7 4 3 11 90 29 64 40 13 71 19 76 33 81 26 97 18 103 12 106
REMARK Flexibility Score: inf
ROOT
ATOM      1  N   UNL     1       6.830  14.880   9.510  1.00  0.00    -0.354 N 
ATOM      2  C   UNL     1       7.155  14.216   8.375  1.00  0.00     0.244 C 
ATOM      3  O   UNL     1       7.967  13.299   8.492  1.00  0.00    -0.273 OA
ATOM      4  H   UNL     1       7.449  14.732  10.261  1.00  0.00     0.163 HD
ENDROOT
BRANCH   1   5
ATOM      5  C   UNL     1       5.728  15.769   9.805  1.00  0.00     0.117 C 
BRANCH   5   6
ATOM      6  C   UNL     1       4.575  15.004  10.434  1.00  0.00     0.042 C 
BRANCH   6   7
ATOM      7  C   UNL     1       4.995  14.198  11.656  1.00  0.00     0.118 C 
BRANCH   7   8
ATOM      8  N   UNL     1       5.518  15.053  12.714  1.00  0.00    -0.352 N 
ATOM      9  O   UNL     1       5.362  16.392  14.524  1.00  0.00    -0.269 OA
ATOM     10  C   UNL     1       4.902  15.462  13.869  1.00  0.00     0.251 C 
ATOM     11  H   UNL     1       6.437  15.379  12.583  1.00  0.00     0.163 HD
BRANCH  10  12
ATOM     12  C   UNL     1       3.678  14.770  14.309  1.00  0.00     0.039 A 
ATOM     13  C   UNL     1       3.627  13.374  14.280  1.00  0.00     0.014 A 
ATOM     14  C   UNL     1       2.590  15.512  14.773  1.00  0.00     0.014 A 
ATOM     15  C   UNL     1       2.447  12.722  14.593  1.00  0.00     0.010 A 
ATOM     16  C   UNL     1       1.436  14.848  15.189  1.00  0.00     0.010 A 
ATOM     17  C   UNL     1       1.359  13.449  15.099  1.00  0.00    -0.014 A 
BRANCH  17  18
ATOM     18  C   UNL     1       0.221  12.705  15.681  1.00  0.00     0.031 A 
ATOM     19  C   UNL     1      -1.147  12.768  15.079  1.00  0.00     0.074 A 
ATOM     20  C   UNL     1       0.466  11.961  16.778  1.00  0.00     0.049 A 
ATOM     21  N   UNL     1      -2.249  12.205  15.502  1.00  0.00    -0.248 NA
ATOM     22  C   UNL     1      -1.311  13.564  13.852  1.00  0.00     0.031 C 
ATOM     23  C   UNL     1       1.770  11.847  17.442  1.00  0.00     0.029 A 
ATOM     24  N   UNL     1      -0.354  11.156  17.523  1.00  0.00    -0.354 N 
ATOM     25  C   UNL     1      -3.239  12.591  14.611  1.00  0.00     0.074 A 
ATOM     26  C   UNL     1      -2.614  13.445  13.624  1.00  0.00     0.031 C 
ATOM     27  C   UNL     1       1.670  10.994  18.469  1.00  0.00     0.029 A 
ATOM     28  C   UNL     1       0.284  10.564  18.586  1.00  0.00     0.049 A 
ATOM     29  H   UNL     1      -1.306  11.015  17.317  1.00  0.00     0.167 HD
ATOM     30  C   UNL     1      -4.548  12.251  14.626  1.00  0.00     0.037 A 
ATOM     31  C   UNL     1      -0.200   9.792  19.575  1.00  0.00     0.037 A 
ATOM     32  C   UNL     1      -5.142  11.373  15.601  1.00  0.00     0.049 A 
ATOM     33  C   UNL     1      -1.661   9.467  19.581  1.00  0.00     0.074 A 
ATOM     34  C   UNL     1      -6.446  10.914  15.660  1.00  0.00     0.029 A 
ATOM     35  N   UNL     1      -4.474  10.827  16.687  1.00  0.00    -0.354 N 
ATOM     36  N   UNL     1      -2.580   9.810  18.711  1.00  0.00    -0.248 NA
ATOM     37  C   UNL     1      -2.161   8.669  20.707  1.00  0.00     0.031 C 
ATOM     38  C   UNL     1      -6.581  10.130  16.808  1.00  0.00     0.029 A 
ATOM     39  C   UNL     1      -5.350  10.067  17.443  1.00  0.00     0.049 A 
ATOM     40  H   UNL     1      -3.520  10.960  16.890  1.00  0.00     0.167 HD
ATOM     41  C   UNL     1      -3.767   9.275  19.184  1.00  0.00     0.074 A 
ATOM     42  C   UNL     1      -3.449   8.562  20.405  1.00  0.00     0.031 C 
ATOM     43  C   UNL     1      -5.011   9.376  18.659  1.00  0.00     0.037 A 
BRANCH  30  44
ATOM     44  C   UNL     1      -5.449  12.819  13.572  1.00  0.00     0.057 A 
ATOM     45  C   UNL     1      -6.400  13.794  13.904  1.00  0.00     0.134 A 
ATOM     46  C   UNL     1      -5.469  12.311  12.269  1.00  0.00     0.134 A 
ATOM     47  F   UNL     1      -6.437  14.315  15.140  1.00  0.00    -0.206 F 
ATOM     48  C   UNL     1      -7.357  14.223  12.983  1.00  0.00     0.040 A 
ATOM     49  C   UNL     1      -6.412  12.744  11.334  1.00  0.00     0.040 A 
ATOM     50  F   UNL     1      -4.581  11.381  11.888  1.00  0.00    -0.206 F 
ATOM     51  C   UNL     1      -7.368  13.693  11.695  1.00  0.00     0.006 A 
ENDBRANCH  30  44
BRANCH  31  52
ATOM     52  C   UNL     1       0.710   9.327  20.650  1.00  0.00     0.057 A 
ATOM     53  C   UNL     1       1.275  10.229  21.562  1.00  0.00     0.134 A 
ATOM     54  C   UNL     1       1.074   7.982  20.762  1.00  0.00     0.134 A 
ATOM     55  F   UNL     1       0.973  11.535  21.498  1.00  0.00    -0.206 F 
ATOM     56  C   UNL     1       2.189   9.815  22.530  1.00  0.00     0.040 A 
ATOM     57  C   UNL     1       1.966   7.549  21.745  1.00  0.00     0.040 A 
ATOM     58  F   UNL     1       0.556   7.070  19.927  1.00  0.00    -0.206 F 
ATOM     59  C   UNL     1       2.534   8.469  22.626  1.00  0.00     0.006 A 
ENDBRANCH  31  52
BRANCH  43  60
ATOM     60  C   UNL     1      -6.124   8.712  19.407  1.00  0.00     0.057 A 
ATOM     61  C   UNL     1      -6.716   7.540  18.920  1.00  0.00     0.134 A 
ATOM     62  C   UNL     1      -6.662   9.285  20.565  1.00  0.00     0.134 A 
ATOM     63  F   UNL     1      -6.248   6.951  17.810  1.00  0.00    -0.206 F 
ATOM     64  C   UNL     1      -7.822   6.971  19.551  1.00  0.00     0.040 A 
ATOM     65  C   UNL     1      -7.755   8.713  21.216  1.00  0.00     0.040 A 
ATOM     66  F   UNL     1      -6.127  10.400  21.084  1.00  0.00    -0.206 F 
ATOM     67  C   UNL     1      -8.344   7.559  20.702  1.00  0.00     0.006 A 
ENDBRANCH  43  60
ENDBRANCH  17  18
ENDBRANCH  10  12
ENDBRANCH   7   8
ENDBRANCH   6   7
ENDBRANCH   5   6
ENDBRANCH   1   5
BRANCH   2  68
ATOM     68  C   UNL     1       6.615  14.630   7.002  1.00  0.00     0.197 C 
BRANCH  68  69
ATOM     69  N   UNL     1       5.187  14.331   6.833  1.00  0.00    -0.340 N 
ATOM     70  C   UNL     1       4.586  13.428   5.990  1.00  0.00     0.244 C 
ATOM     71  H   UNL     1       4.575  14.849   7.405  1.00  0.00     0.164 HD
ATOM     72  O   UNL     1       3.381  13.212   6.133  1.00  0.00    -0.273 OA
BRANCH  70  73
ATOM     73  C   UNL     1       5.405  12.768   4.860  1.00  0.00     0.181 C 
BRANCH  73  74
ATOM     74  N   UNL     1       4.855  11.485   4.409  1.00  0.00    -0.342 N 
ATOM     75  C   UNL     1       5.529  10.344   4.040  1.00  0.00     0.243 C 
ATOM     76  H   UNL     1       3.873  11.434   4.364  1.00  0.00     0.164 HD
ATOM     77  O   UNL     1       4.885   9.401   3.583  1.00  0.00    -0.273 OA
BRANCH  75  78
ATOM     78  C   UNL     1       7.070  10.296   4.206  1.00  0.00     0.176 C 
BRANCH  78  79
ATOM     79  N   UNL     1       7.354  10.323   5.649  1.00  0.00    -0.340 N 
ATOM     80  C   UNL     1       8.391  10.790   6.413  1.00  0.00     0.251 C 
ATOM     81  H   UNL     1       6.638   9.914   6.187  1.00  0.00     0.164 HD
ATOM     82  O   UNL     1       8.487  10.289   7.536  1.00  0.00    -0.269 OA
BRANCH  80  83
ATOM     83  C   UNL     1       9.342  11.883   6.023  1.00  0.00     0.040 A 
ATOM     84  C   UNL     1       9.153  12.797   4.979  1.00  0.00     0.017 A 
ATOM     85  C   UNL     1      10.439  12.097   6.879  1.00  0.00     0.017 A 
ATOM     86  C   UNL     1      10.014  13.886   4.794  1.00  0.00     0.040 A 
ATOM     87  C   UNL     1      11.298  13.188   6.705  1.00  0.00     0.040 A 
ATOM     88  C   UNL     1      11.075  14.075   5.664  1.00  0.00     0.123 A 
ATOM     89  F   UNL     1      11.876  15.136   5.507  1.00  0.00    -0.207 F 
ENDBRANCH  80  83
ENDBRANCH  78  79
BRANCH  78  90
ATOM     90  C   UNL     1       7.690   9.041   3.552  1.00  0.00     0.072 C 
BRANCH  90  91
ATOM     91  C   UNL     1       9.198   9.062   3.562  1.00  0.00    -0.020 A 
ATOM     92  C   UNL     1      10.006  10.106   3.148  1.00  0.00     0.087 A 
ATOM     93  C   UNL     1      10.082   8.015   3.991  1.00  0.00     0.003 A 
ATOM     94  N   UNL     1      11.303   9.800   3.455  1.00  0.00    -0.361 N 
ATOM     95  C   UNL     1      11.384   8.516   3.932  1.00  0.00     0.046 A 
ATOM     96  C   UNL     1       9.903   6.687   4.433  1.00  0.00     0.010 A 
ATOM     97  H   UNL     1      12.067  10.412   3.350  1.00  0.00     0.166 HD
ATOM     98  C   UNL     1      12.508   7.773   4.311  1.00  0.00     0.026 A 
ATOM     99  C   UNL     1      11.020   5.917   4.782  1.00  0.00     0.001 A 
ATOM    100  C   UNL     1      12.303   6.456   4.728  1.00  0.00     0.002 A 
ENDBRANCH  90  91
ENDBRANCH  78  90
ENDBRANCH  75  78
ENDBRANCH  73  74
BRANCH  73 101
ATOM    101  C   UNL     1       5.624  13.755   3.700  1.00  0.00     0.101 C 
BRANCH 101 102
ATOM    102  S   UNL     1       4.152  14.082   2.679  1.00  0.00    -0.177 SA
ATOM    103  H   UNL     1       3.754  12.930   2.075  1.00  0.00     0.102 HD
ENDBRANCH 101 102
ENDBRANCH  73 101
ENDBRANCH  70  73
ENDBRANCH  68  69
BRANCH  68 104
ATOM    104  C   UNL     1       6.998  16.079   6.671  1.00  0.00     0.191 C 
BRANCH 104 105
ATOM    105  O   UNL     1       8.411  16.265   6.665  1.00  0.00    -0.394 OA
ATOM    106  H   UNL     1       8.767  16.065   7.545  1.00  0.00     0.210 HD
ENDBRANCH 104 105
ENDBRANCH  68 104
ENDBRANCH   2  68
TORSDOF 22
