REMARK SMILES CNC(=O)CCCn1cc(C(=O)NCCCNC(=O)c2ccc(-c3c4nc(c(-c5c(F)cccc5F)c5ccc([nH]5)c(-c5c(F)cccc5F)c5nc(c(-c6c(F)cccc6F)c6ccc3[nH]6)C=C5)C=C4)cc2)cc1Br
REMARK SMILES IDX 14 1 13 2 11 3 12 4 10 6 8 7 9 8 75 9 74 10 76 11 7 12 6 13
REMARK SMILES IDX 5 14 3 15 1 16 2 17 4 19 15 20 16 21 17 22 18 23 19 25 20 26
REMARK SMILES IDX 21 27 73 28 22 29 72 30 23 31 24 32 25 33 66 34 26 35 71 36
REMARK SMILES IDX 65 37 67 38 27 39 70 40 64 41 63 42 28 44 54 45 37 46 53 47
REMARK SMILES IDX 38 48 41 49 52 50 68 51 39 52 40 53 51 55 69 56 42 57 29 58
REMARK SMILES IDX 30 59 35 60 31 61 32 62 34 63 36 64 33 65 55 66 56 67 61 68
REMARK SMILES IDX 57 69 58 70 60 71 62 72 59 73 43 74 44 75 49 76 45 77 46 78
REMARK SMILES IDX 48 79 50 80 47 81
REMARK H PARENT 13 5 2 18 17 24 67 43 41 54
REMARK Flexibility Score: inf
ROOT
ATOM      1  C   UNL     1      -2.917   1.100   0.244  1.00  0.00     0.118 C 
ENDROOT
BRANCH   1   2
ATOM      2  N   UNL     1      -2.978   2.516   0.588  1.00  0.00    -0.352 N 
ATOM      3  C   UNL     1      -2.028   3.337   1.146  1.00  0.00     0.252 C 
ATOM      4  O   UNL     1      -2.229   4.559   1.115  1.00  0.00    -0.269 OA
ATOM      5  H   UNL     1      -3.837   2.953   0.388  1.00  0.00     0.163 HD
BRANCH   3   6
ATOM      6  C   UNL     1      -0.790   2.788   1.685  1.00  0.00     0.058 A 
ATOM      7  N   UNL     1       0.758   1.343   2.427  1.00  0.00    -0.342 N 
ATOM      8  C   UNL     1      -0.591   1.571   2.321  1.00  0.00     0.100 A 
ATOM      9  C   UNL     1       1.398   2.537   2.205  1.00  0.00     0.085 A 
ATOM     10  C   UNL     1       0.476   3.445   1.740  1.00  0.00     0.049 A 
ATOM     11  Br  UNL     1       3.218   2.898   2.421  1.00  0.00    -0.031 Br
BRANCH   7  12
ATOM     12  C   UNL     1       1.430   0.063   2.606  1.00  0.00     0.123 C 
BRANCH  12  13
ATOM     13  C   UNL     1       0.602  -1.203   2.869  1.00  0.00     0.032 C 
BRANCH  13  14
ATOM     14  C   UNL     1      -0.424  -1.658   1.829  1.00  0.00     0.102 C 
BRANCH  14  15
ATOM     15  C   UNL     1       0.064  -2.408   0.609  1.00  0.00     0.219 C 
ATOM     16  C   UNL     1       0.775  -0.346  -0.710  1.00  0.00     0.142 C 
ATOM     17  N   UNL     1       0.533  -1.749  -0.481  1.00  0.00    -0.359 N 
ATOM     18  H   UNL     1       0.744  -2.329  -1.248  1.00  0.00     0.163 HD
ATOM     19  O   UNL     1      -0.025  -3.636   0.553  1.00  0.00    -0.275 OA
ENDBRANCH  14  15
ENDBRANCH  13  14
ENDBRANCH  12  13
ENDBRANCH   7  12
ENDBRANCH   3   6
ENDBRANCH   1   2
BRANCH   1  20
ATOM     20  C   UNL     1      -3.649   0.200   1.246  1.00  0.00     0.042 C 
BRANCH  20  21
ATOM     21  C   UNL     1      -5.148   0.188   1.018  1.00  0.00     0.118 C 
BRANCH  21  22
ATOM     22  N   UNL     1      -5.553  -0.559  -0.190  1.00  0.00    -0.352 N 
ATOM     23  C   UNL     1      -6.830  -0.827  -0.663  1.00  0.00     0.251 C 
ATOM     24  H   UNL     1      -4.815  -0.916  -0.735  1.00  0.00     0.163 HD
ATOM     25  O   UNL     1      -7.026  -1.719  -1.497  1.00  0.00    -0.269 OA
BRANCH  23  26
ATOM     26  C   UNL     1      -7.955  -0.014  -0.185  1.00  0.00     0.039 A 
ATOM     27  C   UNL     1      -9.257  -0.476   0.055  1.00  0.00     0.014 A 
ATOM     28  C   UNL     1      -7.633   1.285   0.118  1.00  0.00     0.014 A 
ATOM     29  C   UNL     1     -10.188   0.418   0.597  1.00  0.00     0.010 A 
ATOM     30  C   UNL     1      -8.342   1.825   1.129  1.00  0.00     0.010 A 
ATOM     31  C   UNL     1      -9.701   1.622   1.095  1.00  0.00    -0.014 A 
BRANCH  31  32
ATOM     32  C   UNL     1     -10.464   2.724   1.657  1.00  0.00     0.031 A 
ATOM     33  C   UNL     1     -10.941   2.486   3.039  1.00  0.00     0.074 A 
ATOM     34  C   UNL     1     -10.339   3.965   1.118  1.00  0.00     0.049 A 
ATOM     35  N   UNL     1     -12.156   2.320   3.443  1.00  0.00    -0.248 NA
ATOM     36  C   UNL     1      -9.929   2.209   4.076  1.00  0.00     0.031 C 
ATOM     37  C   UNL     1      -9.540   4.386  -0.048  1.00  0.00     0.029 A 
ATOM     38  N   UNL     1     -10.800   5.157   1.591  1.00  0.00    -0.354 N 
ATOM     39  C   UNL     1     -12.059   2.157   4.823  1.00  0.00     0.074 A 
ATOM     40  C   UNL     1     -10.694   1.807   5.090  1.00  0.00     0.031 C 
ATOM     41  C   UNL     1      -9.396   5.732  -0.050  1.00  0.00     0.029 A 
ATOM     42  C   UNL     1     -10.210   6.284   1.014  1.00  0.00     0.049 A 
ATOM     43  H   UNL     1     -11.495   5.219   2.286  1.00  0.00     0.167 HD
ATOM     44  C   UNL     1     -13.014   2.640   5.665  1.00  0.00     0.037 A 
ATOM     45  C   UNL     1     -10.359   7.564   1.444  1.00  0.00     0.037 A 
ATOM     46  C   UNL     1     -14.194   3.027   4.931  1.00  0.00     0.049 A 
ATOM     47  C   UNL     1     -11.558   7.584   2.326  1.00  0.00     0.074 A 
ATOM     48  C   UNL     1     -15.070   2.371   4.088  1.00  0.00     0.029 A 
ATOM     49  N   UNL     1     -14.366   4.368   4.679  1.00  0.00    -0.354 N 
ATOM     50  N   UNL     1     -12.771   7.355   1.896  1.00  0.00    -0.248 NA
ATOM     51  C   UNL     1     -11.342   7.336   3.744  1.00  0.00     0.031 C 
ATOM     52  C   UNL     1     -15.340   3.305   3.044  1.00  0.00     0.029 A 
ATOM     53  C   UNL     1     -14.692   4.503   3.353  1.00  0.00     0.049 A 
ATOM     54  H   UNL     1     -14.271   5.099   5.331  1.00  0.00     0.167 HD
ATOM     55  C   UNL     1     -13.345   6.542   2.865  1.00  0.00     0.074 A 
ATOM     56  C   UNL     1     -12.436   6.614   4.009  1.00  0.00     0.031 C 
ATOM     57  C   UNL     1     -14.328   5.646   2.547  1.00  0.00     0.037 A 
BRANCH  44  58
ATOM     58  C   UNL     1     -12.755   3.137   7.069  1.00  0.00     0.057 A 
ATOM     59  C   UNL     1     -13.856   3.436   7.891  1.00  0.00     0.134 A 
ATOM     60  C   UNL     1     -11.510   3.589   7.557  1.00  0.00     0.134 A 
ATOM     61  F   UNL     1     -15.096   3.065   7.539  1.00  0.00    -0.206 F 
ATOM     62  C   UNL     1     -13.737   4.196   9.061  1.00  0.00     0.040 A 
ATOM     63  C   UNL     1     -11.373   4.298   8.753  1.00  0.00     0.040 A 
ATOM     64  F   UNL     1     -10.370   3.466   6.867  1.00  0.00    -0.206 F 
ATOM     65  C   UNL     1     -12.493   4.636   9.492  1.00  0.00     0.006 A 
ENDBRANCH  44  58
BRANCH  45  66
ATOM     66  C   UNL     1      -9.359   8.661   1.430  1.00  0.00     0.057 A 
ATOM     67  C   UNL     1      -9.734  10.004   1.580  1.00  0.00     0.134 A 
ATOM     68  C   UNL     1      -7.982   8.393   1.536  1.00  0.00     0.134 A 
ATOM     69  F   UNL     1     -11.027  10.356   1.541  1.00  0.00    -0.206 F 
ATOM     70  C   UNL     1      -8.796  11.018   1.833  1.00  0.00     0.040 A 
ATOM     71  C   UNL     1      -7.036   9.394   1.785  1.00  0.00     0.040 A 
ATOM     72  F   UNL     1      -7.519   7.136   1.490  1.00  0.00    -0.206 F 
ATOM     73  C   UNL     1      -7.443  10.712   1.946  1.00  0.00     0.006 A 
ENDBRANCH  45  66
BRANCH  57  74
ATOM     74  C   UNL     1     -14.919   5.707   1.161  1.00  0.00     0.057 A 
ATOM     75  C   UNL     1     -14.205   5.429  -0.016  1.00  0.00     0.134 A 
ATOM     76  C   UNL     1     -16.299   5.881   1.026  1.00  0.00     0.134 A 
ATOM     77  F   UNL     1     -12.899   5.146   0.017  1.00  0.00    -0.206 F 
ATOM     78  C   UNL     1     -14.825   5.367  -1.268  1.00  0.00     0.040 A 
ATOM     79  C   UNL     1     -16.938   5.791  -0.213  1.00  0.00     0.040 A 
ATOM     80  F   UNL     1     -17.061   6.088   2.111  1.00  0.00    -0.206 F 
ATOM     81  C   UNL     1     -16.200   5.542  -1.368  1.00  0.00     0.006 A 
ENDBRANCH  57  74
ENDBRANCH  31  32
ENDBRANCH  23  26
ENDBRANCH  21  22
ENDBRANCH  20  21
ENDBRANCH   1  20
TORSDOF 14
