REMARK SMILES Cc1cscc1-c1noc(SCC(=O)NCCCNC(=O)c2ccc(-c3c4nc(c(-c5c(F)cccc5F)c5ccc([nH]5)c(-c5c(F)cccc5F)c5nc(c(-c6c(F)cccc6F)c6ccc3[nH]6)C=C5)C=C4)cc2)n1
REMARK SMILES IDX 16 1 15 2 13 3 14 4 12 6 11 7 10 8 7 9 8 10 76 11 9 12 6 13
REMARK SMILES IDX 1 14 2 15 3 16 4 17 5 18 17 19 18 20 19 21 20 22 21 24 22 25
REMARK SMILES IDX 23 26 75 27 24 28 74 29 25 30 26 31 27 32 68 33 28 34 73 35
REMARK SMILES IDX 67 36 69 37 29 38 72 39 66 40 65 41 30 43 56 44 39 45 55 46
REMARK SMILES IDX 40 47 43 48 54 49 70 50 41 51 42 52 53 54 71 55 44 56 31 57
REMARK SMILES IDX 32 58 37 59 33 60 34 61 36 62 38 63 35 64 57 65 58 66 63 67
REMARK SMILES IDX 59 68 60 69 62 70 64 71 61 72 45 73 46 74 51 75 47 76 48 77
REMARK SMILES IDX 50 78 52 79 49 80
REMARK H PARENT 15 5 19 23 69 42 43 53
REMARK Flexibility Score: inf
ROOT
ATOM      1  C   UNL     1       6.948   3.814  -1.694  1.00  0.00     0.117 C 
ENDROOT
BRANCH   1   2
ATOM      2  N   UNL     1       6.112   2.693  -2.082  1.00  0.00    -0.355 N 
ATOM      3  C   UNL     1       4.858   2.671  -2.618  1.00  0.00     0.230 C 
ATOM      4  O   UNL     1       4.386   1.566  -2.898  1.00  0.00    -0.274 OA
ATOM      5  H   UNL     1       6.514   1.807  -1.935  1.00  0.00     0.163 HD
BRANCH   3   6
ATOM      6  C   UNL     1       4.128   3.954  -2.966  1.00  0.00     0.179 C 
BRANCH   6   7
ATOM      7  S   UNL     1       3.736   4.997  -1.544  1.00  0.00    -0.055 SA
BRANCH   7   8
ATOM      8  C   UNL     1       2.593   4.036  -0.664  1.00  0.00     0.286 A 
ATOM      9  C   UNL     1       1.303   2.531  -0.002  1.00  0.00     0.204 A 
ATOM     10  N   UNL     1       1.049   3.532   0.848  1.00  0.00    -0.056 NA
ATOM     11  N   UNL     1       2.260   2.800  -0.946  1.00  0.00    -0.181 NA
ATOM     12  O   UNL     1       1.923   4.532   0.422  1.00  0.00    -0.327 OA
BRANCH   9  13
ATOM     13  C   UNL     1       0.570   1.264  -0.003  1.00  0.00     0.036 A 
ATOM     14  C   UNL     1       2.663  -0.289  -0.141  1.00  0.00     0.046 C 
ATOM     15  C   UNL     1       1.193  -0.030  -0.081  1.00  0.00    -0.029 A 
ATOM     16  C   UNL     1       0.234  -1.029  -0.070  1.00  0.00     0.069 A 
ATOM     17  S   UNL     1      -1.361  -0.428   0.043  1.00  0.00    -0.151 S 
ATOM     18  C   UNL     1      -0.804   1.184   0.087  1.00  0.00     0.077 A 
ENDBRANCH   9  13
ENDBRANCH   7   8
ENDBRANCH   6   7
ENDBRANCH   3   6
ENDBRANCH   1   2
BRANCH   1  19
ATOM     19  C   UNL     1       7.012   3.983  -0.177  1.00  0.00     0.042 C 
BRANCH  19  20
ATOM     20  C   UNL     1       7.633   2.801   0.564  1.00  0.00     0.118 C 
BRANCH  20  21
ATOM     21  N   UNL     1       9.044   2.619   0.255  1.00  0.00    -0.352 N 
ATOM     22  C   UNL     1      10.130   2.557   1.090  1.00  0.00     0.251 C 
ATOM     23  H   UNL     1       9.250   2.524  -0.703  1.00  0.00     0.163 HD
ATOM     24  O   UNL     1      11.263   2.559   0.607  1.00  0.00    -0.269 OA
BRANCH  22  25
ATOM     25  C   UNL     1       9.964   2.513   2.559  1.00  0.00     0.039 A 
ATOM     26  C   UNL     1      10.827   3.276   3.354  1.00  0.00     0.014 A 
ATOM     27  C   UNL     1       8.997   1.705   3.163  1.00  0.00     0.014 A 
ATOM     28  C   UNL     1      10.678   3.279   4.743  1.00  0.00     0.010 A 
ATOM     29  C   UNL     1       8.805   1.759   4.543  1.00  0.00     0.010 A 
ATOM     30  C   UNL     1       9.643   2.547   5.347  1.00  0.00    -0.014 A 
BRANCH  30  31
ATOM     31  C   UNL     1       9.415   2.606   6.814  1.00  0.00     0.031 A 
ATOM     32  C   UNL     1       9.585   1.377   7.663  1.00  0.00     0.074 A 
ATOM     33  C   UNL     1       8.988   3.755   7.375  1.00  0.00     0.049 A 
ATOM     34  N   UNL     1       9.356   1.217   8.942  1.00  0.00    -0.248 NA
ATOM     35  C   UNL     1      10.053   0.161   6.980  1.00  0.00     0.031 C 
ATOM     36  C   UNL     1       8.740   5.006   6.657  1.00  0.00     0.029 A 
ATOM     37  N   UNL     1       8.672   4.051   8.678  1.00  0.00    -0.354 N 
ATOM     38  C   UNL     1       9.633  -0.117   9.213  1.00  0.00     0.074 A 
ATOM     39  C   UNL     1      10.006  -0.733   7.957  1.00  0.00     0.031 C 
ATOM     40  C   UNL     1       8.326   5.939   7.529  1.00  0.00     0.029 A 
ATOM     41  C   UNL     1       8.244   5.344   8.860  1.00  0.00     0.049 A 
ATOM     42  H   UNL     1       8.746   3.399   9.412  1.00  0.00     0.167 HD
ATOM     43  C   UNL     1       9.597  -0.766  10.401  1.00  0.00     0.037 A 
ATOM     44  C   UNL     1       7.823   5.977   9.971  1.00  0.00     0.037 A 
ATOM     45  C   UNL     1       9.252  -0.147  11.655  1.00  0.00     0.049 A 
ATOM     46  C   UNL     1       7.795   5.236  11.278  1.00  0.00     0.074 A 
ATOM     47  C   UNL     1       9.250  -0.708  12.921  1.00  0.00     0.029 A 
ATOM     48  N   UNL     1       8.847   1.170  11.801  1.00  0.00    -0.354 N 
ATOM     49  N   UNL     1       8.120   3.991  11.529  1.00  0.00    -0.248 NA
ATOM     50  C   UNL     1       7.344   5.989  12.457  1.00  0.00     0.031 C 
ATOM     51  C   UNL     1       8.807   0.260  13.828  1.00  0.00     0.029 A 
ATOM     52  C   UNL     1       8.574   1.436  13.133  1.00  0.00     0.049 A 
ATOM     53  H   UNL     1       8.765   1.821  11.067  1.00  0.00     0.167 HD
ATOM     54  C   UNL     1       7.940   3.819  12.895  1.00  0.00     0.074 A 
ATOM     55  C   UNL     1       7.488   5.090  13.421  1.00  0.00     0.031 C 
ATOM     56  C   UNL     1       8.131   2.707  13.645  1.00  0.00     0.037 A 
BRANCH  43  57
ATOM     57  C   UNL     1       9.944  -2.226  10.404  1.00  0.00     0.057 A 
ATOM     58  C   UNL     1      11.257  -2.673  10.207  1.00  0.00     0.134 A 
ATOM     59  C   UNL     1       8.962  -3.195  10.646  1.00  0.00     0.134 A 
ATOM     60  F   UNL     1      12.243  -1.797   9.959  1.00  0.00    -0.206 F 
ATOM     61  C   UNL     1      11.577  -4.031  10.226  1.00  0.00     0.040 A 
ATOM     62  C   UNL     1       9.274  -4.554  10.693  1.00  0.00     0.040 A 
ATOM     63  F   UNL     1       7.685  -2.835  10.850  1.00  0.00    -0.206 F 
ATOM     64  C   UNL     1      10.584  -4.976  10.477  1.00  0.00     0.006 A 
ENDBRANCH  43  57
BRANCH  44  65
ATOM     65  C   UNL     1       7.410   7.401   9.900  1.00  0.00     0.057 A 
ATOM     66  C   UNL     1       8.199   8.409  10.465  1.00  0.00     0.134 A 
ATOM     67  C   UNL     1       6.220   7.786   9.273  1.00  0.00     0.134 A 
ATOM     68  F   UNL     1       9.340   8.098  11.096  1.00  0.00    -0.206 F 
ATOM     69  C   UNL     1       7.811   9.749  10.424  1.00  0.00     0.040 A 
ATOM     70  C   UNL     1       5.831   9.125   9.204  1.00  0.00     0.040 A 
ATOM     71  F   UNL     1       5.424   6.867   8.706  1.00  0.00    -0.206 F 
ATOM     72  C   UNL     1       6.626  10.110   9.787  1.00  0.00     0.006 A 
ENDBRANCH  44  65
BRANCH  56  73
ATOM     73  C   UNL     1       7.885   2.824  15.120  1.00  0.00     0.057 A 
ATOM     74  C   UNL     1       6.592   2.909  15.649  1.00  0.00     0.134 A 
ATOM     75  C   UNL     1       8.956   2.813  16.024  1.00  0.00     0.134 A 
ATOM     76  F   UNL     1       5.525   2.939  14.835  1.00  0.00    -0.206 F 
ATOM     77  C   UNL     1       6.372   3.001  17.024  1.00  0.00     0.040 A 
ATOM     78  C   UNL     1       8.747   2.879  17.402  1.00  0.00     0.040 A 
ATOM     79  F   UNL     1      10.219   2.726  15.582  1.00  0.00    -0.206 F 
ATOM     80  C   UNL     1       7.452   2.978  17.905  1.00  0.00     0.006 A 
ENDBRANCH  56  73
ENDBRANCH  30  31
ENDBRANCH  22  25
ENDBRANCH  20  21
ENDBRANCH  19  20
ENDBRANCH   1  19
TORSDOF 13
