REMARK SMILES O=C(Cn1nc(-c2ccccc2)ccc1=O)N[C@@H](C(=O)NCCCNC(=O)c1ccc(-c2c3nc(c(-c4c(F)cccc4F)c4ccc([nH]4)c(-c4c(F)cccc4F)c4nc(c(-c5c(F)cccc5F)c5ccc2[nH]5)C=C4)C=C3)cc1)c1ccccc1
REMARK SMILES IDX 22 1 21 2 19 3 20 4 18 6 17 7 1 8 2 9 3 11 4 12 5 13 15 14
REMARK SMILES IDX 6 15 14 16 16 17 13 18 7 19 8 20 12 21 9 22 11 23 10 24
REMARK SMILES IDX 82 25 83 26 87 27 84 28 86 29 85 30 23 31 24 32 25 33 26 34
REMARK SMILES IDX 27 36 28 37 29 38 81 39 30 40 80 41 31 42 32 43 33 44 74 45
REMARK SMILES IDX 34 46 79 47 73 48 75 49 35 50 78 51 72 52 71 53 36 55 62 56
REMARK SMILES IDX 45 57 61 58 46 59 49 60 60 61 76 62 47 63 48 64 59 66 77 67
REMARK SMILES IDX 50 68 37 69 38 70 43 71 39 72 40 73 42 74 44 75 41 76 63 77
REMARK SMILES IDX 64 78 69 79 65 80 66 81 68 82 70 83 67 84 51 85 52 86 57 87
REMARK SMILES IDX 53 88 54 89 56 90 58 91 55 92
REMARK H PARENT 21 5 17 10 25 35 75 54 49 65
REMARK Flexibility Score: inf
ROOT
ATOM      1  C   UNL     1       1.352   0.795  -3.373  1.00  0.00     0.117 C 
ENDROOT
BRANCH   1   2
ATOM      2  N   UNL     1       2.226  -0.230  -3.906  1.00  0.00    -0.354 N 
ATOM      3  C   UNL     1       2.825  -1.276  -3.258  1.00  0.00     0.247 C 
ATOM      4  O   UNL     1       3.716  -1.864  -3.879  1.00  0.00    -0.272 OA
ATOM      5  H   UNL     1       2.415  -0.166  -4.870  1.00  0.00     0.163 HD
BRANCH   3   6
ATOM      6  C   UNL     1       2.400  -1.655  -1.809  1.00  0.00     0.202 C 
BRANCH   6   7
ATOM      7  N   UNL     1       2.985  -0.768  -0.802  1.00  0.00    -0.339 N 
ATOM      8  O   UNL     1       1.034   0.271  -0.216  1.00  0.00    -0.273 OA
ATOM      9  C   UNL     1       2.210   0.006   0.032  1.00  0.00     0.242 C 
ATOM     10  H   UNL     1       3.965  -0.723  -0.719  1.00  0.00     0.164 HD
BRANCH   9  11
ATOM     11  C   UNL     1       2.936   0.694   1.190  1.00  0.00     0.248 C 
BRANCH  11  12
ATOM     12  N   UNL     1       3.940  -0.126   1.863  1.00  0.00    -0.220 N 
ATOM     13  N   UNL     1       5.015   0.568   2.399  1.00  0.00    -0.169 NA
ATOM     14  C   UNL     1       3.567  -1.389   2.319  1.00  0.00     0.267 A 
ATOM     15  C   UNL     1       5.805  -0.082   3.196  1.00  0.00     0.091 A 
ATOM     16  C   UNL     1       4.597  -2.135   3.067  1.00  0.00     0.075 A 
ATOM     17  O   UNL     1       2.481  -1.921   2.114  1.00  0.00    -0.268 OA
ATOM     18  C   UNL     1       5.699  -1.523   3.499  1.00  0.00     0.036 A 
BRANCH  15  19
ATOM     19  C   UNL     1       6.851   0.638   3.954  1.00  0.00     0.002 A 
ATOM     20  C   UNL     1       6.444   1.607   4.878  1.00  0.00     0.010 A 
ATOM     21  C   UNL     1       8.202   0.307   3.819  1.00  0.00     0.010 A 
ATOM     22  C   UNL     1       7.391   2.232   5.688  1.00  0.00     0.001 A 
ATOM     23  C   UNL     1       9.146   0.945   4.626  1.00  0.00     0.001 A 
ATOM     24  C   UNL     1       8.741   1.899   5.563  1.00  0.00     0.000 A 
ENDBRANCH  15  19
ENDBRANCH  11  12
ENDBRANCH   9  11
ENDBRANCH   6   7
BRANCH   6  25
ATOM     25  C   UNL     1       2.744  -3.116  -1.507  1.00  0.00    -0.016 A 
ATOM     26  C   UNL     1       4.049  -3.519  -1.173  1.00  0.00     0.006 A 
ATOM     27  C   UNL     1       1.755  -4.105  -1.640  1.00  0.00     0.006 A 
ATOM     28  C   UNL     1       4.351  -4.866  -0.964  1.00  0.00     0.000 A 
ATOM     29  C   UNL     1       2.062  -5.453  -1.440  1.00  0.00     0.000 A 
ATOM     30  C   UNL     1       3.358  -5.833  -1.100  1.00  0.00     0.000 A 
ENDBRANCH   6  25
ENDBRANCH   3   6
ENDBRANCH   1   2
BRANCH   1  31
ATOM     31  C   UNL     1       2.148   2.027  -2.950  1.00  0.00     0.042 C 
BRANCH  31  32
ATOM     32  C   UNL     1       2.765   2.782  -4.125  1.00  0.00     0.118 C 
BRANCH  32  33
ATOM     33  N   UNL     1       1.767   3.410  -4.983  1.00  0.00    -0.352 N 
ATOM     34  C   UNL     1       1.684   4.705  -5.433  1.00  0.00     0.251 C 
ATOM     35  H   UNL     1       1.042   2.816  -5.285  1.00  0.00     0.163 HD
ATOM     36  O   UNL     1       0.680   5.086  -6.030  1.00  0.00    -0.269 OA
BRANCH  34  37
ATOM     37  C   UNL     1       2.787   5.653  -5.170  1.00  0.00     0.039 A 
ATOM     38  C   UNL     1       4.117   5.269  -5.346  1.00  0.00     0.014 A 
ATOM     39  C   UNL     1       2.482   6.941  -4.721  1.00  0.00     0.014 A 
ATOM     40  C   UNL     1       5.138   6.105  -4.907  1.00  0.00     0.010 A 
ATOM     41  C   UNL     1       3.513   7.812  -4.359  1.00  0.00     0.010 A 
ATOM     42  C   UNL     1       4.848   7.379  -4.393  1.00  0.00    -0.014 A 
BRANCH  42  43
ATOM     43  C   UNL     1       5.950   8.219  -3.857  1.00  0.00     0.031 A 
ATOM     44  C   UNL     1       6.008   8.559  -2.391  1.00  0.00     0.074 A 
ATOM     45  C   UNL     1       6.938   8.622  -4.679  1.00  0.00     0.049 A 
ATOM     46  N   UNL     1       6.908   9.252  -1.737  1.00  0.00    -0.248 NA
ATOM     47  C   UNL     1       4.911   8.061  -1.547  1.00  0.00     0.031 C 
ATOM     48  C   UNL     1       7.005   8.347  -6.116  1.00  0.00     0.029 A 
ATOM     49  N   UNL     1       8.087   9.324  -4.420  1.00  0.00    -0.354 N 
ATOM     50  C   UNL     1       6.478   9.286  -0.416  1.00  0.00     0.074 A 
ATOM     51  C   UNL     1       5.218   8.575  -0.365  1.00  0.00     0.031 C 
ATOM     52  C   UNL     1       8.158   8.832  -6.602  1.00  0.00     0.029 A 
ATOM     53  C   UNL     1       8.883   9.499  -5.526  1.00  0.00     0.049 A 
ATOM     54  H   UNL     1       8.319   9.670  -3.528  1.00  0.00     0.167 HD
ATOM     55  C   UNL     1       7.082   9.843   0.662  1.00  0.00     0.037 A 
ATOM     56  C   UNL     1      10.061  10.135  -5.660  1.00  0.00     0.037 A 
ATOM     57  C   UNL     1       8.344  10.537   0.617  1.00  0.00     0.049 A 
ATOM     58  C   UNL     1      10.685  10.785  -4.458  1.00  0.00     0.074 A 
ATOM     59  C   UNL     1       9.045  11.123   1.657  1.00  0.00     0.029 A 
ATOM     60  N   UNL     1       9.094  10.736  -0.532  1.00  0.00    -0.354 N 
ATOM     61  N   UNL     1      10.273  10.796  -3.214  1.00  0.00    -0.248 NA
ATOM     62  C   UNL     1      11.939  11.518  -4.684  1.00  0.00     0.031 C 
ATOM     63  C   UNL     1      10.200  11.712   1.130  1.00  0.00     0.029 A 
ATOM     64  C   UNL     1      10.241  11.453  -0.231  1.00  0.00     0.049 A 
ATOM     65  H   UNL     1       8.847  10.416  -1.430  1.00  0.00     0.167 HD
ATOM     66  C   UNL     1      11.224  11.518  -2.506  1.00  0.00     0.074 A 
ATOM     67  C   UNL     1      12.245  11.909  -3.455  1.00  0.00     0.031 C 
ATOM     68  C   UNL     1      11.248  11.832  -1.187  1.00  0.00     0.037 A 
BRANCH  55  69
ATOM     69  C   UNL     1       6.372   9.738   1.981  1.00  0.00     0.057 A 
ATOM     70  C   UNL     1       5.794  10.868   2.573  1.00  0.00     0.134 A 
ATOM     71  C   UNL     1       6.275   8.524   2.675  1.00  0.00     0.134 A 
ATOM     72  F   UNL     1       5.856  12.062   1.966  1.00  0.00    -0.206 F 
ATOM     73  C   UNL     1       5.142  10.794   3.806  1.00  0.00     0.040 A 
ATOM     74  C   UNL     1       5.604   8.433   3.896  1.00  0.00     0.040 A 
ATOM     75  F   UNL     1       6.796   7.402   2.158  1.00  0.00    -0.206 F 
ATOM     76  C   UNL     1       5.039   9.572   4.467  1.00  0.00     0.006 A 
ENDBRANCH  55  69
BRANCH  56  77
ATOM     77  C   UNL     1      10.728  10.196  -6.984  1.00  0.00     0.057 A 
ATOM     78  C   UNL     1      10.195  10.953  -8.034  1.00  0.00     0.134 A 
ATOM     79  C   UNL     1      11.927   9.516  -7.222  1.00  0.00     0.134 A 
ATOM     80  F   UNL     1       9.046  11.626  -7.869  1.00  0.00    -0.206 F 
ATOM     81  C   UNL     1      10.826  11.026  -9.276  1.00  0.00     0.040 A 
ATOM     82  C   UNL     1      12.583   9.601  -8.451  1.00  0.00     0.040 A 
ATOM     83  F   UNL     1      12.497   8.791  -6.248  1.00  0.00    -0.206 F 
ATOM     84  C   UNL     1      12.029  10.355  -9.484  1.00  0.00     0.006 A 
ENDBRANCH  56  77
BRANCH  68  85
ATOM     85  C   UNL     1      12.435  12.609  -0.699  1.00  0.00     0.057 A 
ATOM     86  C   UNL     1      13.409  11.996   0.099  1.00  0.00     0.134 A 
ATOM     87  C   UNL     1      12.612  13.963  -1.012  1.00  0.00     0.134 A 
ATOM     88  F   UNL     1      13.296  10.704   0.441  1.00  0.00    -0.206 F 
ATOM     89  C   UNL     1      14.521  12.700   0.563  1.00  0.00     0.040 A 
ATOM     90  C   UNL     1      13.733  14.671  -0.575  1.00  0.00     0.040 A 
ATOM     91  F   UNL     1      11.723  14.604  -1.785  1.00  0.00    -0.206 F 
ATOM     92  C   UNL     1      14.689  14.040   0.219  1.00  0.00     0.006 A 
ENDBRANCH  68  85
ENDBRANCH  42  43
ENDBRANCH  34  37
ENDBRANCH  32  33
ENDBRANCH  31  32
ENDBRANCH   1  31
TORSDOF 15
