REMARK SMILES O=C(NCCCNC(=O)[C@H]1CC2(CCN(C(=O)C3CC3)CC2)CN1C(=O)CCn1cccn1)c1ccc(-c2c3nc(c(-c4c(F)cccc4F)c4ccc([nH]4)c(-c4c(F)cccc4F)c4nc(c(-c5c(F)cccc5F)c5ccc2[nH]5)C=C4)C=C3)cc1
REMARK SMILES IDX 6 1 5 2 4 3 3 4 1 5 2 6 34 8 35 9 87 10 36 11 86 12 37 13
REMARK SMILES IDX 38 14 39 15 80 16 40 17 85 18 79 19 81 20 41 21 84 22 78 23
REMARK SMILES IDX 77 24 42 26 68 27 51 28 67 29 52 30 55 31 66 32 82 33 53 34
REMARK SMILES IDX 54 35 65 37 83 38 56 39 43 40 44 41 49 42 45 43 46 44 48 45
REMARK SMILES IDX 50 46 47 47 69 48 70 49 75 50 71 51 72 52 74 53 76 54 73 55
REMARK SMILES IDX 57 56 58 57 63 58 59 59 60 60 62 61 64 62 61 63 7 64 8 65
REMARK SMILES IDX 9 67 10 68 11 69 24 70 12 71 23 72 13 73 22 74 14 75 21 76
REMARK SMILES IDX 15 77 16 78 17 79 25 80 26 81 27 82 28 83 29 84 30 85 33 86
REMARK SMILES IDX 31 87 32 88 18 89 19 90 20 91
REMARK H PARENT 3 7 81 25 55 36 7 66
REMARK Flexibility Score: inf
ROOT
ATOM      1  C   UNL     1       8.802   1.577  -5.235  1.00  0.00     0.117 C 
ENDROOT
BRANCH   1   2
ATOM      2  C   UNL     1      10.236   1.129  -5.530  1.00  0.00     0.042 C 
BRANCH   2   3
ATOM      3  C   UNL     1      10.693   1.197  -6.992  1.00  0.00     0.118 C 
BRANCH   3   4
ATOM      4  N   UNL     1      11.042   2.505  -7.505  1.00  0.00    -0.352 N 
ATOM      5  O   UNL     1      12.252   4.318  -8.005  1.00  0.00    -0.269 OA
ATOM      6  C   UNL     1      12.125   3.316  -7.302  1.00  0.00     0.251 C 
ATOM      7  H   UNL     1      10.371   2.884  -8.118  1.00  0.00     0.163 HD
BRANCH   6   8
ATOM      8  C   UNL     1      13.064   3.103  -6.181  1.00  0.00     0.039 A 
ATOM      9  C   UNL     1      13.450   1.850  -5.694  1.00  0.00     0.014 A 
ATOM     10  C   UNL     1      13.523   4.267  -5.555  1.00  0.00     0.014 A 
ATOM     11  C   UNL     1      14.118   1.754  -4.482  1.00  0.00     0.010 A 
ATOM     12  C   UNL     1      14.241   4.178  -4.380  1.00  0.00     0.010 A 
ATOM     13  C   UNL     1      14.469   2.923  -3.809  1.00  0.00    -0.014 A 
BRANCH  13  14
ATOM     14  C   UNL     1      15.211   2.830  -2.557  1.00  0.00     0.031 A 
ATOM     15  C   UNL     1      16.608   2.300  -2.689  1.00  0.00     0.074 A 
ATOM     16  C   UNL     1      14.722   3.435  -1.452  1.00  0.00     0.049 A 
ATOM     17  N   UNL     1      17.231   1.433  -1.954  1.00  0.00    -0.248 NA
ATOM     18  C   UNL     1      17.389   2.743  -3.862  1.00  0.00     0.031 C 
ATOM     19  C   UNL     1      13.480   4.212  -1.332  1.00  0.00     0.029 A 
ATOM     20  N   UNL     1      15.302   3.620  -0.237  1.00  0.00    -0.354 N 
ATOM     21  C   UNL     1      18.533   1.366  -2.459  1.00  0.00     0.074 A 
ATOM     22  C   UNL     1      18.534   2.083  -3.704  1.00  0.00     0.031 C 
ATOM     23  C   UNL     1      13.540   4.984  -0.225  1.00  0.00     0.029 A 
ATOM     24  C   UNL     1      14.755   4.665   0.498  1.00  0.00     0.049 A 
ATOM     25  H   UNL     1      16.043   3.063   0.093  1.00  0.00     0.167 HD
ATOM     26  C   UNL     1      19.581   0.914  -1.718  1.00  0.00     0.037 A 
ATOM     27  C   UNL     1      15.330   5.289   1.557  1.00  0.00     0.037 A 
ATOM     28  C   UNL     1      19.150   0.072  -0.640  1.00  0.00     0.049 A 
ATOM     29  C   UNL     1      16.418   4.408   2.052  1.00  0.00     0.074 A 
ATOM     30  C   UNL     1      18.497  -1.142  -0.559  1.00  0.00     0.029 A 
ATOM     31  N   UNL     1      19.080   0.611   0.619  1.00  0.00    -0.354 N 
ATOM     32  N   UNL     1      16.211   3.241   2.596  1.00  0.00    -0.248 NA
ATOM     33  C   UNL     1      17.748   4.616   1.498  1.00  0.00     0.031 C 
ATOM     34  C   UNL     1      17.641  -1.020   0.574  1.00  0.00     0.029 A 
ATOM     35  C   UNL     1      17.869   0.235   1.139  1.00  0.00     0.049 A 
ATOM     36  H   UNL     1      19.766   1.161   1.062  1.00  0.00     0.167 HD
ATOM     37  C   UNL     1      17.225   2.433   2.100  1.00  0.00     0.074 A 
ATOM     38  C   UNL     1      18.174   3.351   1.472  1.00  0.00     0.031 C 
ATOM     39  C   UNL     1      17.066   1.081   1.986  1.00  0.00     0.037 A 
BRANCH  26  40
ATOM     40  C   UNL     1      20.959   1.531  -1.760  1.00  0.00     0.057 A 
ATOM     41  C   UNL     1      22.021   0.907  -1.082  1.00  0.00     0.134 A 
ATOM     42  C   UNL     1      21.208   2.856  -2.174  1.00  0.00     0.134 A 
ATOM     43  F   UNL     1      21.904  -0.349  -0.626  1.00  0.00    -0.206 F 
ATOM     44  C   UNL     1      23.211   1.579  -0.773  1.00  0.00     0.040 A 
ATOM     45  C   UNL     1      22.409   3.520  -1.913  1.00  0.00     0.040 A 
ATOM     46  F   UNL     1      20.271   3.612  -2.759  1.00  0.00    -0.206 F 
ATOM     47  C   UNL     1      23.404   2.894  -1.180  1.00  0.00     0.006 A 
ENDBRANCH  26  40
BRANCH  27  48
ATOM     48  C   UNL     1      15.259   6.734   1.883  1.00  0.00     0.057 A 
ATOM     49  C   UNL     1      15.577   7.217   3.159  1.00  0.00     0.134 A 
ATOM     50  C   UNL     1      15.116   7.708   0.876  1.00  0.00     0.134 A 
ATOM     51  F   UNL     1      15.790   6.365   4.173  1.00  0.00    -0.206 F 
ATOM     52  C   UNL     1      15.740   8.586   3.419  1.00  0.00     0.040 A 
ATOM     53  C   UNL     1      15.268   9.076   1.123  1.00  0.00     0.040 A 
ATOM     54  F   UNL     1      14.908   7.359  -0.402  1.00  0.00    -0.206 F 
ATOM     55  C   UNL     1      15.590   9.520   2.397  1.00  0.00     0.006 A 
ENDBRANCH  27  48
BRANCH  39  56
ATOM     56  C   UNL     1      15.820   0.467   2.562  1.00  0.00     0.057 A 
ATOM     57  C   UNL     1      14.533   0.707   2.057  1.00  0.00     0.134 A 
ATOM     58  C   UNL     1      15.939  -0.533   3.530  1.00  0.00     0.134 A 
ATOM     59  F   UNL     1      14.334   1.564   1.051  1.00  0.00    -0.206 F 
ATOM     60  C   UNL     1      13.411   0.014   2.521  1.00  0.00     0.040 A 
ATOM     61  C   UNL     1      14.831  -1.257   3.980  1.00  0.00     0.040 A 
ATOM     62  F   UNL     1      17.147  -0.867   4.011  1.00  0.00    -0.206 F 
ATOM     63  C   UNL     1      13.560  -0.979   3.482  1.00  0.00     0.006 A 
ENDBRANCH  39  56
ENDBRANCH  13  14
ENDBRANCH   6   8
ENDBRANCH   3   4
ENDBRANCH   2   3
ENDBRANCH   1   2
BRANCH   1  64
ATOM     64  N   UNL     1       7.846   1.351  -6.296  1.00  0.00    -0.354 N 
ATOM     65  C   UNL     1       6.683   0.646  -6.302  1.00  0.00     0.242 C 
ATOM     66  H   UNL     1       8.073   1.776  -7.154  1.00  0.00     0.163 HD
ATOM     67  O   UNL     1       5.767   1.127  -6.981  1.00  0.00    -0.273 OA
BRANCH  65  68
ATOM     68  C   UNL     1       6.400  -0.527  -5.339  1.00  0.00     0.175 C 
ATOM     69  C   UNL     1       5.104  -1.272  -5.696  1.00  0.00     0.044 C 
ATOM     70  N   UNL     1       7.213  -1.659  -4.874  1.00  0.00    -0.330 N 
ATOM     71  C   UNL     1       4.928  -2.301  -4.543  1.00  0.00    -0.006 C 
ATOM     72  C   UNL     1       6.353  -2.360  -3.906  1.00  0.00     0.127 C 
ATOM     73  C   UNL     1       4.518  -3.703  -5.042  1.00  0.00     0.030 C 
ATOM     74  C   UNL     1       3.844  -1.796  -3.569  1.00  0.00     0.030 C 
ATOM     75  C   UNL     1       3.099  -3.756  -5.603  1.00  0.00     0.120 C 
ATOM     76  C   UNL     1       2.443  -1.859  -4.198  1.00  0.00     0.120 C 
ATOM     77  N   UNL     1       2.129  -3.215  -4.656  1.00  0.00    -0.342 N 
ATOM     78  C   UNL     1       0.917  -3.765  -4.239  1.00  0.00     0.225 C 
ATOM     79  O   UNL     1       0.125  -3.090  -3.567  1.00  0.00    -0.275 OA
BRANCH  70  80
ATOM     80  C   UNL     1       7.984  -2.479  -5.705  1.00  0.00     0.225 C 
ATOM     81  O   UNL     1       8.013  -3.707  -5.589  1.00  0.00    -0.275 OA
BRANCH  80  82
ATOM     82  C   UNL     1       8.913  -1.832  -6.698  1.00  0.00     0.124 C 
BRANCH  82  83
ATOM     83  C   UNL     1       8.712  -2.269  -8.138  1.00  0.00     0.154 C 
BRANCH  83  84
ATOM     84  N   UNL     1       7.501  -1.735  -8.729  1.00  0.00    -0.272 N 
ATOM     85  C   UNL     1       6.321  -2.392  -8.912  1.00  0.00     0.108 A 
ATOM     86  N   UNL     1       7.473  -0.457  -9.151  1.00  0.00    -0.182 NA
ATOM     87  C   UNL     1       5.443  -1.461  -9.418  1.00  0.00     0.042 A 
ATOM     88  C   UNL     1       6.207  -0.286  -9.548  1.00  0.00     0.135 A 
ENDBRANCH  83  84
ENDBRANCH  82  83
ENDBRANCH  80  82
ENDBRANCH  70  80
BRANCH  78  89
ATOM     89  C   UNL     1       0.479  -5.173  -4.473  1.00  0.00     0.079 C 
ATOM     90  C   UNL     1       0.776  -6.122  -5.596  1.00  0.00     0.014 C 
ATOM     91  C   UNL     1       1.414  -6.335  -4.248  1.00  0.00     0.014 C 
ENDBRANCH  78  89
ENDBRANCH  65  68
ENDBRANCH   1  64
TORSDOF 15
