REMARK SMILES NC(=O)CC[C@H](NC(=O)CC1CC1)C(=O)NCCCNC(=O)c1ccc(-c2c3nc(c(-c4c(F)cccc4F)c4ccc([nH]4)c(-c4c(F)cccc4F)c4nc(c(-c5c(F)cccc5F)c5ccc2[nH]5)C=C4)C=C3)cc1
REMARK SMILES IDX 17 1 16 2 14 3 15 4 6 6 5 7 4 8 2 9 1 10 3 13 7 14 8 15 9 17
REMARK SMILES IDX 10 18 11 19 12 20 13 21 18 22 19 23 20 24 21 25 22 27 23 28
REMARK SMILES IDX 24 29 76 30 25 31 75 32 26 33 27 34 28 35 69 36 29 37 74 38
REMARK SMILES IDX 68 39 70 40 30 41 73 42 67 43 66 44 31 46 57 47 40 48 56 49
REMARK SMILES IDX 41 50 44 51 55 52 71 53 42 54 43 55 54 57 72 58 45 59 32 60
REMARK SMILES IDX 33 61 38 62 34 63 35 64 37 65 39 66 36 67 58 68 59 69 64 70
REMARK SMILES IDX 60 71 61 72 63 73 65 74 62 75 46 76 47 77 52 78 48 79 49 80
REMARK SMILES IDX 51 81 53 82 50 83
REMARK H PARENT 16 5 1 11 1 12 7 16 20 26 70 45 44 56
REMARK Flexibility Score: inf
ROOT
ATOM      1  C   UNL     1       3.619   0.824   5.189  1.00  0.00     0.117 C 
ENDROOT
BRANCH   1   2
ATOM      2  N   UNL     1       3.609  -0.386   4.382  1.00  0.00    -0.354 N 
ATOM      3  C   UNL     1       3.300  -0.572   3.067  1.00  0.00     0.242 C 
ATOM      4  O   UNL     1       3.610  -1.672   2.594  1.00  0.00    -0.273 OA
ATOM      5  H   UNL     1       3.867  -1.205   4.864  1.00  0.00     0.163 HD
BRANCH   3   6
ATOM      6  C   UNL     1       2.479   0.446   2.216  1.00  0.00     0.171 C 
BRANCH   6   7
ATOM      7  C   UNL     1       2.935   0.432   0.745  1.00  0.00     0.045 C 
BRANCH   7   8
ATOM      8  C   UNL     1       1.991   1.035  -0.300  1.00  0.00     0.102 C 
BRANCH   8   9
ATOM      9  C   UNL     1       1.178   2.228   0.140  1.00  0.00     0.217 C 
ATOM     10  N   UNL     1      -0.026   1.932   0.707  1.00  0.00    -0.370 N 
ATOM     11  H   UNL     1      -0.614   2.656   1.021  1.00  0.00     0.159 HD
ATOM     12  H   UNL     1      -0.306   0.993   0.804  1.00  0.00     0.159 HD
ATOM     13  O   UNL     1       1.563   3.386   0.027  1.00  0.00    -0.275 OA
ENDBRANCH   8   9
ENDBRANCH   7   8
ENDBRANCH   6   7
BRANCH   6  14
ATOM     14  N   UNL     1       2.242   1.754   2.822  1.00  0.00    -0.344 N 
ATOM     15  C   UNL     1       2.953   2.907   2.919  1.00  0.00     0.220 C 
ATOM     16  H   UNL     1       1.363   1.813   3.261  1.00  0.00     0.164 HD
ATOM     17  O   UNL     1       2.597   3.699   3.798  1.00  0.00    -0.275 OA
BRANCH  15  18
ATOM     18  C   UNL     1       4.122   3.220   2.018  1.00  0.00     0.103 C 
BRANCH  18  19
ATOM     19  C   UNL     1       5.475   2.860   2.556  1.00  0.00    -0.002 C 
ATOM     20  C   UNL     1       6.079   1.475   2.561  1.00  0.00     0.004 C 
ATOM     21  C   UNL     1       6.542   2.484   1.555  1.00  0.00     0.004 C 
ENDBRANCH  18  19
ENDBRANCH  15  18
ENDBRANCH   6  14
ENDBRANCH   3   6
ENDBRANCH   1   2
BRANCH   1  22
ATOM     22  C   UNL     1       3.882   0.593   6.669  1.00  0.00     0.042 C 
BRANCH  22  23
ATOM     23  C   UNL     1       5.198  -0.106   6.974  1.00  0.00     0.118 C 
BRANCH  23  24
ATOM     24  N   UNL     1       6.382   0.725   6.800  1.00  0.00    -0.352 N 
ATOM     25  C   UNL     1       7.073   1.549   7.659  1.00  0.00     0.251 C 
ATOM     26  H   UNL     1       6.762   0.690   5.893  1.00  0.00     0.163 HD
ATOM     27  O   UNL     1       8.024   2.200   7.230  1.00  0.00    -0.269 OA
BRANCH  25  28
ATOM     28  C   UNL     1       6.656   1.719   9.070  1.00  0.00     0.039 A 
ATOM     29  C   UNL     1       6.730   2.988   9.656  1.00  0.00     0.014 A 
ATOM     30  C   UNL     1       6.183   0.652   9.826  1.00  0.00     0.014 A 
ATOM     31  C   UNL     1       6.219   3.196  10.942  1.00  0.00     0.010 A 
ATOM     32  C   UNL     1       5.537   0.887  11.032  1.00  0.00     0.010 A 
ATOM     33  C   UNL     1       5.549   2.162  11.614  1.00  0.00    -0.014 A 
BRANCH  33  34
ATOM     34  C   UNL     1       4.863   2.364  12.920  1.00  0.00     0.031 A 
ATOM     35  C   UNL     1       5.193   1.473  14.091  1.00  0.00     0.074 A 
ATOM     36  C   UNL     1       3.867   3.266  13.027  1.00  0.00     0.049 A 
ATOM     37  N   UNL     1       4.588   1.360  15.247  1.00  0.00    -0.248 NA
ATOM     38  C   UNL     1       6.319   0.541  13.916  1.00  0.00     0.031 C 
ATOM     39  C   UNL     1       3.397   4.150  11.958  1.00  0.00     0.029 A 
ATOM     40  N   UNL     1       3.058   3.582  14.091  1.00  0.00    -0.354 N 
ATOM     41  C   UNL     1       5.226   0.317  15.907  1.00  0.00     0.074 A 
ATOM     42  C   UNL     1       6.215  -0.216  14.997  1.00  0.00     0.031 C 
ATOM     43  C   UNL     1       2.421   4.939  12.433  1.00  0.00     0.029 A 
ATOM     44  C   UNL     1       2.158   4.584  13.823  1.00  0.00     0.049 A 
ATOM     45  H   UNL     1       3.119   3.132  14.965  1.00  0.00     0.167 HD
ATOM     46  C   UNL     1       5.037  -0.135  17.170  1.00  0.00     0.037 A 
ATOM     47  C   UNL     1       1.223   5.152  14.608  1.00  0.00     0.037 A 
ATOM     48  C   UNL     1       4.104   0.444  18.099  1.00  0.00     0.049 A 
ATOM     49  C   UNL     1       1.056   4.662  16.019  1.00  0.00     0.074 A 
ATOM     50  C   UNL     1       3.887   0.114  19.425  1.00  0.00     0.029 A 
ATOM     51  N   UNL     1       3.244   1.490  17.800  1.00  0.00    -0.354 N 
ATOM     52  N   UNL     1       1.699   3.707  16.645  1.00  0.00    -0.248 NA
ATOM     53  C   UNL     1       0.032   5.332  16.833  1.00  0.00     0.031 C 
ATOM     54  C   UNL     1       2.876   0.944  19.922  1.00  0.00     0.029 A 
ATOM     55  C   UNL     1       2.490   1.815  18.915  1.00  0.00     0.049 A 
ATOM     56  H   UNL     1       3.179   1.935  16.924  1.00  0.00     0.167 HD
ATOM     57  C   UNL     1       1.182   3.681  17.933  1.00  0.00     0.074 A 
ATOM     58  C   UNL     1       0.178   4.723  18.002  1.00  0.00     0.031 C 
ATOM     59  C   UNL     1       1.507   2.867  18.966  1.00  0.00     0.037 A 
BRANCH  46  60
ATOM     60  C   UNL     1       5.877  -1.298  17.617  1.00  0.00     0.057 A 
ATOM     61  C   UNL     1       7.261  -1.182  17.804  1.00  0.00     0.134 A 
ATOM     62  C   UNL     1       5.298  -2.551  17.860  1.00  0.00     0.134 A 
ATOM     63  F   UNL     1       7.882  -0.015  17.577  1.00  0.00    -0.206 F 
ATOM     64  C   UNL     1       8.046  -2.277  18.170  1.00  0.00     0.040 A 
ATOM     65  C   UNL     1       6.067  -3.646  18.258  1.00  0.00     0.040 A 
ATOM     66  F   UNL     1       3.977  -2.733  17.710  1.00  0.00    -0.206 F 
ATOM     67  C   UNL     1       7.447  -3.514  18.402  1.00  0.00     0.006 A 
ENDBRANCH  46  60
BRANCH  47  68
ATOM     68  C   UNL     1       0.409   6.283  14.098  1.00  0.00     0.057 A 
ATOM     69  C   UNL     1       0.623   7.584  14.570  1.00  0.00     0.134 A 
ATOM     70  C   UNL     1      -0.591   6.103  13.136  1.00  0.00     0.134 A 
ATOM     71  F   UNL     1       1.556   7.816  15.505  1.00  0.00    -0.206 F 
ATOM     72  C   UNL     1      -0.139   8.662  14.119  1.00  0.00     0.040 A 
ATOM     73  C   UNL     1      -1.346   7.177  12.658  1.00  0.00     0.040 A 
ATOM     74  F   UNL     1      -0.840   4.884  12.637  1.00  0.00    -0.206 F 
ATOM     75  C   UNL     1      -1.125   8.460  13.156  1.00  0.00     0.006 A 
ENDBRANCH  47  68
BRANCH  59  76
ATOM     76  C   UNL     1       0.803   3.100  20.269  1.00  0.00     0.057 A 
ATOM     77  C   UNL     1      -0.535   2.737  20.461  1.00  0.00     0.134 A 
ATOM     78  C   UNL     1       1.487   3.660  21.356  1.00  0.00     0.134 A 
ATOM     79  F   UNL     1      -1.248   2.208  19.454  1.00  0.00    -0.206 F 
ATOM     80  C   UNL     1      -1.176   2.941  21.684  1.00  0.00     0.040 A 
ATOM     81  C   UNL     1       0.864   3.846  22.590  1.00  0.00     0.040 A 
ATOM     82  F   UNL     1       2.773   4.023  21.238  1.00  0.00    -0.206 F 
ATOM     83  C   UNL     1      -0.473   3.491  22.755  1.00  0.00     0.006 A 
ENDBRANCH  59  76
ENDBRANCH  33  34
ENDBRANCH  25  28
ENDBRANCH  23  24
ENDBRANCH  22  23
ENDBRANCH   1  22
TORSDOF 16
