REMARK SMILES O=C(NCCCNC(=O)C1CCN(C(=O)c2cc(S(=O)(=O)N3CCOCC3)c(Cl)cc2Cl)CC1)c1ccc(-c2c3nc(c(-c4c(F)cccc4F)c4ccc([nH]4)c(-c4c(F)cccc4F)c4nc(c(-c5c(F)cccc5F)c5ccc2[nH]5)C=C4)C=C3)cc1
REMARK SMILES IDX 5 1 4 2 3 3 1 4 2 5 35 7 36 8 88 9 37 10 87 11 38 12 39 13
REMARK SMILES IDX 40 14 81 15 41 16 86 17 80 18 82 19 42 20 85 21 79 22 78 23
REMARK SMILES IDX 43 25 69 26 52 27 68 28 53 29 56 30 67 31 83 32 54 33 55 34
REMARK SMILES IDX 66 36 84 37 57 38 44 39 45 40 50 41 46 42 47 43 49 44 51 45
REMARK SMILES IDX 48 46 70 47 71 48 76 49 72 50 73 51 75 52 77 53 74 54 58 55
REMARK SMILES IDX 59 56 64 57 60 58 61 59 63 60 65 61 62 62 6 63 7 64 8 65
REMARK SMILES IDX 9 67 10 68 11 69 34 70 12 71 33 72 13 73 14 74 15 75 16 76
REMARK SMILES IDX 17 77 31 78 18 79 30 80 32 81 28 82 29 83 19 84 20 85 21 86
REMARK SMILES IDX 22 87 23 88 27 89 24 90 26 91 25 92
REMARK H PARENT 3 6 82 24 56 35 7 66
REMARK Flexibility Score: inf
ROOT
ATOM      1  C   UNL     1       4.754  -2.598  -0.204  1.00  0.00     0.042 C 
ENDROOT
BRANCH   1   2
ATOM      2  C   UNL     1       4.511  -1.180  -0.718  1.00  0.00     0.118 C 
BRANCH   2   3
ATOM      3  N   UNL     1       3.098  -0.827  -0.776  1.00  0.00    -0.352 N 
ATOM      4  O   UNL     1       1.168   0.174  -0.198  1.00  0.00    -0.269 OA
ATOM      5  C   UNL     1       2.392   0.152  -0.118  1.00  0.00     0.251 C 
ATOM      6  H   UNL     1       2.560  -1.380  -1.388  1.00  0.00     0.163 HD
BRANCH   5   7
ATOM      7  C   UNL     1       3.094   1.156   0.710  1.00  0.00     0.039 A 
ATOM      8  C   UNL     1       4.277   1.751   0.271  1.00  0.00     0.014 A 
ATOM      9  C   UNL     1       2.550   1.516   1.947  1.00  0.00     0.014 A 
ATOM     10  C   UNL     1       5.008   2.555   1.139  1.00  0.00     0.010 A 
ATOM     11  C   UNL     1       3.238   2.405   2.779  1.00  0.00     0.010 A 
ATOM     12  C   UNL     1       4.500   2.891   2.404  1.00  0.00    -0.014 A 
BRANCH  12  13
ATOM     13  C   UNL     1       5.305   3.758   3.304  1.00  0.00     0.031 A 
ATOM     14  C   UNL     1       5.819   3.243   4.622  1.00  0.00     0.074 A 
ATOM     15  C   UNL     1       5.615   5.006   2.903  1.00  0.00     0.049 A 
ATOM     16  N   UNL     1       6.584   3.844   5.501  1.00  0.00    -0.248 NA
ATOM     17  C   UNL     1       5.419   1.883   5.012  1.00  0.00     0.031 C 
ATOM     18  C   UNL     1       5.168   5.626   1.654  1.00  0.00     0.029 A 
ATOM     19  N   UNL     1       6.399   5.968   3.488  1.00  0.00    -0.354 N 
ATOM     20  C   UNL     1       6.736   2.948   6.552  1.00  0.00     0.074 A 
ATOM     21  C   UNL     1       5.960   1.773   6.217  1.00  0.00     0.031 C 
ATOM     22  C   UNL     1       5.729   6.838   1.539  1.00  0.00     0.029 A 
ATOM     23  C   UNL     1       6.527   7.106   2.730  1.00  0.00     0.049 A 
ATOM     24  H   UNL     1       6.828   5.854   4.367  1.00  0.00     0.167 HD
ATOM     25  C   UNL     1       7.463   3.087   7.687  1.00  0.00     0.037 A 
ATOM     26  C   UNL     1       7.206   8.243   2.967  1.00  0.00     0.037 A 
ATOM     27  C   UNL     1       8.253   4.250   8.009  1.00  0.00     0.049 A 
ATOM     28  C   UNL     1       7.993   8.375   4.239  1.00  0.00     0.074 A 
ATOM     29  C   UNL     1       9.057   4.467   9.114  1.00  0.00     0.029 A 
ATOM     30  N   UNL     1       8.333   5.393   7.227  1.00  0.00    -0.354 N 
ATOM     31  N   UNL     1       8.162   7.501   5.201  1.00  0.00    -0.248 NA
ATOM     32  C   UNL     1       8.686   9.652   4.455  1.00  0.00     0.031 C 
ATOM     33  C   UNL     1       9.586   5.759   9.026  1.00  0.00     0.029 A 
ATOM     34  C   UNL     1       9.156   6.326   7.837  1.00  0.00     0.049 A 
ATOM     35  H   UNL     1       7.874   5.522   6.366  1.00  0.00     0.167 HD
ATOM     36  C   UNL     1       9.004   8.109   6.122  1.00  0.00     0.074 A 
ATOM     37  C   UNL     1       9.322   9.421   5.595  1.00  0.00     0.031 C 
ATOM     38  C   UNL     1       9.473   7.624   7.298  1.00  0.00     0.037 A 
BRANCH  25  39
ATOM     39  C   UNL     1       7.424   1.961   8.682  1.00  0.00     0.057 A 
ATOM     40  C   UNL     1       8.050   0.731   8.440  1.00  0.00     0.134 A 
ATOM     41  C   UNL     1       6.785   2.126   9.918  1.00  0.00     0.134 A 
ATOM     42  F   UNL     1       8.671   0.501   7.273  1.00  0.00    -0.206 F 
ATOM     43  C   UNL     1       8.020  -0.302   9.380  1.00  0.00     0.040 A 
ATOM     44  C   UNL     1       6.771   1.111  10.876  1.00  0.00     0.040 A 
ATOM     45  F   UNL     1       6.173   3.281  10.220  1.00  0.00    -0.206 F 
ATOM     46  C   UNL     1       7.384  -0.110  10.606  1.00  0.00     0.006 A 
ENDBRANCH  25  39
BRANCH  26  47
ATOM     47  C   UNL     1       7.181   9.342   1.970  1.00  0.00     0.057 A 
ATOM     48  C   UNL     1       8.327   9.685   1.243  1.00  0.00     0.134 A 
ATOM     49  C   UNL     1       6.015  10.076   1.720  1.00  0.00     0.134 A 
ATOM     50  F   UNL     1       9.479   9.029   1.450  1.00  0.00    -0.206 F 
ATOM     51  C   UNL     1       8.320  10.729   0.318  1.00  0.00     0.040 A 
ATOM     52  C   UNL     1       5.986  11.104   0.778  1.00  0.00     0.040 A 
ATOM     53  F   UNL     1       4.882   9.790   2.378  1.00  0.00    -0.206 F 
ATOM     54  C   UNL     1       7.145  11.438   0.079  1.00  0.00     0.006 A 
ENDBRANCH  26  47
BRANCH  38  55
ATOM     55  C   UNL     1      10.421   8.498   8.066  1.00  0.00     0.057 A 
ATOM     56  C   UNL     1       9.998   9.664   8.718  1.00  0.00     0.134 A 
ATOM     57  C   UNL     1      11.777   8.157   8.167  1.00  0.00     0.134 A 
ATOM     58  F   UNL     1       8.717  10.054   8.649  1.00  0.00    -0.206 F 
ATOM     59  C   UNL     1      10.895  10.476   9.414  1.00  0.00     0.040 A 
ATOM     60  C   UNL     1      12.677   8.945   8.884  1.00  0.00     0.040 A 
ATOM     61  F   UNL     1      12.246   7.049   7.574  1.00  0.00    -0.206 F 
ATOM     62  C   UNL     1      12.238  10.113   9.503  1.00  0.00     0.006 A 
ENDBRANCH  38  55
ENDBRANCH  12  13
ENDBRANCH   5   7
ENDBRANCH   2   3
ENDBRANCH   1   2
BRANCH   1  63
ATOM     63  C   UNL     1       4.136  -3.687  -1.073  1.00  0.00     0.117 C 
BRANCH  63  64
ATOM     64  N   UNL     1       4.619  -3.612  -2.439  1.00  0.00    -0.356 N 
ATOM     65  C   UNL     1       5.695  -4.219  -3.009  1.00  0.00     0.223 C 
ATOM     66  H   UNL     1       4.091  -3.039  -3.040  1.00  0.00     0.163 HD
ATOM     67  O   UNL     1       6.041  -3.832  -4.123  1.00  0.00    -0.275 OA
BRANCH  65  68
ATOM     68  C   UNL     1       6.369  -5.378  -2.284  1.00  0.00     0.082 C 
ATOM     69  C   UNL     1       7.827  -5.558  -2.727  1.00  0.00     0.035 C 
ATOM     70  C   UNL     1       5.564  -6.668  -2.506  1.00  0.00     0.035 C 
ATOM     71  C   UNL     1       7.957  -6.153  -4.127  1.00  0.00     0.120 C 
ATOM     72  C   UNL     1       5.741  -7.225  -3.918  1.00  0.00     0.120 C 
ATOM     73  N   UNL     1       7.155  -7.367  -4.252  1.00  0.00    -0.339 N 
ATOM     74  C   UNL     1       7.784  -8.507  -4.726  1.00  0.00     0.255 C 
ATOM     75  O   UNL     1       8.957  -8.539  -5.093  1.00  0.00    -0.269 OA
BRANCH  74  76
ATOM     76  C   UNL     1       7.056  -9.783  -4.812  1.00  0.00     0.060 A 
ATOM     77  C   UNL     1       6.082  -9.965  -5.801  1.00  0.00     0.038 A 
ATOM     78  C   UNL     1       7.503 -10.871  -4.060  1.00  0.00     0.055 A 
ATOM     79  C   UNL     1       5.597 -11.257  -6.083  1.00  0.00     0.102 A 
ATOM     80  C   UNL     1       7.059 -12.152  -4.379  1.00  0.00     0.043 A 
ATOM     81  Cl  UNL     1       8.601 -10.706  -2.738  1.00  0.00    -0.083 Cl
ATOM     82  C   UNL     1       6.154 -12.358  -5.429  1.00  0.00     0.062 A 
ATOM     83  Cl  UNL     1       5.945 -14.007  -5.880  1.00  0.00    -0.083 Cl
BRANCH  79  84
ATOM     84  S   UNL     1       4.313 -11.347  -7.309  1.00  0.00     0.244 S 
ATOM     85  O   UNL     1       3.335 -10.339  -6.941  1.00  0.00    -0.207 OA
ATOM     86  O   UNL     1       4.989 -11.308  -8.582  1.00  0.00    -0.207 OA
BRANCH  84  87
ATOM     87  N   UNL     1       3.564 -12.838  -7.127  1.00  0.00    -0.193 NA
ATOM     88  C   UNL     1       2.595 -13.028  -6.012  1.00  0.00     0.131 C 
ATOM     89  C   UNL     1       3.083 -13.511  -8.363  1.00  0.00     0.131 C 
ATOM     90  C   UNL     1       2.369 -14.535  -5.794  1.00  0.00     0.177 C 
ATOM     91  C   UNL     1       2.902 -15.001  -8.052  1.00  0.00     0.177 C 
ATOM     92  O   UNL     1       1.943 -15.191  -6.999  1.00  0.00    -0.379 OA
ENDBRANCH  84  87
ENDBRANCH  79  84
ENDBRANCH  74  76
ENDBRANCH  65  68
ENDBRANCH  63  64
ENDBRANCH   1  63
TORSDOF 13
