REMARK SMILES Cn1cncc1COc1c(F)cc(C(=O)NCCCNC(=O)c2ccc(-c3c4nc(c(-c5c(F)cccc5F)c5ccc([nH]5)c(-c5c(F)cccc5F)c5nc(c(-c6c(F)cccc6F)c6ccc3[nH]6)C=C5)C=C4)cc2)cc1F
REMARK SMILES IDX 17 1 16 2 14 3 15 4 13 6 9 7 10 8 78 9 11 10 12 11 77 12
REMARK SMILES IDX 79 13 8 14 7 15 6 16 1 17 2 18 3 19 4 20 5 21 18 22 19 23
REMARK SMILES IDX 20 24 21 25 22 27 23 28 24 29 76 30 25 31 75 32 26 33 27 34
REMARK SMILES IDX 28 35 69 36 29 37 74 38 68 39 70 40 30 41 73 42 67 43 66 44
REMARK SMILES IDX 31 46 57 47 40 48 56 49 41 50 44 51 55 52 71 53 42 54 43 55
REMARK SMILES IDX 54 57 72 58 45 59 32 60 33 61 38 62 34 63 35 64 37 65 39 66
REMARK SMILES IDX 36 67 58 68 59 69 64 70 60 71 61 72 63 73 65 74 62 75 46 76
REMARK SMILES IDX 47 77 52 78 48 79 49 80 51 81 53 82 50 83
REMARK H PARENT 16 5 20 26 70 45 44 56
REMARK Flexibility Score: inf
ROOT
ATOM      1  C   UNL     1       1.045   1.119   6.006  1.00  0.00     0.118 C 
ENDROOT
BRANCH   1   2
ATOM      2  N   UNL     1       0.963  -0.105   6.786  1.00  0.00    -0.352 N 
ATOM      3  C   UNL     1       0.825  -1.419   6.406  1.00  0.00     0.251 C 
ATOM      4  O   UNL     1       0.974  -2.293   7.258  1.00  0.00    -0.269 OA
ATOM      5  H   UNL     1       1.015   0.031   7.760  1.00  0.00     0.163 HD
BRANCH   3   6
ATOM      6  C   UNL     1       0.522  -1.828   5.009  1.00  0.00     0.045 A 
ATOM      7  C   UNL     1      -0.063  -2.712   2.396  1.00  0.00     0.191 A 
ATOM      8  C   UNL     1      -0.567  -1.511   2.877  1.00  0.00     0.168 A 
ATOM      9  C   UNL     1       0.679  -3.509   3.264  1.00  0.00     0.168 A 
ATOM     10  F   UNL     1      -1.375  -0.749   2.131  1.00  0.00    -0.203 F 
ATOM     11  C   UNL     1      -0.277  -1.068   4.160  1.00  0.00     0.057 A 
ATOM     12  C   UNL     1       0.973  -3.079   4.561  1.00  0.00     0.057 A 
ATOM     13  F   UNL     1       1.118  -4.710   2.863  1.00  0.00    -0.203 F 
BRANCH   7  14
ATOM     14  O   UNL     1      -0.391  -3.155   1.143  1.00  0.00    -0.481 OA
BRANCH  14  15
ATOM     15  C   UNL     1       0.500  -2.652   0.131  1.00  0.00     0.285 C 
BRANCH  15  16
ATOM     16  C   UNL     1       0.014  -1.324  -0.334  1.00  0.00     0.075 A 
ATOM     17  C   UNL     1       2.174  -0.036  -0.111  1.00  0.00     0.151 C 
ATOM     18  N   UNL     1       0.768  -0.175  -0.392  1.00  0.00    -0.335 N 
ATOM     19  C   UNL     1      -0.054   0.847  -0.777  1.00  0.00     0.199 A 
ATOM     20  N   UNL     1      -1.270   0.419  -1.028  1.00  0.00    -0.245 NA
ATOM     21  C   UNL     1      -1.240  -0.924  -0.759  1.00  0.00     0.138 A 
ENDBRANCH  15  16
ENDBRANCH  14  15
ENDBRANCH   7  14
ENDBRANCH   3   6
ENDBRANCH   1   2
BRANCH   1  22
ATOM     22  C   UNL     1      -0.263   1.911   6.021  1.00  0.00     0.042 C 
BRANCH  22  23
ATOM     23  C   UNL     1      -0.502   2.711   7.295  1.00  0.00     0.118 C 
BRANCH  23  24
ATOM     24  N   UNL     1       0.403   3.842   7.414  1.00  0.00    -0.352 N 
ATOM     25  C   UNL     1       0.136   5.183   7.536  1.00  0.00     0.251 C 
ATOM     26  H   UNL     1       1.359   3.610   7.407  1.00  0.00     0.163 HD
ATOM     27  O   UNL     1       1.056   5.987   7.413  1.00  0.00    -0.269 OA
BRANCH  25  28
ATOM     28  C   UNL     1      -1.236   5.675   7.800  1.00  0.00     0.039 A 
ATOM     29  C   UNL     1      -1.648   6.866   7.191  1.00  0.00     0.014 A 
ATOM     30  C   UNL     1      -2.097   5.017   8.682  1.00  0.00     0.014 A 
ATOM     31  C   UNL     1      -2.931   7.366   7.426  1.00  0.00     0.010 A 
ATOM     32  C   UNL     1      -3.402   5.476   8.860  1.00  0.00     0.010 A 
ATOM     33  C   UNL     1      -3.829   6.659   8.241  1.00  0.00    -0.014 A 
BRANCH  33  34
ATOM     34  C   UNL     1      -5.215   7.146   8.460  1.00  0.00     0.031 A 
ATOM     35  C   UNL     1      -5.666   7.564   9.832  1.00  0.00     0.074 A 
ATOM     36  C   UNL     1      -6.084   7.157   7.431  1.00  0.00     0.049 A 
ATOM     37  N   UNL     1      -6.852   7.949  10.230  1.00  0.00    -0.248 NA
ATOM     38  C   UNL     1      -4.658   7.522  10.903  1.00  0.00     0.031 C 
ATOM     39  C   UNL     1      -5.777   6.740   6.062  1.00  0.00     0.029 A 
ATOM     40  N   UNL     1      -7.404   7.528   7.378  1.00  0.00    -0.354 N 
ATOM     41  C   UNL     1      -6.736   8.180  11.595  1.00  0.00     0.074 A 
ATOM     42  C   UNL     1      -5.379   7.846  11.966  1.00  0.00     0.031 C 
ATOM     43  C   UNL     1      -6.868   6.903   5.298  1.00  0.00     0.029 A 
ATOM     44  C   UNL     1      -7.962   7.398   6.129  1.00  0.00     0.049 A 
ATOM     45  H   UNL     1      -7.904   7.855   8.161  1.00  0.00     0.167 HD
ATOM     46  C   UNL     1      -7.671   8.650  12.455  1.00  0.00     0.037 A 
ATOM     47  C   UNL     1      -9.214   7.646   5.702  1.00  0.00     0.037 A 
ATOM     48  C   UNL     1      -9.013   9.007  12.076  1.00  0.00     0.049 A 
ATOM     49  C   UNL     1     -10.236   8.158   6.676  1.00  0.00     0.074 A 
ATOM     50  C   UNL     1     -10.016   9.544  12.863  1.00  0.00     0.029 A 
ATOM     51  N   UNL     1      -9.538   8.863  10.800  1.00  0.00    -0.354 N 
ATOM     52  N   UNL     1     -10.100   8.418   7.953  1.00  0.00    -0.248 NA
ATOM     53  C   UNL     1     -11.586   8.412   6.151  1.00  0.00     0.031 C 
ATOM     54  C   UNL     1     -11.162   9.686  12.074  1.00  0.00     0.029 A 
ATOM     55  C   UNL     1     -10.858   9.282  10.783  1.00  0.00     0.049 A 
ATOM     56  H   UNL     1      -9.045   8.515  10.022  1.00  0.00     0.167 HD
ATOM     57  C   UNL     1     -11.335   8.884   8.382  1.00  0.00     0.074 A 
ATOM     58  C   UNL     1     -12.207   8.883   7.224  1.00  0.00     0.031 C 
ATOM     59  C   UNL     1     -11.713   9.275   9.623  1.00  0.00     0.037 A 
BRANCH  46  60
ATOM     60  C   UNL     1      -7.272   8.815  13.893  1.00  0.00     0.057 A 
ATOM     61  C   UNL     1      -7.818   7.993  14.888  1.00  0.00     0.134 A 
ATOM     62  C   UNL     1      -6.383   9.818  14.302  1.00  0.00     0.134 A 
ATOM     63  F   UNL     1      -8.681   7.018  14.568  1.00  0.00    -0.206 F 
ATOM     64  C   UNL     1      -7.498   8.166  16.236  1.00  0.00     0.040 A 
ATOM     65  C   UNL     1      -6.034   9.984  15.643  1.00  0.00     0.040 A 
ATOM     66  F   UNL     1      -5.816  10.633  13.399  1.00  0.00    -0.206 F 
ATOM     67  C   UNL     1      -6.599   9.161  16.616  1.00  0.00     0.006 A 
ENDBRANCH  46  60
BRANCH  47  68
ATOM     68  C   UNL     1      -9.552   7.442   4.271  1.00  0.00     0.057 A 
ATOM     69  C   UNL     1      -9.637   6.161   3.712  1.00  0.00     0.134 A 
ATOM     70  C   UNL     1      -9.760   8.533   3.420  1.00  0.00     0.134 A 
ATOM     71  F   UNL     1      -9.441   5.075   4.474  1.00  0.00    -0.206 F 
ATOM     72  C   UNL     1      -9.898   5.973   2.353  1.00  0.00     0.040 A 
ATOM     73  C   UNL     1     -10.043   8.360   2.065  1.00  0.00     0.040 A 
ATOM     74  F   UNL     1      -9.708   9.784   3.903  1.00  0.00    -0.206 F 
ATOM     75  C   UNL     1     -10.104   7.076   1.526  1.00  0.00     0.006 A 
ENDBRANCH  47  68
BRANCH  59  76
ATOM     76  C   UNL     1     -13.124   9.751   9.799  1.00  0.00     0.057 A 
ATOM     77  C   UNL     1     -13.398  11.105  10.033  1.00  0.00     0.134 A 
ATOM     78  C   UNL     1     -14.205   8.860   9.807  1.00  0.00     0.134 A 
ATOM     79  F   UNL     1     -12.405  12.007  10.048  1.00  0.00    -0.206 F 
ATOM     80  C   UNL     1     -14.695  11.554  10.282  1.00  0.00     0.040 A 
ATOM     81  C   UNL     1     -15.510   9.302  10.031  1.00  0.00     0.040 A 
ATOM     82  F   UNL     1     -14.010   7.553   9.578  1.00  0.00    -0.206 F 
ATOM     83  C   UNL     1     -15.756  10.651  10.279  1.00  0.00     0.006 A 
ENDBRANCH  59  76
ENDBRANCH  33  34
ENDBRANCH  25  28
ENDBRANCH  23  24
ENDBRANCH  22  23
ENDBRANCH   1  22
TORSDOF 13
