REMARK SMILES O=C(NCCCNC(=O)[C@@H](Cc1cccc(F)c1)[C@H]1CCCCC[C@@H]1O)c1ccc(-c2c3nc(c(-c4c(F)cccc4F)c4ccc([nH]4)c(-c4c(F)cccc4F)c4nc(c(-c5c(F)cccc5F)c5ccc2[nH]5)C=C4)C=C3)cc1
REMARK SMILES IDX 6 1 5 2 4 3 3 4 1 5 2 6 27 8 28 9 80 10 29 11 79 12 30 13
REMARK SMILES IDX 31 14 32 15 73 16 33 17 78 18 72 19 74 20 34 21 77 22 71 23
REMARK SMILES IDX 70 24 35 26 61 27 44 28 60 29 45 30 48 31 59 32 75 33 46 34
REMARK SMILES IDX 47 35 58 37 76 38 49 39 36 40 37 41 42 42 38 43 39 44 41 45
REMARK SMILES IDX 43 46 40 47 62 48 63 49 68 50 64 51 65 52 67 53 69 54 66 55
REMARK SMILES IDX 50 56 51 57 56 58 52 59 53 60 55 61 57 62 54 63 7 64 8 65
REMARK SMILES IDX 9 67 10 68 11 69 12 70 13 71 18 72 14 73 16 74 15 75 17 76
REMARK SMILES IDX 19 77 20 78 21 79 22 80 25 82 24 83 23 84 26 86
REMARK H PARENT 3 7 74 25 48 36 7 66 26 87
REMARK Flexibility Score: 90.00
ROOT
ATOM      1  C   UNL     1       3.911   3.666   1.160  1.00  0.00     0.117 C 
ENDROOT
BRANCH   1   2
ATOM      2  C   UNL     1       4.343   2.266   0.734  1.00  0.00     0.042 C 
BRANCH   2   3
ATOM      3  C   UNL     1       3.886   1.175   1.688  1.00  0.00     0.118 C 
BRANCH   3   4
ATOM      4  N   UNL     1       2.574   0.662   1.323  1.00  0.00    -0.352 N 
ATOM      5  O   UNL     1       0.978  -0.323   0.115  1.00  0.00    -0.269 OA
ATOM      6  C   UNL     1       2.176  -0.283   0.410  1.00  0.00     0.251 C 
ATOM      7  H   UNL     1       1.832   1.069   1.826  1.00  0.00     0.163 HD
BRANCH   6   8
ATOM      8  C   UNL     1       3.100  -1.262  -0.228  1.00  0.00     0.039 A 
ATOM      9  C   UNL     1       4.228  -1.770   0.414  1.00  0.00     0.014 A 
ATOM     10  C   UNL     1       2.727  -1.821  -1.463  1.00  0.00     0.014 A 
ATOM     11  C   UNL     1       5.011  -2.757  -0.190  1.00  0.00     0.010 A 
ATOM     12  C   UNL     1       3.451  -2.886  -2.022  1.00  0.00     0.010 A 
ATOM     13  C   UNL     1       4.597  -3.373  -1.381  1.00  0.00    -0.014 A 
BRANCH  13  14
ATOM     14  C   UNL     1       5.281  -4.620  -1.825  1.00  0.00     0.031 A 
ATOM     15  C   UNL     1       6.024  -4.702  -3.127  1.00  0.00     0.074 A 
ATOM     16  C   UNL     1       5.235  -5.698  -1.012  1.00  0.00     0.049 A 
ATOM     17  N   UNL     1       6.695  -5.712  -3.624  1.00  0.00    -0.248 NA
ATOM     18  C   UNL     1       6.013  -3.509  -3.986  1.00  0.00     0.031 C 
ATOM     19  C   UNL     1       4.514  -5.759   0.263  1.00  0.00     0.029 A 
ATOM     20  N   UNL     1       5.819  -6.936  -1.116  1.00  0.00    -0.354 N 
ATOM     21  C   UNL     1       7.175  -5.285  -4.854  1.00  0.00     0.074 A 
ATOM     22  C   UNL     1       6.704  -3.928  -5.040  1.00  0.00     0.031 C 
ATOM     23  C   UNL     1       4.747  -6.941   0.849  1.00  0.00     0.029 A 
ATOM     24  C   UNL     1       5.577  -7.751  -0.035  1.00  0.00     0.049 A 
ATOM     25  H   UNL     1       6.359  -7.214  -1.890  1.00  0.00     0.167 HD
ATOM     26  C   UNL     1       7.945  -5.962  -5.739  1.00  0.00     0.037 A 
ATOM     27  C   UNL     1       5.963  -9.016   0.220  1.00  0.00     0.037 A 
ATOM     28  C   UNL     1       8.430  -7.304  -5.543  1.00  0.00     0.049 A 
ATOM     29  C   UNL     1       6.802  -9.742  -0.788  1.00  0.00     0.074 A 
ATOM     30  C   UNL     1       9.261  -8.046  -6.368  1.00  0.00     0.029 A 
ATOM     31  N   UNL     1       8.130  -8.108  -4.455  1.00  0.00    -0.354 N 
ATOM     32  N   UNL     1       7.282  -9.305  -1.926  1.00  0.00    -0.248 NA
ATOM     33  C   UNL     1       7.143 -11.140  -0.487  1.00  0.00     0.031 C 
ATOM     34  C   UNL     1       9.429  -9.311  -5.800  1.00  0.00     0.029 A 
ATOM     35  C   UNL     1       8.737  -9.345  -4.601  1.00  0.00     0.049 A 
ATOM     36  H   UNL     1       7.569  -7.840  -3.692  1.00  0.00     0.167 HD
ATOM     37  C   UNL     1       7.979 -10.370  -2.477  1.00  0.00     0.074 A 
ATOM     38  C   UNL     1       7.885 -11.467  -1.537  1.00  0.00     0.031 C 
ATOM     39  C   UNL     1       8.629 -10.432  -3.663  1.00  0.00     0.037 A 
BRANCH  26  40
ATOM     40  C   UNL     1       8.330  -5.273  -7.014  1.00  0.00     0.057 A 
ATOM     41  C   UNL     1       7.771  -5.671  -8.236  1.00  0.00     0.134 A 
ATOM     42  C   UNL     1       9.340  -4.305  -7.048  1.00  0.00     0.134 A 
ATOM     43  F   UNL     1       6.806  -6.602  -8.272  1.00  0.00    -0.206 F 
ATOM     44  C   UNL     1       8.217  -5.143  -9.448  1.00  0.00     0.040 A 
ATOM     45  C   UNL     1       9.784  -3.758  -8.253  1.00  0.00     0.040 A 
ATOM     46  F   UNL     1       9.912  -3.880  -5.912  1.00  0.00    -0.206 F 
ATOM     47  C   UNL     1       9.230  -4.185  -9.459  1.00  0.00     0.006 A 
ENDBRANCH  26  40
BRANCH  27  48
ATOM     48  C   UNL     1       5.541  -9.676   1.481  1.00  0.00     0.057 A 
ATOM     49  C   UNL     1       4.203 -10.020   1.709  1.00  0.00     0.134 A 
ATOM     50  C   UNL     1       6.462  -9.959   2.494  1.00  0.00     0.134 A 
ATOM     51  F   UNL     1       3.271  -9.770   0.778  1.00  0.00    -0.206 F 
ATOM     52  C   UNL     1       3.792 -10.603   2.909  1.00  0.00     0.040 A 
ATOM     53  C   UNL     1       6.070 -10.565   3.689  1.00  0.00     0.040 A 
ATOM     54  F   UNL     1       7.761  -9.670   2.326  1.00  0.00    -0.206 F 
ATOM     55  C   UNL     1       4.729 -10.881   3.902  1.00  0.00     0.006 A 
ENDBRANCH  27  48
BRANCH  39  56
ATOM     56  C   UNL     1       9.289 -11.729  -4.018  1.00  0.00     0.057 A 
ATOM     57  C   UNL     1      10.683 -11.857  -3.990  1.00  0.00     0.134 A 
ATOM     58  C   UNL     1       8.543 -12.834  -4.446  1.00  0.00     0.134 A 
ATOM     59  F   UNL     1      11.453 -10.832  -3.595  1.00  0.00    -0.206 F 
ATOM     60  C   UNL     1      11.313 -13.036  -4.389  1.00  0.00     0.040 A 
ATOM     61  C   UNL     1       9.161 -14.025  -4.827  1.00  0.00     0.040 A 
ATOM     62  F   UNL     1       7.203 -12.777  -4.481  1.00  0.00    -0.206 F 
ATOM     63  C   UNL     1      10.551 -14.125  -4.808  1.00  0.00     0.006 A 
ENDBRANCH  39  56
ENDBRANCH  13  14
ENDBRANCH   6   8
ENDBRANCH   3   4
ENDBRANCH   2   3
ENDBRANCH   1   2
BRANCH   1  64
ATOM     64  N   UNL     1       4.877   4.254   2.073  1.00  0.00    -0.356 N 
ATOM     65  C   UNL     1       5.882   5.146   1.894  1.00  0.00     0.223 C 
ATOM     66  H   UNL     1       4.782   3.945   3.002  1.00  0.00     0.163 HD
ATOM     67  O   UNL     1       6.634   5.317   2.861  1.00  0.00    -0.275 OA
BRANCH  65  68
ATOM     68  C   UNL     1       6.128   5.943   0.603  1.00  0.00     0.088 C 
BRANCH  68  69
ATOM     69  C   UNL     1       6.919   5.127  -0.450  1.00  0.00     0.049 C 
BRANCH  69  70
ATOM     70  C   UNL     1       6.348   4.007  -1.291  1.00  0.00    -0.044 A 
ATOM     71  C   UNL     1       7.115   2.832  -1.448  1.00  0.00     0.004 A 
ATOM     72  C   UNL     1       5.160   4.103  -2.025  1.00  0.00     0.043 A 
ATOM     73  C   UNL     1       6.690   1.782  -2.270  1.00  0.00     0.003 A 
ATOM     74  C   UNL     1       4.750   3.057  -2.853  1.00  0.00     0.123 A 
ATOM     75  C   UNL     1       5.499   1.896  -2.977  1.00  0.00     0.039 A 
ATOM     76  F   UNL     1       3.600   3.173  -3.531  1.00  0.00    -0.207 F 
ENDBRANCH  69  70
ENDBRANCH  68  69
BRANCH  68  77
ATOM     77  C   UNL     1       4.944   6.865   0.186  1.00  0.00     0.030 C 
BRANCH  77  78
ATOM     78  C   UNL     1       4.587   7.899   1.298  1.00  0.00     0.007 C 
BRANCH  78  79
ATOM     79  C   UNL     1       5.634   8.978   1.593  1.00  0.00     0.000 C 
BRANCH  79  80
ATOM     80  C   UNL     1       5.520  10.238   0.742  1.00  0.00     0.000 CG0
ATOM     81  G   UNL     1       5.223  10.029  -0.736  1.00  0.00     0.000 G0
ENDBRANCH  79  80
ENDBRANCH  78  79
ENDBRANCH  77  78
BRANCH  77  82
ATOM     82  C   UNL     1       5.082   7.510  -1.212  1.00  0.00     0.118 C 
BRANCH  82  83
ATOM     83  C   UNL     1       5.893   8.800  -1.342  1.00  0.00     0.032 C 
BRANCH  83  84
ATOM     84  C   UNL     1       5.223  10.029  -0.736  1.00  0.00     0.003 CG0
ATOM     85  G   UNL     1       5.520  10.238   0.742  1.00  0.00     0.000 G0
ENDBRANCH  83  84
ENDBRANCH  82  83
BRANCH  82  86
ATOM     86  O   UNL     1       3.754   7.718  -1.708  1.00  0.00    -0.393 OA
ATOM     87  H   UNL     1       3.292   8.353  -1.138  1.00  0.00     0.210 HD
ENDBRANCH  82  86
ENDBRANCH  77  82
ENDBRANCH  68  77
ENDBRANCH  65  68
ENDBRANCH   1  64
TORSDOF 14
