REMARK SMILES Cc1cc(Cl)c2c(c1)C=C(C(=O)NCCCNC(=O)c1ccc(-c3c4nc(c(-c5c(F)cccc5F)c5ccc([nH]5)c(-c5c(F)cccc5F)c5nc(c(-c6c(F)cccc6F)c6ccc3[nH]6)C=C5)C=C4)cc1)[C@@H](C(F)(F)F)O2
REMARK SMILES IDX 15 1 14 2 13 3 11 4 12 5 10 7 1 8 2 9 3 10 8 11 4 12 7 13
REMARK SMILES IDX 5 14 6 15 9 16 79 17 74 18 75 19 76 20 77 21 78 22 16 23
REMARK SMILES IDX 17 24 18 25 19 27 20 28 21 29 73 30 22 31 72 32 23 33 24 34
REMARK SMILES IDX 25 35 66 36 26 37 71 38 65 39 67 40 27 41 70 42 64 43 63 44
REMARK SMILES IDX 28 46 54 47 37 48 53 49 38 50 41 51 52 52 68 53 39 54 40 55
REMARK SMILES IDX 51 57 69 58 42 59 29 60 30 61 35 62 31 63 32 64 34 65 36 66
REMARK SMILES IDX 33 67 55 68 56 69 61 70 57 71 58 72 60 73 62 74 59 75 43 76
REMARK SMILES IDX 44 77 49 78 45 79 46 80 48 81 50 82 47 83
REMARK H PARENT 13 6 17 26 67 45 41 56
REMARK Flexibility Score: inf
ROOT
ATOM      1  C   UNL     1      -1.090   8.379  -5.120  1.00  0.00     0.042 C 
ENDROOT
BRANCH   1   2
ATOM      2  C   UNL     1       0.277   7.726  -4.990  1.00  0.00     0.118 C 
BRANCH   2   3
ATOM      3  N   UNL     1       0.729   7.689  -3.607  1.00  0.00    -0.352 N 
ATOM      4  C   UNL     1       0.897   6.755  -2.644  1.00  0.00     0.251 C 
ATOM      5  O   UNL     1       1.319   7.183  -1.565  1.00  0.00    -0.270 OA
ATOM      6  H   UNL     1       0.978   8.586  -3.286  1.00  0.00     0.163 HD
BRANCH   4   7
ATOM      7  C   UNL     1       0.616   5.300  -2.805  1.00  0.00     0.067 C 
ATOM      8  C   UNL     1       1.116  -0.062   0.227  1.00  0.00     0.044 C 
ATOM      9  C   UNL     1       0.683   0.859  -0.875  1.00  0.00    -0.049 A 
ATOM     10  C   UNL     1       0.040   0.357  -2.013  1.00  0.00     0.028 A 
ATOM     11  C   UNL     1       0.939   2.235  -0.781  1.00  0.00     0.015 A 
ATOM     12  C   UNL     1      -0.351   1.219  -3.037  1.00  0.00     0.084 A 
ATOM     13  C   UNL     1       0.557   3.101  -1.811  1.00  0.00     0.019 A 
ATOM     14  Cl  UNL     1      -1.147   0.556  -4.419  1.00  0.00    -0.080 Cl
ATOM     15  C   UNL     1      -0.085   2.587  -2.942  1.00  0.00     0.146 A 
ATOM     16  C   UNL     1       0.790   4.538  -1.709  1.00  0.00     0.025 C 
ATOM     17  O   UNL     1      -0.509   3.404  -3.954  1.00  0.00    -0.474 OA
ATOM     18  C   UNL     1       0.193   4.664  -4.097  1.00  0.00     0.314 C 
BRANCH  18  19
ATOM     19  C   UNL     1       1.365   4.497  -5.087  1.00  0.00     0.429 C 
ATOM     20  F   UNL     1       0.898   4.317  -6.347  1.00  0.00    -0.167 F 
ATOM     21  F   UNL     1       2.168   5.588  -5.129  1.00  0.00    -0.167 F 
ATOM     22  F   UNL     1       2.155   3.443  -4.788  1.00  0.00    -0.167 F 
ENDBRANCH  18  19
ENDBRANCH   4   7
ENDBRANCH   2   3
ENDBRANCH   1   2
BRANCH   1  23
ATOM     23  C   UNL     1      -1.004   9.896  -5.047  1.00  0.00     0.118 C 
BRANCH  23  24
ATOM     24  N   UNL     1      -0.242  10.450  -6.165  1.00  0.00    -0.352 N 
ATOM     25  C   UNL     1      -0.671  11.116  -7.283  1.00  0.00     0.251 C 
ATOM     26  H   UNL     1       0.733  10.324  -6.105  1.00  0.00     0.163 HD
ATOM     27  O   UNL     1       0.083  11.249  -8.246  1.00  0.00    -0.269 OA
BRANCH  25  28
ATOM     28  C   UNL     1      -2.034  11.672  -7.329  1.00  0.00     0.039 A 
ATOM     29  C   UNL     1      -2.770  11.595  -8.513  1.00  0.00     0.014 A 
ATOM     30  C   UNL     1      -2.575  12.293  -6.201  1.00  0.00     0.014 A 
ATOM     31  C   UNL     1      -4.076  12.085  -8.542  1.00  0.00     0.010 A 
ATOM     32  C   UNL     1      -3.906  12.681  -6.199  1.00  0.00     0.010 A 
ATOM     33  C   UNL     1      -4.663  12.599  -7.375  1.00  0.00    -0.014 A 
BRANCH  33  34
ATOM     34  C   UNL     1      -6.056  13.102  -7.364  1.00  0.00     0.031 A 
ATOM     35  C   UNL     1      -6.319  14.552  -7.067  1.00  0.00     0.074 A 
ATOM     36  C   UNL     1      -7.075  12.248  -7.572  1.00  0.00     0.049 A 
ATOM     37  N   UNL     1      -7.462  15.175  -6.941  1.00  0.00    -0.248 NA
ATOM     38  C   UNL     1      -5.142  15.413  -6.854  1.00  0.00     0.031 C 
ATOM     39  C   UNL     1      -6.939  10.814  -7.838  1.00  0.00     0.029 A 
ATOM     40  N   UNL     1      -8.430  12.462  -7.595  1.00  0.00    -0.354 N 
ATOM     41  C   UNL     1      -7.141  16.491  -6.638  1.00  0.00     0.074 A 
ATOM     42  C   UNL     1      -5.703  16.564  -6.519  1.00  0.00     0.031 C 
ATOM     43  C   UNL     1      -8.157  10.287  -8.042  1.00  0.00     0.029 A 
ATOM     44  C   UNL     1      -9.161  11.334  -7.878  1.00  0.00     0.049 A 
ATOM     45  H   UNL     1      -8.839  13.341  -7.425  1.00  0.00     0.167 HD
ATOM     46  C   UNL     1      -7.968  17.553  -6.510  1.00  0.00     0.037 A 
ATOM     47  C   UNL     1     -10.492  11.168  -7.993  1.00  0.00     0.037 A 
ATOM     48  C   UNL     1      -9.397  17.477  -6.654  1.00  0.00     0.049 A 
ATOM     49  C   UNL     1     -11.393  12.356  -7.798  1.00  0.00     0.074 A 
ATOM     50  C   UNL     1     -10.325  18.499  -6.568  1.00  0.00     0.029 A 
ATOM     51  N   UNL     1     -10.101  16.313  -6.920  1.00  0.00    -0.354 N 
ATOM     52  N   UNL     1     -11.073  13.604  -7.551  1.00  0.00    -0.248 NA
ATOM     53  C   UNL     1     -12.839  12.114  -7.896  1.00  0.00     0.031 C 
ATOM     54  C   UNL     1     -11.596  17.945  -6.742  1.00  0.00     0.029 A 
ATOM     55  C   UNL     1     -11.456  16.588  -6.985  1.00  0.00     0.049 A 
ATOM     56  H   UNL     1      -9.697  15.424  -7.045  1.00  0.00     0.167 HD
ATOM     57  C   UNL     1     -12.274  14.300  -7.494  1.00  0.00     0.074 A 
ATOM     58  C   UNL     1     -13.326  13.338  -7.746  1.00  0.00     0.031 C 
ATOM     59  C   UNL     1     -12.486  15.616  -7.250  1.00  0.00     0.037 A 
BRANCH  46  60
ATOM     60  C   UNL     1      -7.348  18.891  -6.233  1.00  0.00     0.057 A 
ATOM     61  C   UNL     1      -6.596  19.564  -7.205  1.00  0.00     0.134 A 
ATOM     62  C   UNL     1      -7.546  19.538  -5.007  1.00  0.00     0.134 A 
ATOM     63  F   UNL     1      -6.355  18.992  -8.395  1.00  0.00    -0.206 F 
ATOM     64  C   UNL     1      -6.051  20.826  -6.964  1.00  0.00     0.040 A 
ATOM     65  C   UNL     1      -7.030  20.813  -4.765  1.00  0.00     0.040 A 
ATOM     66  F   UNL     1      -8.257  18.951  -4.033  1.00  0.00    -0.206 F 
ATOM     67  C   UNL     1      -6.278  21.459  -5.744  1.00  0.00     0.006 A 
ENDBRANCH  46  60
BRANCH  47  68
ATOM     68  C   UNL     1     -11.049   9.839  -8.353  1.00  0.00     0.057 A 
ATOM     69  C   UNL     1     -11.650   9.629  -9.600  1.00  0.00     0.134 A 
ATOM     70  C   UNL     1     -10.992   8.750  -7.475  1.00  0.00     0.134 A 
ATOM     71  F   UNL     1     -11.749  10.637 -10.479  1.00  0.00    -0.206 F 
ATOM     72  C   UNL     1     -12.189   8.391  -9.955  1.00  0.00     0.040 A 
ATOM     73  C   UNL     1     -11.503   7.499  -7.827  1.00  0.00     0.040 A 
ATOM     74  F   UNL     1     -10.422   8.881  -6.268  1.00  0.00    -0.206 F 
ATOM     75  C   UNL     1     -12.110   7.320  -9.069  1.00  0.00     0.006 A 
ENDBRANCH  47  68
BRANCH  59  76
ATOM     76  C   UNL     1     -13.904  16.105  -7.268  1.00  0.00     0.057 A 
ATOM     77  C   UNL     1     -14.799  15.802  -6.236  1.00  0.00     0.134 A 
ATOM     78  C   UNL     1     -14.351  16.957  -8.287  1.00  0.00     0.134 A 
ATOM     79  F   UNL     1     -14.434  14.984  -5.237  1.00  0.00    -0.206 F 
ATOM     80  C   UNL     1     -16.095  16.318  -6.222  1.00  0.00     0.040 A 
ATOM     81  C   UNL     1     -15.635  17.503  -8.268  1.00  0.00     0.040 A 
ATOM     82  F   UNL     1     -13.538  17.297  -9.298  1.00  0.00    -0.206 F 
ATOM     83  C   UNL     1     -16.512  17.181  -7.235  1.00  0.00     0.006 A 
ENDBRANCH  59  76
ENDBRANCH  33  34
ENDBRANCH  25  28
ENDBRANCH  23  24
ENDBRANCH   1  23
TORSDOF 11
