REMARK SMILES O=C(NCCCNC(=O)c1ccc(-n2cccc2/C=N/NC(=O)c2cccs2)cc1)c1ccc(-c2c3nc(c(-c4c(F)cccc4F)c4ccc([nH]4)c(-c4c(F)cccc4F)c4nc(c(-c5c(F)cccc5F)c5ccc2[nH]5)C=C4)C=C3)cc1
REMARK SMILES IDX 6 1 5 2 4 3 3 4 1 5 2 6 31 8 32 9 84 10 33 11 83 12 34 13
REMARK SMILES IDX 35 14 36 15 77 16 37 17 82 18 76 19 78 20 38 21 81 22 75 23
REMARK SMILES IDX 74 24 39 26 65 27 48 28 64 29 49 30 52 31 63 32 79 33 50 34
REMARK SMILES IDX 51 35 62 37 80 38 53 39 40 40 41 41 46 42 42 43 43 44 45 45
REMARK SMILES IDX 47 46 44 47 66 48 67 49 72 50 68 51 69 52 71 53 73 54 70 55
REMARK SMILES IDX 54 56 55 57 60 58 56 59 57 60 59 61 61 62 58 63 7 64 8 65
REMARK SMILES IDX 9 67 10 68 11 69 30 70 12 71 29 72 13 73 14 74 15 75 18 76
REMARK SMILES IDX 16 77 17 78 19 79 20 80 21 81 22 82 23 84 24 85 25 86 28 87
REMARK SMILES IDX 26 88 27 89
REMARK H PARENT 3 7 78 25 52 36 7 66 21 83
REMARK Flexibility Score: inf
ROOT
ATOM      1  C   UNL     1       4.401  -2.307   2.993  1.00  0.00     0.118 C 
ENDROOT
BRANCH   1   2
ATOM      2  C   UNL     1       4.997  -1.200   2.127  1.00  0.00     0.042 C 
BRANCH   2   3
ATOM      3  C   UNL     1       4.720  -1.328   0.630  1.00  0.00     0.118 C 
BRANCH   3   4
ATOM      4  N   UNL     1       3.332  -1.184   0.229  1.00  0.00    -0.352 N 
ATOM      5  O   UNL     1       1.333  -0.302  -0.230  1.00  0.00    -0.269 OA
ATOM      6  C   UNL     1       2.451  -0.134   0.255  1.00  0.00     0.251 C 
ATOM      7  H   UNL     1       2.943  -2.011  -0.137  1.00  0.00     0.163 HD
BRANCH   6   8
ATOM      8  C   UNL     1       2.761   1.166   0.896  1.00  0.00     0.039 A 
ATOM      9  C   UNL     1       4.019   1.768   0.847  1.00  0.00     0.014 A 
ATOM     10  C   UNL     1       1.700   1.837   1.529  1.00  0.00     0.014 A 
ATOM     11  C   UNL     1       4.236   2.989   1.479  1.00  0.00     0.010 A 
ATOM     12  C   UNL     1       1.903   3.076   2.138  1.00  0.00     0.010 A 
ATOM     13  C   UNL     1       3.176   3.654   2.106  1.00  0.00    -0.014 A 
BRANCH  13  14
ATOM     14  C   UNL     1       3.412   5.051   2.541  1.00  0.00     0.031 A 
ATOM     15  C   UNL     1       3.360   6.043   1.376  1.00  0.00     0.074 A 
ATOM     16  C   UNL     1       3.715   5.260   3.854  1.00  0.00     0.049 A 
ATOM     17  N   UNL     1       3.968   7.180   1.224  1.00  0.00    -0.248 NA
ATOM     18  C   UNL     1       2.572   5.681   0.166  1.00  0.00     0.031 C 
ATOM     19  C   UNL     1       3.707   4.199   4.875  1.00  0.00     0.029 A 
ATOM     20  N   UNL     1       4.095   6.364   4.597  1.00  0.00    -0.354 N 
ATOM     21  C   UNL     1       3.498   7.747   0.022  1.00  0.00     0.074 A 
ATOM     22  C   UNL     1       2.739   6.731  -0.641  1.00  0.00     0.031 C 
ATOM     23  C   UNL     1       4.125   4.679   6.063  1.00  0.00     0.029 A 
ATOM     24  C   UNL     1       4.435   6.092   5.948  1.00  0.00     0.049 A 
ATOM     25  H   UNL     1       4.127   7.271   4.216  1.00  0.00     0.167 HD
ATOM     26  C   UNL     1       3.647   9.064  -0.299  1.00  0.00     0.037 A 
ATOM     27  C   UNL     1       4.962   6.923   6.902  1.00  0.00     0.037 A 
ATOM     28  C   UNL     1       4.384   9.750   0.706  1.00  0.00     0.049 A 
ATOM     29  C   UNL     1       4.998   8.266   6.301  1.00  0.00     0.074 A 
ATOM     30  C   UNL     1       5.710   9.792   1.039  1.00  0.00     0.029 A 
ATOM     31  N   UNL     1       3.656  10.347   1.704  1.00  0.00    -0.354 N 
ATOM     32  N   UNL     1       3.959   9.026   6.123  1.00  0.00    -0.248 NA
ATOM     33  C   UNL     1       6.280   8.797   5.820  1.00  0.00     0.031 C 
ATOM     34  C   UNL     1       5.718  10.091   2.419  1.00  0.00     0.029 A 
ATOM     35  C   UNL     1       4.403  10.288   2.854  1.00  0.00     0.049 A 
ATOM     36  H   UNL     1       2.761  10.745   1.612  1.00  0.00     0.167 HD
ATOM     37  C   UNL     1       4.422   9.956   5.221  1.00  0.00     0.074 A 
ATOM     38  C   UNL     1       5.861   9.963   5.337  1.00  0.00     0.031 C 
ATOM     39  C   UNL     1       3.690  10.228   4.112  1.00  0.00     0.037 A 
BRANCH  26  40
ATOM     40  C   UNL     1       2.983   9.907  -1.351  1.00  0.00     0.057 A 
ATOM     41  C   UNL     1       3.602  11.121  -1.731  1.00  0.00     0.134 A 
ATOM     42  C   UNL     1       1.646   9.760  -1.735  1.00  0.00     0.134 A 
ATOM     43  F   UNL     1       4.893  11.357  -1.447  1.00  0.00    -0.206 F 
ATOM     44  C   UNL     1       2.903  12.164  -2.344  1.00  0.00     0.040 A 
ATOM     45  C   UNL     1       0.948  10.783  -2.392  1.00  0.00     0.040 A 
ATOM     46  F   UNL     1       0.941   8.669  -1.406  1.00  0.00    -0.206 F 
ATOM     47  C   UNL     1       1.563  12.002  -2.662  1.00  0.00     0.006 A 
ENDBRANCH  26  40
BRANCH  27  48
ATOM     48  C   UNL     1       5.534   6.804   8.303  1.00  0.00     0.057 A 
ATOM     49  C   UNL     1       5.508   5.666   9.117  1.00  0.00     0.134 A 
ATOM     50  C   UNL     1       6.220   7.902   8.899  1.00  0.00     0.134 A 
ATOM     51  F   UNL     1       4.805   4.580   8.788  1.00  0.00    -0.206 F 
ATOM     52  C   UNL     1       6.192   5.589  10.348  1.00  0.00     0.040 A 
ATOM     53  C   UNL     1       6.928   7.832  10.104  1.00  0.00     0.040 A 
ATOM     54  F   UNL     1       6.240   9.118   8.338  1.00  0.00    -0.206 F 
ATOM     55  C   UNL     1       6.932   6.660  10.830  1.00  0.00     0.006 A 
ENDBRANCH  27  48
BRANCH  39  56
ATOM     56  C   UNL     1       2.211   9.953   4.285  1.00  0.00     0.057 A 
ATOM     57  C   UNL     1       1.450  10.711   5.183  1.00  0.00     0.134 A 
ATOM     58  C   UNL     1       1.550   8.865   3.696  1.00  0.00     0.134 A 
ATOM     59  F   UNL     1       1.993  11.771   5.799  1.00  0.00    -0.206 F 
ATOM     60  C   UNL     1       0.118  10.392   5.484  1.00  0.00     0.040 A 
ATOM     61  C   UNL     1       0.218   8.539   3.973  1.00  0.00     0.040 A 
ATOM     62  F   UNL     1       2.186   8.067   2.841  1.00  0.00    -0.206 F 
ATOM     63  C   UNL     1      -0.502   9.301   4.880  1.00  0.00     0.006 A 
ENDBRANCH  39  56
ENDBRANCH  13  14
ENDBRANCH   6   8
ENDBRANCH   3   4
ENDBRANCH   2   3
ENDBRANCH   1   2
BRANCH   1  64
ATOM     64  N   UNL     1       4.930  -3.623   2.671  1.00  0.00    -0.352 N 
ATOM     65  C   UNL     1       5.693  -4.508   3.389  1.00  0.00     0.251 C 
ATOM     66  H   UNL     1       4.697  -3.938   1.767  1.00  0.00     0.163 HD
ATOM     67  O   UNL     1       6.144  -5.499   2.820  1.00  0.00    -0.269 OA
BRANCH  65  68
ATOM     68  C   UNL     1       6.016  -4.291   4.818  1.00  0.00     0.039 A 
ATOM     69  C   UNL     1       7.319  -4.574   5.250  1.00  0.00     0.016 A 
ATOM     70  C   UNL     1       5.054  -3.894   5.750  1.00  0.00     0.016 A 
ATOM     71  C   UNL     1       7.691  -4.351   6.579  1.00  0.00     0.027 A 
ATOM     72  C   UNL     1       5.420  -3.678   7.083  1.00  0.00     0.027 A 
ATOM     73  C   UNL     1       6.751  -3.863   7.489  1.00  0.00     0.046 A 
BRANCH  73  74
ATOM     74  N   UNL     1       7.116  -3.564   8.831  1.00  0.00    -0.316 N 
ATOM     75  C   UNL     1       6.306  -3.825   9.923  1.00  0.00     0.092 A 
ATOM     76  C   UNL     1       8.240  -2.874   9.283  1.00  0.00     0.066 A 
ATOM     77  C   UNL     1       6.919  -3.370  11.065  1.00  0.00     0.021 A 
ATOM     78  C   UNL     1       8.122  -2.762  10.664  1.00  0.00     0.030 A 
BRANCH  76  79
ATOM     79  C   UNL     1       9.275  -2.267   8.477  1.00  0.00     0.160 C 
ATOM     80  N   UNL     1       9.882  -1.208   8.917  1.00  0.00    -0.179 NA
BRANCH  80  81
ATOM     81  N   UNL     1      10.839  -0.604   8.149  1.00  0.00    -0.242 N 
ATOM     82  C   UNL     1      10.954  -0.421   6.774  1.00  0.00     0.281 C 
ATOM     83  H   UNL     1      11.588  -0.227   8.666  1.00  0.00     0.194 HD
ATOM     84  O   UNL     1      12.015   0.019   6.349  1.00  0.00    -0.266 OA
BRANCH  82  85
ATOM     85  C   UNL     1       9.819  -0.716   5.915  1.00  0.00     0.094 A 
ATOM     86  C   UNL     1       8.479  -0.423   6.080  1.00  0.00     0.026 A 
ATOM     87  S   UNL     1      10.107  -1.522   4.429  1.00  0.00    -0.139 S 
ATOM     88  C   UNL     1       7.682  -0.917   5.009  1.00  0.00     0.012 A 
ATOM     89  C   UNL     1       8.442  -1.549   4.051  1.00  0.00     0.065 A 
ENDBRANCH  82  85
ENDBRANCH  80  81
ENDBRANCH  76  79
ENDBRANCH  73  74
ENDBRANCH  65  68
ENDBRANCH   1  64
TORSDOF 14
