REMARK SMILES CC(=O)c1cn(CC(=O)NCC(=O)NCC(=O)NCCCNC(=O)c2ccc(-c3c4nc(c(-c5c(F)cccc5F)c5ccc([nH]5)c(-c5c(F)cccc5F)c5nc(c(-c6c(F)cccc6F)c6ccc3[nH]6)C=C5)C=C4)cc2)c2ccccc12
REMARK SMILES IDX 16 1 17 2 18 3 15 5 14 6 12 7 13 8 11 10 10 11 8 12 9 13
REMARK SMILES IDX 7 15 6 16 4 17 5 18 84 19 79 20 83 21 80 22 82 23 81 24 2 25
REMARK SMILES IDX 1 26 3 27 19 28 20 29 21 30 22 31 23 32 24 34 25 35 26 36
REMARK SMILES IDX 78 37 27 38 77 39 28 40 29 41 30 42 71 43 31 44 76 45 70 46
REMARK SMILES IDX 72 47 32 48 75 49 69 50 68 51 33 53 59 54 42 55 58 56 43 57
REMARK SMILES IDX 46 58 57 59 73 60 44 61 45 62 56 64 74 65 47 66 34 67 35 68
REMARK SMILES IDX 40 69 36 70 37 71 39 72 41 73 38 74 60 75 61 76 66 77 62 78
REMARK SMILES IDX 63 79 65 80 67 81 64 82 48 83 49 84 54 85 50 86 51 87 53 88
REMARK SMILES IDX 55 89 52 90
REMARK H PARENT 18 4 14 9 10 14 22 33 72 52 46 63
REMARK Flexibility Score: inf
ROOT
ATOM      1  C   UNL     1       2.991  -1.522  -5.105  1.00  0.00     0.239 C 
ATOM      2  O   UNL     1       3.986  -0.951  -4.680  1.00  0.00    -0.273 OA
ATOM      3  N   UNL     1       3.095  -2.237  -6.266  1.00  0.00    -0.355 N 
ATOM      4  H   UNL     1       4.010  -2.424  -6.579  1.00  0.00     0.163 HD
ENDROOT
BRANCH   1   5
ATOM      5  C   UNL     1       1.673  -1.561  -4.319  1.00  0.00     0.216 C 
BRANCH   5   6
ATOM      6  N   UNL     1       0.498  -0.976  -4.934  1.00  0.00    -0.346 N 
ATOM      7  C   UNL     1      -0.792  -1.424  -4.909  1.00  0.00     0.239 C 
ATOM      8  O   UNL     1      -1.669  -0.639  -5.279  1.00  0.00    -0.273 OA
ATOM      9  H   UNL     1       0.650  -0.144  -5.439  1.00  0.00     0.164 HD
BRANCH   7  10
ATOM     10  C   UNL     1      -1.175  -2.814  -4.343  1.00  0.00     0.216 C 
BRANCH  10  11
ATOM     11  N   UNL     1      -0.493  -3.937  -4.976  1.00  0.00    -0.345 N 
ATOM     12  C   UNL     1       0.243  -4.965  -4.467  1.00  0.00     0.240 C 
ATOM     13  O   UNL     1       0.875  -5.651  -5.277  1.00  0.00    -0.273 OA
ATOM     14  H   UNL     1      -0.580  -3.955  -5.956  1.00  0.00     0.164 HD
BRANCH  12  15
ATOM     15  C   UNL     1       0.220  -5.335  -2.995  1.00  0.00     0.222 C 
BRANCH  15  16
ATOM     16  N   UNL     1       0.837  -4.364  -2.103  1.00  0.00    -0.337 N 
ATOM     17  C   UNL     1       0.947  -2.650  -0.673  1.00  0.00     0.043 A 
ATOM     18  C   UNL     1       0.140  -3.663  -1.157  1.00  0.00     0.099 A 
ATOM     19  C   UNL     1       2.256  -2.884  -1.213  1.00  0.00     0.010 A 
ATOM     20  C   UNL     1       2.163  -3.987  -2.079  1.00  0.00     0.049 A 
ATOM     21  C   UNL     1       3.514  -2.256  -1.076  1.00  0.00     0.011 A 
ATOM     22  C   UNL     1       3.268  -4.468  -2.803  1.00  0.00     0.027 A 
ATOM     23  C   UNL     1       4.615  -2.719  -1.804  1.00  0.00     0.001 A 
ATOM     24  C   UNL     1       4.491  -3.810  -2.655  1.00  0.00     0.002 A 
BRANCH  17  25
ATOM     25  C   UNL     1       0.426  -1.591   0.190  1.00  0.00     0.161 C 
ATOM     26  C   UNL     1       0.995  -0.201   0.070  1.00  0.00     0.093 C 
ATOM     27  O   UNL     1      -0.546  -1.794   0.920  1.00  0.00    -0.294 OA
ENDBRANCH  17  25
ENDBRANCH  15  16
ENDBRANCH  12  15
ENDBRANCH  10  11
ENDBRANCH   7  10
ENDBRANCH   5   6
ENDBRANCH   1   5
BRANCH   3  28
ATOM     28  C   UNL     1       2.027  -2.752  -7.086  1.00  0.00     0.117 C 
BRANCH  28  29
ATOM     29  C   UNL     1       1.670  -1.762  -8.186  1.00  0.00     0.042 C 
BRANCH  29  30
ATOM     30  C   UNL     1       2.773  -1.648  -9.238  1.00  0.00     0.118 C 
BRANCH  30  31
ATOM     31  N   UNL     1       3.033  -2.895  -9.927  1.00  0.00    -0.352 N 
ATOM     32  C   UNL     1       2.428  -3.563 -10.954  1.00  0.00     0.251 C 
ATOM     33  H   UNL     1       3.823  -3.367  -9.578  1.00  0.00     0.163 HD
ATOM     34  O   UNL     1       2.981  -4.599 -11.328  1.00  0.00    -0.269 OA
BRANCH  32  35
ATOM     35  C   UNL     1       1.148  -3.160 -11.600  1.00  0.00     0.039 A 
ATOM     36  C   UNL     1       0.403  -2.022 -11.293  1.00  0.00     0.014 A 
ATOM     37  C   UNL     1       0.644  -4.045 -12.572  1.00  0.00     0.014 A 
ATOM     38  C   UNL     1      -0.850  -1.821 -11.857  1.00  0.00     0.010 A 
ATOM     39  C   UNL     1      -0.591  -3.828 -13.173  1.00  0.00     0.010 A 
ATOM     40  C   UNL     1      -1.355  -2.734 -12.783  1.00  0.00    -0.014 A 
BRANCH  40  41
ATOM     41  C   UNL     1      -2.638  -2.420 -13.402  1.00  0.00     0.031 A 
ATOM     42  C   UNL     1      -2.688  -1.123 -14.136  1.00  0.00     0.074 A 
ATOM     43  C   UNL     1      -3.691  -3.259 -13.413  1.00  0.00     0.049 A 
ATOM     44  N   UNL     1      -3.455  -0.107 -13.905  1.00  0.00    -0.248 NA
ATOM     45  C   UNL     1      -1.694  -0.892 -15.195  1.00  0.00     0.031 C 
ATOM     46  C   UNL     1      -3.751  -4.651 -12.968  1.00  0.00     0.029 A 
ATOM     47  N   UNL     1      -4.933  -3.044 -13.929  1.00  0.00    -0.354 N 
ATOM     48  C   UNL     1      -3.155   0.841 -14.884  1.00  0.00     0.074 A 
ATOM     49  C   UNL     1      -1.991   0.351 -15.577  1.00  0.00     0.031 C 
ATOM     50  C   UNL     1      -4.890  -5.214 -13.431  1.00  0.00     0.029 A 
ATOM     51  C   UNL     1      -5.687  -4.196 -14.096  1.00  0.00     0.049 A 
ATOM     52  H   UNL     1      -5.267  -2.148 -14.163  1.00  0.00     0.167 HD
ATOM     53  C   UNL     1      -3.994   1.877 -15.161  1.00  0.00     0.037 A 
ATOM     54  C   UNL     1      -6.854  -4.311 -14.778  1.00  0.00     0.037 A 
ATOM     55  C   UNL     1      -4.928   2.101 -14.090  1.00  0.00     0.049 A 
ATOM     56  C   UNL     1      -7.440  -2.954 -14.904  1.00  0.00     0.074 A 
ATOM     57  C   UNL     1      -4.815   2.432 -12.753  1.00  0.00     0.029 A 
ATOM     58  N   UNL     1      -6.223   1.676 -14.256  1.00  0.00    -0.354 N 
ATOM     59  N   UNL     1      -7.975  -2.300 -13.912  1.00  0.00    -0.248 NA
ATOM     60  C   UNL     1      -7.050  -2.139 -16.047  1.00  0.00     0.031 C 
ATOM     61  C   UNL     1      -5.867   1.718 -12.108  1.00  0.00     0.029 A 
ATOM     62  C   UNL     1      -6.577   1.039 -13.097  1.00  0.00     0.049 A 
ATOM     63  H   UNL     1      -6.787   1.805 -15.053  1.00  0.00     0.167 HD
ATOM     64  C   UNL     1      -7.587  -0.984 -14.110  1.00  0.00     0.074 A 
ATOM     65  C   UNL     1      -7.113  -0.927 -15.491  1.00  0.00     0.031 C 
ATOM     66  C   UNL     1      -7.416  -0.132 -13.057  1.00  0.00     0.037 A 
BRANCH  53  67
ATOM     67  C   UNL     1      -4.207   2.470 -16.534  1.00  0.00     0.057 A 
ATOM     68  C   UNL     1      -3.906   1.801 -17.735  1.00  0.00     0.134 A 
ATOM     69  C   UNL     1      -5.036   3.602 -16.672  1.00  0.00     0.134 A 
ATOM     70  F   UNL     1      -3.172   0.683 -17.769  1.00  0.00    -0.206 F 
ATOM     71  C   UNL     1      -4.435   2.190 -18.970  1.00  0.00     0.040 A 
ATOM     72  C   UNL     1      -5.610   3.969 -17.895  1.00  0.00     0.040 A 
ATOM     73  F   UNL     1      -5.390   4.333 -15.604  1.00  0.00    -0.206 F 
ATOM     74  C   UNL     1      -5.322   3.251 -19.047  1.00  0.00     0.006 A 
ENDBRANCH  53  67
BRANCH  54  75
ATOM     75  C   UNL     1      -7.411  -5.483 -15.489  1.00  0.00     0.057 A 
ATOM     76  C   UNL     1      -6.583  -6.483 -16.028  1.00  0.00     0.134 A 
ATOM     77  C   UNL     1      -8.759  -5.531 -15.875  1.00  0.00     0.134 A 
ATOM     78  F   UNL     1      -5.262  -6.490 -15.798  1.00  0.00    -0.206 F 
ATOM     79  C   UNL     1      -7.061  -7.468 -16.899  1.00  0.00     0.040 A 
ATOM     80  C   UNL     1      -9.249  -6.505 -16.756  1.00  0.00     0.040 A 
ATOM     81  F   UNL     1      -9.624  -4.598 -15.453  1.00  0.00    -0.206 F 
ATOM     82  C   UNL     1      -8.396  -7.473 -17.277  1.00  0.00     0.006 A 
ENDBRANCH  54  75
BRANCH  66  83
ATOM     83  C   UNL     1      -7.891  -0.580 -11.706  1.00  0.00     0.057 A 
ATOM     84  C   UNL     1      -8.786   0.231 -11.000  1.00  0.00     0.134 A 
ATOM     85  C   UNL     1      -7.379  -1.698 -11.032  1.00  0.00     0.134 A 
ATOM     86  F   UNL     1      -9.268   1.354 -11.557  1.00  0.00    -0.206 F 
ATOM     87  C   UNL     1      -9.169  -0.064  -9.690  1.00  0.00     0.040 A 
ATOM     88  C   UNL     1      -7.783  -2.025  -9.734  1.00  0.00     0.040 A 
ATOM     89  F   UNL     1      -6.435  -2.470 -11.584  1.00  0.00    -0.206 F 
ATOM     90  C   UNL     1      -8.677  -1.202  -9.057  1.00  0.00     0.006 A 
ENDBRANCH  66  83
ENDBRANCH  40  41
ENDBRANCH  32  35
ENDBRANCH  30  31
ENDBRANCH  29  30
ENDBRANCH  28  29
ENDBRANCH   3  28
TORSDOF 16
