REMARK SMILES Cc1cc2n(n1)[C@H](C(F)(F)F)CCN2C(=O)c1cnn([C@@H](C)C(=O)NCCCNC(=O)c2ccc(-c3c4nc(c(-c5c(F)cccc5F)c5ccc([nH]5)c(-c5c(F)cccc5F)c5nc(c(-c6c(F)cccc6F)c6ccc3[nH]6)C=C5)C=C4)cc2)c1
REMARK SMILES IDX 26 1 25 2 23 3 24 4 21 6 22 7 20 8 17 9 18 10 86 11 19 12
REMARK SMILES IDX 15 13 16 14 14 15 1 16 2 17 3 18 6 19 4 20 5 21 7 22 13 23
REMARK SMILES IDX 12 24 8 25 9 26 10 27 11 28 27 29 28 30 29 31 30 32 31 34
REMARK SMILES IDX 32 35 33 36 85 37 34 38 84 39 35 40 36 41 37 42 78 43 38 44
REMARK SMILES IDX 83 45 77 46 79 47 39 48 82 49 76 50 75 51 40 53 66 54 49 55
REMARK SMILES IDX 65 56 50 57 53 58 64 59 80 60 51 61 52 62 63 64 81 65 54 66
REMARK SMILES IDX 41 67 42 68 47 69 43 70 44 71 46 72 48 73 45 74 67 75 68 76
REMARK SMILES IDX 73 77 69 78 70 79 72 80 74 81 71 82 55 83 56 84 61 85 57 86
REMARK SMILES IDX 58 87 60 88 62 89 59 90
REMARK H PARENT 25 5 29 33 79 52 53 63
REMARK Flexibility Score: inf
ROOT
ATOM      1  C   UNL     1      -1.316  -9.279   7.287  1.00  0.00     0.117 C 
ENDROOT
BRANCH   1   2
ATOM      2  N   UNL     1      -0.376  -9.948   6.396  1.00  0.00    -0.354 N 
ATOM      3  C   UNL     1       0.849  -9.579   5.926  1.00  0.00     0.244 C 
ATOM      4  O   UNL     1       1.375 -10.349   5.111  1.00  0.00    -0.273 OA
ATOM      5  H   UNL     1      -0.682 -10.827   6.075  1.00  0.00     0.163 HD
BRANCH   3   6
ATOM      6  C   UNL     1       1.597  -8.313   6.345  1.00  0.00     0.193 C 
ATOM      7  C   UNL     1       1.920  -8.206   7.831  1.00  0.00     0.044 C 
BRANCH   6   8
ATOM      8  N   UNL     1       1.003  -7.111   5.772  1.00  0.00    -0.260 N 
ATOM      9  C   UNL     1       0.570  -5.354   4.501  1.00  0.00     0.078 A 
ATOM     10  C   UNL     1      -0.522  -5.735   5.301  1.00  0.00     0.149 A 
ATOM     11  C   UNL     1       1.534  -6.303   4.802  1.00  0.00     0.123 A 
ATOM     12  N   UNL     1      -0.192  -6.663   6.194  1.00  0.00    -0.180 NA
BRANCH   9  13
ATOM     13  C   UNL     1       0.666  -4.328   3.500  1.00  0.00     0.262 C 
ATOM     14  O   UNL     1       1.141  -4.530   2.382  1.00  0.00    -0.269 OA
BRANCH  13  15
ATOM     15  N   UNL     1       0.215  -3.005   3.916  1.00  0.00    -0.293 N 
ATOM     16  C   UNL     1       0.876   0.113   0.024  1.00  0.00     0.069 C 
ATOM     17  C   UNL     1       0.507  -0.516   1.315  1.00  0.00     0.062 A 
ATOM     18  C   UNL     1       0.626  -1.882   1.679  1.00  0.00     0.072 A 
ATOM     19  N   UNL     1       0.020   0.221   2.321  1.00  0.00    -0.176 NA
ATOM     20  C   UNL     1       0.256  -1.939   3.003  1.00  0.00     0.134 A 
ATOM     21  N   UNL     1      -0.081  -0.651   3.329  1.00  0.00    -0.237 N 
ATOM     22  C   UNL     1      -0.532  -0.233   4.639  1.00  0.00     0.216 C 
ATOM     23  C   UNL     1      -0.057  -2.646   5.336  1.00  0.00     0.130 C 
ATOM     24  C   UNL     1      -1.016  -1.456   5.429  1.00  0.00     0.059 C 
BRANCH  22  25
ATOM     25  C   UNL     1       0.575   0.504   5.361  1.00  0.00     0.410 C 
ATOM     26  F   UNL     1       0.155   0.854   6.602  1.00  0.00    -0.169 F 
ATOM     27  F   UNL     1       1.664  -0.281   5.527  1.00  0.00    -0.169 F 
ATOM     28  F   UNL     1       0.961   1.633   4.741  1.00  0.00    -0.169 F 
ENDBRANCH  22  25
ENDBRANCH  13  15
ENDBRANCH   9  13
ENDBRANCH   6   8
ENDBRANCH   3   6
ENDBRANCH   1   2
BRANCH   1  29
ATOM     29  C   UNL     1      -2.469  -8.592   6.548  1.00  0.00     0.042 C 
BRANCH  29  30
ATOM     30  C   UNL     1      -3.558  -9.542   6.093  1.00  0.00     0.118 C 
BRANCH  30  31
ATOM     31  N   UNL     1      -4.316 -10.119   7.196  1.00  0.00    -0.352 N 
ATOM     32  C   UNL     1      -5.316 -11.066   7.116  1.00  0.00     0.251 C 
ATOM     33  H   UNL     1      -4.089  -9.797   8.098  1.00  0.00     0.163 HD
ATOM     34  O   UNL     1      -6.075 -11.259   8.058  1.00  0.00    -0.269 OA
BRANCH  32  35
ATOM     35  C   UNL     1      -5.485 -11.801   5.850  1.00  0.00     0.039 A 
ATOM     36  C   UNL     1      -6.741 -11.880   5.248  1.00  0.00     0.014 A 
ATOM     37  C   UNL     1      -4.360 -12.319   5.214  1.00  0.00     0.014 A 
ATOM     38  C   UNL     1      -6.840 -12.389   3.954  1.00  0.00     0.010 A 
ATOM     39  C   UNL     1      -4.443 -12.699   3.889  1.00  0.00     0.010 A 
ATOM     40  C   UNL     1      -5.683 -12.766   3.251  1.00  0.00    -0.014 A 
BRANCH  40  41
ATOM     41  C   UNL     1      -5.783 -13.141   1.834  1.00  0.00     0.031 A 
ATOM     42  C   UNL     1      -6.584 -12.242   0.943  1.00  0.00     0.074 A 
ATOM     43  C   UNL     1      -5.058 -14.114   1.240  1.00  0.00     0.049 A 
ATOM     44  N   UNL     1      -7.631 -12.540   0.240  1.00  0.00    -0.248 NA
ATOM     45  C   UNL     1      -6.182 -10.832   0.837  1.00  0.00     0.031 C 
ATOM     46  C   UNL     1      -3.974 -14.928   1.800  1.00  0.00     0.029 A 
ATOM     47  N   UNL     1      -5.084 -14.504  -0.068  1.00  0.00    -0.354 N 
ATOM     48  C   UNL     1      -7.935 -11.411  -0.519  1.00  0.00     0.074 A 
ATOM     49  C   UNL     1      -7.068 -10.361  -0.043  1.00  0.00     0.031 C 
ATOM     50  C   UNL     1      -3.301 -15.531   0.798  1.00  0.00     0.029 A 
ATOM     51  C   UNL     1      -4.015 -15.299  -0.443  1.00  0.00     0.049 A 
ATOM     52  H   UNL     1      -5.801 -14.243  -0.690  1.00  0.00     0.167 HD
ATOM     53  C   UNL     1      -8.766 -11.459  -1.599  1.00  0.00     0.037 A 
ATOM     54  C   UNL     1      -3.716 -15.740  -1.685  1.00  0.00     0.037 A 
ATOM     55  C   UNL     1      -9.563 -12.656  -1.614  1.00  0.00     0.049 A 
ATOM     56  C   UNL     1      -4.948 -15.680  -2.501  1.00  0.00     0.074 A 
ATOM     57  C   UNL     1     -10.473 -13.238  -0.752  1.00  0.00     0.029 A 
ATOM     58  N   UNL     1      -9.259 -13.633  -2.528  1.00  0.00    -0.354 N 
ATOM     59  N   UNL     1      -5.980 -16.457  -2.333  1.00  0.00    -0.248 NA
ATOM     60  C   UNL     1      -5.186 -14.492  -3.306  1.00  0.00     0.031 C 
ATOM     61  C   UNL     1     -10.261 -14.643  -0.886  1.00  0.00     0.029 A 
ATOM     62  C   UNL     1      -9.259 -14.818  -1.841  1.00  0.00     0.049 A 
ATOM     63  H   UNL     1      -9.077 -13.507  -3.487  1.00  0.00     0.167 HD
ATOM     64  C   UNL     1      -7.073 -15.662  -2.639  1.00  0.00     0.074 A 
ATOM     65  C   UNL     1      -6.519 -14.519  -3.356  1.00  0.00     0.031 C 
ATOM     66  C   UNL     1      -8.284 -15.864  -2.042  1.00  0.00     0.037 A 
BRANCH  53  67
ATOM     67  C   UNL     1      -8.661 -10.566  -2.811  1.00  0.00     0.057 A 
ATOM     68  C   UNL     1      -9.706 -10.537  -3.755  1.00  0.00     0.134 A 
ATOM     69  C   UNL     1      -7.462  -9.957  -3.228  1.00  0.00     0.134 A 
ATOM     70  F   UNL     1     -10.891 -11.107  -3.488  1.00  0.00    -0.206 F 
ATOM     71  C   UNL     1      -9.550  -9.992  -5.036  1.00  0.00     0.040 A 
ATOM     72  C   UNL     1      -7.310  -9.366  -4.487  1.00  0.00     0.040 A 
ATOM     73  F   UNL     1      -6.352  -9.989  -2.478  1.00  0.00    -0.206 F 
ATOM     74  C   UNL     1      -8.346  -9.406  -5.407  1.00  0.00     0.006 A 
ENDBRANCH  53  67
BRANCH  54  75
ATOM     75  C   UNL     1      -2.392 -16.050  -2.256  1.00  0.00     0.057 A 
ATOM     76  C   UNL     1      -2.257 -16.872  -3.382  1.00  0.00     0.134 A 
ATOM     77  C   UNL     1      -1.242 -15.344  -1.859  1.00  0.00     0.134 A 
ATOM     78  F   UNL     1      -3.308 -17.553  -3.858  1.00  0.00    -0.206 F 
ATOM     79  C   UNL     1      -1.051 -16.971  -4.086  1.00  0.00     0.040 A 
ATOM     80  C   UNL     1      -0.030 -15.442  -2.546  1.00  0.00     0.040 A 
ATOM     81  F   UNL     1      -1.283 -14.472  -0.840  1.00  0.00    -0.206 F 
ATOM     82  C   UNL     1       0.065 -16.248  -3.674  1.00  0.00     0.006 A 
ENDBRANCH  54  75
BRANCH  66  83
ATOM     83  C   UNL     1      -8.500 -17.148  -1.292  1.00  0.00     0.057 A 
ATOM     84  C   UNL     1      -7.761 -17.532  -0.164  1.00  0.00     0.134 A 
ATOM     85  C   UNL     1      -9.586 -17.959  -1.641  1.00  0.00     0.134 A 
ATOM     86  F   UNL     1      -6.773 -16.763   0.314  1.00  0.00    -0.206 F 
ATOM     87  C   UNL     1      -8.055 -18.698   0.549  1.00  0.00     0.040 A 
ATOM     88  C   UNL     1      -9.912 -19.108  -0.917  1.00  0.00     0.040 A 
ATOM     89  F   UNL     1     -10.379 -17.622  -2.671  1.00  0.00    -0.206 F 
ATOM     90  C   UNL     1      -9.137 -19.489   0.175  1.00  0.00     0.006 A 
ENDBRANCH  66  83
ENDBRANCH  40  41
ENDBRANCH  32  35
ENDBRANCH  30  31
ENDBRANCH  29  30
ENDBRANCH   1  29
TORSDOF 14
