REMARK SMILES CC[C@](C)(Nc1cccc(Br)c1)C(=O)NCCCNC(=O)c1ccc(-c2c3nc(c(-c4c(F)cccc4F)c4ccc([nH]4)c(-c4c(F)cccc4F)c4nc(c(-c5c(F)cccc5F)c5ccc2[nH]5)C=C4)C=C3)cc1
REMARK SMILES IDX 17 1 16 2 15 3 13 4 14 5 3 7 4 8 2 9 1 10 5 11 6 13 7 14
REMARK SMILES IDX 12 15 8 16 10 17 9 18 11 19 18 20 19 21 20 22 21 24 22 25
REMARK SMILES IDX 23 26 75 27 24 28 74 29 25 30 26 31 27 32 68 33 28 34 73 35
REMARK SMILES IDX 67 36 69 37 29 38 72 39 66 40 65 41 30 43 56 44 39 45 55 46
REMARK SMILES IDX 40 47 43 48 54 49 70 50 41 51 42 52 53 54 71 55 44 56 31 57
REMARK SMILES IDX 32 58 37 59 33 60 34 61 36 62 38 63 35 64 57 65 58 66 63 67
REMARK SMILES IDX 59 68 60 69 62 70 64 71 61 72 45 73 46 74 51 75 47 76 48 77
REMARK SMILES IDX 50 78 52 79 49 80
REMARK H PARENT 15 6 5 12 19 23 69 42 43 53
REMARK Flexibility Score: inf
ROOT
ATOM      1  C   UNL     1       2.744   0.640  -6.128  1.00  0.00     0.042 C 
ENDROOT
BRANCH   1   2
ATOM      2  C   UNL     1       2.314  -0.391  -5.090  1.00  0.00     0.117 C 
BRANCH   2   3
ATOM      3  N   UNL     1       2.971  -0.277  -3.797  1.00  0.00    -0.354 N 
ATOM      4  C   UNL     1       2.560   0.250  -2.603  1.00  0.00     0.245 C 
ATOM      5  O   UNL     1       3.372   0.169  -1.673  1.00  0.00    -0.272 OA
ATOM      6  H   UNL     1       3.883  -0.648  -3.778  1.00  0.00     0.163 HD
BRANCH   4   7
ATOM      7  C   UNL     1       1.159   0.902  -2.411  1.00  0.00     0.113 C 
ATOM      8  C   UNL     1       1.024   1.450  -0.972  1.00  0.00     0.045 C 
BRANCH   7   9
ATOM      9  C   UNL     1       0.096  -0.238  -2.570  1.00  0.00     0.035 C 
ATOM     10  C   UNL     1      -1.285   0.171  -3.066  1.00  0.00     0.007 C 
ENDBRANCH   7   9
BRANCH   7  11
ATOM     11  N   UNL     1       0.887   2.040  -3.330  1.00  0.00    -0.371 N 
ATOM     12  H   UNL     1       0.003   2.031  -3.761  1.00  0.00     0.161 HD
BRANCH  11  13
ATOM     13  C   UNL     1       1.702   3.115  -3.667  1.00  0.00     0.036 A 
ATOM     14  C   UNL     1       3.100   3.109  -3.650  1.00  0.00     0.026 A 
ATOM     15  C   UNL     1       1.086   4.271  -4.182  1.00  0.00     0.041 A 
ATOM     16  C   UNL     1       3.854   4.160  -4.195  1.00  0.00     0.003 A 
ATOM     17  C   UNL     1       1.835   5.342  -4.683  1.00  0.00     0.020 A 
ATOM     18  C   UNL     1       3.220   5.279  -4.720  1.00  0.00     0.016 A 
ATOM     19  Br  UNL     1       0.952   6.884  -5.331  1.00  0.00    -0.051 Br
ENDBRANCH  11  13
ENDBRANCH   7  11
ENDBRANCH   4   7
ENDBRANCH   2   3
ENDBRANCH   1   2
BRANCH   1  20
ATOM     20  C   UNL     1       4.245   0.856  -6.259  1.00  0.00     0.118 C 
BRANCH  20  21
ATOM     21  N   UNL     1       4.913  -0.234  -6.953  1.00  0.00    -0.352 N 
ATOM     22  C   UNL     1       5.576  -0.227  -8.157  1.00  0.00     0.251 C 
ATOM     23  H   UNL     1       4.886  -1.104  -6.493  1.00  0.00     0.163 HD
ATOM     24  O   UNL     1       5.933  -1.286  -8.665  1.00  0.00    -0.269 OA
BRANCH  22  25
ATOM     25  C   UNL     1       5.844   1.048  -8.861  1.00  0.00     0.039 A 
ATOM     26  C   UNL     1       5.590   1.127 -10.234  1.00  0.00     0.014 A 
ATOM     27  C   UNL     1       6.368   2.154  -8.185  1.00  0.00     0.014 A 
ATOM     28  C   UNL     1       5.799   2.330 -10.915  1.00  0.00     0.010 A 
ATOM     29  C   UNL     1       6.514   3.370  -8.850  1.00  0.00     0.010 A 
ATOM     30  C   UNL     1       6.233   3.472 -10.222  1.00  0.00    -0.014 A 
BRANCH  30  31
ATOM     31  C   UNL     1       6.414   4.777 -10.909  1.00  0.00     0.031 A 
ATOM     32  C   UNL     1       7.783   5.390 -11.013  1.00  0.00     0.074 A 
ATOM     33  C   UNL     1       5.343   5.449 -11.374  1.00  0.00     0.049 A 
ATOM     34  N   UNL     1       8.132   6.571 -11.459  1.00  0.00    -0.248 NA
ATOM     35  C   UNL     1       8.908   4.574 -10.530  1.00  0.00     0.031 C 
ATOM     36  C   UNL     1       3.958   4.979 -11.318  1.00  0.00     0.029 A 
ATOM     37  N   UNL     1       5.251   6.684 -11.969  1.00  0.00    -0.354 N 
ATOM     38  C   UNL     1       9.509   6.646 -11.293  1.00  0.00     0.074 A 
ATOM     39  C   UNL     1       9.927   5.410 -10.668  1.00  0.00     0.031 C 
ATOM     40  C   UNL     1       3.156   5.909 -11.863  1.00  0.00     0.029 A 
ATOM     41  C   UNL     1       3.962   7.058 -12.266  1.00  0.00     0.049 A 
ATOM     42  H   UNL     1       6.034   7.247 -12.165  1.00  0.00     0.167 HD
ATOM     43  C   UNL     1      10.350   7.649 -11.642  1.00  0.00     0.037 A 
ATOM     44  C   UNL     1       3.482   8.204 -12.785  1.00  0.00     0.037 A 
ATOM     45  C   UNL     1       9.938   8.869 -12.285  1.00  0.00     0.049 A 
ATOM     46  C   UNL     1       4.434   9.312 -13.143  1.00  0.00     0.074 A 
ATOM     47  C   UNL     1      10.725   9.922 -12.718  1.00  0.00     0.029 A 
ATOM     48  N   UNL     1       8.626   9.199 -12.587  1.00  0.00    -0.354 N 
ATOM     49  N   UNL     1       5.738   9.353 -13.021  1.00  0.00    -0.248 NA
ATOM     50  C   UNL     1       3.847  10.535 -13.713  1.00  0.00     0.031 C 
ATOM     51  C   UNL     1       9.885  10.909 -13.244  1.00  0.00     0.029 A 
ATOM     52  C   UNL     1       8.580  10.448 -13.184  1.00  0.00     0.049 A 
ATOM     53  H   UNL     1       7.843   8.631 -12.403  1.00  0.00     0.167 HD
ATOM     54  C   UNL     1       6.131  10.583 -13.533  1.00  0.00     0.074 A 
ATOM     55  C   UNL     1       4.928  11.260 -13.967  1.00  0.00     0.031 C 
ATOM     56  C   UNL     1       7.378  11.101 -13.636  1.00  0.00     0.037 A 
BRANCH  43  57
ATOM     57  C   UNL     1      11.808   7.469 -11.332  1.00  0.00     0.057 A 
ATOM     58  C   UNL     1      12.605   6.554 -12.033  1.00  0.00     0.134 A 
ATOM     59  C   UNL     1      12.431   8.249 -10.350  1.00  0.00     0.134 A 
ATOM     60  F   UNL     1      12.069   5.770 -12.979  1.00  0.00    -0.206 F 
ATOM     61  C   UNL     1      13.964   6.404 -11.749  1.00  0.00     0.040 A 
ATOM     62  C   UNL     1      13.794   8.127 -10.076  1.00  0.00     0.040 A 
ATOM     63  F   UNL     1      11.727   9.150  -9.647  1.00  0.00    -0.206 F 
ATOM     64  C   UNL     1      14.563   7.197 -10.773  1.00  0.00     0.006 A 
ENDBRANCH  43  57
BRANCH  44  65
ATOM     65  C   UNL     1       2.022   8.363 -13.009  1.00  0.00     0.057 A 
ATOM     66  C   UNL     1       1.490   8.395 -14.304  1.00  0.00     0.134 A 
ATOM     67  C   UNL     1       1.128   8.498 -11.941  1.00  0.00     0.134 A 
ATOM     68  F   UNL     1       2.300   8.292 -15.368  1.00  0.00    -0.206 F 
ATOM     69  C   UNL     1       0.125   8.573 -14.529  1.00  0.00     0.040 A 
ATOM     70  C   UNL     1      -0.243   8.651 -12.151  1.00  0.00     0.040 A 
ATOM     71  F   UNL     1       1.574   8.470 -10.676  1.00  0.00    -0.206 F 
ATOM     72  C   UNL     1      -0.747   8.697 -13.449  1.00  0.00     0.006 A 
ENDBRANCH  44  65
BRANCH  56  73
ATOM     73  C   UNL     1       7.522  12.440 -14.298  1.00  0.00     0.057 A 
ATOM     74  C   UNL     1       7.147  13.629 -13.661  1.00  0.00     0.134 A 
ATOM     75  C   UNL     1       8.104  12.542 -15.569  1.00  0.00     0.134 A 
ATOM     76  F   UNL     1       6.573  13.599 -12.449  1.00  0.00    -0.206 F 
ATOM     77  C   UNL     1       7.333  14.871 -14.270  1.00  0.00     0.040 A 
ATOM     78  C   UNL     1       8.318  13.779 -16.177  1.00  0.00     0.040 A 
ATOM     79  F   UNL     1       8.493  11.441 -16.230  1.00  0.00    -0.206 F 
ATOM     80  C   UNL     1       7.929  14.949 -15.528  1.00  0.00     0.006 A 
ENDBRANCH  56  73
ENDBRANCH  30  31
ENDBRANCH  22  25
ENDBRANCH  20  21
ENDBRANCH   1  20
TORSDOF 13
