REMARK SMILES C[C@H]1CCCC/C1=C\C(=O)NCCCNC(=O)c1ccc(-c2c3nc(c(-c4c(F)cccc4F)c4ccc([nH]4)c(-c4c(F)cccc4F)c4nc(c(-c5c(F)cccc5F)c5ccc2[nH]5)C=C4)C=C3)cc1
REMARK SMILES IDX 14 1 13 2 12 3 11 4 9 5 10 6 8 8 1 9 2 10 3 11 7 12 4 13
REMARK SMILES IDX 6 14 5 15 15 16 16 17 17 19 18 20 19 21 71 22 20 23 70 24
REMARK SMILES IDX 21 25 22 26 23 27 64 28 24 29 69 30 63 31 65 32 25 33 68 34
REMARK SMILES IDX 62 35 61 36 26 38 52 39 35 40 51 41 36 42 39 43 50 44 66 45
REMARK SMILES IDX 37 46 38 47 49 49 67 50 40 51 27 52 28 53 33 54 29 55 30 56
REMARK SMILES IDX 32 57 34 58 31 59 53 60 54 61 59 62 55 63 56 64 58 65 60 66
REMARK SMILES IDX 57 67 41 68 42 69 47 70 43 71 44 72 46 73 48 74 45 75
REMARK H PARENT 11 7 15 18 65 37 39 48
REMARK Flexibility Score: inf
ROOT
ATOM      1  C   UNL     1       1.834   6.685  -3.164  1.00  0.00     0.118 C 
ENDROOT
BRANCH   1   2
ATOM      2  C   UNL     1       1.785   5.181  -3.316  1.00  0.00     0.042 C 
BRANCH   2   3
ATOM      3  C   UNL     1       1.084   4.467  -2.187  1.00  0.00     0.118 C 
BRANCH   3   4
ATOM      4  N   UNL     1      -0.346   4.541  -2.136  1.00  0.00    -0.352 N 
ATOM      5  C   UNL     1      -1.229   3.548  -1.847  1.00  0.00     0.243 C 
ATOM      6  O   UNL     1      -2.425   3.843  -1.784  1.00  0.00    -0.270 OA
ATOM      7  H   UNL     1      -0.739   5.422  -2.336  1.00  0.00     0.163 HD
BRANCH   5   8
ATOM      8  C   UNL     1      -0.859   2.095  -1.750  1.00  0.00     0.070 C 
ATOM      9  C   UNL     1      -1.135  -0.880  -1.861  1.00  0.00     0.012 C 
ATOM     10  C   UNL     1       0.178  -0.205  -1.459  1.00  0.00     0.012 C 
ATOM     11  C   UNL     1       1.301  -0.594  -2.443  1.00  0.00     0.008 C 
ATOM     12  C   UNL     1       0.170   1.325  -1.322  1.00  0.00    -0.062 C 
ATOM     13  C   UNL     1       2.673  -0.058  -2.014  1.00  0.00     0.001 C 
ATOM     14  C   UNL     1       1.481   1.752  -0.693  1.00  0.00     0.031 C 
ATOM     15  C   UNL     1       2.636   1.426  -1.657  1.00  0.00     0.004 C 
ENDBRANCH   5   8
ENDBRANCH   3   4
ENDBRANCH   2   3
ENDBRANCH   1   2
BRANCH   1  16
ATOM     16  N   UNL     1       2.595   7.127  -1.997  1.00  0.00    -0.352 N 
ATOM     17  C   UNL     1       3.879   7.598  -1.850  1.00  0.00     0.251 C 
ATOM     18  H   UNL     1       2.091   7.079  -1.153  1.00  0.00     0.163 HD
ATOM     19  O   UNL     1       4.334   7.754  -0.717  1.00  0.00    -0.269 OA
BRANCH  17  20
ATOM     20  C   UNL     1       4.737   7.884  -3.022  1.00  0.00     0.039 A 
ATOM     21  C   UNL     1       6.114   7.651  -2.944  1.00  0.00     0.014 A 
ATOM     22  C   UNL     1       4.200   8.394  -4.200  1.00  0.00     0.014 A 
ATOM     23  C   UNL     1       6.918   7.832  -4.074  1.00  0.00     0.010 A 
ATOM     24  C   UNL     1       4.963   8.423  -5.358  1.00  0.00     0.010 A 
ATOM     25  C   UNL     1       6.338   8.163  -5.309  1.00  0.00    -0.014 A 
BRANCH  25  26
ATOM     26  C   UNL     1       7.134   8.280  -6.559  1.00  0.00     0.031 A 
ATOM     27  C   UNL     1       7.101   9.563  -7.351  1.00  0.00     0.074 A 
ATOM     28  C   UNL     1       7.803   7.211  -7.034  1.00  0.00     0.049 A 
ATOM     29  N   UNL     1       7.607   9.824  -8.530  1.00  0.00    -0.248 NA
ATOM     30  C   UNL     1       6.358  10.690  -6.761  1.00  0.00     0.031 C 
ATOM     31  C   UNL     1       7.864   5.894  -6.398  1.00  0.00     0.029 A 
ATOM     32  N   UNL     1       8.551   7.060  -8.176  1.00  0.00    -0.354 N 
ATOM     33  C   UNL     1       7.215  11.123  -8.829  1.00  0.00     0.074 A 
ATOM     34  C   UNL     1       6.370  11.572  -7.747  1.00  0.00     0.031 C 
ATOM     35  C   UNL     1       8.635   5.081  -7.138  1.00  0.00     0.029 A 
ATOM     36  C   UNL     1       9.082   5.801  -8.325  1.00  0.00     0.049 A 
ATOM     37  H   UNL     1       8.693   7.785  -8.826  1.00  0.00     0.167 HD
ATOM     38  C   UNL     1       7.554  11.888  -9.893  1.00  0.00     0.037 A 
ATOM     39  C   UNL     1       9.836   5.284  -9.313  1.00  0.00     0.037 A 
ATOM     40  C   UNL     1       8.435  11.454 -10.944  1.00  0.00     0.049 A 
ATOM     41  C   UNL     1      10.211   6.156 -10.479  1.00  0.00     0.074 A 
ATOM     42  C   UNL     1       8.906  12.175 -12.027  1.00  0.00     0.029 A 
ATOM     43  N   UNL     1       8.982  10.183 -11.038  1.00  0.00    -0.354 N 
ATOM     44  N   UNL     1       9.892   7.406 -10.713  1.00  0.00    -0.248 NA
ATOM     45  C   UNL     1      11.056   5.548 -11.517  1.00  0.00     0.031 C 
ATOM     46  C   UNL     1       9.698  11.325 -12.803  1.00  0.00     0.029 A 
ATOM     47  C   UNL     1       9.767  10.092 -12.175  1.00  0.00     0.049 A 
ATOM     48  H   UNL     1       8.833   9.454 -10.394  1.00  0.00     0.167 HD
ATOM     49  C   UNL     1      10.520   7.743 -11.905  1.00  0.00     0.074 A 
ATOM     50  C   UNL     1      11.250   6.570 -12.338  1.00  0.00     0.031 C 
ATOM     51  C   UNL     1      10.495   8.918 -12.582  1.00  0.00     0.037 A 
BRANCH  38  52
ATOM     52  C   UNL     1       6.981  13.276  -9.964  1.00  0.00     0.057 A 
ATOM     53  C   UNL     1       7.354  14.280  -9.059  1.00  0.00     0.134 A 
ATOM     54  C   UNL     1       6.062  13.620 -10.963  1.00  0.00     0.134 A 
ATOM     55  F   UNL     1       8.220  14.016  -8.069  1.00  0.00    -0.206 F 
ATOM     56  C   UNL     1       6.810  15.564  -9.125  1.00  0.00     0.040 A 
ATOM     57  C   UNL     1       5.536  14.909 -11.059  1.00  0.00     0.040 A 
ATOM     58  F   UNL     1       5.664  12.711 -11.866  1.00  0.00    -0.206 F 
ATOM     59  C   UNL     1       5.903  15.883 -10.133  1.00  0.00     0.006 A 
ENDBRANCH  38  52
BRANCH  39  60
ATOM     60  C   UNL     1      10.310   3.878  -9.232  1.00  0.00     0.057 A 
ATOM     61  C   UNL     1      11.665   3.584  -9.035  1.00  0.00     0.134 A 
ATOM     62  C   UNL     1       9.429   2.796  -9.355  1.00  0.00     0.134 A 
ATOM     63  F   UNL     1      12.561   4.577  -8.927  1.00  0.00    -0.206 F 
ATOM     64  C   UNL     1      12.131   2.269  -8.987  1.00  0.00     0.040 A 
ATOM     65  C   UNL     1       9.877   1.476  -9.280  1.00  0.00     0.040 A 
ATOM     66  F   UNL     1       8.117   3.008  -9.534  1.00  0.00    -0.206 F 
ATOM     67  C   UNL     1      11.233   1.210  -9.105  1.00  0.00     0.006 A 
ENDBRANCH  39  60
BRANCH  51  68
ATOM     68  C   UNL     1      11.313   9.006 -13.837  1.00  0.00     0.057 A 
ATOM     69  C   UNL     1      10.944   8.339 -15.011  1.00  0.00     0.134 A 
ATOM     70  C   UNL     1      12.459   9.811 -13.882  1.00  0.00     0.134 A 
ATOM     71  F   UNL     1       9.864   7.543 -15.031  1.00  0.00    -0.206 F 
ATOM     72  C   UNL     1      11.698   8.451 -16.180  1.00  0.00     0.040 A 
ATOM     73  C   UNL     1      13.204   9.955 -15.053  1.00  0.00     0.040 A 
ATOM     74  F   UNL     1      12.861  10.486 -12.795  1.00  0.00    -0.206 F 
ATOM     75  C   UNL     1      12.827   9.268 -16.205  1.00  0.00     0.006 A 
ENDBRANCH  51  68
ENDBRANCH  25  26
ENDBRANCH  17  20
ENDBRANCH   1  16
TORSDOF 10
