REMARK SMILES CCOc1ccccc1Nc1ccc(C(=O)NCCCNC(=O)c2ccc(-c3c4nc(c(-c5c(F)cccc5F)c5ccc([nH]5)c(-c5c(F)cccc5F)c5nc(c(-c6c(F)cccc6F)c6ccc3[nH]6)C=C5)C=C4)cc2)cc1N
REMARK SMILES IDX 18 1 17 2 15 3 16 4 14 6 11 7 12 8 79 9 13 10 78 11 10 12
REMARK SMILES IDX 9 14 4 15 5 16 6 17 8 18 7 19 3 20 2 21 1 22 80 23 19 26
REMARK SMILES IDX 20 27 21 28 22 29 23 31 24 32 25 33 77 34 26 35 76 36 27 37
REMARK SMILES IDX 28 38 29 39 70 40 30 41 75 42 69 43 71 44 31 45 74 46 68 47
REMARK SMILES IDX 67 48 32 50 58 51 41 52 57 53 42 54 45 55 56 56 72 57 43 58
REMARK SMILES IDX 44 59 55 61 73 62 46 63 33 64 34 65 39 66 35 67 36 68 38 69
REMARK SMILES IDX 40 70 37 71 59 72 60 73 65 74 61 75 62 76 64 77 66 78 63 79
REMARK SMILES IDX 47 80 48 81 53 82 49 83 50 84 52 85 54 86 51 87
REMARK H PARENT 17 5 10 13 80 24 80 25 21 30 71 49 45 60
REMARK Flexibility Score: inf
ROOT
ATOM      1  C   UNL     1       7.971  -1.788  -3.206  1.00  0.00     0.118 C 
ENDROOT
BRANCH   1   2
ATOM      2  N   UNL     1       7.131  -1.752  -4.391  1.00  0.00    -0.352 N 
ATOM      3  C   UNL     1       5.843  -1.323  -4.584  1.00  0.00     0.251 C 
ATOM      4  O   UNL     1       5.374  -1.379  -5.720  1.00  0.00    -0.269 OA
ATOM      5  H   UNL     1       7.567  -2.098  -5.204  1.00  0.00     0.163 HD
BRANCH   3   6
ATOM      6  C   UNL     1       5.037  -0.726  -3.492  1.00  0.00     0.041 A 
ATOM      7  C   UNL     1       3.568   0.597  -1.493  1.00  0.00     0.062 A 
ATOM      8  C   UNL     1       3.455   0.981  -2.836  1.00  0.00     0.029 A 
ATOM      9  C   UNL     1       4.393  -0.500  -1.156  1.00  0.00     0.056 A 
ATOM     10  C   UNL     1       4.192   0.334  -3.827  1.00  0.00     0.016 A 
ATOM     11  C   UNL     1       5.069  -1.183  -2.173  1.00  0.00     0.041 A 
BRANCH   7  12
ATOM     12  N   UNL     1       2.879   1.362  -0.536  1.00  0.00    -0.351 N 
ATOM     13  H   UNL     1       1.951   1.578  -0.784  1.00  0.00     0.167 HD
BRANCH  12  14
ATOM     14  C   UNL     1       3.276   1.875   0.711  1.00  0.00     0.081 A 
ATOM     15  C   UNL     1       2.308   2.076   1.708  1.00  0.00     0.142 A 
ATOM     16  C   UNL     1       2.653   2.580   2.963  1.00  0.00     0.048 A 
ATOM     17  C   UNL     1       3.991   2.848   3.250  1.00  0.00     0.004 A 
ATOM     18  C   UNL     1       4.615   2.126   1.026  1.00  0.00     0.030 A 
ATOM     19  C   UNL     1       4.972   2.616   2.286  1.00  0.00     0.002 A 
BRANCH  15  20
ATOM     20  O   UNL     1       0.987   1.831   1.422  1.00  0.00    -0.492 OA
BRANCH  20  21
ATOM     21  C   UNL     1       0.595   0.511   1.828  1.00  0.00     0.226 C 
ATOM     22  C   UNL     1       0.371  -0.368   0.608  1.00  0.00     0.049 C 
ENDBRANCH  20  21
ENDBRANCH  15  20
ENDBRANCH  12  14
ENDBRANCH   7  12
BRANCH   9  23
ATOM     23  N   UNL     1       4.413  -1.040   0.132  1.00  0.00    -0.397 N 
ATOM     24  H   UNL     1       3.945  -0.580   0.866  1.00  0.00     0.156 HD
ATOM     25  H   UNL     1       4.894  -1.881   0.305  1.00  0.00     0.156 HD
ENDBRANCH   9  23
ENDBRANCH   3   6
ENDBRANCH   1   2
BRANCH   1  26
ATOM     26  C   UNL     1       8.059  -3.208  -2.649  1.00  0.00     0.042 C 
BRANCH  26  27
ATOM     27  C   UNL     1       8.897  -4.139  -3.521  1.00  0.00     0.118 C 
BRANCH  27  28
ATOM     28  N   UNL     1      10.315  -3.820  -3.449  1.00  0.00    -0.352 N 
ATOM     29  C   UNL     1      11.376  -4.629  -3.140  1.00  0.00     0.251 C 
ATOM     30  H   UNL     1      10.546  -2.885  -3.653  1.00  0.00     0.163 HD
ATOM     31  O   UNL     1      12.479  -4.129  -2.920  1.00  0.00    -0.269 OA
BRANCH  29  32
ATOM     32  C   UNL     1      11.205  -6.094  -3.055  1.00  0.00     0.039 A 
ATOM     33  C   UNL     1      11.838  -6.786  -2.018  1.00  0.00     0.014 A 
ATOM     34  C   UNL     1      10.464  -6.793  -4.013  1.00  0.00     0.014 A 
ATOM     35  C   UNL     1      11.691  -8.170  -1.914  1.00  0.00     0.010 A 
ATOM     36  C   UNL     1      10.267  -8.165  -3.874  1.00  0.00     0.010 A 
ATOM     37  C   UNL     1      10.885  -8.867  -2.828  1.00  0.00    -0.014 A 
BRANCH  37  38
ATOM     38  C   UNL     1      10.686 -10.332  -2.711  1.00  0.00     0.031 A 
ATOM     39  C   UNL     1      11.220 -11.255  -3.770  1.00  0.00     0.074 A 
ATOM     40  C   UNL     1       9.974 -10.826  -1.680  1.00  0.00     0.049 A 
ATOM     41  N   UNL     1      11.086 -12.553  -3.880  1.00  0.00    -0.248 NA
ATOM     42  C   UNL     1      11.984 -10.635  -4.864  1.00  0.00     0.031 C 
ATOM     43  C   UNL     1       9.369 -10.029  -0.611  1.00  0.00     0.029 A 
ATOM     44  N   UNL     1       9.627 -12.116  -1.370  1.00  0.00    -0.354 N 
ATOM     45  C   UNL     1      11.733 -12.900  -5.059  1.00  0.00     0.074 A 
ATOM     46  C   UNL     1      12.221 -11.674  -5.652  1.00  0.00     0.031 C 
ATOM     47  C   UNL     1       8.741 -10.850   0.246  1.00  0.00     0.029 A 
ATOM     48  C   UNL     1       8.869 -12.223  -0.230  1.00  0.00     0.049 A 
ATOM     49  H   UNL     1       9.897 -12.892  -1.913  1.00  0.00     0.167 HD
ATOM     50  C   UNL     1      11.920 -14.132  -5.590  1.00  0.00     0.037 A 
ATOM     51  C   UNL     1       8.332 -13.307   0.361  1.00  0.00     0.037 A 
ATOM     52  C   UNL     1      11.459 -15.353  -4.984  1.00  0.00     0.049 A 
ATOM     53  C   UNL     1       8.555 -14.663  -0.247  1.00  0.00     0.074 A 
ATOM     54  C   UNL     1      11.655 -16.655  -5.410  1.00  0.00     0.029 A 
ATOM     55  N   UNL     1      10.710 -15.422  -3.819  1.00  0.00    -0.354 N 
ATOM     56  N   UNL     1       9.222 -14.983  -1.329  1.00  0.00    -0.248 NA
ATOM     57  C   UNL     1       7.954 -15.809   0.450  1.00  0.00     0.031 C 
ATOM     58  C   UNL     1      10.994 -17.511  -4.522  1.00  0.00     0.029 A 
ATOM     59  C   UNL     1      10.419 -16.743  -3.522  1.00  0.00     0.049 A 
ATOM     60  H   UNL     1      10.427 -14.646  -3.282  1.00  0.00     0.167 HD
ATOM     61  C   UNL     1       9.141 -16.365  -1.431  1.00  0.00     0.074 A 
ATOM     62  C   UNL     1       8.371 -16.824  -0.293  1.00  0.00     0.031 C 
ATOM     63  C   UNL     1       9.657 -17.181  -2.381  1.00  0.00     0.037 A 
BRANCH  50  64
ATOM     64  C   UNL     1      12.661 -14.219  -6.891  1.00  0.00     0.057 A 
ATOM     65  C   UNL     1      14.041 -13.991  -6.970  1.00  0.00     0.134 A 
ATOM     66  C   UNL     1      11.995 -14.570  -8.072  1.00  0.00     0.134 A 
ATOM     67  F   UNL     1      14.735 -13.639  -5.876  1.00  0.00    -0.206 F 
ATOM     68  C   UNL     1      14.728 -14.084  -8.181  1.00  0.00     0.040 A 
ATOM     69  C   UNL     1      12.676 -14.690  -9.285  1.00  0.00     0.040 A 
ATOM     70  F   UNL     1      10.675 -14.809  -8.065  1.00  0.00    -0.206 F 
ATOM     71  C   UNL     1      14.046 -14.441  -9.342  1.00  0.00     0.006 A 
ENDBRANCH  50  64
BRANCH  51  72
ATOM     72  C   UNL     1       7.546 -13.157   1.610  1.00  0.00     0.057 A 
ATOM     73  C   UNL     1       8.056 -13.594   2.838  1.00  0.00     0.134 A 
ATOM     74  C   UNL     1       6.271 -12.579   1.608  1.00  0.00     0.134 A 
ATOM     75  F   UNL     1       9.265 -14.172   2.898  1.00  0.00    -0.206 F 
ATOM     76  C   UNL     1       7.321 -13.477   4.018  1.00  0.00     0.040 A 
ATOM     77  C   UNL     1       5.533 -12.436   2.784  1.00  0.00     0.040 A 
ATOM     78  F   UNL     1       5.731 -12.135   0.464  1.00  0.00    -0.206 F 
ATOM     79  C   UNL     1       6.056 -12.892   3.993  1.00  0.00     0.006 A 
ENDBRANCH  51  72
BRANCH  63  80
ATOM     80  C   UNL     1       9.428 -18.654  -2.217  1.00  0.00     0.057 A 
ATOM     81  C   UNL     1       8.182 -19.238  -2.471  1.00  0.00     0.134 A 
ATOM     82  C   UNL     1      10.478 -19.500  -1.839  1.00  0.00     0.134 A 
ATOM     83  F   UNL     1       7.134 -18.478  -2.822  1.00  0.00    -0.206 F 
ATOM     84  C   UNL     1       7.982 -20.613  -2.338  1.00  0.00     0.040 A 
ATOM     85  C   UNL     1      10.297 -20.879  -1.725  1.00  0.00     0.040 A 
ATOM     86  F   UNL     1      11.698 -19.002  -1.588  1.00  0.00    -0.206 F 
ATOM     87  C   UNL     1       9.044 -21.438  -1.971  1.00  0.00     0.006 A 
ENDBRANCH  63  80
ENDBRANCH  37  38
ENDBRANCH  29  32
ENDBRANCH  27  28
ENDBRANCH  26  27
ENDBRANCH   1  26
TORSDOF 15
