REMARK SMILES CC(C)(C)OC(=O)N1CCC[C@H]1C(=O)N1CCC[C@H]1C(=O)N1CCC[C@@H]1C(=O)NCCCNC(=O)c1ccc(-c2c3nc(c(-c4c(F)cccc4F)c4ccc([nH]4)c(-c4c(F)cccc4F)c4nc(c(-c5c(F)cccc5F)c5ccc2[nH]5)C=C4)C=C3)cc1
REMARK SMILES IDX 22 1 23 2 24 3 25 4 26 5 20 6 21 7 19 8 15 9 16 10 17 11
REMARK SMILES IDX 18 12 13 13 14 14 12 15 8 16 9 17 10 18 11 19 6 20 7 21 5 22
REMARK SMILES IDX 2 23 1 24 3 25 4 26 27 27 28 28 29 29 30 31 31 32 32 33
REMARK SMILES IDX 33 34 34 35 35 37 36 38 37 39 89 40 38 41 88 42 39 43 40 44
REMARK SMILES IDX 41 45 82 46 42 47 87 48 81 49 83 50 43 51 86 52 80 53 79 54
REMARK SMILES IDX 44 56 70 57 53 58 69 59 54 60 57 61 68 62 84 63 55 64 56 65
REMARK SMILES IDX 67 67 85 68 58 69 45 70 46 71 51 72 47 73 48 74 50 75 52 76
REMARK SMILES IDX 49 77 71 78 72 79 77 80 73 81 74 82 76 83 78 84 75 85 59 86
REMARK SMILES IDX 60 87 65 88 61 89 62 90 64 91 66 92 63 93
REMARK H PARENT 29 30 33 36 83 55 57 66
REMARK Flexibility Score: inf
ROOT
ATOM      1  N   UNL     1      -2.023  -0.921   9.166  1.00  0.00    -0.329 N 
ATOM      2  C   UNL     1      -3.448  -0.893   9.438  1.00  0.00     0.120 C 
ATOM      3  C   UNL     1      -3.853   0.557   9.227  1.00  0.00     0.024 C 
ATOM      4  C   UNL     1      -2.590   1.359   9.536  1.00  0.00     0.037 C 
ATOM      5  C   UNL     1      -1.414   0.393   9.322  1.00  0.00     0.174 C 
ENDROOT
BRANCH   1   6
ATOM      6  C   UNL     1      -1.230  -2.055   9.082  1.00  0.00     0.246 C 
ATOM      7  O   UNL     1      -0.177  -2.171   9.706  1.00  0.00    -0.272 OA
BRANCH   6   8
ATOM      8  C   UNL     1      -1.739  -3.129   8.092  1.00  0.00     0.174 C 
ATOM      9  N   UNL     1      -0.699  -3.800   7.284  1.00  0.00    -0.329 N 
ATOM     10  C   UNL     1      -0.694  -5.223   7.545  1.00  0.00     0.120 C 
ATOM     11  C   UNL     1      -2.081  -5.519   8.080  1.00  0.00     0.024 C 
ATOM     12  C   UNL     1      -2.453  -4.257   8.845  1.00  0.00     0.037 C 
BRANCH   9  13
ATOM     13  C   UNL     1       0.111  -3.081   6.414  1.00  0.00     0.246 C 
ATOM     14  O   UNL     1       0.340  -1.890   6.632  1.00  0.00    -0.272 OA
BRANCH  13  15
ATOM     15  C   UNL     1       0.565  -3.735   5.070  1.00  0.00     0.178 C 
ATOM     16  N   UNL     1       1.405  -2.857   4.224  1.00  0.00    -0.296 N 
ATOM     17  C   UNL     1       2.711  -3.430   3.984  1.00  0.00     0.124 C 
ATOM     18  C   UNL     1       2.441  -4.914   4.079  1.00  0.00     0.024 C 
ATOM     19  C   UNL     1       1.422  -5.000   5.210  1.00  0.00     0.037 C 
BRANCH  16  20
ATOM     20  C   UNL     1       0.891  -1.778   3.540  1.00  0.00     0.410 C 
ATOM     21  O   UNL     1      -0.221  -1.322   3.745  1.00  0.00    -0.224 OA
BRANCH  20  22
ATOM     22  O   UNL     1       1.739  -1.347   2.560  1.00  0.00    -0.444 OA
BRANCH  22  23
ATOM     23  C   UNL     1       1.343  -0.335   1.596  1.00  0.00     0.106 C 
ATOM     24  C   UNL     1       2.365  -0.410   0.451  1.00  0.00     0.056 C 
ATOM     25  C   UNL     1       1.407   1.052   2.240  1.00  0.00     0.056 C 
ATOM     26  C   UNL     1      -0.027  -0.617   0.984  1.00  0.00     0.056 C 
ENDBRANCH  22  23
ENDBRANCH  20  22
ENDBRANCH  16  20
ENDBRANCH  13  15
ENDBRANCH   9  13
ENDBRANCH   6   8
ENDBRANCH   1   6
BRANCH   5  27
ATOM     27  C   UNL     1      -0.558   0.853   8.118  1.00  0.00     0.242 C 
ATOM     28  O   UNL     1       0.433   1.571   8.301  1.00  0.00    -0.273 OA
ATOM     29  N   UNL     1      -0.965   0.677   6.826  1.00  0.00    -0.354 N 
ATOM     30  H   UNL     1      -0.382   1.099   6.154  1.00  0.00     0.163 HD
BRANCH  29  31
ATOM     31  C   UNL     1      -2.105  -0.021   6.275  1.00  0.00     0.117 C 
BRANCH  31  32
ATOM     32  C   UNL     1      -3.056   0.899   5.531  1.00  0.00     0.042 C 
BRANCH  32  33
ATOM     33  C   UNL     1      -2.747   0.949   4.049  1.00  0.00     0.118 C 
BRANCH  33  34
ATOM     34  N   UNL     1      -3.014  -0.319   3.385  1.00  0.00    -0.352 N 
ATOM     35  C   UNL     1      -3.347  -0.605   2.088  1.00  0.00     0.251 C 
ATOM     36  H   UNL     1      -2.943  -1.108   3.970  1.00  0.00     0.163 HD
ATOM     37  O   UNL     1      -3.582  -1.770   1.772  1.00  0.00    -0.269 OA
BRANCH  35  38
ATOM     38  C   UNL     1      -3.422   0.460   1.060  1.00  0.00     0.039 A 
ATOM     39  C   UNL     1      -4.282   0.261  -0.025  1.00  0.00     0.014 A 
ATOM     40  C   UNL     1      -2.637   1.617   1.114  1.00  0.00     0.014 A 
ATOM     41  C   UNL     1      -4.434   1.260  -0.983  1.00  0.00     0.010 A 
ATOM     42  C   UNL     1      -2.826   2.639   0.200  1.00  0.00     0.010 A 
ATOM     43  C   UNL     1      -3.749   2.474  -0.833  1.00  0.00    -0.014 A 
BRANCH  43  44
ATOM     44  C   UNL     1      -4.101   3.650  -1.643  1.00  0.00     0.031 A 
ATOM     45  C   UNL     1      -3.145   4.204  -2.647  1.00  0.00     0.074 A 
ATOM     46  C   UNL     1      -5.248   4.280  -1.331  1.00  0.00     0.049 A 
ATOM     47  N   UNL     1      -3.286   5.247  -3.421  1.00  0.00    -0.248 NA
ATOM     48  C   UNL     1      -1.849   3.520  -2.781  1.00  0.00     0.031 C 
ATOM     49  C   UNL     1      -6.177   3.860  -0.275  1.00  0.00     0.029 A 
ATOM     50  N   UNL     1      -5.815   5.412  -1.842  1.00  0.00    -0.354 N 
ATOM     51  C   UNL     1      -2.106   5.339  -4.144  1.00  0.00     0.074 A 
ATOM     52  C   UNL     1      -1.236   4.282  -3.675  1.00  0.00     0.031 C 
ATOM     53  C   UNL     1      -7.204   4.720  -0.225  1.00  0.00     0.029 A 
ATOM     54  C   UNL     1      -6.995   5.754  -1.230  1.00  0.00     0.049 A 
ATOM     55  H   UNL     1      -5.417   5.933  -2.577  1.00  0.00     0.167 HD
ATOM     56  C   UNL     1      -1.799   6.222  -5.123  1.00  0.00     0.037 A 
ATOM     57  C   UNL     1      -7.819   6.789  -1.464  1.00  0.00     0.037 A 
ATOM     58  C   UNL     1      -2.686   7.272  -5.550  1.00  0.00     0.049 A 
ATOM     59  C   UNL     1      -7.469   7.733  -2.574  1.00  0.00     0.074 A 
ATOM     60  C   UNL     1      -2.522   8.180  -6.581  1.00  0.00     0.029 A 
ATOM     61  N   UNL     1      -3.906   7.563  -4.951  1.00  0.00    -0.354 N 
ATOM     62  N   UNL     1      -6.408   7.739  -3.344  1.00  0.00    -0.248 NA
ATOM     63  C   UNL     1      -8.436   8.796  -2.864  1.00  0.00     0.031 C 
ATOM     64  C   UNL     1      -3.623   9.044  -6.578  1.00  0.00     0.029 A 
ATOM     65  C   UNL     1      -4.495   8.649  -5.575  1.00  0.00     0.049 A 
ATOM     66  H   UNL     1      -4.294   7.068  -4.193  1.00  0.00     0.167 HD
ATOM     67  C   UNL     1      -6.586   8.791  -4.228  1.00  0.00     0.074 A 
ATOM     68  C   UNL     1      -7.868   9.389  -3.905  1.00  0.00     0.031 C 
ATOM     69  C   UNL     1      -5.769   9.223  -5.220  1.00  0.00     0.037 A 
BRANCH  56  70
ATOM     70  C   UNL     1      -0.465   6.076  -5.795  1.00  0.00     0.057 A 
ATOM     71  C   UNL     1      -0.180   4.991  -6.636  1.00  0.00     0.134 A 
ATOM     72  C   UNL     1       0.535   7.042  -5.631  1.00  0.00     0.134 A 
ATOM     73  F   UNL     1      -1.090   4.024  -6.829  1.00  0.00    -0.206 F 
ATOM     74  C   UNL     1       1.057   4.861  -7.271  1.00  0.00     0.040 A 
ATOM     75  C   UNL     1       1.768   6.935  -6.279  1.00  0.00     0.040 A 
ATOM     76  F   UNL     1       0.331   8.108  -4.843  1.00  0.00    -0.206 F 
ATOM     77  C   UNL     1       2.033   5.839  -7.098  1.00  0.00     0.006 A 
ENDBRANCH  56  70
BRANCH  57  78
ATOM     78  C   UNL     1      -9.065   6.927  -0.675  1.00  0.00     0.057 A 
ATOM     79  C   UNL     1     -10.309   6.628  -1.241  1.00  0.00     0.134 A 
ATOM     80  C   UNL     1      -9.041   7.301   0.674  1.00  0.00     0.134 A 
ATOM     81  F   UNL     1     -10.393   6.266  -2.530  1.00  0.00    -0.206 F 
ATOM     82  C   UNL     1     -11.488   6.711  -0.500  1.00  0.00     0.040 A 
ATOM     83  C   UNL     1     -10.210   7.367   1.433  1.00  0.00     0.040 A 
ATOM     84  F   UNL     1      -7.877   7.576   1.280  1.00  0.00    -0.206 F 
ATOM     85  C   UNL     1     -11.439   7.076   0.844  1.00  0.00     0.006 A 
ENDBRANCH  57  78
BRANCH  69  86
ATOM     86  C   UNL     1      -6.257  10.387  -6.026  1.00  0.00     0.057 A 
ATOM     87  C   UNL     1      -6.272  11.687  -5.505  1.00  0.00     0.134 A 
ATOM     88  C   UNL     1      -6.697  10.206  -7.343  1.00  0.00     0.134 A 
ATOM     89  F   UNL     1      -5.879  11.919  -4.244  1.00  0.00    -0.206 F 
ATOM     90  C   UNL     1      -6.733  12.765  -6.260  1.00  0.00     0.040 A 
ATOM     91  C   UNL     1      -7.135  11.280  -8.116  1.00  0.00     0.040 A 
ATOM     92  F   UNL     1      -6.700   8.985  -7.899  1.00  0.00    -0.206 F 
ATOM     93  C   UNL     1      -7.160  12.564  -7.572  1.00  0.00     0.006 A 
ENDBRANCH  69  86
ENDBRANCH  43  44
ENDBRANCH  35  38
ENDBRANCH  33  34
ENDBRANCH  32  33
ENDBRANCH  31  32
ENDBRANCH  29  31
ENDBRANCH   5  27
TORSDOF 17
