REMARK SMILES COc1ccc(-c2nc(NCC(=O)NCCCNC(=O)c3ccc(-c4c5nc(c(-c6c(F)cccc6F)c6ccc([nH]6)c(-c6c(F)cccc6F)c6nc(c(-c7c(F)cccc7F)c7ccc4[nH]7)C=C6)C=C5)cc3)sc2-c2ccc(OC)cc2)cc1
REMARK SMILES IDX 15 1 14 2 12 3 13 4 11 6 10 7 9 9 7 10 8 11 76 12 75 13 6 14
REMARK SMILES IDX 3 15 4 16 86 17 5 18 85 19 2 20 1 21 77 22 78 23 84 24 79 25
REMARK SMILES IDX 83 26 80 27 81 28 82 29 16 30 17 31 18 32 19 33 20 35 21 36
REMARK SMILES IDX 22 37 74 38 23 39 73 40 24 41 25 42 26 43 67 44 27 45 72 46
REMARK SMILES IDX 66 47 68 48 28 49 71 50 65 51 64 52 29 54 55 55 38 56 54 57
REMARK SMILES IDX 39 58 42 59 53 60 69 61 40 62 41 63 52 65 70 66 43 67 30 68
REMARK SMILES IDX 31 69 36 70 32 71 33 72 35 73 37 74 34 75 56 76 57 77 62 78
REMARK SMILES IDX 58 79 59 80 61 81 63 82 60 83 44 84 45 85 50 86 46 87 47 88
REMARK SMILES IDX 49 89 51 90 48 91
REMARK H PARENT 14 5 10 8 18 34 68 53 42 64
REMARK Flexibility Score: inf
ROOT
ATOM      1  C   UNL     1       5.227  -9.434  -1.914  1.00  0.00     0.117 C 
ENDROOT
BRANCH   1   2
ATOM      2  N   UNL     1       5.923 -10.326  -1.006  1.00  0.00    -0.355 N 
ATOM      3  C   UNL     1       5.477 -10.855   0.175  1.00  0.00     0.239 C 
ATOM      4  O   UNL     1       6.253 -11.550   0.834  1.00  0.00    -0.273 OA
ATOM      5  H   UNL     1       6.834 -10.584  -1.274  1.00  0.00     0.163 HD
BRANCH   3   6
ATOM      6  C   UNL     1       4.036 -10.598   0.635  1.00  0.00     0.215 C 
BRANCH   6   7
ATOM      7  N   UNL     1       3.855  -9.217   1.045  1.00  0.00    -0.352 N 
ATOM      8  H   UNL     1       4.494  -8.858   1.702  1.00  0.00     0.163 HD
BRANCH   7   9
ATOM      9  C   UNL     1       2.891  -8.380   0.608  1.00  0.00     0.184 A 
ATOM     10  C   UNL     1       1.851  -6.440   0.339  1.00  0.00     0.091 A 
ATOM     11  N   UNL     1       2.878  -7.119   0.973  1.00  0.00    -0.220 NA
ATOM     12  C   UNL     1       1.128  -7.182  -0.584  1.00  0.00     0.064 A 
ATOM     13  S   UNL     1       1.625  -8.816  -0.480  1.00  0.00    -0.096 S 
BRANCH  10  14
ATOM     14  C   UNL     1       1.600  -5.030   0.596  1.00  0.00     0.002 A 
ATOM     15  C   UNL     1       1.046  -2.298   0.884  1.00  0.00     0.118 A 
ATOM     16  C   UNL     1       0.054  -3.243   1.143  1.00  0.00     0.047 A 
ATOM     17  C   UNL     1       2.332  -2.717   0.539  1.00  0.00     0.047 A 
ATOM     18  C   UNL     1       0.326  -4.603   0.993  1.00  0.00     0.014 A 
ATOM     19  C   UNL     1       2.610  -4.083   0.400  1.00  0.00     0.014 A 
BRANCH  15  20
ATOM     20  O   UNL     1       0.672  -0.992   1.044  1.00  0.00    -0.497 OA
ATOM     21  C   UNL     1       1.232  -0.098   0.087  1.00  0.00     0.278 C 
ENDBRANCH  15  20
ENDBRANCH  10  14
BRANCH  12  22
ATOM     22  C   UNL     1       0.121  -6.768  -1.564  1.00  0.00    -0.006 A 
ATOM     23  C   UNL     1      -1.134  -7.378  -1.636  1.00  0.00     0.013 A 
ATOM     24  C   UNL     1       0.406  -5.711  -2.441  1.00  0.00     0.013 A 
ATOM     25  C   UNL     1      -2.088  -6.919  -2.550  1.00  0.00     0.047 A 
ATOM     26  C   UNL     1      -0.551  -5.249  -3.349  1.00  0.00     0.047 A 
ATOM     27  C   UNL     1      -1.809  -5.844  -3.397  1.00  0.00     0.118 A 
BRANCH  27  28
ATOM     28  O   UNL     1      -2.835  -5.475  -4.222  1.00  0.00    -0.497 OA
ATOM     29  C   UNL     1      -2.668  -4.257  -4.939  1.00  0.00     0.278 C 
ENDBRANCH  27  28
ENDBRANCH  12  22
ENDBRANCH   7   9
ENDBRANCH   6   7
ENDBRANCH   3   6
ENDBRANCH   1   2
BRANCH   1  30
ATOM     30  C   UNL     1       5.636  -7.977  -1.716  1.00  0.00     0.042 C 
BRANCH  30  31
ATOM     31  C   UNL     1       7.041  -7.663  -2.221  1.00  0.00     0.118 C 
BRANCH  31  32
ATOM     32  N   UNL     1       7.147  -7.775  -3.670  1.00  0.00    -0.352 N 
ATOM     33  C   UNL     1       7.644  -6.891  -4.591  1.00  0.00     0.251 C 
ATOM     34  H   UNL     1       6.809  -8.619  -4.047  1.00  0.00     0.163 HD
ATOM     35  O   UNL     1       7.473  -7.115  -5.792  1.00  0.00    -0.269 OA
BRANCH  33  36
ATOM     36  C   UNL     1       8.370  -5.673  -4.173  1.00  0.00     0.039 A 
ATOM     37  C   UNL     1       8.166  -4.493  -4.897  1.00  0.00     0.014 A 
ATOM     38  C   UNL     1       9.292  -5.695  -3.123  1.00  0.00     0.014 A 
ATOM     39  C   UNL     1       8.854  -3.330  -4.545  1.00  0.00     0.010 A 
ATOM     40  C   UNL     1       9.928  -4.519  -2.731  1.00  0.00     0.010 A 
ATOM     41  C   UNL     1       9.727  -3.329  -3.446  1.00  0.00    -0.014 A 
BRANCH  41  42
ATOM     42  C   UNL     1      10.466  -2.103  -3.053  1.00  0.00     0.031 A 
ATOM     43  C   UNL     1      11.966  -2.061  -3.165  1.00  0.00     0.074 A 
ATOM     44  C   UNL     1       9.797  -1.050  -2.547  1.00  0.00     0.049 A 
ATOM     45  N   UNL     1      12.797  -1.119  -2.798  1.00  0.00    -0.248 NA
ATOM     46  C   UNL     1      12.618  -3.247  -3.743  1.00  0.00     0.031 C 
ATOM     47  C   UNL     1       8.348  -0.980  -2.355  1.00  0.00     0.029 A 
ATOM     48  N   UNL     1      10.252   0.161  -2.090  1.00  0.00    -0.354 N 
ATOM     49  C   UNL     1      14.068  -1.606  -3.079  1.00  0.00     0.074 A 
ATOM     50  C   UNL     1      13.901  -2.944  -3.606  1.00  0.00     0.031 C 
ATOM     51  C   UNL     1       8.031   0.218  -1.836  1.00  0.00     0.029 A 
ATOM     52  C   UNL     1       9.256   0.986  -1.629  1.00  0.00     0.049 A 
ATOM     53  H   UNL     1      11.204   0.415  -2.093  1.00  0.00     0.167 HD
ATOM     54  C   UNL     1      15.264  -0.989  -2.932  1.00  0.00     0.037 A 
ATOM     55  C   UNL     1       9.324   2.219  -1.093  1.00  0.00     0.037 A 
ATOM     56  C   UNL     1      15.427   0.354  -2.440  1.00  0.00     0.049 A 
ATOM     57  C   UNL     1      10.663   2.887  -0.950  1.00  0.00     0.074 A 
ATOM     58  C   UNL     1      16.593   1.086  -2.300  1.00  0.00     0.029 A 
ATOM     59  N   UNL     1      14.389   1.167  -2.012  1.00  0.00    -0.354 N 
ATOM     60  N   UNL     1      11.851   2.434  -1.266  1.00  0.00    -0.248 NA
ATOM     61  C   UNL     1      10.668   4.243  -0.381  1.00  0.00     0.031 C 
ATOM     62  C   UNL     1      16.263   2.334  -1.759  1.00  0.00     0.029 A 
ATOM     63  C   UNL     1      14.888   2.392  -1.600  1.00  0.00     0.049 A 
ATOM     64  H   UNL     1      13.438   0.913  -2.003  1.00  0.00     0.167 HD
ATOM     65  C   UNL     1      12.741   3.457  -0.967  1.00  0.00     0.074 A 
ATOM     66  C   UNL     1      11.954   4.558  -0.451  1.00  0.00     0.031 C 
ATOM     67  C   UNL     1      14.088   3.483  -1.107  1.00  0.00     0.037 A 
BRANCH  54  68
ATOM     68  C   UNL     1      16.491  -1.762  -3.316  1.00  0.00     0.057 A 
ATOM     69  C   UNL     1      16.799  -2.040  -4.655  1.00  0.00     0.134 A 
ATOM     70  C   UNL     1      17.389  -2.212  -2.340  1.00  0.00     0.134 A 
ATOM     71  F   UNL     1      15.973  -1.648  -5.637  1.00  0.00    -0.206 F 
ATOM     72  C   UNL     1      17.941  -2.761  -5.007  1.00  0.00     0.040 A 
ATOM     73  C   UNL     1      18.548  -2.911  -2.682  1.00  0.00     0.040 A 
ATOM     74  F   UNL     1      17.158  -1.974  -1.040  1.00  0.00    -0.206 F 
ATOM     75  C   UNL     1      18.823  -3.193  -4.018  1.00  0.00     0.006 A 
ENDBRANCH  54  68
BRANCH  55  76
ATOM     76  C   UNL     1       8.082   2.917  -0.679  1.00  0.00     0.057 A 
ATOM     77  C   UNL     1       7.597   4.012  -1.404  1.00  0.00     0.134 A 
ATOM     78  C   UNL     1       7.358   2.518   0.450  1.00  0.00     0.134 A 
ATOM     79  F   UNL     1       8.258   4.451  -2.485  1.00  0.00    -0.206 F 
ATOM     80  C   UNL     1       6.447   4.698  -1.011  1.00  0.00     0.040 A 
ATOM     81  C   UNL     1       6.194   3.181   0.843  1.00  0.00     0.040 A 
ATOM     82  F   UNL     1       7.766   1.471   1.181  1.00  0.00    -0.206 F 
ATOM     83  C   UNL     1       5.740   4.280   0.115  1.00  0.00     0.006 A 
ENDBRANCH  55  76
BRANCH  67  84
ATOM     84  C   UNL     1      14.791   4.756  -0.743  1.00  0.00     0.057 A 
ATOM     85  C   UNL     1      14.973   5.147   0.589  1.00  0.00     0.134 A 
ATOM     86  C   UNL     1      15.326   5.582  -1.740  1.00  0.00     0.134 A 
ATOM     87  F   UNL     1      14.473   4.406   1.589  1.00  0.00    -0.206 F 
ATOM     88  C   UNL     1      15.646   6.325   0.916  1.00  0.00     0.040 A 
ATOM     89  C   UNL     1      16.021   6.750  -1.425  1.00  0.00     0.040 A 
ATOM     90  F   UNL     1      15.192   5.259  -3.036  1.00  0.00    -0.206 F 
ATOM     91  C   UNL     1      16.178   7.127  -0.093  1.00  0.00     0.006 A 
ENDBRANCH  67  84
ENDBRANCH  41  42
ENDBRANCH  33  36
ENDBRANCH  31  32
ENDBRANCH  30  31
ENDBRANCH   1  30
TORSDOF 16
