REMARK SMILES COc1ccc(-c2cnc(N)c(C(=O)NCCCNC(=O)c3ccc(-c4c5nc(c(-c6c(F)cccc6F)c6ccc([nH]6)c(-c6c(F)cccc6F)c6nc(c(-c7c(F)cccc7F)c7ccc4[nH]7)C=C6)C=C5)cc3)c2)c(C)c1
REMARK SMILES IDX 17 1 16 2 15 3 13 4 14 5 12 7 7 8 8 9 76 10 9 11 10 12 6 13
REMARK SMILES IDX 3 14 4 15 79 16 5 17 77 18 78 19 2 20 1 21 11 22 18 25 19 26
REMARK SMILES IDX 20 27 21 29 22 30 23 31 75 32 24 33 74 34 25 35 26 36 27 37
REMARK SMILES IDX 68 38 28 39 73 40 67 41 69 42 29 43 72 44 66 45 65 46 30 48
REMARK SMILES IDX 56 49 39 50 55 51 40 52 43 53 54 54 70 55 41 56 42 57 53 59
REMARK SMILES IDX 71 60 44 61 31 62 32 63 37 64 33 65 34 66 36 67 38 68 35 69
REMARK SMILES IDX 57 70 58 71 63 72 59 73 60 74 62 75 64 76 61 77 45 78 46 79
REMARK SMILES IDX 51 80 47 81 48 82 50 83 52 84 49 85
REMARK H PARENT 15 6 11 23 11 24 19 28 69 47 43 58
REMARK Flexibility Score: inf
ROOT
ATOM      1  C   UNL     1       2.405   6.722 -10.457  1.00  0.00     0.042 C 
ENDROOT
BRANCH   1   2
ATOM      2  C   UNL     1       3.014   6.388  -9.111  1.00  0.00     0.118 C 
BRANCH   2   3
ATOM      3  N   UNL     1       2.246   6.886  -7.978  1.00  0.00    -0.352 N 
ATOM      4  C   UNL     1       2.035   6.286  -6.755  1.00  0.00     0.255 C 
ATOM      5  O   UNL     1       1.339   6.862  -5.921  1.00  0.00    -0.269 OA
ATOM      6  H   UNL     1       1.822   7.766  -8.102  1.00  0.00     0.163 HD
BRANCH   4   7
ATOM      7  C   UNL     1       2.561   4.933  -6.453  1.00  0.00     0.082 A 
ATOM      8  C   UNL     1       2.163   2.752  -5.466  1.00  0.00     0.001 A 
ATOM      9  C   UNL     1       3.360   2.370  -6.072  1.00  0.00     0.122 A 
ATOM     10  C   UNL     1       1.734   4.056  -5.730  1.00  0.00     0.028 A 
ATOM     11  N   UNL     1       4.212   3.212  -6.693  1.00  0.00    -0.238 NA
ATOM     12  C   UNL     1       3.848   4.502  -6.775  1.00  0.00     0.136 A 
BRANCH   8  13
ATOM     13  C   UNL     1       1.553   1.886  -4.441  1.00  0.00    -0.014 A 
ATOM     14  C   UNL     1       0.643   0.331  -2.255  1.00  0.00     0.119 A 
ATOM     15  C   UNL     1       1.987   0.651  -2.356  1.00  0.00     0.047 A 
ATOM     16  C   UNL     1      -0.236   0.736  -3.261  1.00  0.00     0.050 A 
ATOM     17  C   UNL     1       2.424   1.427  -3.423  1.00  0.00     0.013 A 
ATOM     18  C   UNL     1       0.197   1.514  -4.360  1.00  0.00    -0.040 A 
ATOM     19  C   UNL     1      -0.848   1.927  -5.360  1.00  0.00     0.045 C 
BRANCH  14  20
ATOM     20  O   UNL     1       0.111  -0.398  -1.228  1.00  0.00    -0.497 OA
ATOM     21  C   UNL     1       0.686  -0.106   0.045  1.00  0.00     0.278 C 
ENDBRANCH  14  20
ENDBRANCH   8  13
BRANCH  12  22
ATOM     22  N   UNL     1       4.871   5.333  -7.190  1.00  0.00    -0.383 N 
ATOM     23  H   UNL     1       5.756   4.957  -7.401  1.00  0.00     0.158 HD
ATOM     24  H   UNL     1       4.715   6.302  -7.275  1.00  0.00     0.158 HD
ENDBRANCH  12  22
ENDBRANCH   4   7
ENDBRANCH   2   3
ENDBRANCH   1   2
BRANCH   1  25
ATOM     25  C   UNL     1       2.722   8.141 -10.899  1.00  0.00     0.118 C 
BRANCH  25  26
ATOM     26  N   UNL     1       4.044   8.271 -11.526  1.00  0.00    -0.352 N 
ATOM     27  C   UNL     1       4.459   9.164 -12.505  1.00  0.00     0.251 C 
ATOM     28  H   UNL     1       4.729   7.638 -11.209  1.00  0.00     0.163 HD
ATOM     29  O   UNL     1       5.633   9.305 -12.791  1.00  0.00    -0.269 OA
BRANCH  27  30
ATOM     30  C   UNL     1       3.421  10.018 -13.119  1.00  0.00     0.039 A 
ATOM     31  C   UNL     1       3.402  11.362 -12.737  1.00  0.00     0.014 A 
ATOM     32  C   UNL     1       2.303   9.395 -13.666  1.00  0.00     0.014 A 
ATOM     33  C   UNL     1       2.172  11.996 -12.617  1.00  0.00     0.010 A 
ATOM     34  C   UNL     1       1.076   9.998 -13.460  1.00  0.00     0.010 A 
ATOM     35  C   UNL     1       1.011  11.254 -12.837  1.00  0.00    -0.014 A 
BRANCH  35  36
ATOM     36  C   UNL     1      -0.271  11.639 -12.245  1.00  0.00     0.031 A 
ATOM     37  C   UNL     1      -1.397  12.055 -13.104  1.00  0.00     0.074 A 
ATOM     38  C   UNL     1      -0.443  11.574 -10.903  1.00  0.00     0.049 A 
ATOM     39  N   UNL     1      -2.363  12.822 -12.725  1.00  0.00    -0.248 NA
ATOM     40  C   UNL     1      -1.484  11.669 -14.504  1.00  0.00     0.031 C 
ATOM     41  C   UNL     1      -1.698  11.684 -10.162  1.00  0.00     0.029 A 
ATOM     42  N   UNL     1       0.549  11.608  -9.909  1.00  0.00    -0.354 N 
ATOM     43  C   UNL     1      -3.320  12.815 -13.716  1.00  0.00     0.074 A 
ATOM     44  C   UNL     1      -2.692  12.136 -14.826  1.00  0.00     0.031 C 
ATOM     45  C   UNL     1      -1.426  12.061  -8.903  1.00  0.00     0.029 A 
ATOM     46  C   UNL     1      -0.002  12.337  -8.832  1.00  0.00     0.049 A 
ATOM     47  H   UNL     1       1.446  11.205  -9.954  1.00  0.00     0.167 HD
ATOM     48  C   UNL     1      -4.580  13.264 -13.437  1.00  0.00     0.037 A 
ATOM     49  C   UNL     1       0.550  13.506  -8.398  1.00  0.00     0.037 A 
ATOM     50  C   UNL     1      -4.651  13.837 -12.092  1.00  0.00     0.049 A 
ATOM     51  C   UNL     1      -0.384  14.692  -8.470  1.00  0.00     0.074 A 
ATOM     52  C   UNL     1      -5.088  13.330 -10.878  1.00  0.00     0.029 A 
ATOM     53  N   UNL     1      -3.951  15.004 -11.798  1.00  0.00    -0.354 N 
ATOM     54  N   UNL     1      -1.489  14.707  -9.162  1.00  0.00    -0.248 NA
ATOM     55  C   UNL     1      -0.110  15.975  -7.824  1.00  0.00     0.031 C 
ATOM     56  C   UNL     1      -4.592  14.164  -9.846  1.00  0.00     0.029 A 
ATOM     57  C   UNL     1      -3.865  15.187 -10.430  1.00  0.00     0.049 A 
ATOM     58  H   UNL     1      -3.571  15.614 -12.470  1.00  0.00     0.167 HD
ATOM     59  C   UNL     1      -2.023  15.967  -9.132  1.00  0.00     0.074 A 
ATOM     60  C   UNL     1      -1.147  16.716  -8.251  1.00  0.00     0.031 C 
ATOM     61  C   UNL     1      -3.122  16.304  -9.867  1.00  0.00     0.037 A 
BRANCH  48  62
ATOM     62  C   UNL     1      -5.801  12.880 -14.254  1.00  0.00     0.057 A 
ATOM     63  C   UNL     1      -7.069  12.763 -13.649  1.00  0.00     0.134 A 
ATOM     64  C   UNL     1      -5.790  12.529 -15.615  1.00  0.00     0.134 A 
ATOM     65  F   UNL     1      -7.298  13.189 -12.400  1.00  0.00    -0.206 F 
ATOM     66  C   UNL     1      -8.180  12.202 -14.295  1.00  0.00     0.040 A 
ATOM     67  C   UNL     1      -6.874  11.912 -16.260  1.00  0.00     0.040 A 
ATOM     68  F   UNL     1      -4.757  12.830 -16.409  1.00  0.00    -0.206 F 
ATOM     69  C   UNL     1      -8.072  11.727 -15.592  1.00  0.00     0.006 A 
ENDBRANCH  48  62
BRANCH  49  70
ATOM     70  C   UNL     1       2.020  13.585  -8.593  1.00  0.00     0.057 A 
ATOM     71  C   UNL     1       2.847  12.674  -7.913  1.00  0.00     0.134 A 
ATOM     72  C   UNL     1       2.587  14.287  -9.660  1.00  0.00     0.134 A 
ATOM     73  F   UNL     1       2.365  11.969  -6.878  1.00  0.00    -0.206 F 
ATOM     74  C   UNL     1       4.146  12.393  -8.342  1.00  0.00     0.040 A 
ATOM     75  C   UNL     1       3.892  14.021 -10.093  1.00  0.00     0.040 A 
ATOM     76  F   UNL     1       1.857  15.156 -10.372  1.00  0.00    -0.206 F 
ATOM     77  C   UNL     1       4.661  13.047  -9.457  1.00  0.00     0.006 A 
ENDBRANCH  49  70
BRANCH  61  78
ATOM     78  C   UNL     1      -3.630  17.706 -10.054  1.00  0.00     0.057 A 
ATOM     79  C   UNL     1      -2.798  18.832 -10.144  1.00  0.00     0.134 A 
ATOM     80  C   UNL     1      -5.000  17.944 -10.290  1.00  0.00     0.134 A 
ATOM     81  F   UNL     1      -1.465  18.725 -10.048  1.00  0.00    -0.206 F 
ATOM     82  C   UNL     1      -3.299  20.117 -10.388  1.00  0.00     0.040 A 
ATOM     83  C   UNL     1      -5.506  19.215 -10.582  1.00  0.00     0.040 A 
ATOM     84  F   UNL     1      -5.897  16.948 -10.265  1.00  0.00    -0.206 F 
ATOM     85  C   UNL     1      -4.656  20.311 -10.616  1.00  0.00     0.006 A 
ENDBRANCH  61  78
ENDBRANCH  35  36
ENDBRANCH  27  30
ENDBRANCH  25  26
ENDBRANCH   1  25
TORSDOF 13
