REMARK SMILES C[C@H]1CCCCC[C@@H]1[NH2+]Cc1cc(C(=O)NCCCNC(=O)c2ccc(-c3c4nc(c(-c5c(F)cccc5F)c5ccc([nH]5)c(-c5c(F)cccc5F)c5nc(c(-c6c(F)cccc6F)c6ccc3[nH]6)C=C5)C=C4)cc2)cs1
REMARK SMILES IDX 14 1 15 2 16 3 13 5 11 6 12 7 78 8 77 9 10 10 9 11 8 14 2 15
REMARK SMILES IDX 1 16 3 17 4 18 7 20 6 21 5 22 17 24 18 25 19 26 20 27 21 28
REMARK SMILES IDX 22 30 23 31 24 32 76 33 25 34 75 35 26 36 27 37 28 38 69 39
REMARK SMILES IDX 29 40 74 41 68 42 70 43 30 44 73 45 67 46 66 47 31 49 57 50
REMARK SMILES IDX 40 51 56 52 41 53 44 54 55 55 71 56 42 57 43 58 54 60 72 61
REMARK SMILES IDX 45 62 32 63 33 64 38 65 34 66 35 67 37 68 39 69 36 70 58 71
REMARK SMILES IDX 59 72 64 73 60 74 61 75 63 76 65 77 62 78 46 79 47 80 52 81
REMARK SMILES IDX 48 82 49 83 51 84 53 85 50 86
REMARK H PARENT 16 4 9 12 9 13 20 29 70 48 44 59
REMARK Flexibility Score: 90.00
ROOT
ATOM      1  C   UNL     1      -4.852   2.512  -2.821  1.00  0.00     0.252 C 
ATOM      2  O   UNL     1      -5.838   3.084  -3.288  1.00  0.00    -0.269 OA
ATOM      3  N   UNL     1      -4.680   1.196  -3.175  1.00  0.00    -0.352 N 
ATOM      4  H   UNL     1      -5.436   0.817  -3.679  1.00  0.00     0.163 HD
ENDROOT
BRANCH   1   5
ATOM      5  C   UNL     1      -3.912   3.214  -1.942  1.00  0.00     0.051 A 
ATOM      6  C   UNL     1      -2.194   3.654  -0.370  1.00  0.00     0.059 A 
ATOM      7  C   UNL     1      -2.925   2.695  -1.049  1.00  0.00     0.035 A 
ATOM      8  S   UNL     1      -2.741   5.221  -0.772  1.00  0.00    -0.142 S 
ATOM      9  C   UNL     1      -3.922   4.598  -1.841  1.00  0.00     0.079 A 
BRANCH   6  10
ATOM     10  C   UNL     1      -1.074   3.463   0.626  1.00  0.00     0.308 C 
BRANCH  10  11
ATOM     11  N   UNL     1      -0.810   2.035   0.801  1.00  0.00    -0.339 N 
ATOM     12  H   UNL     1      -1.696   1.576   1.016  1.00  0.00     0.346 HD
ATOM     13  H   UNL     1      -0.384   1.722  -0.071  1.00  0.00     0.346 HD
BRANCH  11  14
ATOM     14  C   UNL     1       0.145   1.690   1.860  1.00  0.00     0.185 C 
BRANCH  14  15
ATOM     15  C   UNL     1       0.630   0.249   1.561  1.00  0.00     0.044 C 
ATOM     16  C   UNL     1       1.936  -0.072   2.301  1.00  0.00     0.014 C 
BRANCH  15  17
ATOM     17  C   UNL     1      -0.439  -0.847   1.752  1.00  0.00     0.009 C 
BRANCH  17  18
ATOM     18  C   UNL     1      -0.800  -1.175   3.196  1.00  0.00     0.001 CG0
ATOM     19  G   UNL     1      -1.802  -0.253   3.882  1.00  0.00     0.000 G0
ENDBRANCH  17  18
ENDBRANCH  15  17
ENDBRANCH  14  15
BRANCH  14  20
ATOM     20  C   UNL     1      -0.426   1.877   3.283  1.00  0.00     0.065 C 
BRANCH  20  21
ATOM     21  C   UNL     1      -1.788   1.238   3.565  1.00  0.00     0.006 C 
BRANCH  21  22
ATOM     22  C   UNL     1      -1.802  -0.253   3.882  1.00  0.00     0.000 CG0
ATOM     23  G   UNL     1      -0.800  -1.175   3.196  1.00  0.00     0.000 G0
ENDBRANCH  21  22
ENDBRANCH  20  21
ENDBRANCH  14  20
ENDBRANCH  11  14
ENDBRANCH  10  11
ENDBRANCH   6  10
ENDBRANCH   1   5
BRANCH   3  24
ATOM     24  C   UNL     1      -3.595   0.258  -2.946  1.00  0.00     0.118 C 
BRANCH  24  25
ATOM     25  C   UNL     1      -3.883  -0.680  -1.772  1.00  0.00     0.042 C 
BRANCH  25  26
ATOM     26  C   UNL     1      -4.824  -1.832  -2.127  1.00  0.00     0.118 C 
BRANCH  26  27
ATOM     27  N   UNL     1      -4.210  -2.773  -3.055  1.00  0.00    -0.352 N 
ATOM     28  C   UNL     1      -4.044  -4.131  -2.973  1.00  0.00     0.251 C 
ATOM     29  H   UNL     1      -3.855  -2.365  -3.878  1.00  0.00     0.163 HD
ATOM     30  O   UNL     1      -3.312  -4.694  -3.784  1.00  0.00    -0.269 OA
BRANCH  28  31
ATOM     31  C   UNL     1      -4.722  -4.929  -1.929  1.00  0.00     0.039 A 
ATOM     32  C   UNL     1      -4.030  -6.002  -1.355  1.00  0.00     0.014 A 
ATOM     33  C   UNL     1      -6.048  -4.681  -1.563  1.00  0.00     0.014 A 
ATOM     34  C   UNL     1      -4.648  -6.793  -0.384  1.00  0.00     0.010 A 
ATOM     35  C   UNL     1      -6.643  -5.433  -0.551  1.00  0.00     0.010 A 
ATOM     36  C   UNL     1      -5.952  -6.499   0.044  1.00  0.00    -0.014 A 
BRANCH  36  37
ATOM     37  C   UNL     1      -6.603  -7.291   1.117  1.00  0.00     0.031 A 
ATOM     38  C   UNL     1      -7.820  -8.121   0.821  1.00  0.00     0.074 A 
ATOM     39  C   UNL     1      -6.138  -7.203   2.377  1.00  0.00     0.049 A 
ATOM     40  N   UNL     1      -8.565  -8.819   1.640  1.00  0.00    -0.248 NA
ATOM     41  C   UNL     1      -8.278  -8.145  -0.577  1.00  0.00     0.031 C 
ATOM     42  C   UNL     1      -4.998  -6.389   2.801  1.00  0.00     0.029 A 
ATOM     43  N   UNL     1      -6.579  -7.790   3.536  1.00  0.00    -0.354 N 
ATOM     44  C   UNL     1      -9.590  -9.345   0.865  1.00  0.00     0.074 A 
ATOM     45  C   UNL     1      -9.395  -8.851  -0.482  1.00  0.00     0.031 C 
ATOM     46  C   UNL     1      -4.822  -6.537   4.123  1.00  0.00     0.029 A 
ATOM     47  C   UNL     1      -5.853  -7.429   4.644  1.00  0.00     0.049 A 
ATOM     48  H   UNL     1      -7.343  -8.410   3.570  1.00  0.00     0.167 HD
ATOM     49  C   UNL     1     -10.592 -10.178   1.237  1.00  0.00     0.037 A 
ATOM     50  C   UNL     1      -6.005  -7.771   5.937  1.00  0.00     0.037 A 
ATOM     51  C   UNL     1     -10.765 -10.690   2.572  1.00  0.00     0.049 A 
ATOM     52  C   UNL     1      -7.109  -8.712   6.325  1.00  0.00     0.074 A 
ATOM     53  C   UNL     1     -11.698 -11.603   3.032  1.00  0.00     0.029 A 
ATOM     54  N   UNL     1      -9.990 -10.326   3.663  1.00  0.00    -0.354 N 
ATOM     55  N   UNL     1      -8.026  -9.264   5.568  1.00  0.00    -0.248 NA
ATOM     56  C   UNL     1      -7.195  -9.084   7.743  1.00  0.00     0.031 C 
ATOM     57  C   UNL     1     -11.513 -11.759   4.411  1.00  0.00     0.029 A 
ATOM     58  C   UNL     1     -10.438 -10.977   4.801  1.00  0.00     0.049 A 
ATOM     59  H   UNL     1      -9.232  -9.698   3.633  1.00  0.00     0.167 HD
ATOM     60  C   UNL     1      -8.787 -10.062   6.411  1.00  0.00     0.074 A 
ATOM     61  C   UNL     1      -8.214  -9.933   7.736  1.00  0.00     0.031 C 
ATOM     62  C   UNL     1      -9.862 -10.832   6.115  1.00  0.00     0.037 A 
BRANCH  49  63
ATOM     63  C   UNL     1     -11.582 -10.578   0.181  1.00  0.00     0.057 A 
ATOM     64  C   UNL     1     -11.236 -11.431  -0.875  1.00  0.00     0.134 A 
ATOM     65  C   UNL     1     -12.902 -10.111   0.225  1.00  0.00     0.134 A 
ATOM     66  F   UNL     1      -9.985 -11.906  -0.983  1.00  0.00    -0.206 F 
ATOM     67  C   UNL     1     -12.154 -11.775  -1.869  1.00  0.00     0.040 A 
ATOM     68  C   UNL     1     -13.837 -10.470  -0.747  1.00  0.00     0.040 A 
ATOM     69  F   UNL     1     -13.304  -9.297   1.213  1.00  0.00    -0.206 F 
ATOM     70  C   UNL     1     -13.461 -11.296  -1.804  1.00  0.00     0.006 A 
ENDBRANCH  49  63
BRANCH  50  71
ATOM     71  C   UNL     1      -5.064  -7.234   6.949  1.00  0.00     0.057 A 
ATOM     72  C   UNL     1      -4.080  -8.048   7.520  1.00  0.00     0.134 A 
ATOM     73  C   UNL     1      -5.100  -5.891   7.340  1.00  0.00     0.134 A 
ATOM     74  F   UNL     1      -4.006  -9.347   7.194  1.00  0.00    -0.206 F 
ATOM     75  C   UNL     1      -3.168  -7.548   8.450  1.00  0.00     0.040 A 
ATOM     76  C   UNL     1      -4.181  -5.372   8.254  1.00  0.00     0.040 A 
ATOM     77  F   UNL     1      -6.014  -5.058   6.820  1.00  0.00    -0.206 F 
ATOM     78  C   UNL     1      -3.213  -6.203   8.813  1.00  0.00     0.006 A 
ENDBRANCH  50  71
BRANCH  62  79
ATOM     79  C   UNL     1     -10.479 -11.608   7.241  1.00  0.00     0.057 A 
ATOM     80  C   UNL     1     -11.247 -10.983   8.231  1.00  0.00     0.134 A 
ATOM     81  C   UNL     1     -10.332 -12.998   7.315  1.00  0.00     0.134 A 
ATOM     82  F   UNL     1     -11.413  -9.652   8.224  1.00  0.00    -0.206 F 
ATOM     83  C   UNL     1     -11.833 -11.713   9.267  1.00  0.00     0.040 A 
ATOM     84  C   UNL     1     -10.933 -13.742   8.332  1.00  0.00     0.040 A 
ATOM     85  F   UNL     1      -9.614 -13.658   6.394  1.00  0.00    -0.206 F 
ATOM     86  C   UNL     1     -11.682 -13.098   9.315  1.00  0.00     0.006 A 
ENDBRANCH  62  79
ENDBRANCH  36  37
ENDBRANCH  28  31
ENDBRANCH  26  27
ENDBRANCH  25  26
ENDBRANCH  24  25
ENDBRANCH   3  24
TORSDOF 13
