REMARK SMILES COc1cccc(NC(=O)[C@@H]2[C@@H](C(=O)NCCCNC(=O)c3ccc(-c4c5nc(c(-c6c(F)cccc6F)c6ccc([nH]6)c(-c6c(F)cccc6F)c6nc(c(-c7c(F)cccc7F)c7ccc4[nH]7)C=C6)C=C5)cc3)[C@H]3C=C[C@@H]2C3)c1
REMARK SMILES IDX 16 1 15 2 13 3 14 4 12 6 11 7 79 8 76 9 78 10 80 11 77 12
REMARK SMILES IDX 9 13 8 14 10 16 7 17 3 18 4 19 81 20 5 21 6 22 2 23 1 24
REMARK SMILES IDX 17 25 18 26 19 27 20 28 21 30 22 31 23 32 75 33 24 34 74 35
REMARK SMILES IDX 25 36 26 37 27 38 68 39 28 40 73 41 67 42 69 43 29 44 72 45
REMARK SMILES IDX 66 46 65 47 30 49 56 50 39 51 55 52 40 53 43 54 54 55 70 56
REMARK SMILES IDX 41 57 42 58 53 60 71 61 44 62 31 63 32 64 37 65 33 66 34 67
REMARK SMILES IDX 36 68 38 69 35 70 57 71 58 72 63 73 59 74 60 75 62 76 64 77
REMARK SMILES IDX 61 78 45 79 46 80 51 81 47 82 48 83 50 84 52 85 49 86
REMARK H PARENT 15 5 8 15 19 29 69 48 43 59
REMARK Flexibility Score: inf
ROOT
ATOM      1  C   UNL     1       1.890  10.435  -1.057  1.00  0.00     0.117 C 
ENDROOT
BRANCH   1   2
ATOM      2  N   UNL     1       2.923   9.761  -1.800  1.00  0.00    -0.356 N 
ATOM      3  C   UNL     1       3.828   8.823  -1.452  1.00  0.00     0.224 C 
ATOM      4  O   UNL     1       4.555   8.448  -2.384  1.00  0.00    -0.275 OA
ATOM      5  H   UNL     1       2.979  10.038  -2.743  1.00  0.00     0.163 HD
BRANCH   3   6
ATOM      6  C   UNL     1       3.968   8.126  -0.098  1.00  0.00     0.098 C 
ATOM      7  C   UNL     1       3.277   6.728  -0.139  1.00  0.00     0.099 C 
ATOM      8  C   UNL     1       2.809   6.544   1.328  1.00  0.00     0.025 C 
ATOM      9  C   UNL     1       3.525   8.671   1.290  1.00  0.00     0.025 C 
ATOM     10  C   UNL     1       1.592   7.396   1.530  1.00  0.00    -0.027 C 
ATOM     11  C   UNL     1       3.819   7.407   2.113  1.00  0.00     0.017 C 
ATOM     12  C   UNL     1       2.024   8.660   1.557  1.00  0.00    -0.027 C 
BRANCH   7  13
ATOM     13  C   UNL     1       4.148   5.541  -0.480  1.00  0.00     0.228 C 
ATOM     14  N   UNL     1       3.596   4.301  -0.673  1.00  0.00    -0.326 N 
ATOM     15  H   UNL     1       4.276   3.595  -0.756  1.00  0.00     0.169 HD
ATOM     16  O   UNL     1       5.379   5.622  -0.483  1.00  0.00    -0.274 OA
BRANCH  14  17
ATOM     17  C   UNL     1       2.278   3.798  -0.781  1.00  0.00     0.044 A 
ATOM     18  C   UNL     1       0.888   1.795  -0.888  1.00  0.00     0.120 A 
ATOM     19  C   UNL     1      -0.249   2.570  -1.079  1.00  0.00     0.046 A 
ATOM     20  C   UNL     1       2.144   2.399  -0.760  1.00  0.00     0.072 A 
ATOM     21  C   UNL     1      -0.135   3.952  -1.097  1.00  0.00     0.006 A 
ATOM     22  C   UNL     1       1.118   4.557  -0.947  1.00  0.00     0.026 A 
BRANCH  18  23
ATOM     23  O   UNL     1       0.703   0.440  -0.917  1.00  0.00    -0.497 OA
ATOM     24  C   UNL     1       1.287  -0.228   0.198  1.00  0.00     0.278 C 
ENDBRANCH  18  23
ENDBRANCH  14  17
ENDBRANCH   7  13
ENDBRANCH   3   6
ENDBRANCH   1   2
BRANCH   1  25
ATOM     25  C   UNL     1       1.944  11.946  -1.183  1.00  0.00     0.042 C 
BRANCH  25  26
ATOM     26  C   UNL     1       1.386  12.463  -2.495  1.00  0.00     0.118 C 
BRANCH  26  27
ATOM     27  N   UNL     1      -0.067  12.341  -2.577  1.00  0.00    -0.352 N 
ATOM     28  C   UNL     1      -1.071  13.259  -2.376  1.00  0.00     0.251 C 
ATOM     29  H   UNL     1      -0.384  11.441  -2.819  1.00  0.00     0.163 HD
ATOM     30  O   UNL     1      -2.236  12.872  -2.314  1.00  0.00    -0.269 OA
BRANCH  28  31
ATOM     31  C   UNL     1      -0.769  14.697  -2.197  1.00  0.00     0.039 A 
ATOM     32  C   UNL     1      -1.524  15.449  -1.290  1.00  0.00     0.014 A 
ATOM     33  C   UNL     1       0.241  15.319  -2.927  1.00  0.00     0.014 A 
ATOM     34  C   UNL     1      -1.197  16.788  -1.050  1.00  0.00     0.010 A 
ATOM     35  C   UNL     1       0.649  16.605  -2.594  1.00  0.00     0.010 A 
ATOM     36  C   UNL     1      -0.070  17.361  -1.660  1.00  0.00    -0.014 A 
BRANCH  36  37
ATOM     37  C   UNL     1       0.373  18.749  -1.362  1.00  0.00     0.031 A 
ATOM     38  C   UNL     1       0.499  19.753  -2.478  1.00  0.00     0.074 A 
ATOM     39  C   UNL     1       0.761  19.079  -0.114  1.00  0.00     0.049 A 
ATOM     40  N   UNL     1       1.003  20.961  -2.454  1.00  0.00    -0.248 NA
ATOM     41  C   UNL     1       0.038  19.326  -3.810  1.00  0.00     0.031 C 
ATOM     42  C   UNL     1       0.750  18.183   1.045  1.00  0.00     0.029 A 
ATOM     43  N   UNL     1       1.256  20.258   0.385  1.00  0.00    -0.354 N 
ATOM     44  C   UNL     1       0.954  21.417  -3.766  1.00  0.00     0.074 A 
ATOM     45  C   UNL     1       0.427  20.337  -4.571  1.00  0.00     0.031 C 
ATOM     46  C   UNL     1       1.187  18.853   2.124  1.00  0.00     0.029 A 
ATOM     47  C   UNL     1       1.550  20.209   1.727  1.00  0.00     0.049 A 
ATOM     48  H   UNL     1       1.387  21.063  -0.166  1.00  0.00     0.167 HD
ATOM     49  C   UNL     1       1.289  22.634  -4.255  1.00  0.00     0.037 A 
ATOM     50  C   UNL     1       2.062  21.149   2.543  1.00  0.00     0.037 A 
ATOM     51  C   UNL     1       1.758  23.726  -3.445  1.00  0.00     0.049 A 
ATOM     52  C   UNL     1       2.392  22.505   1.985  1.00  0.00     0.074 A 
ATOM     53  C   UNL     1       2.050  25.022  -3.830  1.00  0.00     0.029 A 
ATOM     54  N   UNL     1       1.993  23.649  -2.081  1.00  0.00    -0.354 N 
ATOM     55  N   UNL     1       2.281  22.940   0.754  1.00  0.00    -0.248 NA
ATOM     56  C   UNL     1       2.913  23.502   2.931  1.00  0.00     0.031 C 
ATOM     57  C   UNL     1       2.492  25.723  -2.703  1.00  0.00     0.029 A 
ATOM     58  C   UNL     1       2.436  24.873  -1.610  1.00  0.00     0.049 A 
ATOM     59  H   UNL     1       1.863  22.844  -1.529  1.00  0.00     0.167 HD
ATOM     60  C   UNL     1       2.688  24.268   0.782  1.00  0.00     0.074 A 
ATOM     61  C   UNL     1       3.039  24.569   2.155  1.00  0.00     0.031 C 
ATOM     62  C   UNL     1       2.764  25.158  -0.237  1.00  0.00     0.037 A 
BRANCH  49  63
ATOM     63  C   UNL     1       1.142  22.851  -5.734  1.00  0.00     0.057 A 
ATOM     64  C   UNL     1      -0.116  22.922  -6.349  1.00  0.00     0.134 A 
ATOM     65  C   UNL     1       2.268  23.015  -6.549  1.00  0.00     0.134 A 
ATOM     66  F   UNL     1      -1.235  22.759  -5.627  1.00  0.00    -0.206 F 
ATOM     67  C   UNL     1      -0.247  23.115  -7.725  1.00  0.00     0.040 A 
ATOM     68  C   UNL     1       2.149  23.238  -7.922  1.00  0.00     0.040 A 
ATOM     69  F   UNL     1       3.502  22.965  -6.026  1.00  0.00    -0.206 F 
ATOM     70  C   UNL     1       0.889  23.281  -8.515  1.00  0.00     0.006 A 
ENDBRANCH  49  63
BRANCH  50  71
ATOM     71  C   UNL     1       2.260  20.854   3.985  1.00  0.00     0.057 A 
ATOM     72  C   UNL     1       1.442  21.441   4.957  1.00  0.00     0.134 A 
ATOM     73  C   UNL     1       3.266  19.986   4.427  1.00  0.00     0.134 A 
ATOM     74  F   UNL     1       0.471  22.294   4.596  1.00  0.00    -0.206 F 
ATOM     75  C   UNL     1       1.627  21.193   6.318  1.00  0.00     0.040 A 
ATOM     76  C   UNL     1       3.448  19.710   5.783  1.00  0.00     0.040 A 
ATOM     77  F   UNL     1       4.077  19.384   3.545  1.00  0.00    -0.206 F 
ATOM     78  C   UNL     1       2.631  20.321   6.734  1.00  0.00     0.006 A 
ENDBRANCH  50  71
BRANCH  62  79
ATOM     79  C   UNL     1       3.201  26.552   0.100  1.00  0.00     0.057 A 
ATOM     80  C   UNL     1       4.533  26.857   0.401  1.00  0.00     0.134 A 
ATOM     81  C   UNL     1       2.282  27.609   0.074  1.00  0.00     0.134 A 
ATOM     82  F   UNL     1       5.458  25.886   0.454  1.00  0.00    -0.206 F 
ATOM     83  C   UNL     1       4.934  28.163   0.683  1.00  0.00     0.040 A 
ATOM     84  C   UNL     1       2.675  28.922   0.330  1.00  0.00     0.040 A 
ATOM     85  F   UNL     1       0.992  27.383  -0.216  1.00  0.00    -0.206 F 
ATOM     86  C   UNL     1       4.005  29.201   0.640  1.00  0.00     0.006 A 
ENDBRANCH  62  79
ENDBRANCH  36  37
ENDBRANCH  28  31
ENDBRANCH  26  27
ENDBRANCH  25  26
ENDBRANCH   1  25
TORSDOF 13
