REMARK SMILES O=C(NCCCNC(=O)[C@H]1CCCCN1C(=O)c1cn2ccccc2n1)c1ccc(-c2c3nc(c(-c4c(F)cccc4F)c4ccc([nH]4)c(-c4c(F)cccc4F)c4nc(c(-c5c(F)cccc5F)c5ccc2[nH]5)C=C4)C=C3)cc1
REMARK SMILES IDX 5 1 4 2 3 3 1 4 2 5 27 7 28 8 80 9 29 10 79 11 30 12 31 13
REMARK SMILES IDX 32 14 73 15 33 16 78 17 72 18 74 19 34 20 77 21 71 22 70 23
REMARK SMILES IDX 35 25 61 26 44 27 60 28 45 29 48 30 59 31 75 32 46 33 47 34
REMARK SMILES IDX 58 36 76 37 49 38 36 39 37 40 42 41 38 42 39 43 41 44 43 45
REMARK SMILES IDX 40 46 62 47 63 48 68 49 64 50 65 51 67 52 69 53 66 54 50 55
REMARK SMILES IDX 51 56 56 57 52 58 53 59 55 60 57 61 54 62 6 63 7 64 8 65
REMARK SMILES IDX 9 67 10 68 11 69 15 70 12 71 14 72 13 73 16 74 17 75 18 76
REMARK SMILES IDX 19 77 26 78 20 79 25 80 21 81 24 82 22 83 23 84
REMARK H PARENT 3 6 74 24 48 35 7 66
REMARK Flexibility Score: inf
ROOT
ATOM      1  C   UNL     1       7.376  -3.652  -0.298  1.00  0.00     0.042 C 
ENDROOT
BRANCH   1   2
ATOM      2  C   UNL     1       8.704  -3.990   0.373  1.00  0.00     0.118 C 
BRANCH   2   3
ATOM      3  N   UNL     1       9.373  -2.827   0.927  1.00  0.00    -0.352 N 
ATOM      4  O   UNL     1      10.110  -1.372   2.468  1.00  0.00    -0.269 OA
ATOM      5  C   UNL     1       9.667  -2.494   2.226  1.00  0.00     0.251 C 
ATOM      6  H   UNL     1       9.666  -2.166   0.258  1.00  0.00     0.163 HD
BRANCH   5   7
ATOM      7  C   UNL     1       9.443  -3.439   3.348  1.00  0.00     0.039 A 
ATOM      8  C   UNL     1       9.749  -4.798   3.249  1.00  0.00     0.014 A 
ATOM      9  C   UNL     1       8.980  -2.928   4.567  1.00  0.00     0.014 A 
ATOM     10  C   UNL     1       9.470  -5.658   4.312  1.00  0.00     0.010 A 
ATOM     11  C   UNL     1       8.770  -3.779   5.659  1.00  0.00     0.010 A 
ATOM     12  C   UNL     1       8.981  -5.159   5.530  1.00  0.00    -0.014 A 
BRANCH  12  13
ATOM     13  C   UNL     1       8.739  -6.092   6.663  1.00  0.00     0.031 A 
ATOM     14  C   UNL     1       7.348  -6.355   7.171  1.00  0.00     0.074 A 
ATOM     15  C   UNL     1       9.784  -6.733   7.221  1.00  0.00     0.049 A 
ATOM     16  N   UNL     1       6.953  -7.203   8.089  1.00  0.00    -0.248 NA
ATOM     17  C   UNL     1       6.258  -5.563   6.581  1.00  0.00     0.031 C 
ATOM     18  C   UNL     1      11.187  -6.542   6.850  1.00  0.00     0.029 A 
ATOM     19  N   UNL     1       9.827  -7.692   8.201  1.00  0.00    -0.354 N 
ATOM     20  C   UNL     1       5.581  -7.028   8.206  1.00  0.00     0.074 A 
ATOM     21  C   UNL     1       5.209  -5.984   7.274  1.00  0.00     0.031 C 
ATOM     22  C   UNL     1      11.947  -7.399   7.549  1.00  0.00     0.029 A 
ATOM     23  C   UNL     1      11.090  -8.175   8.440  1.00  0.00     0.049 A 
ATOM     24  H   UNL     1       9.029  -8.004   8.687  1.00  0.00     0.167 HD
ATOM     25  C   UNL     1       4.709  -7.680   9.012  1.00  0.00     0.037 A 
ATOM     26  C   UNL     1      11.514  -9.145   9.271  1.00  0.00     0.037 A 
ATOM     27  C   UNL     1       5.064  -8.739   9.921  1.00  0.00     0.049 A 
ATOM     28  C   UNL     1      10.522  -9.878  10.124  1.00  0.00     0.074 A 
ATOM     29  C   UNL     1       4.235  -9.495  10.732  1.00  0.00     0.029 A 
ATOM     30  N   UNL     1       6.356  -9.189  10.142  1.00  0.00    -0.354 N 
ATOM     31  N   UNL     1       9.221  -9.738  10.181  1.00  0.00    -0.248 NA
ATOM     32  C   UNL     1      11.060 -10.902  11.032  1.00  0.00     0.031 C 
ATOM     33  C   UNL     1       5.029 -10.389  11.461  1.00  0.00     0.029 A 
ATOM     34  C   UNL     1       6.348 -10.203  11.086  1.00  0.00     0.049 A 
ATOM     35  H   UNL     1       7.160  -8.839   9.694  1.00  0.00     0.167 HD
ATOM     36  C   UNL     1       8.783 -10.659  11.121  1.00  0.00     0.074 A 
ATOM     37  C   UNL     1       9.954 -11.364  11.599  1.00  0.00     0.031 C 
ATOM     38  C   UNL     1       7.521 -10.895  11.553  1.00  0.00     0.037 A 
BRANCH  25  39
ATOM     39  C   UNL     1       3.271  -7.260   8.952  1.00  0.00     0.057 A 
ATOM     40  C   UNL     1       2.432  -7.651   7.902  1.00  0.00     0.134 A 
ATOM     41  C   UNL     1       2.712  -6.491   9.980  1.00  0.00     0.134 A 
ATOM     42  F   UNL     1       2.914  -8.369   6.876  1.00  0.00    -0.206 F 
ATOM     43  C   UNL     1       1.085  -7.285   7.872  1.00  0.00     0.040 A 
ATOM     44  C   UNL     1       1.364  -6.129   9.967  1.00  0.00     0.040 A 
ATOM     45  F   UNL     1       3.465  -6.085  11.013  1.00  0.00    -0.206 F 
ATOM     46  C   UNL     1       0.547  -6.525   8.910  1.00  0.00     0.006 A 
ENDBRANCH  25  39
BRANCH  26  47
ATOM     47  C   UNL     1      12.949  -9.507   9.304  1.00  0.00     0.057 A 
ATOM     48  C   UNL     1      13.406 -10.678   8.690  1.00  0.00     0.134 A 
ATOM     49  C   UNL     1      13.895  -8.689   9.931  1.00  0.00     0.134 A 
ATOM     50  F   UNL     1      12.540 -11.507   8.089  1.00  0.00    -0.206 F 
ATOM     51  C   UNL     1      14.756 -11.028   8.703  1.00  0.00     0.040 A 
ATOM     52  C   UNL     1      15.250  -9.018   9.938  1.00  0.00     0.040 A 
ATOM     53  F   UNL     1      13.513  -7.553  10.532  1.00  0.00    -0.206 F 
ATOM     54  C   UNL     1      15.684 -10.193   9.325  1.00  0.00     0.006 A 
ENDBRANCH  26  47
BRANCH  38  55
ATOM     55  C   UNL     1       7.347 -11.965  12.584  1.00  0.00     0.057 A 
ATOM     56  C   UNL     1       7.645 -11.735  13.933  1.00  0.00     0.134 A 
ATOM     57  C   UNL     1       6.864 -13.230  12.230  1.00  0.00     0.134 A 
ATOM     58  F   UNL     1       8.126 -10.546  14.329  1.00  0.00    -0.206 F 
ATOM     59  C   UNL     1       7.483 -12.733  14.894  1.00  0.00     0.040 A 
ATOM     60  C   UNL     1       6.684 -14.232  13.184  1.00  0.00     0.040 A 
ATOM     61  F   UNL     1       6.560 -13.510  10.954  1.00  0.00    -0.206 F 
ATOM     62  C   UNL     1       6.997 -13.986  14.520  1.00  0.00     0.006 A 
ENDBRANCH  38  55
ENDBRANCH  12  13
ENDBRANCH   5   7
ENDBRANCH   2   3
ENDBRANCH   1   2
BRANCH   1  63
ATOM     63  C   UNL     1       7.500  -2.992  -1.666  1.00  0.00     0.117 C 
BRANCH  63  64
ATOM     64  N   UNL     1       8.169  -3.854  -2.622  1.00  0.00    -0.354 N 
ATOM     65  C   UNL     1       7.649  -4.737  -3.523  1.00  0.00     0.242 C 
ATOM     66  H   UNL     1       9.151  -3.793  -2.620  1.00  0.00     0.163 HD
ATOM     67  O   UNL     1       8.460  -5.348  -4.224  1.00  0.00    -0.273 OA
BRANCH  65  68
ATOM     68  C   UNL     1       6.114  -4.898  -3.689  1.00  0.00     0.174 C 
ATOM     69  C   UNL     1       5.766  -5.782  -4.903  1.00  0.00     0.035 C 
ATOM     70  N   UNL     1       5.430  -5.429  -2.491  1.00  0.00    -0.325 N 
ATOM     71  C   UNL     1       6.017  -7.271  -4.641  1.00  0.00     0.004 C 
ATOM     72  C   UNL     1       5.731  -6.827  -2.175  1.00  0.00     0.121 C 
ATOM     73  C   UNL     1       5.352  -7.729  -3.346  1.00  0.00     0.022 C 
BRANCH  70  74
ATOM     74  C   UNL     1       4.362  -4.695  -1.956  1.00  0.00     0.274 C 
ATOM     75  O   UNL     1       4.006  -3.633  -2.472  1.00  0.00    -0.267 OA
BRANCH  74  76
ATOM     76  C   UNL     1       3.686  -5.177  -0.742  1.00  0.00     0.147 A 
ATOM     77  C   UNL     1       4.261  -5.597   0.447  1.00  0.00     0.127 A 
ATOM     78  N   UNL     1       2.306  -5.146  -0.602  1.00  0.00    -0.223 NA
ATOM     79  N   UNL     1       3.225  -5.817   1.318  1.00  0.00    -0.306 N 
ATOM     80  C   UNL     1       2.054  -5.534   0.629  1.00  0.00     0.137 A 
ATOM     81  C   UNL     1       3.260  -6.228   2.649  1.00  0.00     0.093 A 
ATOM     82  C   UNL     1       0.831  -5.684   1.343  1.00  0.00     0.048 A 
ATOM     83  C   UNL     1       2.104  -6.364   3.321  1.00  0.00     0.018 A 
ATOM     84  C   UNL     1       0.853  -6.079   2.632  1.00  0.00     0.005 A 
ENDBRANCH  74  76
ENDBRANCH  70  74
ENDBRANCH  65  68
ENDBRANCH  63  64
ENDBRANCH   1  63
TORSDOF 12
