REMARK SMILES CC(C)(Br)[C@H](Br)C(=O)NCCCNC(=O)c1ccc(-c2c3nc(c(-c4c(F)cccc4F)c4ccc([nH]4)c(-c4c(F)cccc4F)c4nc(c(-c5c(F)cccc5F)c5ccc2[nH]5)C=C4)C=C3)cc1
REMARK SMILES IDX 11 1 10 2 9 3 7 4 8 5 5 7 6 8 2 9 1 10 3 11 4 12 12 13 13 14
REMARK SMILES IDX 14 15 15 17 16 18 17 19 69 20 18 21 68 22 19 23 20 24 21 25
REMARK SMILES IDX 62 26 22 27 67 28 61 29 63 30 23 31 66 32 60 33 59 34 24 36
REMARK SMILES IDX 50 37 33 38 49 39 34 40 37 41 48 42 64 43 35 44 36 45 47 47
REMARK SMILES IDX 65 48 38 49 25 50 26 51 31 52 27 53 28 54 30 55 32 56 29 57
REMARK SMILES IDX 51 58 52 59 57 60 53 61 54 62 56 63 58 64 55 65 39 66 40 67
REMARK SMILES IDX 45 68 41 69 42 70 44 71 46 72 43 73
REMARK H PARENT 9 6 13 16 63 35 37 46
REMARK Flexibility Score: inf
ROOT
ATOM      1  C   UNL     1       3.169  -1.014  -0.768  1.00  0.00     0.042 C 
ENDROOT
BRANCH   1   2
ATOM      2  C   UNL     1       2.593  -1.094   0.635  1.00  0.00     0.117 C 
BRANCH   2   3
ATOM      3  N   UNL     1       3.018   0.003   1.487  1.00  0.00    -0.355 N 
ATOM      4  C   UNL     1       2.318   0.943   2.172  1.00  0.00     0.235 C 
ATOM      5  O   UNL     1       2.993   1.718   2.863  1.00  0.00    -0.274 OA
ATOM      6  H   UNL     1       3.994   0.077   1.587  1.00  0.00     0.163 HD
BRANCH   4   7
ATOM      7  C   UNL     1       0.798   1.068   2.184  1.00  0.00     0.162 C 
ATOM      8  Br  UNL     1       0.122   1.222   0.357  1.00  0.00    -0.077 Br
BRANCH   7   9
ATOM      9  C   UNL     1      -0.006   0.172   3.144  1.00  0.00     0.042 C 
ATOM     10  C   UNL     1      -1.511   0.487   3.106  1.00  0.00     0.025 C 
ATOM     11  C   UNL     1       0.500   0.353   4.587  1.00  0.00     0.025 C 
ATOM     12  Br  UNL     1       0.130  -1.761   2.778  1.00  0.00    -0.084 Br
ENDBRANCH   7   9
ENDBRANCH   4   7
ENDBRANCH   2   3
ENDBRANCH   1   2
BRANCH   1  13
ATOM     13  C   UNL     1       4.682  -1.154  -0.819  1.00  0.00     0.118 C 
BRANCH  13  14
ATOM     14  N   UNL     1       5.152  -2.441  -0.317  1.00  0.00    -0.352 N 
ATOM     15  C   UNL     1       5.662  -3.530  -0.980  1.00  0.00     0.251 C 
ATOM     16  H   UNL     1       5.093  -2.546   0.660  1.00  0.00     0.163 HD
ATOM     17  O   UNL     1       5.822  -4.590  -0.380  1.00  0.00    -0.269 OA
BRANCH  15  18
ATOM     18  C   UNL     1       5.995  -3.442  -2.416  1.00  0.00     0.039 A 
ATOM     19  C   UNL     1       5.668  -4.507  -3.260  1.00  0.00     0.014 A 
ATOM     20  C   UNL     1       6.631  -2.313  -2.933  1.00  0.00     0.014 A 
ATOM     21  C   UNL     1       5.895  -4.397  -4.634  1.00  0.00     0.010 A 
ATOM     22  C   UNL     1       6.756  -2.160  -4.307  1.00  0.00     0.010 A 
ATOM     23  C   UNL     1       6.393  -3.201  -5.174  1.00  0.00    -0.014 A 
BRANCH  23  24
ATOM     24  C   UNL     1       6.559  -3.006  -6.636  1.00  0.00     0.031 A 
ATOM     25  C   UNL     1       7.921  -2.706  -7.200  1.00  0.00     0.074 A 
ATOM     26  C   UNL     1       5.477  -2.998  -7.439  1.00  0.00     0.049 A 
ATOM     27  N   UNL     1       8.257  -2.361  -8.417  1.00  0.00    -0.248 NA
ATOM     28  C   UNL     1       9.053  -2.762  -6.260  1.00  0.00     0.031 C 
ATOM     29  C   UNL     1       4.096  -3.225  -7.007  1.00  0.00     0.029 A 
ATOM     30  N   UNL     1       5.368  -2.771  -8.788  1.00  0.00    -0.354 N 
ATOM     31  C   UNL     1       9.626  -2.132  -8.379  1.00  0.00     0.074 A 
ATOM     32  C   UNL     1      10.051  -2.322  -7.010  1.00  0.00     0.031 C 
ATOM     33  C   UNL     1       3.283  -3.147  -8.072  1.00  0.00     0.029 A 
ATOM     34  C   UNL     1       4.076  -2.820  -9.253  1.00  0.00     0.049 A 
ATOM     35  H   UNL     1       6.142  -2.590  -9.369  1.00  0.00     0.167 HD
ATOM     36  C   UNL     1      10.459  -1.815  -9.398  1.00  0.00     0.037 A 
ATOM     37  C   UNL     1       3.584  -2.611 -10.489  1.00  0.00     0.037 A 
ATOM     38  C   UNL     1      10.039  -1.669 -10.766  1.00  0.00     0.049 A 
ATOM     39  C   UNL     1       4.530  -2.268 -11.605  1.00  0.00     0.074 A 
ATOM     40  C   UNL     1      10.815  -1.422 -11.884  1.00  0.00     0.029 A 
ATOM     41  N   UNL     1       8.726  -1.762 -11.200  1.00  0.00    -0.354 N 
ATOM     42  N   UNL     1       5.832  -2.116 -11.568  1.00  0.00    -0.248 NA
ATOM     43  C   UNL     1       3.941  -2.069 -12.937  1.00  0.00     0.031 C 
ATOM     44  C   UNL     1       9.966  -1.326 -12.991  1.00  0.00     0.029 A 
ATOM     45  C   UNL     1       8.667  -1.558 -12.569  1.00  0.00     0.049 A 
ATOM     46  H   UNL     1       7.950  -1.946 -10.622  1.00  0.00     0.167 HD
ATOM     47  C   UNL     1       6.220  -1.833 -12.871  1.00  0.00     0.074 A 
ATOM     48  C   UNL     1       5.017  -1.844 -13.677  1.00  0.00     0.031 C 
ATOM     49  C   UNL     1       7.461  -1.588 -13.356  1.00  0.00     0.037 A 
BRANCH  36  50
ATOM     50  C   UNL     1      11.911  -1.617  -9.070  1.00  0.00     0.057 A 
ATOM     51  C   UNL     1      12.737  -2.685  -8.697  1.00  0.00     0.134 A 
ATOM     52  C   UNL     1      12.496  -0.347  -9.155  1.00  0.00     0.134 A 
ATOM     53  F   UNL     1      12.236  -3.925  -8.584  1.00  0.00    -0.206 F 
ATOM     54  C   UNL     1      14.085  -2.494  -8.391  1.00  0.00     0.040 A 
ATOM     55  C   UNL     1      13.850  -0.148  -8.879  1.00  0.00     0.040 A 
ATOM     56  F   UNL     1      11.764   0.719  -9.511  1.00  0.00    -0.206 F 
ATOM     57  C   UNL     1      14.647  -1.222  -8.489  1.00  0.00     0.006 A 
ENDBRANCH  36  50
BRANCH  37  58
ATOM     58  C   UNL     1       2.127  -2.743 -10.742  1.00  0.00     0.057 A 
ATOM     59  C   UNL     1       1.621  -3.813 -11.487  1.00  0.00     0.134 A 
ATOM     60  C   UNL     1       1.209  -1.806 -10.252  1.00  0.00     0.134 A 
ATOM     61  F   UNL     1       2.453  -4.733 -11.998  1.00  0.00    -0.206 F 
ATOM     62  C   UNL     1       0.256  -3.940 -11.753  1.00  0.00     0.040 A 
ATOM     63  C   UNL     1      -0.161  -1.933 -10.489  1.00  0.00     0.040 A 
ATOM     64  F   UNL     1       1.630  -0.762  -9.524  1.00  0.00    -0.206 F 
ATOM     65  C   UNL     1      -0.640  -2.999 -11.248  1.00  0.00     0.006 A 
ENDBRANCH  37  58
BRANCH  49  66
ATOM     66  C   UNL     1       7.590  -1.351 -14.831  1.00  0.00     0.057 A 
ATOM     67  C   UNL     1       7.177  -0.153 -15.426  1.00  0.00     0.134 A 
ATOM     68  C   UNL     1       8.189  -2.313 -15.655  1.00  0.00     0.134 A 
ATOM     69  F   UNL     1       6.585   0.802 -14.692  1.00  0.00    -0.206 F 
ATOM     70  C   UNL     1       7.342   0.075 -16.793  1.00  0.00     0.040 A 
ATOM     71  C   UNL     1       8.382  -2.086 -17.018  1.00  0.00     0.040 A 
ATOM     72  F   UNL     1       8.614  -3.478 -15.144  1.00  0.00    -0.206 F 
ATOM     73  C   UNL     1       7.954  -0.891 -17.591  1.00  0.00     0.006 A 
ENDBRANCH  49  66
ENDBRANCH  23  24
ENDBRANCH  15  18
ENDBRANCH  13  14
ENDBRANCH   1  13
TORSDOF 11
