REMARK SMILES CCC(C)(C)c1cccc(C(=O)NCCCNC(=O)c2ccc(-c3c4nc(c(-c5c(F)cccc5F)c5ccc([nH]5)c(-c5c(F)cccc5F)c5nc(c(-c6c(F)cccc6F)c6ccc3[nH]6)C=C5)C=C4)cc2)c1
REMARK SMILES IDX 15 1 14 2 13 3 11 4 12 5 10 7 6 8 7 9 74 10 8 11 9 12 3 13
REMARK SMILES IDX 4 14 5 15 2 16 1 17 16 18 17 19 18 20 19 22 20 23 21 24
REMARK SMILES IDX 73 25 22 26 72 27 23 28 24 29 25 30 66 31 26 32 71 33 65 34
REMARK SMILES IDX 67 35 27 36 70 37 64 38 63 39 28 41 54 42 37 43 53 44 38 45
REMARK SMILES IDX 41 46 52 47 68 48 39 49 40 50 51 52 69 53 42 54 29 55 30 56
REMARK SMILES IDX 35 57 31 58 32 59 34 60 36 61 33 62 55 63 56 64 61 65 57 66
REMARK SMILES IDX 58 67 60 68 62 69 59 70 43 71 44 72 49 73 45 74 46 75 48 76
REMARK SMILES IDX 50 77 47 78
REMARK H PARENT 13 6 17 21 67 40 41 51
REMARK Flexibility Score: inf
ROOT
ATOM      1  C   UNL     1       2.647   5.442  -0.939  1.00  0.00     0.042 C 
ENDROOT
BRANCH   1   2
ATOM      2  C   UNL     1       3.049   4.689  -2.194  1.00  0.00     0.118 C 
BRANCH   2   3
ATOM      3  N   UNL     1       4.473   4.396  -2.299  1.00  0.00    -0.352 N 
ATOM      4  C   UNL     1       5.190   3.227  -2.441  1.00  0.00     0.251 C 
ATOM      5  O   UNL     1       6.417   3.314  -2.494  1.00  0.00    -0.269 OA
ATOM      6  H   UNL     1       5.040   5.200  -2.260  1.00  0.00     0.163 HD
BRANCH   4   7
ATOM      7  C   UNL     1       4.559   1.878  -2.457  1.00  0.00     0.040 A 
ATOM      8  C   UNL     1       2.561   0.474  -2.569  1.00  0.00    -0.042 A 
ATOM      9  C   UNL     1       3.329  -0.605  -2.107  1.00  0.00     0.004 A 
ATOM     10  C   UNL     1       3.249   1.658  -2.880  1.00  0.00     0.018 A 
ATOM     11  C   UNL     1       4.697  -0.459  -1.853  1.00  0.00     0.001 A 
ATOM     12  C   UNL     1       5.299   0.791  -1.982  1.00  0.00     0.014 A 
BRANCH   8  13
ATOM     13  C   UNL     1       1.018   0.455  -2.546  1.00  0.00    -0.011 C 
ATOM     14  C   UNL     1       0.433  -0.918  -2.930  1.00  0.00     0.016 C 
ATOM     15  C   UNL     1       0.396   1.478  -3.537  1.00  0.00     0.016 C 
BRANCH  13  16
ATOM     16  C   UNL     1       0.535   0.888  -1.119  1.00  0.00     0.008 C 
ATOM     17  C   UNL     1       0.930  -0.008   0.052  1.00  0.00     0.005 C 
ENDBRANCH  13  16
ENDBRANCH   8  13
ENDBRANCH   4   7
ENDBRANCH   2   3
ENDBRANCH   1   2
BRANCH   1  18
ATOM     18  C   UNL     1       3.190   6.855  -0.837  1.00  0.00     0.118 C 
BRANCH  18  19
ATOM     19  N   UNL     1       2.735   7.721  -1.916  1.00  0.00    -0.352 N 
ATOM     20  C   UNL     1       1.842   8.765  -1.940  1.00  0.00     0.251 C 
ATOM     21  H   UNL     1       3.142   7.521  -2.789  1.00  0.00     0.163 HD
ATOM     22  O   UNL     1       1.493   9.220  -3.026  1.00  0.00    -0.269 OA
BRANCH  20  23
ATOM     23  C   UNL     1       1.276   9.339  -0.696  1.00  0.00     0.039 A 
ATOM     24  C   UNL     1      -0.034   9.830  -0.720  1.00  0.00     0.014 A 
ATOM     25  C   UNL     1       2.026   9.454   0.475  1.00  0.00     0.014 A 
ATOM     26  C   UNL     1      -0.602  10.370   0.438  1.00  0.00     0.010 A 
ATOM     27  C   UNL     1       1.426   9.885   1.655  1.00  0.00     0.010 A 
ATOM     28  C   UNL     1       0.111  10.366   1.647  1.00  0.00    -0.014 A 
BRANCH  28  29
ATOM     29  C   UNL     1      -0.496  10.881   2.902  1.00  0.00     0.031 A 
ATOM     30  C   UNL     1       0.119  12.054   3.621  1.00  0.00     0.074 A 
ATOM     31  C   UNL     1      -1.570  10.259   3.426  1.00  0.00     0.049 A 
ATOM     32  N   UNL     1      -0.247  12.620   4.744  1.00  0.00    -0.248 NA
ATOM     33  C   UNL     1       1.322  12.649   3.017  1.00  0.00     0.031 C 
ATOM     34  C   UNL     1      -2.219   9.072   2.865  1.00  0.00     0.029 A 
ATOM     35  N   UNL     1      -2.305  10.538   4.550  1.00  0.00    -0.354 N 
ATOM     36  C   UNL     1       0.690  13.618   4.987  1.00  0.00     0.074 A 
ATOM     37  C   UNL     1       1.673  13.541   3.931  1.00  0.00     0.031 C 
ATOM     38  C   UNL     1      -3.277   8.749   3.625  1.00  0.00     0.029 A 
ATOM     39  C   UNL     1      -3.363   9.683   4.743  1.00  0.00     0.049 A 
ATOM     40  H   UNL     1      -2.095  11.281   5.162  1.00  0.00     0.167 HD
ATOM     41  C   UNL     1       0.713  14.536   5.983  1.00  0.00     0.037 A 
ATOM     42  C   UNL     1      -4.301   9.659   5.707  1.00  0.00     0.037 A 
ATOM     43  C   UNL     1      -0.286  14.636   7.014  1.00  0.00     0.049 A 
ATOM     44  C   UNL     1      -4.273  10.709   6.782  1.00  0.00     0.074 A 
ATOM     45  C   UNL     1      -0.388  15.568   8.031  1.00  0.00     0.029 A 
ATOM     46  N   UNL     1      -1.361  13.771   7.155  1.00  0.00    -0.354 N 
ATOM     47  N   UNL     1      -3.422  11.691   6.958  1.00  0.00    -0.248 NA
ATOM     48  C   UNL     1      -5.345  10.655   7.785  1.00  0.00     0.031 C 
ATOM     49  C   UNL     1      -1.506  15.247   8.809  1.00  0.00     0.029 A 
ATOM     50  C   UNL     1      -2.125  14.140   8.250  1.00  0.00     0.049 A 
ATOM     51  H   UNL     1      -1.552  13.007   6.564  1.00  0.00     0.167 HD
ATOM     52  C   UNL     1      -3.868  12.385   8.075  1.00  0.00     0.074 A 
ATOM     53  C   UNL     1      -5.077  11.724   8.522  1.00  0.00     0.031 C 
ATOM     54  C   UNL     1      -3.325  13.470   8.679  1.00  0.00     0.037 A 
BRANCH  41  55
ATOM     55  C   UNL     1       1.853  15.514   5.993  1.00  0.00     0.057 A 
ATOM     56  C   UNL     1       1.969  16.523   5.027  1.00  0.00     0.134 A 
ATOM     57  C   UNL     1       2.833  15.464   6.992  1.00  0.00     0.134 A 
ATOM     58  F   UNL     1       1.071  16.619   4.034  1.00  0.00    -0.206 F 
ATOM     59  C   UNL     1       3.034  17.426   5.035  1.00  0.00     0.040 A 
ATOM     60  C   UNL     1       3.888  16.379   7.027  1.00  0.00     0.040 A 
ATOM     61  F   UNL     1       2.782  14.528   7.952  1.00  0.00    -0.206 F 
ATOM     62  C   UNL     1       3.994  17.359   6.042  1.00  0.00     0.006 A 
ENDBRANCH  41  55
BRANCH  42  63
ATOM     63  C   UNL     1      -5.374   8.634   5.676  1.00  0.00     0.057 A 
ATOM     64  C   UNL     1      -6.694   8.983   5.368  1.00  0.00     0.134 A 
ATOM     65  C   UNL     1      -5.110   7.288   5.955  1.00  0.00     0.134 A 
ATOM     66  F   UNL     1      -7.011  10.260   5.108  1.00  0.00    -0.206 F 
ATOM     67  C   UNL     1      -7.718   8.035   5.359  1.00  0.00     0.040 A 
ATOM     68  C   UNL     1      -6.121   6.325   5.926  1.00  0.00     0.040 A 
ATOM     69  F   UNL     1      -3.864   6.888   6.248  1.00  0.00    -0.206 F 
ATOM     70  C   UNL     1      -7.431   6.700   5.635  1.00  0.00     0.006 A 
ENDBRANCH  42  63
BRANCH  54  71
ATOM     71  C   UNL     1      -4.055  14.021   9.868  1.00  0.00     0.057 A 
ATOM     72  C   UNL     1      -4.074  13.353  11.099  1.00  0.00     0.134 A 
ATOM     73  C   UNL     1      -4.737  15.242   9.783  1.00  0.00     0.134 A 
ATOM     74  F   UNL     1      -3.452  12.173  11.241  1.00  0.00    -0.206 F 
ATOM     75  C   UNL     1      -4.773  13.863  12.194  1.00  0.00     0.040 A 
ATOM     76  C   UNL     1      -5.416  15.775  10.879  1.00  0.00     0.040 A 
ATOM     77  F   UNL     1      -4.750  15.937   8.636  1.00  0.00    -0.206 F 
ATOM     78  C   UNL     1      -5.442  15.080  12.087  1.00  0.00     0.006 A 
ENDBRANCH  54  71
ENDBRANCH  28  29
ENDBRANCH  20  23
ENDBRANCH  18  19
ENDBRANCH   1  18
TORSDOF 12
