REMARK SMILES Cc1noc(C)c1[C@H](C)NC(=O)NC[C@@](C)(O)C(=O)NCCCNC(=O)c1ccc(-c2c3nc(c(-c4c(F)cccc4F)c4ccc([nH]4)c(-c4c(F)cccc4F)c4nc(c(-c5c(F)cccc5F)c5ccc2[nH]5)C=C4)C=C3)cc1
REMARK SMILES IDX 21 1 20 2 18 3 19 4 15 6 16 7 14 8 13 9 10 10 11 11 12 13
REMARK SMILES IDX 8 15 9 16 7 17 1 18 2 19 3 20 4 21 5 22 6 23 17 24 22 26
REMARK SMILES IDX 23 27 24 28 25 29 26 31 27 32 28 33 80 34 29 35 79 36 30 37
REMARK SMILES IDX 31 38 32 39 73 40 33 41 78 42 72 43 74 44 34 45 77 46 71 47
REMARK SMILES IDX 70 48 35 50 61 51 44 52 60 53 45 54 48 55 59 56 75 57 46 58
REMARK SMILES IDX 47 59 58 61 76 62 49 63 36 64 37 65 42 66 38 67 39 68 41 69
REMARK SMILES IDX 43 70 40 71 62 72 63 73 68 74 64 75 65 76 67 77 69 78 66 79
REMARK SMILES IDX 50 80 51 81 56 82 52 83 53 84 55 85 57 86 54 87
REMARK H PARENT 20 5 10 12 13 14 17 25 24 30 74 49 48 60
REMARK Flexibility Score: inf
ROOT
ATOM      1  C   UNL     1       3.335   7.575  -1.611  1.00  0.00     0.117 C 
ENDROOT
BRANCH   1   2
ATOM      2  N   UNL     1       2.181   7.284  -0.779  1.00  0.00    -0.353 N 
ATOM      3  C   UNL     1       1.948   6.295   0.136  1.00  0.00     0.253 C 
ATOM      4  O   UNL     1       0.903   6.419   0.777  1.00  0.00    -0.272 OA
ATOM      5  H   UNL     1       1.432   7.912  -0.895  1.00  0.00     0.163 HD
BRANCH   3   6
ATOM      6  C   UNL     1       2.990   5.169   0.407  1.00  0.00     0.157 C 
ATOM      7  C   UNL     1       4.118   5.792   1.246  1.00  0.00     0.055 C 
BRANCH   6   8
ATOM      8  C   UNL     1       2.457   3.894   1.142  1.00  0.00     0.162 C 
BRANCH   8   9
ATOM      9  N   UNL     1       1.316   4.013   2.027  1.00  0.00    -0.335 N 
ATOM     10  N   UNL     1      -0.601   3.313   0.818  1.00  0.00    -0.331 N 
ATOM     11  C   UNL     1      -0.003   3.806   1.909  1.00  0.00     0.315 C 
ATOM     12  H   UNL     1      -1.583   3.373   0.856  1.00  0.00     0.165 HD
ATOM     13  O   UNL     1      -0.711   4.074   2.883  1.00  0.00    -0.249 OA
ATOM     14  H   UNL     1       1.570   4.318   2.928  1.00  0.00     0.165 HD
BRANCH  10  15
ATOM     15  C   UNL     1      -0.114   2.710  -0.409  1.00  0.00     0.116 C 
ATOM     16  C   UNL     1       0.225   1.246  -0.135  1.00  0.00     0.036 C 
BRANCH  15  17
ATOM     17  C   UNL     1      -1.122   2.943  -1.501  1.00  0.00     0.040 A 
ATOM     18  C   UNL     1      -1.038   5.561  -1.607  1.00  0.00     0.071 C 
ATOM     19  C   UNL     1      -1.508   4.220  -2.021  1.00  0.00     0.086 A 
ATOM     20  N   UNL     1      -2.382   4.107  -3.025  1.00  0.00    -0.085 NA
ATOM     21  O   UNL     1      -2.586   2.759  -3.190  1.00  0.00    -0.361 OA
ATOM     22  C   UNL     1      -1.832   2.062  -2.298  1.00  0.00     0.139 A 
ATOM     23  C   UNL     1      -1.943   0.595  -2.420  1.00  0.00     0.091 C 
ENDBRANCH  15  17
ENDBRANCH  10  15
ENDBRANCH   8   9
ENDBRANCH   6   8
BRANCH   6  24
ATOM     24  O   UNL     1       3.545   4.709  -0.841  1.00  0.00    -0.378 OA
ATOM     25  H   UNL     1       4.193   4.008  -0.668  1.00  0.00     0.212 HD
ENDBRANCH   6  24
ENDBRANCH   3   6
ENDBRANCH   1   2
BRANCH   1  26
ATOM     26  C   UNL     1       3.045   7.465  -3.104  1.00  0.00     0.042 C 
BRANCH  26  27
ATOM     27  C   UNL     1       1.933   8.376  -3.620  1.00  0.00     0.118 C 
BRANCH  27  28
ATOM     28  N   UNL     1       2.162   9.788  -3.339  1.00  0.00    -0.352 N 
ATOM     29  C   UNL     1       2.433  10.851  -4.161  1.00  0.00     0.251 C 
ATOM     30  H   UNL     1       2.112  10.021  -2.384  1.00  0.00     0.163 HD
ATOM     31  O   UNL     1       2.748  11.931  -3.652  1.00  0.00    -0.269 OA
BRANCH  29  32
ATOM     32  C   UNL     1       2.387  10.734  -5.635  1.00  0.00     0.039 A 
ATOM     33  C   UNL     1       3.348  11.417  -6.390  1.00  0.00     0.014 A 
ATOM     34  C   UNL     1       1.388  10.011  -6.289  1.00  0.00     0.014 A 
ATOM     35  C   UNL     1       3.353  11.310  -7.784  1.00  0.00     0.010 A 
ATOM     36  C   UNL     1       1.442   9.837  -7.672  1.00  0.00     0.010 A 
ATOM     37  C   UNL     1       2.427  10.481  -8.435  1.00  0.00    -0.014 A 
BRANCH  37  38
ATOM     38  C   UNL     1       2.483  10.267  -9.906  1.00  0.00     0.031 A 
ATOM     39  C   UNL     1       1.336  10.683 -10.786  1.00  0.00     0.074 A 
ATOM     40  C   UNL     1       3.543   9.632 -10.445  1.00  0.00     0.049 A 
ATOM     41  N   UNL     1       1.174  10.506 -12.074  1.00  0.00    -0.248 NA
ATOM     42  C   UNL     1       0.212  11.368 -10.129  1.00  0.00     0.031 C 
ATOM     43  C   UNL     1       4.703   9.138  -9.700  1.00  0.00     0.029 A 
ATOM     44  N   UNL     1       3.813   9.281 -11.745  1.00  0.00    -0.354 N 
ATOM     45  C   UNL     1      -0.073  11.040 -12.376  1.00  0.00     0.074 A 
ATOM     46  C   UNL     1      -0.645  11.503 -11.131  1.00  0.00     0.031 C 
ATOM     47  C   UNL     1       5.566   8.568 -10.555  1.00  0.00     0.029 A 
ATOM     48  C   UNL     1       5.005   8.615 -11.901  1.00  0.00     0.049 A 
ATOM     49  H   UNL     1       3.208   9.486 -12.495  1.00  0.00     0.167 HD
ATOM     50  C   UNL     1      -0.677  11.154 -13.584  1.00  0.00     0.037 A 
ATOM     51  C   UNL     1       5.577   8.089 -13.001  1.00  0.00     0.037 A 
ATOM     52  C   UNL     1      -0.098  10.710 -14.826  1.00  0.00     0.049 A 
ATOM     53  C   UNL     1       4.878   8.213 -14.326  1.00  0.00     0.074 A 
ATOM     54  C   UNL     1      -0.608  10.835 -16.107  1.00  0.00     0.029 A 
ATOM     55  N   UNL     1       1.116  10.051 -14.942  1.00  0.00    -0.354 N 
ATOM     56  N   UNL     1       3.731   8.781 -14.606  1.00  0.00    -0.248 NA
ATOM     57  C   UNL     1       5.557   7.626 -15.490  1.00  0.00     0.031 C 
ATOM     58  C   UNL     1       0.274  10.208 -16.993  1.00  0.00     0.029 A 
ATOM     59  C   UNL     1       1.360   9.741 -16.271  1.00  0.00     0.049 A 
ATOM     60  H   UNL     1       1.716   9.836 -14.192  1.00  0.00     0.167 HD
ATOM     61  C   UNL     1       3.564   8.647 -15.978  1.00  0.00     0.074 A 
ATOM     62  C   UNL     1       4.736   7.956 -16.476  1.00  0.00     0.031 C 
ATOM     63  C   UNL     1       2.533   9.059 -16.756  1.00  0.00     0.037 A 
BRANCH  50  64
ATOM     64  C   UNL     1      -2.039  11.785 -13.621  1.00  0.00     0.057 A 
ATOM     65  C   UNL     1      -2.229  13.152 -13.373  1.00  0.00     0.134 A 
ATOM     66  C   UNL     1      -3.171  11.027 -13.947  1.00  0.00     0.134 A 
ATOM     67  F   UNL     1      -1.189  13.934 -13.046  1.00  0.00    -0.206 F 
ATOM     68  C   UNL     1      -3.497  13.735 -13.419  1.00  0.00     0.040 A 
ATOM     69  C   UNL     1      -4.440  11.605 -14.025  1.00  0.00     0.040 A 
ATOM     70  F   UNL     1      -3.062   9.716 -14.206  1.00  0.00    -0.206 F 
ATOM     71  C   UNL     1      -4.606  12.961 -13.753  1.00  0.00     0.006 A 
ENDBRANCH  50  64
BRANCH  51  72
ATOM     72  C   UNL     1       6.894   7.408 -12.901  1.00  0.00     0.057 A 
ATOM     73  C   UNL     1       8.043   7.974 -13.465  1.00  0.00     0.134 A 
ATOM     74  C   UNL     1       7.034   6.176 -12.252  1.00  0.00     0.134 A 
ATOM     75  F   UNL     1       7.969   9.144 -14.117  1.00  0.00    -0.206 F 
ATOM     76  C   UNL     1       9.280   7.329 -13.408  1.00  0.00     0.040 A 
ATOM     77  C   UNL     1       8.270   5.533 -12.163  1.00  0.00     0.040 A 
ATOM     78  F   UNL     1       5.973   5.584 -11.684  1.00  0.00    -0.206 F 
ATOM     79  C   UNL     1       9.396   6.106 -12.750  1.00  0.00     0.006 A 
ENDBRANCH  51  72
BRANCH  63  80
ATOM     80  C   UNL     1       2.642   8.810 -18.233  1.00  0.00     0.057 A 
ATOM     81  C   UNL     1       2.526   7.525 -18.779  1.00  0.00     0.134 A 
ATOM     82  C   UNL     1       2.829   9.876 -19.122  1.00  0.00     0.134 A 
ATOM     83  F   UNL     1       2.359   6.459 -17.981  1.00  0.00    -0.206 F 
ATOM     84  C   UNL     1       2.615   7.307 -20.155  1.00  0.00     0.040 A 
ATOM     85  C   UNL     1       2.892   9.674 -20.502  1.00  0.00     0.040 A 
ATOM     86  F   UNL     1       2.941  11.133 -18.666  1.00  0.00    -0.206 F 
ATOM     87  C   UNL     1       2.792   8.385 -21.021  1.00  0.00     0.006 A 
ENDBRANCH  63  80
ENDBRANCH  37  38
ENDBRANCH  29  32
ENDBRANCH  27  28
ENDBRANCH  26  27
ENDBRANCH   1  26
TORSDOF 15
