REMARK SMILES Cc1ccccc1OCC(=O)N[C@@H](Cc1c[nH]c2ccccc12)C(=O)NCCCNC(=O)c1ccc(-c2c3nc(c(-c4c(F)cccc4F)c4ccc([nH]4)c(-c4c(F)cccc4F)c4nc(c(-c5c(F)cccc5F)c5ccc2[nH]5)C=C4)C=C3)cc1
REMARK SMILES IDX 27 1 26 2 24 3 25 4 13 6 12 7 10 8 11 9 9 11 8 12 7 13 1 14
REMARK SMILES IDX 2 15 3 16 4 17 6 18 5 19 14 20 15 21 16 22 23 23 17 24 18 25
REMARK SMILES IDX 22 26 19 28 21 29 20 30 28 31 29 32 30 33 31 34 32 36 33 37
REMARK SMILES IDX 34 38 86 39 35 40 85 41 36 42 37 43 38 44 79 45 39 46 84 47
REMARK SMILES IDX 78 48 80 49 40 50 83 51 77 52 76 53 41 55 67 56 50 57 66 58
REMARK SMILES IDX 51 59 54 60 65 61 81 62 52 63 53 64 64 66 82 67 55 68 42 69
REMARK SMILES IDX 43 70 48 71 44 72 45 73 47 74 49 75 46 76 68 77 69 78 74 79
REMARK SMILES IDX 70 80 71 81 73 82 75 83 72 84 56 85 57 86 62 87 58 88 59 89
REMARK SMILES IDX 61 90 63 91 60 92
REMARK H PARENT 26 5 12 10 17 27 30 35 80 54 54 65
REMARK Flexibility Score: inf
ROOT
ATOM      1  C   UNL     1       2.962   2.839   5.398  1.00  0.00     0.117 C 
ENDROOT
BRANCH   1   2
ATOM      2  N   UNL     1       3.041   3.987   4.517  1.00  0.00    -0.354 N 
ATOM      3  C   UNL     1       2.183   4.351   3.510  1.00  0.00     0.242 C 
ATOM      4  O   UNL     1       2.148   5.548   3.206  1.00  0.00    -0.273 OA
ATOM      5  H   UNL     1       3.810   4.584   4.660  1.00  0.00     0.163 HD
BRANCH   3   6
ATOM      6  C   UNL     1       1.248   3.337   2.791  1.00  0.00     0.175 C 
BRANCH   6   7
ATOM      7  N   UNL     1       1.989   2.106   2.518  1.00  0.00    -0.341 N 
ATOM      8  C   UNL     1       2.776   1.882   1.425  1.00  0.00     0.258 C 
ATOM      9  O   UNL     1       3.795   1.202   1.563  1.00  0.00    -0.271 OA
ATOM     10  H   UNL     1       1.915   1.378   3.178  1.00  0.00     0.164 HD
BRANCH   8  11
ATOM     11  C   UNL     1       2.378   2.480   0.069  1.00  0.00     0.329 C 
BRANCH  11  12
ATOM     12  O   UNL     1       1.063   2.279  -0.420  1.00  0.00    -0.484 OA
BRANCH  12  13
ATOM     13  C   UNL     1       0.436   1.074  -0.267  1.00  0.00     0.122 A 
ATOM     14  C   UNL     1       2.412  -0.566  -0.604  1.00  0.00     0.048 C 
ATOM     15  C   UNL     1       0.979  -0.219  -0.323  1.00  0.00    -0.009 A 
ATOM     16  C   UNL     1       0.119  -1.319  -0.104  1.00  0.00     0.007 A 
ATOM     17  C   UNL     1      -1.250  -1.152   0.094  1.00  0.00     0.001 A 
ATOM     18  C   UNL     1      -0.952   1.224  -0.096  1.00  0.00     0.047 A 
ATOM     19  C   UNL     1      -1.791   0.124   0.084  1.00  0.00     0.004 A 
ENDBRANCH  12  13
ENDBRANCH  11  12
ENDBRANCH   8  11
ENDBRANCH   6   7
BRANCH   6  20
ATOM     20  C   UNL     1      -0.150   3.149   3.420  1.00  0.00     0.072 C 
BRANCH  20  21
ATOM     21  C   UNL     1      -0.211   2.579   4.806  1.00  0.00    -0.020 A 
ATOM     22  C   UNL     1      -0.297   3.306   5.981  1.00  0.00     0.087 A 
ATOM     23  C   UNL     1      -0.095   1.196   5.186  1.00  0.00     0.003 A 
ATOM     24  N   UNL     1      -0.161   2.443   7.036  1.00  0.00    -0.361 N 
ATOM     25  C   UNL     1       0.021   1.158   6.578  1.00  0.00     0.046 A 
ATOM     26  C   UNL     1       0.036  -0.011   4.468  1.00  0.00     0.010 A 
ATOM     27  H   UNL     1      -0.189   2.704   7.985  1.00  0.00     0.166 HD
ATOM     28  C   UNL     1       0.307  -0.017   7.284  1.00  0.00     0.026 A 
ATOM     29  C   UNL     1       0.305  -1.197   5.161  1.00  0.00     0.001 A 
ATOM     30  C   UNL     1       0.451  -1.195   6.546  1.00  0.00     0.002 A 
ENDBRANCH  20  21
ENDBRANCH   6  20
ENDBRANCH   3   6
ENDBRANCH   1   2
BRANCH   1  31
ATOM     31  C   UNL     1       4.103   1.845   5.315  1.00  0.00     0.042 C 
BRANCH  31  32
ATOM     32  C   UNL     1       5.015   1.954   6.518  1.00  0.00     0.118 C 
BRANCH  32  33
ATOM     33  N   UNL     1       4.465   1.440   7.775  1.00  0.00    -0.352 N 
ATOM     34  C   UNL     1       4.914   1.647   9.076  1.00  0.00     0.251 C 
ATOM     35  H   UNL     1       3.668   0.868   7.687  1.00  0.00     0.163 HD
ATOM     36  O   UNL     1       4.316   1.161  10.021  1.00  0.00    -0.269 OA
BRANCH  34  37
ATOM     37  C   UNL     1       6.045   2.587   9.306  1.00  0.00     0.039 A 
ATOM     38  C   UNL     1       5.915   3.553  10.311  1.00  0.00     0.014 A 
ATOM     39  C   UNL     1       7.061   2.695   8.367  1.00  0.00     0.014 A 
ATOM     40  C   UNL     1       6.597   4.761  10.180  1.00  0.00     0.010 A 
ATOM     41  C   UNL     1       7.605   3.940   8.142  1.00  0.00     0.010 A 
ATOM     42  C   UNL     1       7.329   4.993   9.015  1.00  0.00    -0.014 A 
BRANCH  42  43
ATOM     43  C   UNL     1       7.732   6.320   8.565  1.00  0.00     0.031 A 
ATOM     44  C   UNL     1       9.161   6.694   8.522  1.00  0.00     0.074 A 
ATOM     45  C   UNL     1       6.803   7.179   8.087  1.00  0.00     0.049 A 
ATOM     46  N   UNL     1       9.591   7.903   8.663  1.00  0.00    -0.248 NA
ATOM     47  C   UNL     1      10.232   5.721   8.330  1.00  0.00     0.031 C 
ATOM     48  C   UNL     1       7.043   8.428   7.369  1.00  0.00     0.029 A 
ATOM     49  N   UNL     1       5.420   7.171   8.315  1.00  0.00    -0.354 N 
ATOM     50  C   UNL     1      10.921   7.911   8.317  1.00  0.00     0.074 A 
ATOM     51  C   UNL     1      11.288   6.522   8.170  1.00  0.00     0.031 C 
ATOM     52  C   UNL     1       5.946   9.196   7.455  1.00  0.00     0.029 A 
ATOM     53  C   UNL     1       5.011   8.523   8.338  1.00  0.00     0.049 A 
ATOM     54  H   UNL     1       4.847   6.380   8.435  1.00  0.00     0.167 HD
ATOM     55  C   UNL     1      11.552   9.088   8.051  1.00  0.00     0.037 A 
ATOM     56  C   UNL     1       4.456   9.073   9.457  1.00  0.00     0.037 A 
ATOM     57  C   UNL     1      10.639  10.219   8.163  1.00  0.00     0.049 A 
ATOM     58  C   UNL     1       5.273  10.194  10.059  1.00  0.00     0.074 A 
ATOM     59  C   UNL     1       9.892  10.904   7.218  1.00  0.00     0.029 A 
ATOM     60  N   UNL     1      10.121  10.570   9.404  1.00  0.00    -0.354 N 
ATOM     61  N   UNL     1       6.505  10.454   9.720  1.00  0.00    -0.248 NA
ATOM     62  C   UNL     1       4.789  11.085  11.112  1.00  0.00     0.031 C 
ATOM     63  C   UNL     1       8.877  11.621   7.894  1.00  0.00     0.029 A 
ATOM     64  C   UNL     1       9.021  11.393   9.250  1.00  0.00     0.049 A 
ATOM     65  H   UNL     1      10.485  10.274  10.269  1.00  0.00     0.167 HD
ATOM     66  C   UNL     1       6.995  11.465  10.504  1.00  0.00     0.074 A 
ATOM     67  C   UNL     1       5.874  11.848  11.339  1.00  0.00     0.031 C 
ATOM     68  C   UNL     1       8.292  11.883  10.409  1.00  0.00     0.037 A 
BRANCH  55  69
ATOM     69  C   UNL     1      12.904   9.142   7.388  1.00  0.00     0.057 A 
ATOM     70  C   UNL     1      13.208  10.113   6.416  1.00  0.00     0.134 A 
ATOM     71  C   UNL     1      13.936   8.223   7.644  1.00  0.00     0.134 A 
ATOM     72  F   UNL     1      12.365  11.113   6.131  1.00  0.00    -0.206 F 
ATOM     73  C   UNL     1      14.395  10.097   5.674  1.00  0.00     0.040 A 
ATOM     74  C   UNL     1      15.106   8.162   6.874  1.00  0.00     0.040 A 
ATOM     75  F   UNL     1      13.857   7.359   8.667  1.00  0.00    -0.206 F 
ATOM     76  C   UNL     1      15.332   9.095   5.873  1.00  0.00     0.006 A 
ENDBRANCH  55  69
BRANCH  56  77
ATOM     77  C   UNL     1       3.610   8.112  10.210  1.00  0.00     0.057 A 
ATOM     78  C   UNL     1       2.414   7.674   9.613  1.00  0.00     0.134 A 
ATOM     79  C   UNL     1       4.128   7.329  11.245  1.00  0.00     0.134 A 
ATOM     80  F   UNL     1       1.860   8.385   8.618  1.00  0.00    -0.206 F 
ATOM     81  C   UNL     1       1.830   6.448   9.939  1.00  0.00     0.040 A 
ATOM     82  C   UNL     1       3.546   6.101  11.585  1.00  0.00     0.040 A 
ATOM     83  F   UNL     1       5.274   7.672  11.851  1.00  0.00    -0.206 F 
ATOM     84  C   UNL     1       2.421   5.638  10.903  1.00  0.00     0.006 A 
ENDBRANCH  56  77
BRANCH  68  85
ATOM     85  C   UNL     1       8.989  12.836  11.344  1.00  0.00     0.057 A 
ATOM     86  C   UNL     1       8.713  12.938  12.714  1.00  0.00     0.134 A 
ATOM     87  C   UNL     1      10.106  13.579  10.896  1.00  0.00     0.134 A 
ATOM     88  F   UNL     1       7.740  12.217  13.287  1.00  0.00    -0.206 F 
ATOM     89  C   UNL     1       9.469  13.750  13.570  1.00  0.00     0.040 A 
ATOM     90  C   UNL     1      10.898  14.349  11.750  1.00  0.00     0.040 A 
ATOM     91  F   UNL     1      10.489  13.566   9.610  1.00  0.00    -0.206 F 
ATOM     92  C   UNL     1      10.575  14.446  13.093  1.00  0.00     0.006 A 
ENDBRANCH  68  85
ENDBRANCH  42  43
ENDBRANCH  34  37
ENDBRANCH  32  33
ENDBRANCH  31  32
ENDBRANCH   1  31
TORSDOF 16
