REMARK SMILES N#C/C(=C\c1ccc(Oc2ccccc2Cl)c([N+](=O)[O-])c1)C(=O)NCCCNC(=O)c1ccc(-c2c3nc(c(-c4c(F)cccc4F)c4ccc([nH]4)c(-c4c(F)cccc4F)c4nc(c(-c5c(F)cccc5F)c5ccc2[nH]5)C=C4)C=C3)cc1
REMARK SMILES IDX 25 1 24 2 22 3 23 4 3 6 4 7 2 8 1 9 5 10 6 11 21 12 7 13
REMARK SMILES IDX 17 14 8 15 18 16 19 17 20 18 9 19 10 20 11 21 15 22 12 23
REMARK SMILES IDX 14 24 16 25 13 26 26 27 27 28 28 29 29 30 30 32 31 33 32 34
REMARK SMILES IDX 84 35 33 36 83 37 34 38 35 39 36 40 77 41 37 42 82 43 76 44
REMARK SMILES IDX 78 45 38 46 81 47 75 48 74 49 39 51 65 52 48 53 64 54 49 55
REMARK SMILES IDX 52 56 63 57 79 58 50 59 51 60 62 62 80 63 53 64 40 65 41 66
REMARK SMILES IDX 46 67 42 68 43 69 45 70 47 71 44 72 66 73 67 74 72 75 68 76
REMARK SMILES IDX 69 77 71 78 73 79 70 80 54 81 55 82 60 83 56 84 57 85 59 86
REMARK SMILES IDX 61 87 58 88
REMARK H PARENT 24 5 28 31 78 50 52 61
REMARK Flexibility Score: inf
ROOT
ATOM      1  C   UNL     1       6.910   0.067   0.835  1.00  0.00     0.118 C 
ENDROOT
BRANCH   1   2
ATOM      2  N   UNL     1       5.862   1.006   1.193  1.00  0.00    -0.351 N 
ATOM      3  C   UNL     1       4.533   1.058   0.905  1.00  0.00     0.261 C 
ATOM      4  O   UNL     1       3.887   1.978   1.407  1.00  0.00    -0.268 OA
ATOM      5  H   UNL     1       6.175   1.751   1.754  1.00  0.00     0.163 HD
BRANCH   3   6
ATOM      6  C   UNL     1       3.850   0.059   0.042  1.00  0.00     0.117 C 
ATOM      7  C   UNL     1       4.420  -0.732  -0.901  1.00  0.00     0.033 C 
BRANCH   6   8
ATOM      8  C   UNL     1       2.330   0.059   0.042  1.00  0.00     0.105 C 
ATOM      9  N   UNL     1       1.069   0.059   0.042  1.00  0.00    -0.192 NA
ENDBRANCH   6   8
BRANCH   7  10
ATOM     10  C   UNL     1       3.694  -1.684  -1.775  1.00  0.00    -0.017 A 
ATOM     11  C   UNL     1       4.063  -3.031  -1.802  1.00  0.00     0.012 A 
ATOM     12  C   UNL     1       2.608  -1.279  -2.556  1.00  0.00     0.098 A 
ATOM     13  C   UNL     1       3.347  -3.951  -2.586  1.00  0.00     0.055 A 
ATOM     14  C   UNL     1       1.838  -2.224  -3.255  1.00  0.00     0.312 A 
ATOM     15  C   UNL     1       2.220  -3.566  -3.332  1.00  0.00     0.204 A 
BRANCH  14  16
ATOM     16  N   UNL     1       0.579  -1.716  -3.759  1.00  0.00     0.066 N 
ATOM     17  O   UNL     1      -0.456  -2.149  -3.236  1.00  0.00    -0.258 OA
ATOM     18  O   UNL     1       0.637  -0.829  -4.623  1.00  0.00    -0.258 OA
ENDBRANCH  14  16
BRANCH  15  19
ATOM     19  O   UNL     1       1.672  -4.616  -4.039  1.00  0.00    -0.449 OA
BRANCH  19  20
ATOM     20  C   UNL     1       0.689  -4.395  -4.969  1.00  0.00     0.146 A 
ATOM     21  C   UNL     1      -0.565  -4.935  -4.671  1.00  0.00     0.049 A 
ATOM     22  C   UNL     1       0.884  -3.697  -6.167  1.00  0.00     0.083 A 
ATOM     23  C   UNL     1      -1.653  -4.674  -5.503  1.00  0.00     0.004 A 
ATOM     24  C   UNL     1      -0.214  -3.416  -6.985  1.00  0.00     0.024 A 
ATOM     25  Cl  UNL     1       2.440  -3.130  -6.654  1.00  0.00    -0.080 Cl
ATOM     26  C   UNL     1      -1.483  -3.890  -6.643  1.00  0.00     0.002 A 
ENDBRANCH  19  20
ENDBRANCH  15  19
ENDBRANCH   7  10
ENDBRANCH   3   6
ENDBRANCH   1   2
BRANCH   1  27
ATOM     27  C   UNL     1       7.691   0.545  -0.390  1.00  0.00     0.042 C 
BRANCH  27  28
ATOM     28  C   UNL     1       8.730   1.605  -0.046  1.00  0.00     0.118 C 
BRANCH  28  29
ATOM     29  N   UNL     1       9.804   1.055   0.774  1.00  0.00    -0.352 N 
ATOM     30  C   UNL     1      11.154   1.012   0.533  1.00  0.00     0.251 C 
ATOM     31  H   UNL     1       9.517   0.655   1.627  1.00  0.00     0.163 HD
ATOM     32  O   UNL     1      11.877   0.294   1.212  1.00  0.00    -0.269 OA
BRANCH  30  33
ATOM     33  C   UNL     1      11.726   1.832  -0.551  1.00  0.00     0.039 A 
ATOM     34  C   UNL     1      12.693   1.277  -1.394  1.00  0.00     0.014 A 
ATOM     35  C   UNL     1      11.309   3.154  -0.724  1.00  0.00     0.014 A 
ATOM     36  C   UNL     1      13.195   2.030  -2.456  1.00  0.00     0.010 A 
ATOM     37  C   UNL     1      11.748   3.872  -1.827  1.00  0.00     0.010 A 
ATOM     38  C   UNL     1      12.699   3.320  -2.699  1.00  0.00    -0.014 A 
BRANCH  38  39
ATOM     39  C   UNL     1      13.154   4.138  -3.848  1.00  0.00     0.031 A 
ATOM     40  C   UNL     1      13.829   5.455  -3.593  1.00  0.00     0.074 A 
ATOM     41  C   UNL     1      12.841   3.763  -5.101  1.00  0.00     0.049 A 
ATOM     42  N   UNL     1      14.126   6.411  -4.433  1.00  0.00    -0.248 NA
ATOM     43  C   UNL     1      14.177   5.751  -2.194  1.00  0.00     0.031 C 
ATOM     44  C   UNL     1      12.149   2.527  -5.467  1.00  0.00     0.029 A 
ATOM     45  N   UNL     1      13.030   4.407  -6.298  1.00  0.00    -0.354 N 
ATOM     46  C   UNL     1      14.658   7.435  -3.662  1.00  0.00     0.074 A 
ATOM     47  C   UNL     1      14.599   7.002  -2.283  1.00  0.00     0.031 C 
ATOM     48  C   UNL     1      11.967   2.503  -6.796  1.00  0.00     0.029 A 
ATOM     49  C   UNL     1      12.482   3.743  -7.368  1.00  0.00     0.049 A 
ATOM     50  H   UNL     1      13.511   5.262  -6.381  1.00  0.00     0.167 HD
ATOM     51  C   UNL     1      15.162   8.624  -4.070  1.00  0.00     0.037 A 
ATOM     52  C   UNL     1      12.378   4.107  -8.661  1.00  0.00     0.037 A 
ATOM     53  C   UNL     1      15.234   9.030  -5.448  1.00  0.00     0.049 A 
ATOM     54  C   UNL     1      12.942   5.430  -9.097  1.00  0.00     0.074 A 
ATOM     55  C   UNL     1      15.796  10.176  -5.980  1.00  0.00     0.029 A 
ATOM     56  N   UNL     1      14.714   8.306  -6.512  1.00  0.00    -0.354 N 
ATOM     57  N   UNL     1      13.511   6.363  -8.371  1.00  0.00    -0.248 NA
ATOM     58  C   UNL     1      12.857   5.752 -10.528  1.00  0.00     0.031 C 
ATOM     59  C   UNL     1      15.562  10.175  -7.359  1.00  0.00     0.029 A 
ATOM     60  C   UNL     1      14.914   8.996  -7.695  1.00  0.00     0.049 A 
ATOM     61  H   UNL     1      14.268   7.431  -6.436  1.00  0.00     0.167 HD
ATOM     62  C   UNL     1      13.880   7.366  -9.258  1.00  0.00     0.074 A 
ATOM     63  C   UNL     1      13.469   6.928 -10.576  1.00  0.00     0.031 C 
ATOM     64  C   UNL     1      14.509   8.539  -9.002  1.00  0.00     0.037 A 
BRANCH  51  65
ATOM     65  C   UNL     1      15.646   9.570  -3.008  1.00  0.00     0.057 A 
ATOM     66  C   UNL     1      16.765   9.292  -2.210  1.00  0.00     0.134 A 
ATOM     67  C   UNL     1      14.977  10.780  -2.776  1.00  0.00     0.134 A 
ATOM     68  F   UNL     1      17.446   8.147  -2.371  1.00  0.00    -0.206 F 
ATOM     69  C   UNL     1      17.171  10.156  -1.192  1.00  0.00     0.040 A 
ATOM     70  C   UNL     1      15.396  11.669  -1.784  1.00  0.00     0.040 A 
ATOM     71  F   UNL     1      13.904  11.118  -3.507  1.00  0.00    -0.206 F 
ATOM     72  C   UNL     1      16.487  11.351  -0.979  1.00  0.00     0.006 A 
ENDBRANCH  51  65
BRANCH  52  73
ATOM     73  C   UNL     1      11.716   3.192  -9.624  1.00  0.00     0.057 A 
ATOM     74  C   UNL     1      12.457   2.490 -10.580  1.00  0.00     0.134 A 
ATOM     75  C   UNL     1      10.335   2.961  -9.580  1.00  0.00     0.134 A 
ATOM     76  F   UNL     1      13.781   2.679 -10.679  1.00  0.00    -0.206 F 
ATOM     77  C   UNL     1      11.850   1.595 -11.462  1.00  0.00     0.040 A 
ATOM     78  C   UNL     1       9.719   2.051 -10.439  1.00  0.00     0.040 A 
ATOM     79  F   UNL     1       9.571   3.593  -8.676  1.00  0.00    -0.206 F 
ATOM     80  C   UNL     1      10.477   1.367 -11.387  1.00  0.00     0.006 A 
ENDBRANCH  52  73
BRANCH  64  81
ATOM     81  C   UNL     1      14.844   9.421 -10.169  1.00  0.00     0.057 A 
ATOM     82  C   UNL     1      13.869  10.164 -10.844  1.00  0.00     0.134 A 
ATOM     83  C   UNL     1      16.179   9.598 -10.558  1.00  0.00     0.134 A 
ATOM     84  F   UNL     1      12.572  10.031 -10.528  1.00  0.00    -0.206 F 
ATOM     85  C   UNL     1      14.210  11.050 -11.868  1.00  0.00     0.040 A 
ATOM     86  C   UNL     1      16.535  10.500 -11.560  1.00  0.00     0.040 A 
ATOM     87  F   UNL     1      17.162   8.921  -9.945  1.00  0.00    -0.206 F 
ATOM     88  C   UNL     1      15.547  11.229 -12.219  1.00  0.00     0.006 A 
ENDBRANCH  64  81
ENDBRANCH  38  39
ENDBRANCH  30  33
ENDBRANCH  28  29
ENDBRANCH  27  28
ENDBRANCH   1  27
TORSDOF 15
