REMARK SMILES O=C(NCCCNC(=O)c1ccc(-c2c3nc(c(-c4c(F)cccc4F)c4ccc([nH]4)c(-c4c(F)cccc4F)c4nc(c(-c5c(F)cccc5F)c5ccc2[nH]5)C=C4)C=C3)cc1)C1=Cc2c(ccc(Cl)c2-c2ccccc2)O[C@H]1C(F)(F)F
REMARK SMILES IDX 5 1 4 2 3 3 1 4 2 5 64 7 65 8 80 9 66 10 79 11 67 12 72 13
REMARK SMILES IDX 68 14 70 15 69 16 71 17 81 18 82 19 83 20 84 21 73 22 74 23
REMARK SMILES IDX 78 24 75 25 77 26 76 27 6 28 7 29 8 30 9 32 10 33 11 34
REMARK SMILES IDX 63 35 12 36 62 37 13 38 14 39 15 40 56 41 16 42 61 43 55 44
REMARK SMILES IDX 57 45 17 46 60 47 54 48 53 49 18 51 44 52 27 53 43 54 28 55
REMARK SMILES IDX 31 56 42 57 58 58 29 59 30 60 41 62 59 63 32 64 19 65 20 66
REMARK SMILES IDX 25 67 21 68 22 69 24 70 26 71 23 72 45 73 46 74 51 75 47 76
REMARK SMILES IDX 48 77 50 78 52 79 49 80 33 81 34 82 39 83 35 84 36 85 38 86
REMARK SMILES IDX 40 87 37 88
REMARK H PARENT 3 6 7 31 57 50 31 61
REMARK Flexibility Score: inf
ROOT
ATOM      1  C   UNL     1       4.211   2.368  -2.076  1.00  0.00     0.042 C 
ENDROOT
BRANCH   1   2
ATOM      2  C   UNL     1       3.993   1.192  -1.142  1.00  0.00     0.118 C 
BRANCH   2   3
ATOM      3  N   UNL     1       2.636   0.681  -1.080  1.00  0.00    -0.352 N 
ATOM      4  O   UNL     1       0.996  -0.778  -0.594  1.00  0.00    -0.270 OA
ATOM      5  C   UNL     1       2.190  -0.494  -0.540  1.00  0.00     0.251 C 
ATOM      6  H   UNL     1       1.945   1.257  -1.480  1.00  0.00     0.163 HD
BRANCH   5   7
ATOM      7  C   UNL     1       3.129  -1.433   0.112  1.00  0.00     0.067 C 
ATOM      8  C   UNL     1       3.462  -1.188   1.387  1.00  0.00     0.026 C 
ATOM      9  C   UNL     1       4.056  -2.268  -0.717  1.00  0.00     0.314 C 
ATOM     10  C   UNL     1       4.818  -0.572   1.425  1.00  0.00     0.027 A 
ATOM     11  O   UNL     1       5.472  -1.947  -0.480  1.00  0.00    -0.475 OA
ATOM     12  C   UNL     1       5.750  -0.979   0.457  1.00  0.00     0.128 A 
ATOM     13  C   UNL     1       5.058   0.530   2.287  1.00  0.00     0.011 A 
ATOM     14  C   UNL     1       6.951  -0.291   0.332  1.00  0.00     0.049 A 
ATOM     15  C   UNL     1       6.263   1.226   2.120  1.00  0.00     0.049 A 
ATOM     16  C   UNL     1       7.197   0.820   1.149  1.00  0.00     0.025 A 
ATOM     17  Cl  UNL     1       6.622   2.644   3.036  1.00  0.00    -0.084 Cl
BRANCH   9  18
ATOM     18  C   UNL     1       3.793  -3.776  -0.509  1.00  0.00     0.429 C 
ATOM     19  F   UNL     1       2.897  -4.032   0.474  1.00  0.00    -0.167 F 
ATOM     20  F   UNL     1       3.313  -4.344  -1.641  1.00  0.00    -0.167 F 
ATOM     21  F   UNL     1       4.924  -4.447  -0.179  1.00  0.00    -0.167 F 
ENDBRANCH   9  18
BRANCH  13  22
ATOM     22  C   UNL     1       3.944   0.940   3.169  1.00  0.00    -0.016 A 
ATOM     23  C   UNL     1       3.047   1.934   2.743  1.00  0.00     0.009 A 
ATOM     24  C   UNL     1       3.563   0.104   4.233  1.00  0.00     0.009 A 
ATOM     25  C   UNL     1       1.759   2.004   3.274  1.00  0.00     0.001 A 
ATOM     26  C   UNL     1       2.270   0.168   4.754  1.00  0.00     0.001 A 
ATOM     27  C   UNL     1       1.361   1.098   4.254  1.00  0.00     0.000 A 
ENDBRANCH  13  22
ENDBRANCH   5   7
ENDBRANCH   2   3
ENDBRANCH   1   2
BRANCH   1  28
ATOM     28  C   UNL     1       3.726   3.694  -1.502  1.00  0.00     0.118 C 
BRANCH  28  29
ATOM     29  N   UNL     1       4.559   4.229  -0.423  1.00  0.00    -0.352 N 
ATOM     30  C   UNL     1       5.539   5.194  -0.384  1.00  0.00     0.251 C 
ATOM     31  H   UNL     1       4.382   3.814   0.452  1.00  0.00     0.163 HD
ATOM     32  O   UNL     1       6.122   5.418   0.676  1.00  0.00    -0.269 OA
BRANCH  30  33
ATOM     33  C   UNL     1       5.961   5.919  -1.600  1.00  0.00     0.039 A 
ATOM     34  C   UNL     1       7.323   6.171  -1.805  1.00  0.00     0.014 A 
ATOM     35  C   UNL     1       5.038   6.334  -2.552  1.00  0.00     0.014 A 
ATOM     36  C   UNL     1       7.760   6.697  -3.024  1.00  0.00     0.010 A 
ATOM     37  C   UNL     1       5.478   6.724  -3.808  1.00  0.00     0.010 A 
ATOM     38  C   UNL     1       6.846   6.896  -4.068  1.00  0.00    -0.014 A 
BRANCH  38  39
ATOM     39  C   UNL     1       7.263   7.270  -5.446  1.00  0.00     0.031 A 
ATOM     40  C   UNL     1       6.650   8.476  -6.105  1.00  0.00     0.074 A 
ATOM     41  C   UNL     1       8.065   6.449  -6.154  1.00  0.00     0.049 A 
ATOM     42  N   UNL     1       6.657   8.827  -7.365  1.00  0.00    -0.248 NA
ATOM     43  C   UNL     1       5.873   9.376  -5.236  1.00  0.00     0.031 C 
ATOM     44  C   UNL     1       8.684   5.219  -5.654  1.00  0.00     0.029 A 
ATOM     45  N   UNL     1       8.473   6.511  -7.463  1.00  0.00    -0.354 N 
ATOM     46  C   UNL     1       5.841   9.948  -7.446  1.00  0.00     0.074 A 
ATOM     47  C   UNL     1       5.317  10.189  -6.120  1.00  0.00     0.031 C 
ATOM     48  C   UNL     1       9.409   4.657  -6.634  1.00  0.00     0.029 A 
ATOM     49  C   UNL     1       9.261   5.452  -7.848  1.00  0.00     0.049 A 
ATOM     50  H   UNL     1       8.226   7.246  -8.070  1.00  0.00     0.167 HD
ATOM     51  C   UNL     1       5.570  10.721  -8.525  1.00  0.00     0.037 A 
ATOM     52  C   UNL     1       9.786   5.143  -9.048  1.00  0.00     0.037 A 
ATOM     53  C   UNL     1       6.154  10.520  -9.823  1.00  0.00     0.049 A 
ATOM     54  C   UNL     1       9.509   6.042 -10.221  1.00  0.00     0.074 A 
ATOM     55  C   UNL     1       6.018  11.295 -10.960  1.00  0.00     0.029 A 
ATOM     56  N   UNL     1       7.003   9.473 -10.149  1.00  0.00    -0.354 N 
ATOM     57  N   UNL     1       8.770   7.123 -10.275  1.00  0.00    -0.248 NA
ATOM     58  C   UNL     1      10.136   5.677 -11.499  1.00  0.00     0.031 C 
ATOM     59  C   UNL     1       6.762  10.702 -11.984  1.00  0.00     0.029 A 
ATOM     60  C   UNL     1       7.393   9.578 -11.473  1.00  0.00     0.049 A 
ATOM     61  H   UNL     1       7.287   8.761  -9.532  1.00  0.00     0.167 HD
ATOM     62  C   UNL     1       8.867   7.585 -11.581  1.00  0.00     0.074 A 
ATOM     63  C   UNL     1       9.742   6.670 -12.285  1.00  0.00     0.031 C 
ATOM     64  C   UNL     1       8.283   8.668 -12.147  1.00  0.00     0.037 A 
BRANCH  51  65
ATOM     65  C   UNL     1       4.612  11.862  -8.338  1.00  0.00     0.057 A 
ATOM     66  C   UNL     1       4.941  12.988  -7.572  1.00  0.00     0.134 A 
ATOM     67  C   UNL     1       3.350  11.842  -8.945  1.00  0.00     0.134 A 
ATOM     68  F   UNL     1       6.129  13.065  -6.952  1.00  0.00    -0.206 F 
ATOM     69  C   UNL     1       4.038  14.037  -7.388  1.00  0.00     0.040 A 
ATOM     70  C   UNL     1       2.450  12.899  -8.794  1.00  0.00     0.040 A 
ATOM     71  F   UNL     1       2.971  10.798  -9.698  1.00  0.00    -0.206 F 
ATOM     72  C   UNL     1       2.790  13.996  -8.005  1.00  0.00     0.006 A 
ENDBRANCH  51  65
BRANCH  52  73
ATOM     73  C   UNL     1      10.646   3.942  -9.199  1.00  0.00     0.057 A 
ATOM     74  C   UNL     1      12.025   4.070  -9.402  1.00  0.00     0.134 A 
ATOM     75  C   UNL     1      10.120   2.645  -9.147  1.00  0.00     0.134 A 
ATOM     76  F   UNL     1      12.585   5.287  -9.478  1.00  0.00    -0.206 F 
ATOM     77  C   UNL     1      12.849   2.955  -9.566  1.00  0.00     0.040 A 
ATOM     78  C   UNL     1      10.936   1.520  -9.286  1.00  0.00     0.040 A 
ATOM     79  F   UNL     1       8.809   2.454  -8.944  1.00  0.00    -0.206 F 
ATOM     80  C   UNL     1      12.304   1.674  -9.503  1.00  0.00     0.006 A 
ENDBRANCH  52  73
BRANCH  64  81
ATOM     81  C   UNL     1       8.607   8.954 -13.582  1.00  0.00     0.057 A 
ATOM     82  C   UNL     1       8.056   8.203 -14.626  1.00  0.00     0.134 A 
ATOM     83  C   UNL     1       9.427  10.038 -13.921  1.00  0.00     0.134 A 
ATOM     84  F   UNL     1       7.273   7.146 -14.364  1.00  0.00    -0.206 F 
ATOM     85  C   UNL     1       8.319   8.513 -15.961  1.00  0.00     0.040 A 
ATOM     86  C   UNL     1       9.679  10.372 -15.251  1.00  0.00     0.040 A 
ATOM     87  F   UNL     1       9.978  10.800 -12.964  1.00  0.00    -0.206 F 
ATOM     88  C   UNL     1       9.126   9.607 -16.276  1.00  0.00     0.006 A 
ENDBRANCH  64  81
ENDBRANCH  38  39
ENDBRANCH  30  33
ENDBRANCH  28  29
ENDBRANCH   1  28
TORSDOF 12
