REMARK SMILES O=C(C[C@@H]1C[N@@H+]([C@H]2CCCc3sccc32)CCO1)NCCCNC(=O)c1ccc(-c2c3nc(c(-c4c(F)cccc4F)c4ccc([nH]4)c(-c4c(F)cccc4F)c4nc(c(-c5c(F)cccc5F)c5ccc2[nH]5)C=C4)C=C3)cc1
REMARK SMILES IDX 21 1 20 2 19 3 1 4 2 5 3 7 4 8 5 9 18 10 6 11 17 12 16 13
REMARK SMILES IDX 7 15 8 16 15 17 9 18 11 19 14 20 10 21 12 22 13 23 22 24
REMARK SMILES IDX 23 25 24 26 25 28 26 29 27 30 79 31 28 32 78 33 29 34 30 35
REMARK SMILES IDX 31 36 72 37 32 38 77 39 71 40 73 41 33 42 76 43 70 44 69 45
REMARK SMILES IDX 34 47 60 48 43 49 59 50 44 51 47 52 58 53 74 54 45 55 46 56
REMARK SMILES IDX 57 58 75 59 48 60 35 61 36 62 41 63 37 64 38 65 40 66 42 67
REMARK SMILES IDX 39 68 61 69 62 70 67 71 63 72 64 73 66 74 68 75 65 76 49 77
REMARK SMILES IDX 50 78 55 79 51 80 52 81 54 82 56 83 53 84
REMARK H PARENT 19 6 6 14 23 27 73 46 47 57
REMARK Flexibility Score: inf
ROOT
ATOM      1  C   UNL     1       2.531   1.982   8.015  1.00  0.00     0.042 C 
ENDROOT
BRANCH   1   2
ATOM      2  C   UNL     1       3.837   1.210   7.890  1.00  0.00     0.117 C 
BRANCH   2   3
ATOM      3  N   UNL     1       4.738   1.828   6.939  1.00  0.00    -0.356 N 
ATOM      4  O   UNL     1       6.606   1.781   8.278  1.00  0.00    -0.275 OA
ATOM      5  C   UNL     1       6.079   2.018   7.198  1.00  0.00     0.222 C 
ATOM      6  H   UNL     1       4.378   2.124   6.071  1.00  0.00     0.163 HD
BRANCH   5   7
ATOM      7  C   UNL     1       6.841   2.557   6.010  1.00  0.00     0.138 C 
BRANCH   7   8
ATOM      8  C   UNL     1       7.219   1.513   4.952  1.00  0.00     0.182 C 
ATOM      9  C   UNL     1       6.381   0.213   4.920  1.00  0.00     0.295 C 
ATOM     10  O   UNL     1       8.607   1.171   5.107  1.00  0.00    -0.366 OA
ATOM     11  N   UNL     1       6.764  -0.735   3.860  1.00  0.00    -0.325 N 
ATOM     12  C   UNL     1       9.047   0.398   3.983  1.00  0.00     0.222 C 
ATOM     13  C   UNL     1       8.222  -0.892   3.798  1.00  0.00     0.291 C 
ATOM     14  H   UNL     1       6.457  -1.673   4.114  1.00  0.00     0.348 HD
BRANCH  11  15
ATOM     15  C   UNL     1       5.975  -0.641   2.625  1.00  0.00     0.216 C 
ATOM     16  C   UNL     1       6.209   0.554   1.671  1.00  0.00     0.071 C 
ATOM     17  C   UNL     1       6.063  -1.940   1.848  1.00  0.00     0.023 A 
ATOM     18  C   UNL     1       7.394   0.371   0.716  1.00  0.00     0.012 C 
ATOM     19  C   UNL     1       6.655  -2.018   0.599  1.00  0.00     0.014 A 
ATOM     20  C   UNL     1       5.497  -3.201   2.225  1.00  0.00     0.022 A 
ATOM     21  C   UNL     1       7.258  -0.879  -0.161  1.00  0.00     0.047 C 
ATOM     22  S   UNL     1       6.561  -3.577  -0.082  1.00  0.00    -0.148 S 
ATOM     23  C   UNL     1       5.685  -4.168   1.261  1.00  0.00     0.065 A 
ENDBRANCH  11  15
ENDBRANCH   7   8
ENDBRANCH   5   7
ENDBRANCH   2   3
ENDBRANCH   1   2
BRANCH   1  24
ATOM     24  C   UNL     1       1.711   2.046   6.730  1.00  0.00     0.118 C 
BRANCH  24  25
ATOM     25  N   UNL     1       1.182   0.754   6.317  1.00  0.00    -0.352 N 
ATOM     26  C   UNL     1      -0.121   0.365   6.115  1.00  0.00     0.251 C 
ATOM     27  H   UNL     1       1.857   0.055   6.158  1.00  0.00     0.163 HD
ATOM     28  O   UNL     1      -0.384  -0.816   5.907  1.00  0.00    -0.269 OA
BRANCH  26  29
ATOM     29  C   UNL     1      -1.213   1.361   6.181  1.00  0.00     0.039 A 
ATOM     30  C   UNL     1      -2.361   1.055   6.916  1.00  0.00     0.014 A 
ATOM     31  C   UNL     1      -1.103   2.594   5.534  1.00  0.00     0.014 A 
ATOM     32  C   UNL     1      -3.361   2.018   7.071  1.00  0.00     0.010 A 
ATOM     33  C   UNL     1      -2.061   3.580   5.757  1.00  0.00     0.010 A 
ATOM     34  C   UNL     1      -3.198   3.305   6.533  1.00  0.00    -0.014 A 
BRANCH  34  35
ATOM     35  C   UNL     1      -4.193   4.380   6.786  1.00  0.00     0.031 A 
ATOM     36  C   UNL     1      -4.945   5.004   5.643  1.00  0.00     0.074 A 
ATOM     37  C   UNL     1      -4.366   4.846   8.039  1.00  0.00     0.049 A 
ATOM     38  N   UNL     1      -5.786   6.007   5.656  1.00  0.00    -0.248 NA
ATOM     39  C   UNL     1      -4.699   4.445   4.305  1.00  0.00     0.031 C 
ATOM     40  C   UNL     1      -3.668   4.357   9.229  1.00  0.00     0.029 A 
ATOM     41  N   UNL     1      -5.176   5.846   8.518  1.00  0.00    -0.354 N 
ATOM     42  C   UNL     1      -6.160   6.205   4.333  1.00  0.00     0.074 A 
ATOM     43  C   UNL     1      -5.411   5.256   3.537  1.00  0.00     0.031 C 
ATOM     44  C   UNL     1      -4.094   5.042  10.302  1.00  0.00     0.029 A 
ATOM     45  C   UNL     1      -5.060   6.048   9.873  1.00  0.00     0.049 A 
ATOM     46  H   UNL     1      -5.782   6.370   7.946  1.00  0.00     0.167 HD
ATOM     47  C   UNL     1      -7.061   7.082   3.829  1.00  0.00     0.037 A 
ATOM     48  C   UNL     1      -5.653   6.951  10.678  1.00  0.00     0.037 A 
ATOM     49  C   UNL     1      -7.816   8.014   4.624  1.00  0.00     0.049 A 
ATOM     50  C   UNL     1      -6.629   7.933  10.089  1.00  0.00     0.074 A 
ATOM     51  C   UNL     1      -8.793   8.904   4.212  1.00  0.00     0.029 A 
ATOM     52  N   UNL     1      -7.675   8.182   5.994  1.00  0.00    -0.354 N 
ATOM     53  N   UNL     1      -7.022   8.063   8.845  1.00  0.00    -0.248 NA
ATOM     54  C   UNL     1      -7.245   8.891  11.016  1.00  0.00     0.031 C 
ATOM     55  C   UNL     1      -9.203   9.649   5.322  1.00  0.00     0.029 A 
ATOM     56  C   UNL     1      -8.527   9.182   6.437  1.00  0.00     0.049 A 
ATOM     57  H   UNL     1      -7.062   7.668   6.566  1.00  0.00     0.167 HD
ATOM     58  C   UNL     1      -7.954   9.094   8.846  1.00  0.00     0.074 A 
ATOM     59  C   UNL     1      -8.076   9.545  10.216  1.00  0.00     0.031 C 
ATOM     60  C   UNL     1      -8.646   9.618   7.805  1.00  0.00     0.037 A 
BRANCH  47  61
ATOM     61  C   UNL     1      -7.278   7.077   2.342  1.00  0.00     0.057 A 
ATOM     62  C   UNL     1      -7.907   6.008   1.689  1.00  0.00     0.134 A 
ATOM     63  C   UNL     1      -6.889   8.171   1.558  1.00  0.00     0.134 A 
ATOM     64  F   UNL     1      -8.295   4.924   2.378  1.00  0.00    -0.206 F 
ATOM     65  C   UNL     1      -8.115   6.014   0.309  1.00  0.00     0.040 A 
ATOM     66  C   UNL     1      -7.119   8.202   0.182  1.00  0.00     0.040 A 
ATOM     67  F   UNL     1      -6.288   9.231   2.118  1.00  0.00    -0.206 F 
ATOM     68  C   UNL     1      -7.727   7.118  -0.448  1.00  0.00     0.006 A 
ENDBRANCH  47  61
BRANCH  48  69
ATOM     69  C   UNL     1      -5.351   6.965  12.132  1.00  0.00     0.057 A 
ATOM     70  C   UNL     1      -6.319   6.599  13.075  1.00  0.00     0.134 A 
ATOM     71  C   UNL     1      -4.097   7.357  12.616  1.00  0.00     0.134 A 
ATOM     72  F   UNL     1      -7.546   6.233  12.675  1.00  0.00    -0.206 F 
ATOM     73  C   UNL     1      -6.060   6.643  14.446  1.00  0.00     0.040 A 
ATOM     74  C   UNL     1      -3.814   7.378  13.983  1.00  0.00     0.040 A 
ATOM     75  F   UNL     1      -3.123   7.712  11.766  1.00  0.00    -0.206 F 
ATOM     76  C   UNL     1      -4.801   7.029  14.903  1.00  0.00     0.006 A 
ENDBRANCH  48  69
BRANCH  60  77
ATOM     77  C   UNL     1      -9.628  10.713   8.110  1.00  0.00     0.057 A 
ATOM     78  C   UNL     1      -9.216  12.000   8.475  1.00  0.00     0.134 A 
ATOM     79  C   UNL     1     -11.005  10.484   7.993  1.00  0.00     0.134 A 
ATOM     80  F   UNL     1      -7.912  12.283   8.618  1.00  0.00    -0.206 F 
ATOM     81  C   UNL     1     -10.139  13.015   8.736  1.00  0.00     0.040 A 
ATOM     82  C   UNL     1     -11.936  11.498   8.221  1.00  0.00     0.040 A 
ATOM     83  F   UNL     1     -11.468   9.276   7.638  1.00  0.00    -0.206 F 
ATOM     84  C   UNL     1     -11.504  12.767   8.600  1.00  0.00     0.006 A 
ENDBRANCH  60  77
ENDBRANCH  34  35
ENDBRANCH  26  29
ENDBRANCH  24  25
ENDBRANCH   1  24
TORSDOF 12
