REMARK SMILES CC(=O)Nc1ccc2sc(C(=O)NCCCNC(=O)c3ccc(-c4c5nc(c(-c6c(F)cccc6F)c6ccc([nH]6)c(-c6c(F)cccc6F)c6nc(c(-c7c(F)cccc7F)c7ccc4[nH]7)C=C6)C=C5)cc3)cc2c1
REMARK SMILES IDX 15 1 14 2 13 3 11 4 12 5 10 7 5 8 6 9 76 10 7 11 75 12 8 13
REMARK SMILES IDX 74 14 9 15 4 16 1 17 2 18 3 19 16 21 17 22 18 23 19 25 20 26
REMARK SMILES IDX 21 27 73 28 22 29 72 30 23 31 24 32 25 33 66 34 26 35 71 36
REMARK SMILES IDX 65 37 67 38 27 39 70 40 64 41 63 42 28 44 54 45 37 46 53 47
REMARK SMILES IDX 38 48 41 49 52 50 68 51 39 52 40 53 51 55 69 56 42 57 29 58
REMARK SMILES IDX 30 59 35 60 31 61 32 62 34 63 36 64 33 65 55 66 56 67 61 68
REMARK SMILES IDX 57 69 58 70 60 71 62 72 59 73 43 74 44 75 49 76 45 77 46 78
REMARK SMILES IDX 48 79 50 80 47 81
REMARK H PARENT 13 6 4 20 17 24 67 43 41 54
REMARK Flexibility Score: inf
ROOT
ATOM      1  C   UNL     1       6.293  -7.978   2.738  1.00  0.00     0.042 C 
ENDROOT
BRANCH   1   2
ATOM      2  C   UNL     1       4.857  -8.067   2.228  1.00  0.00     0.118 C 
BRANCH   2   3
ATOM      3  N   UNL     1       3.903  -8.086   3.322  1.00  0.00    -0.351 N 
ATOM      4  C   UNL     1       3.112  -7.120   3.893  1.00  0.00     0.261 C 
ATOM      5  O   UNL     1       2.353  -7.535   4.778  1.00  0.00    -0.268 OA
ATOM      6  H   UNL     1       3.803  -8.972   3.739  1.00  0.00     0.163 HD
BRANCH   4   7
ATOM      7  C   UNL     1       3.091  -5.726   3.477  1.00  0.00     0.093 A 
ATOM      8  C   UNL     1       1.666  -1.322   2.316  1.00  0.00     0.041 A 
ATOM      9  C   UNL     1       2.882  -1.276   1.644  1.00  0.00     0.027 A 
ATOM     10  C   UNL     1       1.356  -2.435   3.108  1.00  0.00     0.035 A 
ATOM     11  C   UNL     1       3.788  -2.339   1.721  1.00  0.00     0.022 A 
ATOM     12  C   UNL     1       2.219  -3.557   3.141  1.00  0.00    -0.005 A 
ATOM     13  C   UNL     1       3.432  -3.479   2.461  1.00  0.00     0.035 A 
ATOM     14  C   UNL     1       2.057  -4.844   3.746  1.00  0.00     0.034 A 
ATOM     15  S   UNL     1       4.359  -4.904   2.690  1.00  0.00    -0.130 S 
BRANCH   8  16
ATOM     16  N   UNL     1       0.731  -0.277   2.285  1.00  0.00    -0.326 N 
ATOM     17  C   UNL     1       0.943   0.402  -0.098  1.00  0.00     0.114 C 
ATOM     18  C   UNL     1       0.451   0.635   1.306  1.00  0.00     0.221 C 
ATOM     19  O   UNL     1      -0.272   1.597   1.570  1.00  0.00    -0.275 OA
ATOM     20  H   UNL     1       0.188  -0.185   3.101  1.00  0.00     0.169 HD
ENDBRANCH   8  16
ENDBRANCH   4   7
ENDBRANCH   2   3
ENDBRANCH   1   2
BRANCH   1  21
ATOM     21  C   UNL     1       6.784  -9.270   3.390  1.00  0.00     0.118 C 
BRANCH  21  22
ATOM     22  N   UNL     1       6.916 -10.356   2.428  1.00  0.00    -0.352 N 
ATOM     23  C   UNL     1       8.011 -11.097   2.072  1.00  0.00     0.251 C 
ATOM     24  H   UNL     1       6.085 -10.595   1.957  1.00  0.00     0.163 HD
ATOM     25  O   UNL     1       7.953 -11.820   1.076  1.00  0.00    -0.269 OA
BRANCH  23  26
ATOM     26  C   UNL     1       9.260 -11.042   2.860  1.00  0.00     0.039 A 
ATOM     27  C   UNL     1      10.484 -11.059   2.183  1.00  0.00     0.014 A 
ATOM     28  C   UNL     1       9.237 -11.035   4.257  1.00  0.00     0.014 A 
ATOM     29  C   UNL     1      11.680 -11.017   2.902  1.00  0.00     0.010 A 
ATOM     30  C   UNL     1      10.427 -10.926   4.972  1.00  0.00     0.010 A 
ATOM     31  C   UNL     1      11.660 -10.924   4.303  1.00  0.00    -0.014 A 
BRANCH  31  32
ATOM     32  C   UNL     1      12.917 -10.825   5.085  1.00  0.00     0.031 A 
ATOM     33  C   UNL     1      13.306 -11.920   6.037  1.00  0.00     0.074 A 
ATOM     34  C   UNL     1      13.668  -9.711   4.995  1.00  0.00     0.049 A 
ATOM     35  N   UNL     1      14.316 -11.974   6.869  1.00  0.00    -0.248 NA
ATOM     36  C   UNL     1      12.426 -13.098   6.082  1.00  0.00     0.031 C 
ATOM     37  C   UNL     1      13.367  -8.555   4.151  1.00  0.00     0.029 A 
ATOM     38  N   UNL     1      14.829  -9.362   5.639  1.00  0.00    -0.354 N 
ATOM     39  C   UNL     1      14.180 -13.178   7.549  1.00  0.00     0.074 A 
ATOM     40  C   UNL     1      12.967 -13.801   7.066  1.00  0.00     0.031 C 
ATOM     41  C   UNL     1      14.320  -7.626   4.324  1.00  0.00     0.029 A 
ATOM     42  C   UNL     1      15.281  -8.107   5.311  1.00  0.00     0.049 A 
ATOM     43  H   UNL     1      15.292  -9.954   6.274  1.00  0.00     0.167 HD
ATOM     44  C   UNL     1      15.003 -13.723   8.478  1.00  0.00     0.037 A 
ATOM     45  C   UNL     1      16.344  -7.417   5.765  1.00  0.00     0.037 A 
ATOM     46  C   UNL     1      16.223 -13.112   8.937  1.00  0.00     0.049 A 
ATOM     47  C   UNL     1      17.256  -8.050   6.776  1.00  0.00     0.074 A 
ATOM     48  C   UNL     1      17.162 -13.616   9.820  1.00  0.00     0.029 A 
ATOM     49  N   UNL     1      16.672 -11.859   8.548  1.00  0.00    -0.354 N 
ATOM     50  N   UNL     1      17.156  -9.220   7.358  1.00  0.00    -0.248 NA
ATOM     51  C   UNL     1      18.434  -7.272   7.185  1.00  0.00     0.031 C 
ATOM     52  C   UNL     1      18.160 -12.651   9.995  1.00  0.00     0.029 A 
ATOM     53  C   UNL     1      17.864 -11.563   9.189  1.00  0.00     0.049 A 
ATOM     54  H   UNL     1      16.211 -11.266   7.911  1.00  0.00     0.167 HD
ATOM     55  C   UNL     1      18.263  -9.328   8.189  1.00  0.00     0.074 A 
ATOM     56  C   UNL     1      19.030  -8.110   8.022  1.00  0.00     0.031 C 
ATOM     57  C   UNL     1      18.613 -10.344   9.015  1.00  0.00     0.037 A 
BRANCH  44  58
ATOM     58  C   UNL     1      14.601 -15.049   9.056  1.00  0.00     0.057 A 
ATOM     59  C   UNL     1      14.639 -16.228   8.299  1.00  0.00     0.134 A 
ATOM     60  C   UNL     1      14.179 -15.151  10.387  1.00  0.00     0.134 A 
ATOM     61  F   UNL     1      15.022 -16.198   7.013  1.00  0.00    -0.206 F 
ATOM     62  C   UNL     1      14.238 -17.453   8.834  1.00  0.00     0.040 A 
ATOM     63  C   UNL     1      13.801 -16.376  10.941  1.00  0.00     0.040 A 
ATOM     64  F   UNL     1      14.125 -14.064  11.171  1.00  0.00    -0.206 F 
ATOM     65  C   UNL     1      13.821 -17.530  10.161  1.00  0.00     0.006 A 
ENDBRANCH  44  58
BRANCH  45  66
ATOM     66  C   UNL     1      16.606  -6.054   5.244  1.00  0.00     0.057 A 
ATOM     67  C   UNL     1      17.654  -5.812   4.350  1.00  0.00     0.134 A 
ATOM     68  C   UNL     1      15.798  -4.969   5.605  1.00  0.00     0.134 A 
ATOM     69  F   UNL     1      18.470  -6.810   3.981  1.00  0.00    -0.206 F 
ATOM     70  C   UNL     1      17.897  -4.536   3.838  1.00  0.00     0.040 A 
ATOM     71  C   UNL     1      16.017  -3.692   5.085  1.00  0.00     0.040 A 
ATOM     72  F   UNL     1      14.771  -5.140   6.450  1.00  0.00    -0.206 F 
ATOM     73  C   UNL     1      17.072  -3.473   4.201  1.00  0.00     0.006 A 
ENDBRANCH  45  66
BRANCH  57  74
ATOM     74  C   UNL     1      19.888 -10.188   9.788  1.00  0.00     0.057 A 
ATOM     75  C   UNL     1      19.984  -9.323  10.884  1.00  0.00     0.134 A 
ATOM     76  C   UNL     1      21.022 -10.940   9.453  1.00  0.00     0.134 A 
ATOM     77  F   UNL     1      18.937  -8.565  11.246  1.00  0.00    -0.206 F 
ATOM     78  C   UNL     1      21.169  -9.196  11.611  1.00  0.00     0.040 A 
ATOM     79  C   UNL     1      22.205 -10.839  10.186  1.00  0.00     0.040 A 
ATOM     80  F   UNL     1      20.993 -11.792   8.418  1.00  0.00    -0.206 F 
ATOM     81  C   UNL     1      22.282  -9.961  11.265  1.00  0.00     0.006 A 
ENDBRANCH  57  74
ENDBRANCH  31  32
ENDBRANCH  23  26
ENDBRANCH  21  22
ENDBRANCH   1  21
TORSDOF 11
