REMARK SMILES O=C(NCCCNC(=O)[C@@H](c1ccccc1)[C@H](C(=O)c1ccccc1)c1ccccc1)c1ccc(-c2c3nc(c(-c4c(F)cccc4F)c4ccc([nH]4)c(-c4c(F)cccc4F)c4nc(c(-c5c(F)cccc5F)c5ccc2[nH]5)C=C4)C=C3)cc1
REMARK SMILES IDX 5 1 4 2 3 3 1 4 2 5 32 7 33 8 85 9 34 10 84 11 35 12 36 13
REMARK SMILES IDX 37 14 78 15 38 16 83 17 77 18 79 19 39 20 82 21 76 22 75 23
REMARK SMILES IDX 40 25 66 26 49 27 65 28 50 29 53 30 64 31 80 32 51 33 52 34
REMARK SMILES IDX 63 36 81 37 54 38 41 39 42 40 47 41 43 42 44 43 46 44 48 45
REMARK SMILES IDX 45 46 67 47 68 48 73 49 69 50 70 51 72 52 74 53 71 54 55 55
REMARK SMILES IDX 56 56 61 57 57 58 58 59 60 60 62 61 59 62 6 63 7 64 8 65
REMARK SMILES IDX 9 67 10 68 11 69 12 70 16 71 13 72 15 73 14 74 17 75 26 76
REMARK SMILES IDX 27 77 31 78 28 79 30 80 29 81 18 82 19 83 20 84 21 85 25 86
REMARK SMILES IDX 22 87 24 88 23 89
REMARK H PARENT 3 6 79 24 53 35 7 66
REMARK Flexibility Score: inf
ROOT
ATOM      1  C   UNL     1       1.875  -2.777   3.097  1.00  0.00     0.042 C 
ENDROOT
BRANCH   1   2
ATOM      2  C   UNL     1       0.443  -2.299   2.954  1.00  0.00     0.118 C 
BRANCH   2   3
ATOM      3  N   UNL     1       0.383  -0.903   2.533  1.00  0.00    -0.352 N 
ATOM      4  O   UNL     1       0.480   0.823   1.097  1.00  0.00    -0.269 OA
ATOM      5  C   UNL     1       0.184  -0.360   1.293  1.00  0.00     0.251 C 
ATOM      6  H   UNL     1       0.506  -0.247   3.257  1.00  0.00     0.163 HD
BRANCH   5   7
ATOM      7  C   UNL     1      -0.374  -1.168   0.190  1.00  0.00     0.039 A 
ATOM      8  C   UNL     1      -1.371  -2.117   0.432  1.00  0.00     0.014 A 
ATOM      9  C   UNL     1       0.052  -0.926  -1.119  1.00  0.00     0.014 A 
ATOM     10  C   UNL     1      -1.834  -2.922  -0.599  1.00  0.00     0.010 A 
ATOM     11  C   UNL     1      -0.493  -1.662  -2.173  1.00  0.00     0.010 A 
ATOM     12  C   UNL     1      -1.425  -2.679  -1.916  1.00  0.00    -0.014 A 
BRANCH  12  13
ATOM     13  C   UNL     1      -2.045  -3.437  -3.027  1.00  0.00     0.031 A 
ATOM     14  C   UNL     1      -1.218  -4.330  -3.901  1.00  0.00     0.074 A 
ATOM     15  C   UNL     1      -3.363  -3.286  -3.255  1.00  0.00     0.049 A 
ATOM     16  N   UNL     1      -1.570  -4.986  -4.976  1.00  0.00    -0.248 NA
ATOM     17  C   UNL     1       0.194  -4.499  -3.526  1.00  0.00     0.031 C 
ATOM     18  C   UNL     1      -4.263  -2.440  -2.466  1.00  0.00     0.029 A 
ATOM     19  N   UNL     1      -4.175  -3.826  -4.218  1.00  0.00    -0.354 N 
ATOM     20  C   UNL     1      -0.420  -5.620  -5.426  1.00  0.00     0.074 A 
ATOM     21  C   UNL     1       0.646  -5.256  -4.515  1.00  0.00     0.031 C 
ATOM     22  C   UNL     1      -5.502  -2.527  -2.969  1.00  0.00     0.029 A 
ATOM     23  C   UNL     1      -5.470  -3.376  -4.153  1.00  0.00     0.049 A 
ATOM     24  H   UNL     1      -3.860  -4.473  -4.890  1.00  0.00     0.167 HD
ATOM     25  C   UNL     1      -0.273  -6.430  -6.501  1.00  0.00     0.037 A 
ATOM     26  C   UNL     1      -6.510  -3.587  -4.979  1.00  0.00     0.037 A 
ATOM     27  C   UNL     1      -1.348  -6.792  -7.388  1.00  0.00     0.049 A 
ATOM     28  C   UNL     1      -6.318  -4.463  -6.178  1.00  0.00     0.074 A 
ATOM     29  C   UNL     1      -1.316  -7.640  -8.481  1.00  0.00     0.029 A 
ATOM     30  N   UNL     1      -2.648  -6.317  -7.287  1.00  0.00    -0.354 N 
ATOM     31  N   UNL     1      -5.233  -5.079  -6.579  1.00  0.00    -0.248 NA
ATOM     32  C   UNL     1      -7.487  -4.673  -7.041  1.00  0.00     0.031 C 
ATOM     33  C   UNL     1      -2.586  -7.641  -9.069  1.00  0.00     0.029 A 
ATOM     34  C   UNL     1      -3.422  -6.834  -8.314  1.00  0.00     0.049 A 
ATOM     35  H   UNL     1      -2.973  -5.704  -6.589  1.00  0.00     0.167 HD
ATOM     36  C   UNL     1      -5.589  -5.766  -7.730  1.00  0.00     0.074 A 
ATOM     37  C   UNL     1      -6.995  -5.494  -7.959  1.00  0.00     0.031 C 
ATOM     38  C   UNL     1      -4.822  -6.555  -8.521  1.00  0.00     0.037 A 
BRANCH  25  39
ATOM     39  C   UNL     1       1.107  -6.945  -6.793  1.00  0.00     0.057 A 
ATOM     40  C   UNL     1       1.733  -7.903  -5.985  1.00  0.00     0.134 A 
ATOM     41  C   UNL     1       1.816  -6.480  -7.908  1.00  0.00     0.134 A 
ATOM     42  F   UNL     1       1.115  -8.380  -4.894  1.00  0.00    -0.206 F 
ATOM     43  C   UNL     1       3.026  -8.355  -6.256  1.00  0.00     0.040 A 
ATOM     44  C   UNL     1       3.099  -6.944  -8.205  1.00  0.00     0.040 A 
ATOM     45  F   UNL     1       1.275  -5.567  -8.729  1.00  0.00    -0.206 F 
ATOM     46  C   UNL     1       3.712  -7.878  -7.372  1.00  0.00     0.006 A 
ENDBRANCH  25  39
BRANCH  26  47
ATOM     47  C   UNL     1      -7.807  -2.929  -4.687  1.00  0.00     0.057 A 
ATOM     48  C   UNL     1      -8.895  -3.658  -4.199  1.00  0.00     0.134 A 
ATOM     49  C   UNL     1      -7.962  -1.543  -4.821  1.00  0.00     0.134 A 
ATOM     50  F   UNL     1      -8.808  -4.988  -4.059  1.00  0.00    -0.206 F 
ATOM     51  C   UNL     1     -10.093  -3.032  -3.851  1.00  0.00     0.040 A 
ATOM     52  C   UNL     1      -9.145  -0.901  -4.455  1.00  0.00     0.040 A 
ATOM     53  F   UNL     1      -6.948  -0.788  -5.270  1.00  0.00    -0.206 F 
ATOM     54  C   UNL     1     -10.216  -1.648  -3.970  1.00  0.00     0.006 A 
ENDBRANCH  26  47
BRANCH  38  55
ATOM     55  C   UNL     1      -5.492  -7.212  -9.689  1.00  0.00     0.057 A 
ATOM     56  C   UNL     1      -5.814  -6.501 -10.850  1.00  0.00     0.134 A 
ATOM     57  C   UNL     1      -5.755  -8.587  -9.672  1.00  0.00     0.134 A 
ATOM     58  F   UNL     1      -5.600  -5.179 -10.920  1.00  0.00    -0.206 F 
ATOM     59  C   UNL     1      -6.383  -7.136 -11.955  1.00  0.00     0.040 A 
ATOM     60  C   UNL     1      -6.302  -9.237 -10.778  1.00  0.00     0.040 A 
ATOM     61  F   UNL     1      -5.462  -9.324  -8.590  1.00  0.00    -0.206 F 
ATOM     62  C   UNL     1      -6.619  -8.510 -11.924  1.00  0.00     0.006 A 
ENDBRANCH  38  55
ENDBRANCH  12  13
ENDBRANCH   5   7
ENDBRANCH   2   3
ENDBRANCH   1   2
BRANCH   1  63
ATOM     63  C   UNL     1       2.602  -2.094   4.242  1.00  0.00     0.117 C 
BRANCH  63  64
ATOM     64  N   UNL     1       2.234  -2.628   5.537  1.00  0.00    -0.355 N 
ATOM     65  C   UNL     1       2.901  -3.445   6.401  1.00  0.00     0.228 C 
ATOM     66  H   UNL     1       1.343  -2.350   5.851  1.00  0.00     0.163 HD
ATOM     67  O   UNL     1       2.277  -3.818   7.400  1.00  0.00    -0.274 OA
BRANCH  65  68
ATOM     68  C   UNL     1       4.349  -3.912   6.164  1.00  0.00     0.124 C 
BRANCH  68  69
ATOM     69  C   UNL     1       4.369  -5.069   5.158  1.00  0.00    -0.035 A 
ATOM     70  C   UNL     1       4.197  -6.377   5.656  1.00  0.00     0.004 A 
ATOM     71  C   UNL     1       4.478  -4.931   3.771  1.00  0.00     0.004 A 
ATOM     72  C   UNL     1       4.181  -7.490   4.810  1.00  0.00     0.000 A 
ATOM     73  C   UNL     1       4.476  -6.043   2.920  1.00  0.00     0.000 A 
ATOM     74  C   UNL     1       4.332  -7.324   3.440  1.00  0.00     0.000 A 
ENDBRANCH  68  69
BRANCH  68  75
ATOM     75  C   UNL     1       5.327  -2.689   6.090  1.00  0.00     0.108 C 
BRANCH  75  76
ATOM     76  C   UNL     1       5.494  -1.962   7.436  1.00  0.00    -0.036 A 
ATOM     77  C   UNL     1       5.731  -2.645   8.638  1.00  0.00     0.004 A 
ATOM     78  C   UNL     1       5.378  -0.560   7.483  1.00  0.00     0.004 A 
ATOM     79  C   UNL     1       5.781  -1.958   9.854  1.00  0.00     0.000 A 
ATOM     80  C   UNL     1       5.446   0.126   8.698  1.00  0.00     0.000 A 
ATOM     81  C   UNL     1       5.633  -0.575   9.886  1.00  0.00     0.000 A 
ENDBRANCH  75  76
BRANCH  75  82
ATOM     82  C   UNL     1       6.680  -3.015   5.444  1.00  0.00     0.171 C 
ATOM     83  O   UNL     1       7.595  -3.571   6.047  1.00  0.00    -0.293 OA
BRANCH  82  84
ATOM     84  C   UNL     1       6.846  -2.736   3.980  1.00  0.00     0.018 A 
ATOM     85  C   UNL     1       7.492  -3.705   3.201  1.00  0.00     0.012 A 
ATOM     86  C   UNL     1       6.242  -1.639   3.348  1.00  0.00     0.012 A 
ATOM     87  C   UNL     1       7.438  -3.634   1.807  1.00  0.00     0.001 A 
ATOM     88  C   UNL     1       6.181  -1.578   1.952  1.00  0.00     0.001 A 
ATOM     89  C   UNL     1       6.760  -2.586   1.184  1.00  0.00     0.000 A 
ENDBRANCH  82  84
ENDBRANCH  75  82
ENDBRANCH  68  75
ENDBRANCH  65  68
ENDBRANCH  63  64
ENDBRANCH   1  63
TORSDOF 15
