REMARK SMILES Cc1c(C(=O)NCCCNC(=O)c2ccc(-c3c4nc(c(-c5c(F)cccc5F)c5ccc([nH]5)c(-c5c(F)cccc5F)c5nc(c(-c6c(F)cccc6F)c6ccc3[nH]6)C=C5)C=C4)cc2)oc2c1/C(=N/NC(=O)C(c1ccccc1)c1ccccc1)CCC2
REMARK SMILES IDX 7 1 6 2 4 3 5 4 3 6 1 7 2 8 69 9 67 10 68 11 70 12 90 13
REMARK SMILES IDX 71 14 88 15 89 16 72 17 73 18 74 20 75 21 76 22 77 23 81 24
REMARK SMILES IDX 78 25 80 26 79 27 82 28 83 29 87 30 84 31 86 32 85 33 8 34
REMARK SMILES IDX 9 35 10 36 11 37 12 39 13 40 14 41 66 42 15 43 65 44 16 45
REMARK SMILES IDX 17 46 18 47 59 48 19 49 64 50 58 51 60 52 20 53 63 54 57 55
REMARK SMILES IDX 56 56 21 58 47 59 30 60 46 61 31 62 34 63 45 64 61 65 32 66
REMARK SMILES IDX 33 67 44 69 62 70 35 71 22 72 23 73 28 74 24 75 25 76 27 77
REMARK SMILES IDX 29 78 26 79 48 80 49 81 54 82 50 83 51 84 53 85 55 86 52 87
REMARK SMILES IDX 36 88 37 89 42 90 38 91 39 92 41 93 43 94 40 95
REMARK H PARENT 6 5 72 19 10 38 60 57 34 68
REMARK Flexibility Score: inf
ROOT
ATOM      1  C   UNL     1      -2.675   2.535  -3.712  1.00  0.00     0.118 C 
ENDROOT
BRANCH   1   2
ATOM      2  N   UNL     1      -2.254   1.122  -3.669  1.00  0.00    -0.349 N 
ATOM      3  C   UNL     1      -1.272   0.508  -2.884  1.00  0.00     0.287 C 
ATOM      4  O   UNL     1      -1.242  -0.720  -2.847  1.00  0.00    -0.266 OA
ATOM      5  H   UNL     1      -2.734   0.522  -4.285  1.00  0.00     0.163 HD
BRANCH   3   6
ATOM      6  C   UNL     1      -0.383   1.365  -2.130  1.00  0.00     0.195 A 
ATOM      7  C   UNL     1       0.788   0.021  -0.237  1.00  0.00     0.049 C 
ATOM      8  C   UNL     1       0.443   1.242  -1.006  1.00  0.00     0.010 A 
ATOM      9  C   UNL     1       0.757   2.594  -0.631  1.00  0.00     0.043 A 
ATOM     10  O   UNL     1      -0.360   2.648  -2.556  1.00  0.00    -0.455 OA
ATOM     11  C   UNL     1       0.158   3.378  -1.590  1.00  0.00     0.114 A 
ATOM     12  C   UNL     1       1.389   3.258   0.507  1.00  0.00     0.072 C 
ATOM     13  C   UNL     1      -0.123   4.819  -1.649  1.00  0.00     0.076 C 
ATOM     14  N   UNL     1       2.206   2.537   1.217  1.00  0.00    -0.177 NA
ATOM     15  C   UNL     1       0.856   4.675   0.625  1.00  0.00     0.059 C 
ATOM     16  C   UNL     1       0.818   5.477  -0.679  1.00  0.00     0.014 C 
BRANCH  14  17
ATOM     17  N   UNL     1       3.014   2.737   2.311  1.00  0.00    -0.246 N 
ATOM     18  C   UNL     1       3.515   3.767   3.090  1.00  0.00     0.252 C 
ATOM     19  H   UNL     1       3.341   1.872   2.648  1.00  0.00     0.193 HD
ATOM     20  O   UNL     1       4.357   3.466   3.950  1.00  0.00    -0.272 OA
BRANCH  18  21
ATOM     21  C   UNL     1       3.061   5.230   2.958  1.00  0.00     0.140 C 
BRANCH  21  22
ATOM     22  C   UNL     1       3.596   5.761   1.564  1.00  0.00    -0.031 A 
ATOM     23  C   UNL     1       4.349   4.907   0.705  1.00  0.00     0.005 A 
ATOM     24  C   UNL     1       3.355   7.049   1.063  1.00  0.00     0.005 A 
ATOM     25  C   UNL     1       4.674   5.230  -0.615  1.00  0.00     0.000 A 
ATOM     26  C   UNL     1       3.722   7.395  -0.259  1.00  0.00     0.000 A 
ATOM     27  C   UNL     1       4.346   6.477  -1.107  1.00  0.00     0.000 A 
ENDBRANCH  21  22
BRANCH  21  28
ATOM     28  C   UNL     1       1.549   5.275   3.447  1.00  0.00    -0.031 A 
ATOM     29  C   UNL     1       0.682   6.366   3.268  1.00  0.00     0.005 A 
ATOM     30  C   UNL     1       0.953   4.102   3.993  1.00  0.00     0.005 A 
ATOM     31  C   UNL     1      -0.715   6.202   3.406  1.00  0.00     0.000 A 
ATOM     32  C   UNL     1      -0.429   3.927   4.092  1.00  0.00     0.000 A 
ATOM     33  C   UNL     1      -1.270   4.972   3.763  1.00  0.00     0.000 A 
ENDBRANCH  21  28
ENDBRANCH  18  21
ENDBRANCH  14  17
ENDBRANCH   3   6
ENDBRANCH   1   2
BRANCH   1  34
ATOM     34  C   UNL     1      -1.906   3.419  -4.717  1.00  0.00     0.042 C 
BRANCH  34  35
ATOM     35  C   UNL     1      -2.429   3.290  -6.132  1.00  0.00     0.118 C 
BRANCH  35  36
ATOM     36  N   UNL     1      -3.775   3.852  -6.288  1.00  0.00    -0.352 N 
ATOM     37  C   UNL     1      -4.659   3.720  -7.348  1.00  0.00     0.251 C 
ATOM     38  H   UNL     1      -4.095   4.400  -5.535  1.00  0.00     0.163 HD
ATOM     39  O   UNL     1      -5.577   4.499  -7.503  1.00  0.00    -0.269 OA
BRANCH  37  40
ATOM     40  C   UNL     1      -4.450   2.603  -8.286  1.00  0.00     0.039 A 
ATOM     41  C   UNL     1      -4.620   2.752  -9.664  1.00  0.00     0.014 A 
ATOM     42  C   UNL     1      -3.998   1.405  -7.749  1.00  0.00     0.014 A 
ATOM     43  C   UNL     1      -4.236   1.700 -10.492  1.00  0.00     0.010 A 
ATOM     44  C   UNL     1      -3.388   0.497  -8.564  1.00  0.00     0.010 A 
ATOM     45  C   UNL     1      -3.590   0.586  -9.930  1.00  0.00    -0.014 A 
BRANCH  45  46
ATOM     46  C   UNL     1      -3.027  -0.471 -10.757  1.00  0.00     0.031 A 
ATOM     47  C   UNL     1      -2.090   0.028 -11.790  1.00  0.00     0.074 A 
ATOM     48  C   UNL     1      -3.168  -1.787 -10.479  1.00  0.00     0.049 A 
ATOM     49  N   UNL     1      -2.336   0.197 -13.045  1.00  0.00    -0.248 NA
ATOM     50  C   UNL     1      -0.796   0.583 -11.360  1.00  0.00     0.031 C 
ATOM     51  C   UNL     1      -3.754  -2.402  -9.277  1.00  0.00     0.029 A 
ATOM     52  N   UNL     1      -2.731  -2.872 -11.180  1.00  0.00    -0.354 N 
ATOM     53  C   UNL     1      -1.128   0.598 -13.606  1.00  0.00     0.074 A 
ATOM     54  C   UNL     1      -0.313   1.054 -12.514  1.00  0.00     0.031 C 
ATOM     55  C   UNL     1      -3.422  -3.709  -9.221  1.00  0.00     0.029 A 
ATOM     56  C   UNL     1      -2.791  -4.070 -10.474  1.00  0.00     0.049 A 
ATOM     57  H   UNL     1      -2.401  -2.812 -12.105  1.00  0.00     0.167 HD
ATOM     58  C   UNL     1      -0.792   0.175 -14.857  1.00  0.00     0.037 A 
ATOM     59  C   UNL     1      -2.366  -5.283 -10.899  1.00  0.00     0.037 A 
ATOM     60  C   UNL     1      -1.931  -0.442 -15.495  1.00  0.00     0.049 A 
ATOM     61  C   UNL     1      -2.326  -5.240 -12.377  1.00  0.00     0.074 A 
ATOM     62  C   UNL     1      -3.105  -0.034 -16.086  1.00  0.00     0.029 A 
ATOM     63  N   UNL     1      -2.077  -1.763 -15.163  1.00  0.00    -0.354 N 
ATOM     64  N   UNL     1      -3.392  -5.119 -13.119  1.00  0.00    -0.248 NA
ATOM     65  C   UNL     1      -1.061  -4.962 -13.046  1.00  0.00     0.031 C 
ATOM     66  C   UNL     1      -4.013  -1.131 -15.971  1.00  0.00     0.029 A 
ATOM     67  C   UNL     1      -3.358  -2.198 -15.360  1.00  0.00     0.049 A 
ATOM     68  H   UNL     1      -1.348  -2.331 -14.824  1.00  0.00     0.167 HD
ATOM     69  C   UNL     1      -2.977  -4.345 -14.184  1.00  0.00     0.074 A 
ATOM     70  C   UNL     1      -1.522  -4.436 -14.184  1.00  0.00     0.031 C 
ATOM     71  C   UNL     1      -3.814  -3.428 -14.749  1.00  0.00     0.037 A 
BRANCH  58  72
ATOM     72  C   UNL     1       0.608  -0.188 -15.314  1.00  0.00     0.057 A 
ATOM     73  C   UNL     1       0.806  -0.532 -16.666  1.00  0.00     0.134 A 
ATOM     74  C   UNL     1       1.675  -0.523 -14.456  1.00  0.00     0.134 A 
ATOM     75  F   UNL     1      -0.138  -0.280 -17.586  1.00  0.00    -0.206 F 
ATOM     76  C   UNL     1       1.943  -1.219 -17.111  1.00  0.00     0.040 A 
ATOM     77  C   UNL     1       2.835  -1.166 -14.899  1.00  0.00     0.040 A 
ATOM     78  F   UNL     1       1.619  -0.348 -13.132  1.00  0.00    -0.206 F 
ATOM     79  C   UNL     1       2.960  -1.545 -16.225  1.00  0.00     0.006 A 
ENDBRANCH  58  72
BRANCH  59  80
ATOM     80  C   UNL     1      -1.759  -6.387 -10.127  1.00  0.00     0.057 A 
ATOM     81  C   UNL     1      -1.693  -7.687 -10.649  1.00  0.00     0.134 A 
ATOM     82  C   UNL     1      -0.955  -6.128  -9.004  1.00  0.00     0.134 A 
ATOM     83  F   UNL     1      -2.404  -8.018 -11.737  1.00  0.00    -0.206 F 
ATOM     84  C   UNL     1      -0.839  -8.661 -10.116  1.00  0.00     0.040 A 
ATOM     85  C   UNL     1      -0.099  -7.092  -8.461  1.00  0.00     0.040 A 
ATOM     86  F   UNL     1      -0.904  -4.902  -8.462  1.00  0.00    -0.206 F 
ATOM     87  C   UNL     1      -0.024  -8.358  -9.030  1.00  0.00     0.006 A 
ENDBRANCH  59  80
BRANCH  71  88
ATOM     88  C   UNL     1      -5.287  -3.639 -14.591  1.00  0.00     0.057 A 
ATOM     89  C   UNL     1      -5.988  -3.542 -13.382  1.00  0.00     0.134 A 
ATOM     90  C   UNL     1      -6.040  -3.878 -15.746  1.00  0.00     0.134 A 
ATOM     91  F   UNL     1      -5.361  -3.248 -12.236  1.00  0.00    -0.206 F 
ATOM     92  C   UNL     1      -7.376  -3.710 -13.325  1.00  0.00     0.040 A 
ATOM     93  C   UNL     1      -7.427  -4.016 -15.708  1.00  0.00     0.040 A 
ATOM     94  F   UNL     1      -5.436  -3.947 -16.943  1.00  0.00    -0.206 F 
ATOM     95  C   UNL     1      -8.100  -3.942 -14.492  1.00  0.00     0.006 A 
ENDBRANCH  71  88
ENDBRANCH  45  46
ENDBRANCH  37  40
ENDBRANCH  35  36
ENDBRANCH  34  35
ENDBRANCH   1  34
TORSDOF 14
