REMARK SMILES COc1cc([C@H]([NH3+])C(=O)NCCCNC(=O)c2ccc(-c3c4nc(c(-c5c(F)cccc5F)c5ccc([nH]5)c(-c5c(F)cccc5F)c5nc(c(-c6c(F)cccc6F)c6ccc3[nH]6)C=C5)C=C4)cc2)cc(I)c1OC
REMARK SMILES IDX 12 1 11 2 10 3 8 4 9 5 6 7 5 8 3 9 4 10 74 11 72 12 71 13
REMARK SMILES IDX 73 14 2 15 1 16 75 17 76 18 7 19 13 23 14 24 15 25 16 27
REMARK SMILES IDX 17 28 18 29 70 30 19 31 69 32 20 33 21 34 22 35 63 36 23 37
REMARK SMILES IDX 68 38 62 39 64 40 24 41 67 42 61 43 60 44 25 46 51 47 34 48
REMARK SMILES IDX 50 49 35 50 38 51 49 52 65 53 36 54 37 55 48 57 66 58 39 59
REMARK SMILES IDX 26 60 27 61 32 62 28 63 29 64 31 65 33 66 30 67 52 68 53 69
REMARK SMILES IDX 58 70 54 71 55 72 57 73 59 74 56 75 40 76 41 77 46 78 42 79
REMARK SMILES IDX 43 80 45 81 47 82 44 83
REMARK H PARENT 10 6 7 20 7 21 7 22 14 26 64 45 38 56
REMARK Flexibility Score: inf
ROOT
ATOM      1  C   UNL     1       3.159   0.316  -1.924  1.00  0.00     0.042 C 
ENDROOT
BRANCH   1   2
ATOM      2  C   UNL     1       3.932   1.456  -1.288  1.00  0.00     0.118 C 
BRANCH   2   3
ATOM      3  N   UNL     1       4.578   2.310  -2.268  1.00  0.00    -0.351 N 
ATOM      4  C   UNL     1       4.789   3.662  -2.263  1.00  0.00     0.283 C 
ATOM      5  O   UNL     1       5.552   4.105  -3.129  1.00  0.00    -0.268 OA
ATOM      6  H   UNL     1       4.920   1.842  -3.064  1.00  0.00     0.163 HD
BRANCH   4   7
ATOM      7  C   UNL     1       4.113   4.604  -1.234  1.00  0.00     0.302 C 
BRANCH   7   8
ATOM      8  C   UNL     1       4.535   4.441   0.224  1.00  0.00     0.024 A 
ATOM      9  C   UNL     1       4.391   5.193   2.548  1.00  0.00     0.162 A 
ATOM     10  C   UNL     1       4.032   5.317   1.196  1.00  0.00     0.061 A 
ATOM     11  C   UNL     1       5.260   4.157   2.977  1.00  0.00     0.174 A 
ATOM     12  C   UNL     1       5.793   3.298   2.009  1.00  0.00     0.059 A 
ATOM     13  C   UNL     1       5.457   3.479   0.653  1.00  0.00     0.029 A 
ATOM     14  I   UNL     1       7.163   1.723   2.314  1.00  0.00    -0.040 I 
BRANCH   9  15
ATOM     15  O   UNL     1       3.951   6.053   3.529  1.00  0.00    -0.493 OA
ATOM     16  C   UNL     1       2.982   7.031   3.178  1.00  0.00     0.278 C 
ENDBRANCH   9  15
BRANCH  11  17
ATOM     17  O   UNL     1       5.566   4.213   4.313  1.00  0.00    -0.492 OA
ATOM     18  C   UNL     1       5.731   3.014   5.051  1.00  0.00     0.278 C 
ENDBRANCH  11  17
ENDBRANCH   7   8
BRANCH   7  19
ATOM     19  N   UNL     1       2.645   4.553  -1.413  1.00  0.00    -0.343 N 
ATOM     20  H   UNL     1       2.309   3.614  -1.198  1.00  0.00     0.345 HD
ATOM     21  H   UNL     1       2.413   4.785  -2.378  1.00  0.00     0.345 HD
ATOM     22  H   UNL     1       2.203   5.224  -0.786  1.00  0.00     0.345 HD
ENDBRANCH   7  19
ENDBRANCH   4   7
ENDBRANCH   2   3
ENDBRANCH   1   2
BRANCH   1  23
ATOM     23  C   UNL     1       4.045  -0.684  -2.656  1.00  0.00     0.118 C 
BRANCH  23  24
ATOM     24  N   UNL     1       4.957  -1.407  -1.774  1.00  0.00    -0.352 N 
ATOM     25  C   UNL     1       5.055  -2.757  -1.532  1.00  0.00     0.251 C 
ATOM     26  H   UNL     1       5.596  -0.844  -1.280  1.00  0.00     0.163 HD
ATOM     27  O   UNL     1       5.793  -3.179  -0.647  1.00  0.00    -0.269 OA
BRANCH  25  28
ATOM     28  C   UNL     1       4.237  -3.695  -2.324  1.00  0.00     0.039 A 
ATOM     29  C   UNL     1       3.508  -4.691  -1.669  1.00  0.00     0.014 A 
ATOM     30  C   UNL     1       4.151  -3.553  -3.710  1.00  0.00     0.014 A 
ATOM     31  C   UNL     1       2.613  -5.479  -2.396  1.00  0.00     0.010 A 
ATOM     32  C   UNL     1       3.190  -4.266  -4.412  1.00  0.00     0.010 A 
ATOM     33  C   UNL     1       2.409  -5.235  -3.763  1.00  0.00    -0.014 A 
BRANCH  33  34
ATOM     34  C   UNL     1       1.399  -5.978  -4.557  1.00  0.00     0.031 A 
ATOM     35  C   UNL     1       1.843  -6.781  -5.749  1.00  0.00     0.074 A 
ATOM     36  C   UNL     1       0.087  -5.841  -4.282  1.00  0.00     0.049 A 
ATOM     37  N   UNL     1       1.123  -7.341  -6.686  1.00  0.00    -0.248 NA
ATOM     38  C   UNL     1       3.296  -6.935  -5.933  1.00  0.00     0.031 C 
ATOM     39  C   UNL     1      -0.476  -5.055  -3.181  1.00  0.00     0.029 A 
ATOM     40  N   UNL     1      -1.016  -6.345  -4.925  1.00  0.00    -0.354 N 
ATOM     41  C   UNL     1       2.033  -7.878  -7.587  1.00  0.00     0.074 A 
ATOM     42  C   UNL     1       3.356  -7.536  -7.111  1.00  0.00     0.031 C 
ATOM     43  C   UNL     1      -1.815  -5.146  -3.215  1.00  0.00     0.029 A 
ATOM     44  C   UNL     1      -2.208  -5.955  -4.364  1.00  0.00     0.049 A 
ATOM     45  H   UNL     1      -0.958  -6.931  -5.714  1.00  0.00     0.167 HD
ATOM     46  C   UNL     1       1.790  -8.611  -8.698  1.00  0.00     0.037 A 
ATOM     47  C   UNL     1      -3.475  -6.211  -4.743  1.00  0.00     0.037 A 
ATOM     48  C   UNL     1       0.476  -8.995  -9.137  1.00  0.00     0.049 A 
ATOM     49  C   UNL     1      -3.719  -7.047  -5.969  1.00  0.00     0.074 A 
ATOM     50  C   UNL     1       0.125  -9.787 -10.216  1.00  0.00     0.029 A 
ATOM     51  N   UNL     1      -0.702  -8.624  -8.509  1.00  0.00    -0.354 N 
ATOM     52  N   UNL     1      -2.848  -7.583  -6.790  1.00  0.00    -0.248 NA
ATOM     53  C   UNL     1      -5.120  -7.314  -6.323  1.00  0.00     0.031 C 
ATOM     54  C   UNL     1      -1.270  -9.876 -10.255  1.00  0.00     0.029 A 
ATOM     55  C   UNL     1      -1.784  -9.168  -9.180  1.00  0.00     0.049 A 
ATOM     56  H   UNL     1      -0.761  -8.057  -7.706  1.00  0.00     0.167 HD
ATOM     57  C   UNL     1      -3.592  -8.278  -7.734  1.00  0.00     0.074 A 
ATOM     58  C   UNL     1      -4.986  -8.099  -7.383  1.00  0.00     0.031 C 
ATOM     59  C   UNL     1      -3.161  -8.999  -8.796  1.00  0.00     0.037 A 
BRANCH  46  60
ATOM     60  C   UNL     1       2.974  -9.056  -9.505  1.00  0.00     0.057 A 
ATOM     61  C   UNL     1       3.856 -10.040  -9.038  1.00  0.00     0.134 A 
ATOM     62  C   UNL     1       3.223  -8.512 -10.771  1.00  0.00     0.134 A 
ATOM     63  F   UNL     1       3.681 -10.589  -7.827  1.00  0.00    -0.206 F 
ATOM     64  C   UNL     1       4.958 -10.447  -9.790  1.00  0.00     0.040 A 
ATOM     65  C   UNL     1       4.307  -8.931 -11.544  1.00  0.00     0.040 A 
ATOM     66  F   UNL     1       2.415  -7.568 -11.278  1.00  0.00    -0.206 F 
ATOM     67  C   UNL     1       5.182  -9.897 -11.050  1.00  0.00     0.006 A 
ENDBRANCH  46  60
BRANCH  47  68
ATOM     68  C   UNL     1      -4.613  -5.693  -3.944  1.00  0.00     0.057 A 
ATOM     69  C   UNL     1      -5.405  -6.559  -3.180  1.00  0.00     0.134 A 
ATOM     70  C   UNL     1      -4.947  -4.334  -3.933  1.00  0.00     0.134 A 
ATOM     71  F   UNL     1      -5.145  -7.874  -3.166  1.00  0.00    -0.206 F 
ATOM     72  C   UNL     1      -6.501  -6.096  -2.450  1.00  0.00     0.040 A 
ATOM     73  C   UNL     1      -6.027  -3.854  -3.189  1.00  0.00     0.040 A 
ATOM     74  F   UNL     1      -4.223  -3.452  -4.637  1.00  0.00    -0.206 F 
ATOM     75  C   UNL     1      -6.812  -4.738  -2.451  1.00  0.00     0.006 A 
ENDBRANCH  47  68
BRANCH  59  76
ATOM     76  C   UNL     1      -4.199  -9.695  -9.622  1.00  0.00     0.057 A 
ATOM     77  C   UNL     1      -5.010  -9.002 -10.527  1.00  0.00     0.134 A 
ATOM     78  C   UNL     1      -4.341 -11.087  -9.554  1.00  0.00     0.134 A 
ATOM     79  F   UNL     1      -4.928  -7.666 -10.629  1.00  0.00    -0.206 F 
ATOM     80  C   UNL     1      -5.937  -9.668 -11.330  1.00  0.00     0.040 A 
ATOM     81  C   UNL     1      -5.249 -11.767 -10.367  1.00  0.00     0.040 A 
ATOM     82  F   UNL     1      -3.587 -11.809  -8.712  1.00  0.00    -0.206 F 
ATOM     83  C   UNL     1      -6.052 -11.056 -11.256  1.00  0.00     0.006 A 
ENDBRANCH  59  76
ENDBRANCH  33  34
ENDBRANCH  25  28
ENDBRANCH  23  24
ENDBRANCH   1  23
TORSDOF 14
