REMARK SMILES CC(C)[C@@H](NC(=O)[C@@H]1CC[C@H]2CCCC[C@@H]2[NH2+]1)C(=O)NCCCNC(=O)c1ccc(-c2c3nc(c(-c4c(F)cccc4F)c4ccc([nH]4)c(-c4c(F)cccc4F)c4nc(c(-c5c(F)cccc5F)c5ccc2[nH]5)C=C4)C=C3)cc1
REMARK SMILES IDX 22 1 21 2 20 3 18 4 19 5 4 7 2 8 1 9 3 10 5 11 6 12 7 14
REMARK SMILES IDX 8 15 9 16 17 17 10 18 16 19 11 22 15 23 12 24 14 25 13 26
REMARK SMILES IDX 23 27 24 28 25 29 26 31 27 32 28 33 80 34 29 35 79 36 30 37
REMARK SMILES IDX 31 38 32 39 73 40 33 41 78 42 72 43 74 44 34 45 77 46 71 47
REMARK SMILES IDX 70 48 35 50 61 51 44 52 60 53 45 54 48 55 59 56 75 57 46 58
REMARK SMILES IDX 47 59 58 61 76 62 49 63 36 64 37 65 42 66 38 67 39 68 41 69
REMARK SMILES IDX 43 70 40 71 62 72 63 73 68 74 64 75 65 76 67 77 69 78 66 79
REMARK SMILES IDX 50 80 51 81 56 82 52 83 53 84 55 85 57 86 54 87
REMARK H PARENT 20 6 5 13 17 20 17 21 24 30 74 49 48 60
REMARK Flexibility Score: inf
ROOT
ATOM      1  C   UNL     1      -3.617   6.296   2.317  1.00  0.00     0.042 C 
ENDROOT
BRANCH   1   2
ATOM      2  C   UNL     1      -2.583   5.263   1.856  1.00  0.00     0.117 C 
BRANCH   2   3
ATOM      3  N   UNL     1      -2.853   4.444   0.649  1.00  0.00    -0.354 N 
ATOM      4  C   UNL     1      -3.378   4.916  -0.629  1.00  0.00     0.242 C 
ATOM      5  O   UNL     1      -4.413   5.494  -0.171  1.00  0.00    -0.273 OA
ATOM      6  H   UNL     1      -2.656   3.482   0.717  1.00  0.00     0.163 HD
BRANCH   4   7
ATOM      7  C   UNL     1      -2.639   4.764  -2.610  1.00  0.00     0.174 C 
BRANCH   7   8
ATOM      8  C   UNL     1      -1.862   5.886  -3.709  1.00  0.00     0.015 C 
ATOM      9  C   UNL     1      -0.318   5.880  -3.759  1.00  0.00     0.010 C 
ATOM     10  C   UNL     1      -2.355   5.670  -5.174  1.00  0.00     0.010 C 
ENDBRANCH   7   8
BRANCH   7  11
ATOM     11  N   UNL     1      -1.903   3.535  -3.200  1.00  0.00    -0.339 N 
ATOM     12  C   UNL     1      -1.230   2.844  -2.268  1.00  0.00     0.278 C 
ATOM     13  H   UNL     1      -1.925   3.289  -4.153  1.00  0.00     0.164 HD
ATOM     14  O   UNL     1      -0.449   1.928  -2.368  1.00  0.00    -0.268 OA
BRANCH  12  15
ATOM     15  C   UNL     1      -1.890   3.453  -1.113  1.00  0.00     0.272 C 
ATOM     16  C   UNL     1      -3.776   3.122  -1.593  1.00  0.00     0.076 C 
ATOM     17  N   UNL     1      -1.246   5.216  -1.069  1.00  0.00    -0.333 N 
ATOM     18  C   UNL     1      -4.903   4.611  -2.138  1.00  0.00     0.016 C 
ATOM     19  C   UNL     1      -2.395   6.629  -1.272  1.00  0.00     0.186 C 
ATOM     20  H   UNL     1      -0.554   5.293  -1.815  1.00  0.00     0.347 HD
ATOM     21  H   UNL     1      -0.922   5.319  -0.108  1.00  0.00     0.347 HD
ATOM     22  C   UNL     1      -4.103   6.387  -2.146  1.00  0.00     0.048 C 
ATOM     23  C   UNL     1      -1.825   8.046  -1.462  1.00  0.00     0.065 C 
ATOM     24  C   UNL     1      -4.990   7.573  -1.728  1.00  0.00     0.010 C 
ATOM     25  C   UNL     1      -2.936   9.078  -1.180  1.00  0.00     0.006 C 
ATOM     26  C   UNL     1      -4.239   8.895  -1.977  1.00  0.00     0.001 C 
ENDBRANCH  12  15
ENDBRANCH   7  11
ENDBRANCH   4   7
ENDBRANCH   2   3
ENDBRANCH   1   2
BRANCH   1  27
ATOM     27  C   UNL     1      -4.856   5.672   2.940  1.00  0.00     0.118 C 
BRANCH  27  28
ATOM     28  N   UNL     1      -4.656   5.394   4.354  1.00  0.00    -0.352 N 
ATOM     29  C   UNL     1      -4.536   6.250   5.422  1.00  0.00     0.251 C 
ATOM     30  H   UNL     1      -4.599   4.438   4.583  1.00  0.00     0.163 HD
ATOM     31  O   UNL     1      -4.110   5.806   6.487  1.00  0.00    -0.269 OA
BRANCH  29  32
ATOM     32  C   UNL     1      -4.888   7.692   5.336  1.00  0.00     0.039 A 
ATOM     33  C   UNL     1      -4.114   8.609   6.063  1.00  0.00     0.014 A 
ATOM     34  C   UNL     1      -6.047   8.139   4.698  1.00  0.00     0.014 A 
ATOM     35  C   UNL     1      -4.506   9.950   6.169  1.00  0.00     0.010 A 
ATOM     36  C   UNL     1      -6.412   9.489   4.761  1.00  0.00     0.010 A 
ATOM     37  C   UNL     1      -5.671  10.398   5.534  1.00  0.00    -0.014 A 
BRANCH  37  38
ATOM     38  C   UNL     1      -6.224  11.757   5.787  1.00  0.00     0.031 A 
ATOM     39  C   UNL     1      -7.510  11.891   6.563  1.00  0.00     0.074 A 
ATOM     40  C   UNL     1      -5.617  12.864   5.322  1.00  0.00     0.049 A 
ATOM     41  N   UNL     1      -8.272  12.942   6.739  1.00  0.00    -0.248 NA
ATOM     42  C   UNL     1      -8.017  10.669   7.207  1.00  0.00     0.031 C 
ATOM     43  C   UNL     1      -4.361  12.899   4.577  1.00  0.00     0.029 A 
ATOM     44  N   UNL     1      -5.993  14.184   5.407  1.00  0.00    -0.354 N 
ATOM     45  C   UNL     1      -9.374  12.494   7.456  1.00  0.00     0.074 A 
ATOM     46  C   UNL     1      -9.181  11.079   7.689  1.00  0.00     0.031 C 
ATOM     47  C   UNL     1      -4.063  14.176   4.281  1.00  0.00     0.029 A 
ATOM     48  C   UNL     1      -5.125  15.045   4.784  1.00  0.00     0.049 A 
ATOM     49  H   UNL     1      -6.809  14.482   5.870  1.00  0.00     0.167 HD
ATOM     50  C   UNL     1     -10.452  13.194   7.882  1.00  0.00     0.037 A 
ATOM     51  C   UNL     1      -5.185  16.382   4.626  1.00  0.00     0.037 A 
ATOM     52  C   UNL     1     -10.622  14.613   7.717  1.00  0.00     0.049 A 
ATOM     53  C   UNL     1      -6.356  17.151   5.173  1.00  0.00     0.074 A 
ATOM     54  C   UNL     1     -11.686  15.409   8.107  1.00  0.00     0.029 A 
ATOM     55  N   UNL     1      -9.682  15.452   7.143  1.00  0.00    -0.354 N 
ATOM     56  N   UNL     1      -7.420  16.705   5.794  1.00  0.00    -0.248 NA
ATOM     57  C   UNL     1      -6.334  18.612   4.994  1.00  0.00     0.031 C 
ATOM     58  C   UNL     1     -11.385  16.735   7.773  1.00  0.00     0.029 A 
ATOM     59  C   UNL     1     -10.129  16.761   7.191  1.00  0.00     0.049 A 
ATOM     60  H   UNL     1      -8.824  15.161   6.759  1.00  0.00     0.167 HD
ATOM     61  C   UNL     1      -8.183  17.826   6.094  1.00  0.00     0.074 A 
ATOM     62  C   UNL     1      -7.458  18.976   5.596  1.00  0.00     0.031 C 
ATOM     63  C   UNL     1      -9.382  17.895   6.720  1.00  0.00     0.037 A 
BRANCH  50  64
ATOM     64  C   UNL     1     -11.545  12.425   8.557  1.00  0.00     0.057 A 
ATOM     65  C   UNL     1     -11.431  11.986   9.881  1.00  0.00     0.134 A 
ATOM     66  C   UNL     1     -12.734  12.133   7.875  1.00  0.00     0.134 A 
ATOM     67  F   UNL     1     -10.310  12.220  10.580  1.00  0.00    -0.206 F 
ATOM     68  C   UNL     1     -12.456  11.267  10.499  1.00  0.00     0.040 A 
ATOM     69  C   UNL     1     -13.772  11.432   8.488  1.00  0.00     0.040 A 
ATOM     70  F   UNL     1     -12.904  12.529   6.604  1.00  0.00    -0.206 F 
ATOM     71  C   UNL     1     -13.632  10.992   9.803  1.00  0.00     0.006 A 
ENDBRANCH  50  64
BRANCH  51  72
ATOM     72  C   UNL     1      -4.092  17.093   3.924  1.00  0.00     0.057 A 
ATOM     73  C   UNL     1      -3.151  17.844   4.637  1.00  0.00     0.134 A 
ATOM     74  C   UNL     1      -3.974  17.058   2.530  1.00  0.00     0.134 A 
ATOM     75  F   UNL     1      -3.232  17.933   5.973  1.00  0.00    -0.206 F 
ATOM     76  C   UNL     1      -2.135  18.547   3.989  1.00  0.00     0.040 A 
ATOM     77  C   UNL     1      -2.953  17.743   1.870  1.00  0.00     0.040 A 
ATOM     78  F   UNL     1      -4.848  16.356   1.794  1.00  0.00    -0.206 F 
ATOM     79  C   UNL     1      -2.033  18.494   2.600  1.00  0.00     0.006 A 
ENDBRANCH  51  72
BRANCH  63  80
ATOM     80  C   UNL     1      -9.961  19.256   6.945  1.00  0.00     0.057 A 
ATOM     81  C   UNL     1     -10.641  19.941   5.931  1.00  0.00     0.134 A 
ATOM     82  C   UNL     1      -9.873  19.867   8.201  1.00  0.00     0.134 A 
ATOM     83  F   UNL     1     -10.748  19.408   4.705  1.00  0.00    -0.206 F 
ATOM     84  C   UNL     1     -11.207  21.196   6.158  1.00  0.00     0.040 A 
ATOM     85  C   UNL     1     -10.444  21.117   8.442  1.00  0.00     0.040 A 
ATOM     86  F   UNL     1      -9.235  19.258   9.211  1.00  0.00    -0.206 F 
ATOM     87  C   UNL     1     -11.113  21.786   7.418  1.00  0.00     0.006 A 
ENDBRANCH  63  80
ENDBRANCH  37  38
ENDBRANCH  29  32
ENDBRANCH  27  28
ENDBRANCH   1  27
TORSDOF 13
