REMARK SMILES C[C@H](Oc1ccc(-c2ccccc2)cc1)C(=O)N[C@H](C)C(=O)NCCCNC(=O)c1ccc(-c2c3nc(c(-c4c(F)cccc4F)c4ccc([nH]4)c(-c4c(F)cccc4F)c4nc(c(-c5c(F)cccc5F)c5ccc2[nH]5)C=C4)C=C3)cc1
REMARK SMILES IDX 21 1 22 2 23 3 19 5 20 6 18 7 16 8 17 9 2 11 1 12 3 13 4 14
REMARK SMILES IDX 5 15 15 16 6 17 14 18 7 19 8 20 9 21 13 22 10 23 12 24 11 25
REMARK SMILES IDX 24 26 25 27 26 28 27 29 28 30 29 32 30 33 31 34 83 35 32 36
REMARK SMILES IDX 82 37 33 38 34 39 35 40 76 41 36 42 81 43 75 44 77 45 37 46
REMARK SMILES IDX 80 47 74 48 73 49 38 51 64 52 47 53 63 54 48 55 51 56 62 57
REMARK SMILES IDX 78 58 49 59 50 60 61 62 79 63 52 64 39 65 40 66 45 67 41 68
REMARK SMILES IDX 42 69 44 70 46 71 43 72 65 73 66 74 71 75 67 76 68 77 70 78
REMARK SMILES IDX 72 79 69 80 53 81 54 82 59 83 55 84 56 85 58 86 60 87 57 88
REMARK H PARENT 23 4 18 10 27 31 77 50 51 61
REMARK Flexibility Score: inf
ROOT
ATOM      1  C   UNL     1      -1.284   3.601   1.203  1.00  0.00     0.242 C 
ATOM      2  O   UNL     1      -0.515   4.298   1.869  1.00  0.00    -0.273 OA
ATOM      3  N   UNL     1      -2.582   4.024   1.087  1.00  0.00    -0.354 N 
ATOM      4  H   UNL     1      -2.772   4.883   1.528  1.00  0.00     0.163 HD
ENDROOT
BRANCH   1   5
ATOM      5  C   UNL     1      -0.844   2.220   0.663  1.00  0.00     0.168 C 
ATOM      6  C   UNL     1      -1.382   1.199   1.648  1.00  0.00     0.041 C 
BRANCH   5   7
ATOM      7  N   UNL     1      -1.206   2.141  -0.761  1.00  0.00    -0.341 N 
ATOM      8  C   UNL     1      -1.365   1.174  -1.701  1.00  0.00     0.261 C 
ATOM      9  O   UNL     1      -1.494   1.573  -2.865  1.00  0.00    -0.271 OA
ATOM     10  H   UNL     1      -1.381   3.035  -1.135  1.00  0.00     0.164 HD
BRANCH   8  11
ATOM     11  C   UNL     1      -1.528  -0.317  -1.382  1.00  0.00     0.258 C 
ATOM     12  C   UNL     1      -2.912  -0.517  -0.764  1.00  0.00     0.064 C 
BRANCH  11  13
ATOM     13  O   UNL     1      -0.331  -0.729  -0.737  1.00  0.00    -0.481 OA
BRANCH  13  14
ATOM     14  C   UNL     1      -0.217  -1.719   0.180  1.00  0.00     0.120 A 
ATOM     15  C   UNL     1      -1.183  -2.629   0.576  1.00  0.00     0.047 A 
ATOM     16  C   UNL     1       1.007  -1.703   0.855  1.00  0.00     0.047 A 
ATOM     17  C   UNL     1      -0.995  -3.386   1.740  1.00  0.00     0.012 A 
ATOM     18  C   UNL     1       1.210  -2.485   1.994  1.00  0.00     0.012 A 
ATOM     19  C   UNL     1       0.189  -3.304   2.493  1.00  0.00    -0.018 A 
BRANCH  19  20
ATOM     20  C   UNL     1       0.334  -4.023   3.775  1.00  0.00    -0.018 A 
ATOM     21  C   UNL     1      -0.162  -5.327   3.942  1.00  0.00     0.009 A 
ATOM     22  C   UNL     1       0.941  -3.412   4.889  1.00  0.00     0.009 A 
ATOM     23  C   UNL     1      -0.065  -5.989   5.169  1.00  0.00     0.001 A 
ATOM     24  C   UNL     1       1.046  -4.075   6.115  1.00  0.00     0.001 A 
ATOM     25  C   UNL     1       0.539  -5.363   6.255  1.00  0.00     0.000 A 
ENDBRANCH  19  20
ENDBRANCH  13  14
ENDBRANCH  11  13
ENDBRANCH   8  11
ENDBRANCH   5   7
ENDBRANCH   1   5
BRANCH   3  26
ATOM     26  C   UNL     1      -3.728   3.420   0.423  1.00  0.00     0.117 C 
BRANCH  26  27
ATOM     27  C   UNL     1      -4.723   2.772   1.381  1.00  0.00     0.042 C 
BRANCH  27  28
ATOM     28  C   UNL     1      -5.407   3.734   2.339  1.00  0.00     0.118 C 
BRANCH  28  29
ATOM     29  N   UNL     1      -6.220   4.724   1.653  1.00  0.00    -0.352 N 
ATOM     30  C   UNL     1      -7.557   5.010   1.756  1.00  0.00     0.251 C 
ATOM     31  H   UNL     1      -5.729   5.281   1.007  1.00  0.00     0.163 HD
ATOM     32  O   UNL     1      -8.066   5.775   0.941  1.00  0.00    -0.269 OA
BRANCH  30  33
ATOM     33  C   UNL     1      -8.397   4.411   2.819  1.00  0.00     0.039 A 
ATOM     34  C   UNL     1      -9.726   4.097   2.517  1.00  0.00     0.014 A 
ATOM     35  C   UNL     1      -7.921   4.217   4.119  1.00  0.00     0.014 A 
ATOM     36  C   UNL     1     -10.561   3.562   3.500  1.00  0.00     0.010 A 
ATOM     37  C   UNL     1      -8.727   3.603   5.075  1.00  0.00     0.010 A 
ATOM     38  C   UNL     1     -10.063   3.292   4.784  1.00  0.00    -0.014 A 
BRANCH  38  39
ATOM     39  C   UNL     1     -10.938   2.729   5.842  1.00  0.00     0.031 A 
ATOM     40  C   UNL     1     -11.242   3.532   7.078  1.00  0.00     0.074 A 
ATOM     41  C   UNL     1     -11.423   1.479   5.717  1.00  0.00     0.049 A 
ATOM     42  N   UNL     1     -11.942   3.197   8.133  1.00  0.00    -0.248 NA
ATOM     43  C   UNL     1     -10.654   4.879   7.152  1.00  0.00     0.031 C 
ATOM     44  C   UNL     1     -11.158   0.578   4.594  1.00  0.00     0.029 A 
ATOM     45  N   UNL     1     -12.232   0.748   6.548  1.00  0.00    -0.354 N 
ATOM     46  C   UNL     1     -11.867   4.283   8.996  1.00  0.00     0.074 A 
ATOM     47  C   UNL     1     -11.002   5.260   8.371  1.00  0.00     0.031 C 
ATOM     48  C   UNL     1     -11.807  -0.579   4.800  1.00  0.00     0.029 A 
ATOM     49  C   UNL     1     -12.509  -0.512   6.078  1.00  0.00     0.049 A 
ATOM     50  H   UNL     1     -12.582   1.094   7.402  1.00  0.00     0.167 HD
ATOM     51  C   UNL     1     -12.484   4.465  10.189  1.00  0.00     0.037 A 
ATOM     52  C   UNL     1     -13.243  -1.503   6.617  1.00  0.00     0.037 A 
ATOM     53  C   UNL     1     -13.361   3.502  10.800  1.00  0.00     0.049 A 
ATOM     54  C   UNL     1     -13.938  -1.274   7.930  1.00  0.00     0.074 A 
ATOM     55  C   UNL     1     -14.072   3.608  11.982  1.00  0.00     0.029 A 
ATOM     56  N   UNL     1     -13.649   2.252  10.271  1.00  0.00    -0.354 N 
ATOM     57  N   UNL     1     -13.908  -0.218   8.707  1.00  0.00    -0.248 NA
ATOM     58  C   UNL     1     -14.780  -2.367   8.433  1.00  0.00     0.031 C 
ATOM     59  C   UNL     1     -14.763   2.408  12.187  1.00  0.00     0.029 A 
ATOM     60  C   UNL     1     -14.518   1.572  11.109  1.00  0.00     0.049 A 
ATOM     61  H   UNL     1     -13.289   1.900   9.425  1.00  0.00     0.167 HD
ATOM     62  C   UNL     1     -14.743  -0.509   9.778  1.00  0.00     0.074 A 
ATOM     63  C   UNL     1     -15.277  -1.835   9.541  1.00  0.00     0.031 C 
ATOM     64  C   UNL     1     -15.041   0.253  10.859  1.00  0.00     0.037 A 
BRANCH  51  65
ATOM     65  C   UNL     1     -12.227   5.761  10.902  1.00  0.00     0.057 A 
ATOM     66  C   UNL     1     -12.720   6.981  10.416  1.00  0.00     0.134 A 
ATOM     67  C   UNL     1     -11.482   5.795  12.087  1.00  0.00     0.134 A 
ATOM     68  F   UNL     1     -13.430   7.021   9.278  1.00  0.00    -0.206 F 
ATOM     69  C   UNL     1     -12.449   8.189  11.061  1.00  0.00     0.040 A 
ATOM     70  C   UNL     1     -11.229   6.994  12.757  1.00  0.00     0.040 A 
ATOM     71  F   UNL     1     -10.985   4.665  12.612  1.00  0.00    -0.206 F 
ATOM     72  C   UNL     1     -11.705   8.196  12.238  1.00  0.00     0.006 A 
ENDBRANCH  51  65
BRANCH  52  73
ATOM     73  C   UNL     1     -13.383  -2.790   5.893  1.00  0.00     0.057 A 
ATOM     74  C   UNL     1     -14.585  -3.144   5.271  1.00  0.00     0.134 A 
ATOM     75  C   UNL     1     -12.312  -3.686   5.789  1.00  0.00     0.134 A 
ATOM     76  F   UNL     1     -15.650  -2.332   5.350  1.00  0.00    -0.206 F 
ATOM     77  C   UNL     1     -14.724  -4.350   4.582  1.00  0.00     0.040 A 
ATOM     78  C   UNL     1     -12.430  -4.885   5.084  1.00  0.00     0.040 A 
ATOM     79  F   UNL     1     -11.131  -3.399   6.354  1.00  0.00    -0.206 F 
ATOM     80  C   UNL     1     -13.641  -5.221   4.482  1.00  0.00     0.006 A 
ENDBRANCH  52  73
BRANCH  64  81
ATOM     81  C   UNL     1     -16.010  -0.319  11.852  1.00  0.00     0.057 A 
ATOM     82  C   UNL     1     -15.654  -1.361  12.717  1.00  0.00     0.134 A 
ATOM     83  C   UNL     1     -17.305   0.203  11.964  1.00  0.00     0.134 A 
ATOM     84  F   UNL     1     -14.433  -1.913  12.650  1.00  0.00    -0.206 F 
ATOM     85  C   UNL     1     -16.560  -1.881  13.642  1.00  0.00     0.040 A 
ATOM     86  C   UNL     1     -18.211  -0.291  12.902  1.00  0.00     0.040 A 
ATOM     87  F   UNL     1     -17.706   1.208  11.171  1.00  0.00    -0.206 F 
ATOM     88  C   UNL     1     -17.842  -1.341  13.741  1.00  0.00     0.006 A 
ENDBRANCH  64  81
ENDBRANCH  38  39
ENDBRANCH  30  33
ENDBRANCH  28  29
ENDBRANCH  27  28
ENDBRANCH  26  27
ENDBRANCH   3  26
TORSDOF 15
