REMARK SMILES Cc1c(Cl)cc2c(c1C)O[C@H](C(F)(F)F)C(C(=O)NCCCNC(=O)c1ccc(-c3c4nc(c(-c5c(F)cccc5F)c5ccc([nH]5)c(-c5c(F)cccc5F)c5nc(c(-c6c(F)cccc6F)c6ccc3[nH]6)C=C5)C=C4)cc1)=C2
REMARK SMILES IDX 21 1 20 2 19 3 17 4 18 5 16 7 1 8 2 9 3 10 8 11 4 12 5 13
REMARK SMILES IDX 7 14 9 15 6 16 10 17 80 18 11 19 12 20 13 21 14 22 15 23
REMARK SMILES IDX 22 24 23 25 24 26 25 28 26 29 27 30 79 31 28 32 78 33 29 34
REMARK SMILES IDX 30 35 31 36 72 37 32 38 77 39 71 40 73 41 33 42 76 43 70 44
REMARK SMILES IDX 69 45 34 47 60 48 43 49 59 50 44 51 47 52 58 53 74 54 45 55
REMARK SMILES IDX 46 56 57 58 75 59 48 60 35 61 36 62 41 63 37 64 38 65 40 66
REMARK SMILES IDX 42 67 39 68 61 69 62 70 67 71 63 72 64 73 66 74 68 75 65 76
REMARK SMILES IDX 49 77 50 78 55 79 51 80 52 81 54 82 56 83 53 84
REMARK H PARENT 19 6 23 27 73 46 47 57
REMARK Flexibility Score: inf
ROOT
ATOM      1  C   UNL     1      -1.371  -3.128   8.970  1.00  0.00     0.042 C 
ENDROOT
BRANCH   1   2
ATOM      2  C   UNL     1      -2.378  -2.297   8.190  1.00  0.00     0.118 C 
BRANCH   2   3
ATOM      3  N   UNL     1      -2.075  -0.875   8.258  1.00  0.00    -0.352 N 
ATOM      4  C   UNL     1      -1.591   0.078   7.428  1.00  0.00     0.251 C 
ATOM      5  O   UNL     1      -1.491   1.204   7.923  1.00  0.00    -0.270 OA
ATOM      6  H   UNL     1      -2.277  -0.507   9.148  1.00  0.00     0.163 HD
BRANCH   4   7
ATOM      7  C   UNL     1      -1.184  -0.147   6.012  1.00  0.00     0.067 C 
ATOM      8  C   UNL     1       1.009   0.198  -0.140  1.00  0.00     0.046 C 
ATOM      9  C   UNL     1       0.561   0.379   1.288  1.00  0.00    -0.026 A 
ATOM     10  C   UNL     1       0.507   1.665   1.869  1.00  0.00     0.045 A 
ATOM     11  C   UNL     1       0.251  -0.739   2.096  1.00  0.00    -0.004 A 
ATOM     12  Cl  UNL     1       0.960   3.089   0.995  1.00  0.00    -0.084 Cl
ATOM     13  C   UNL     1       0.100   1.849   3.196  1.00  0.00     0.032 A 
ATOM     14  C   UNL     1      -0.175  -0.527   3.422  1.00  0.00     0.131 A 
ATOM     15  C   UNL     1       0.315  -2.163   1.600  1.00  0.00     0.049 C 
ATOM     16  C   UNL     1      -0.253   0.752   3.976  1.00  0.00     0.019 A 
ATOM     17  O   UNL     1      -0.460  -1.641   4.165  1.00  0.00    -0.475 OA
ATOM     18  C   UNL     1      -0.656   0.910   5.369  1.00  0.00     0.025 C 
ATOM     19  C   UNL     1      -1.353  -1.451   5.290  1.00  0.00     0.314 C 
BRANCH  19  20
ATOM     20  C   UNL     1      -2.806  -1.705   4.845  1.00  0.00     0.429 C 
ATOM     21  F   UNL     1      -2.986  -3.018   4.556  1.00  0.00    -0.167 F 
ATOM     22  F   UNL     1      -3.707  -1.399   5.810  1.00  0.00    -0.167 F 
ATOM     23  F   UNL     1      -3.152  -0.996   3.748  1.00  0.00    -0.167 F 
ENDBRANCH  19  20
ENDBRANCH   4   7
ENDBRANCH   2   3
ENDBRANCH   1   2
BRANCH   1  24
ATOM     24  C   UNL     1      -1.642  -3.094  10.468  1.00  0.00     0.118 C 
BRANCH  24  25
ATOM     25  N   UNL     1      -2.921  -3.719  10.801  1.00  0.00    -0.352 N 
ATOM     26  C   UNL     1      -3.188  -4.926  11.395  1.00  0.00     0.251 C 
ATOM     27  H   UNL     1      -3.715  -3.190  10.560  1.00  0.00     0.163 HD
ATOM     28  O   UNL     1      -4.319  -5.401  11.339  1.00  0.00    -0.269 OA
BRANCH  26  29
ATOM     29  C   UNL     1      -2.115  -5.653  12.096  1.00  0.00     0.039 A 
ATOM     30  C   UNL     1      -2.025  -7.040  11.962  1.00  0.00     0.014 A 
ATOM     31  C   UNL     1      -1.206  -4.962  12.900  1.00  0.00     0.014 A 
ATOM     32  C   UNL     1      -0.976  -7.722  12.580  1.00  0.00     0.010 A 
ATOM     33  C   UNL     1      -0.107  -5.625  13.428  1.00  0.00     0.010 A 
ATOM     34  C   UNL     1       0.012  -7.014  13.284  1.00  0.00    -0.014 A 
BRANCH  34  35
ATOM     35  C   UNL     1       1.170  -7.707  13.896  1.00  0.00     0.031 A 
ATOM     36  C   UNL     1       1.362  -7.666  15.387  1.00  0.00     0.074 A 
ATOM     37  C   UNL     1       2.072  -8.319  13.105  1.00  0.00     0.049 A 
ATOM     38  N   UNL     1       2.339  -8.157  16.105  1.00  0.00    -0.248 NA
ATOM     39  C   UNL     1       0.340  -6.955  16.175  1.00  0.00     0.031 C 
ATOM     40  C   UNL     1       2.015  -8.377  11.643  1.00  0.00     0.029 A 
ATOM     41  N   UNL     1       3.215  -9.009  13.419  1.00  0.00    -0.354 N 
ATOM     42  C   UNL     1       2.052  -7.809  17.418  1.00  0.00     0.074 A 
ATOM     43  C   UNL     1       0.848  -7.011  17.397  1.00  0.00     0.031 C 
ATOM     44  C   UNL     1       3.054  -9.097  11.190  1.00  0.00     0.029 A 
ATOM     45  C   UNL     1       3.871  -9.517  12.323  1.00  0.00     0.049 A 
ATOM     46  H   UNL     1       3.535  -9.130  14.342  1.00  0.00     0.167 HD
ATOM     47  C   UNL     1       2.714  -8.157  18.545  1.00  0.00     0.037 A 
ATOM     48  C   UNL     1       5.004 -10.242  12.245  1.00  0.00     0.037 A 
ATOM     49  C   UNL     1       3.888  -8.986  18.562  1.00  0.00     0.049 A 
ATOM     50  C   UNL     1       5.723 -10.608  13.514  1.00  0.00     0.074 A 
ATOM     51  C   UNL     1       4.601  -9.441  19.656  1.00  0.00     0.029 A 
ATOM     52  N   UNL     1       4.514  -9.489  17.433  1.00  0.00    -0.354 N 
ATOM     53  N   UNL     1       5.403 -10.326  14.754  1.00  0.00    -0.248 NA
ATOM     54  C   UNL     1       6.956 -11.396  13.377  1.00  0.00     0.031 C 
ATOM     55  C   UNL     1       5.685 -10.187  19.187  1.00  0.00     0.029 A 
ATOM     56  C   UNL     1       5.618 -10.237  17.804  1.00  0.00     0.049 A 
ATOM     57  H   UNL     1       4.218  -9.338  16.506  1.00  0.00     0.167 HD
ATOM     58  C   UNL     1       6.377 -10.923  15.543  1.00  0.00     0.074 A 
ATOM     59  C   UNL     1       7.292 -11.594  14.644  1.00  0.00     0.031 C 
ATOM     60  C   UNL     1       6.504 -10.913  16.892  1.00  0.00     0.037 A 
BRANCH  47  61
ATOM     61  C   UNL     1       2.171  -7.677  19.858  1.00  0.00     0.057 A 
ATOM     62  C   UNL     1       0.994  -8.207  20.401  1.00  0.00     0.134 A 
ATOM     63  C   UNL     1       2.872  -6.739  20.625  1.00  0.00     0.134 A 
ATOM     64  F   UNL     1       0.268  -9.100  19.709  1.00  0.00    -0.206 F 
ATOM     65  C   UNL     1       0.529  -7.818  21.658  1.00  0.00     0.040 A 
ATOM     66  C   UNL     1       2.432  -6.360  21.894  1.00  0.00     0.040 A 
ATOM     67  F   UNL     1       4.009  -6.194  20.165  1.00  0.00    -0.206 F 
ATOM     68  C   UNL     1       1.257  -6.901  22.413  1.00  0.00     0.006 A 
ENDBRANCH  47  61
BRANCH  48  69
ATOM     69  C   UNL     1       5.506 -10.699  10.924  1.00  0.00     0.057 A 
ATOM     70  C   UNL     1       5.478 -12.053  10.573  1.00  0.00     0.134 A 
ATOM     71  C   UNL     1       6.023  -9.801   9.982  1.00  0.00     0.134 A 
ATOM     72  F   UNL     1       5.009 -12.965  11.437  1.00  0.00    -0.206 F 
ATOM     73  C   UNL     1       5.963 -12.502   9.343  1.00  0.00     0.040 A 
ATOM     74  C   UNL     1       6.487 -10.232   8.738  1.00  0.00     0.040 A 
ATOM     75  F   UNL     1       6.069  -8.488  10.252  1.00  0.00    -0.206 F 
ATOM     76  C   UNL     1       6.465 -11.588   8.419  1.00  0.00     0.006 A 
ENDBRANCH  48  69
BRANCH  60  77
ATOM     77  C   UNL     1       7.651 -11.670  17.490  1.00  0.00     0.057 A 
ATOM     78  C   UNL     1       8.963 -11.188  17.423  1.00  0.00     0.134 A 
ATOM     79  C   UNL     1       7.425 -12.840  18.227  1.00  0.00     0.134 A 
ATOM     80  F   UNL     1       9.244 -10.077  16.725  1.00  0.00    -0.206 F 
ATOM     81  C   UNL     1      10.013 -11.846  18.063  1.00  0.00     0.040 A 
ATOM     82  C   UNL     1       8.461 -13.493  18.893  1.00  0.00     0.040 A 
ATOM     83  F   UNL     1       6.187 -13.345  18.339  1.00  0.00    -0.206 F 
ATOM     84  C   UNL     1       9.761 -12.996  18.811  1.00  0.00     0.006 A 
ENDBRANCH  60  77
ENDBRANCH  34  35
ENDBRANCH  26  29
ENDBRANCH  24  25
ENDBRANCH   1  24
TORSDOF 11
