REMARK SMILES O=C(NCCCNC(=O)[C@@H]1CCCC[C@@H]1NS(=O)(=O)c1ccc2ccccc2c1)c1ccc(-c2c3nc(c(-c4c(F)cccc4F)c4ccc([nH]4)c(-c4c(F)cccc4F)c4nc(c(-c5c(F)cccc5F)c5ccc2[nH]5)C=C4)C=C3)cc1
REMARK SMILES IDX 5 1 4 2 3 3 1 4 2 5 30 7 31 8 83 9 32 10 82 11 33 12 34 13
REMARK SMILES IDX 35 14 76 15 36 16 81 17 75 18 77 19 37 20 80 21 74 22 73 23
REMARK SMILES IDX 38 25 64 26 47 27 63 28 48 29 51 30 62 31 78 32 49 33 50 34
REMARK SMILES IDX 61 36 79 37 52 38 39 39 40 40 45 41 41 42 42 43 44 44 46 45
REMARK SMILES IDX 43 46 65 47 66 48 71 49 67 50 68 51 70 52 72 53 69 54 53 55
REMARK SMILES IDX 54 56 59 57 55 58 56 59 58 60 60 61 57 62 6 63 7 64 8 65
REMARK SMILES IDX 9 67 10 68 11 69 15 70 12 71 14 72 13 73 16 74 17 76 18 77
REMARK SMILES IDX 19 78 20 79 21 80 29 81 22 82 28 83 23 84 27 85 24 86 26 87
REMARK SMILES IDX 25 88
REMARK H PARENT 3 6 77 24 51 35 7 66 16 75
REMARK Flexibility Score: inf
ROOT
ATOM      1  C   UNL     1       5.117  -1.786   0.807  1.00  0.00     0.042 C 
ENDROOT
BRANCH   1   2
ATOM      2  C   UNL     1       4.565  -1.387  -0.548  1.00  0.00     0.118 C 
BRANCH   2   3
ATOM      3  N   UNL     1       3.134  -1.090  -0.512  1.00  0.00    -0.352 N 
ATOM      4  O   UNL     1       1.225   0.047  -0.198  1.00  0.00    -0.269 OA
ATOM      5  C   UNL     1       2.432   0.088  -0.423  1.00  0.00     0.251 C 
ATOM      6  H   UNL     1       2.561  -1.890  -0.560  1.00  0.00     0.163 HD
BRANCH   5   7
ATOM      7  C   UNL     1       3.103   1.399  -0.557  1.00  0.00     0.039 A 
ATOM      8  C   UNL     1       4.188   1.563  -1.411  1.00  0.00     0.014 A 
ATOM      9  C   UNL     1       2.614   2.504   0.152  1.00  0.00     0.014 A 
ATOM     10  C   UNL     1       4.916   2.741  -1.392  1.00  0.00     0.010 A 
ATOM     11  C   UNL     1       3.260   3.742   0.055  1.00  0.00     0.010 A 
ATOM     12  C   UNL     1       4.440   3.859  -0.692  1.00  0.00    -0.014 A 
BRANCH  12  13
ATOM     13  C   UNL     1       5.155   5.148  -0.860  1.00  0.00     0.031 A 
ATOM     14  C   UNL     1       5.809   5.842   0.299  1.00  0.00     0.074 A 
ATOM     15  C   UNL     1       5.256   5.656  -2.104  1.00  0.00     0.049 A 
ATOM     16  N   UNL     1       6.506   6.949   0.317  1.00  0.00    -0.248 NA
ATOM     17  C   UNL     1       5.657   5.214   1.616  1.00  0.00     0.031 C 
ATOM     18  C   UNL     1       4.657   5.066  -3.306  1.00  0.00     0.029 A 
ATOM     19  N   UNL     1       5.920   6.756  -2.572  1.00  0.00    -0.354 N 
ATOM     20  C   UNL     1       6.859   7.155   1.645  1.00  0.00     0.074 A 
ATOM     21  C   UNL     1       6.273   6.077   2.410  1.00  0.00     0.031 C 
ATOM     22  C   UNL     1       5.034   5.772  -4.378  1.00  0.00     0.029 A 
ATOM     23  C   UNL     1       5.824   6.912  -3.933  1.00  0.00     0.049 A 
ATOM     24  H   UNL     1       6.418   7.376  -1.991  1.00  0.00     0.167 HD
ATOM     25  C   UNL     1       7.608   8.152   2.174  1.00  0.00     0.037 A 
ATOM     26  C   UNL     1       6.295   7.883  -4.734  1.00  0.00     0.037 A 
ATOM     27  C   UNL     1       8.181   9.220   1.397  1.00  0.00     0.049 A 
ATOM     28  C   UNL     1       7.079   9.001  -4.117  1.00  0.00     0.074 A 
ATOM     29  C   UNL     1       8.963  10.278   1.826  1.00  0.00     0.029 A 
ATOM     30  N   UNL     1       8.023   9.368   0.027  1.00  0.00    -0.354 N 
ATOM     31  N   UNL     1       7.426   9.171  -2.864  1.00  0.00    -0.248 NA
ATOM     32  C   UNL     1       7.528  10.065  -5.021  1.00  0.00     0.031 C 
ATOM     33  C   UNL     1       9.231  11.096   0.723  1.00  0.00     0.029 A 
ATOM     34  C   UNL     1       8.665  10.517  -0.403  1.00  0.00     0.049 A 
ATOM     35  H   UNL     1       7.527   8.748  -0.555  1.00  0.00     0.167 HD
ATOM     36  C   UNL     1       8.148  10.355  -2.829  1.00  0.00     0.074 A 
ATOM     37  C   UNL     1       8.206  10.846  -4.192  1.00  0.00     0.031 C 
ATOM     38  C   UNL     1       8.708  10.982  -1.766  1.00  0.00     0.037 A 
BRANCH  25  39
ATOM     39  C   UNL     1       7.820   8.150   3.662  1.00  0.00     0.057 A 
ATOM     40  C   UNL     1       8.640   7.208   4.296  1.00  0.00     0.134 A 
ATOM     41  C   UNL     1       7.212   9.120   4.469  1.00  0.00     0.134 A 
ATOM     42  F   UNL     1       9.240   6.240   3.587  1.00  0.00    -0.206 F 
ATOM     43  C   UNL     1       8.831   7.218   5.681  1.00  0.00     0.040 A 
ATOM     44  C   UNL     1       7.414   9.156   5.850  1.00  0.00     0.040 A 
ATOM     45  F   UNL     1       6.415  10.054   3.928  1.00  0.00    -0.206 F 
ATOM     46  C   UNL     1       8.221   8.198   6.461  1.00  0.00     0.006 A 
ENDBRANCH  25  39
BRANCH  26  47
ATOM     47  C   UNL     1       6.011   7.837  -6.189  1.00  0.00     0.057 A 
ATOM     48  C   UNL     1       7.028   7.613  -7.121  1.00  0.00     0.134 A 
ATOM     49  C   UNL     1       4.707   7.986  -6.679  1.00  0.00     0.134 A 
ATOM     50  F   UNL     1       8.299   7.473  -6.715  1.00  0.00    -0.206 F 
ATOM     51  C   UNL     1       6.762   7.550  -8.490  1.00  0.00     0.040 A 
ATOM     52  C   UNL     1       4.421   7.895  -8.040  1.00  0.00     0.040 A 
ATOM     53  F   UNL     1       3.685   8.188  -5.834  1.00  0.00    -0.206 F 
ATOM     54  C   UNL     1       5.453   7.683  -8.952  1.00  0.00     0.006 A 
ENDBRANCH  26  47
BRANCH  38  55
ATOM     55  C   UNL     1       9.455  12.251  -2.048  1.00  0.00     0.057 A 
ATOM     56  C   UNL     1       8.793  13.438  -2.383  1.00  0.00     0.134 A 
ATOM     57  C   UNL     1      10.852  12.289  -1.954  1.00  0.00     0.134 A 
ATOM     58  F   UNL     1       7.457  13.462  -2.504  1.00  0.00    -0.206 F 
ATOM     59  C   UNL     1       9.498  14.615  -2.640  1.00  0.00     0.040 A 
ATOM     60  C   UNL     1      11.564  13.465  -2.180  1.00  0.00     0.040 A 
ATOM     61  F   UNL     1      11.543  11.185  -1.629  1.00  0.00    -0.206 F 
ATOM     62  C   UNL     1      10.887  14.631  -2.531  1.00  0.00     0.006 A 
ENDBRANCH  38  55
ENDBRANCH  12  13
ENDBRANCH   5   7
ENDBRANCH   2   3
ENDBRANCH   1   2
BRANCH   1  63
ATOM     63  C   UNL     1       4.511  -3.071   1.331  1.00  0.00     0.117 C 
BRANCH  63  64
ATOM     64  N   UNL     1       5.135  -4.245   0.773  1.00  0.00    -0.356 N 
ATOM     65  C   UNL     1       5.773  -5.309   1.304  1.00  0.00     0.224 C 
ATOM     66  H   UNL     1       5.084  -4.277  -0.210  1.00  0.00     0.163 HD
ATOM     67  O   UNL     1       6.236  -6.086   0.456  1.00  0.00    -0.275 OA
BRANCH  65  68
ATOM     68  C   UNL     1       6.005  -5.596   2.799  1.00  0.00     0.096 C 
ATOM     69  C   UNL     1       5.788  -7.116   3.006  1.00  0.00     0.015 C 
ATOM     70  C   UNL     1       5.313  -4.790   3.926  1.00  0.00     0.082 C 
ATOM     71  C   UNL     1       6.198  -7.593   4.394  1.00  0.00     0.001 C 
ATOM     72  C   UNL     1       5.781  -5.294   5.297  1.00  0.00     0.021 C 
ATOM     73  C   UNL     1       5.529  -6.783   5.492  1.00  0.00     0.002 C 
BRANCH  70  74
ATOM     74  N   UNL     1       3.843  -4.843   3.784  1.00  0.00    -0.207 NA
ATOM     75  H   UNL     1       3.614  -5.837   3.751  1.00  0.00     0.141 HD
BRANCH  74  76
ATOM     76  S   UNL     1       2.726  -4.167   4.837  1.00  0.00     0.240 S 
ATOM     77  O   UNL     1       1.510  -4.040   4.057  1.00  0.00    -0.207 OA
ATOM     78  O   UNL     1       2.752  -4.915   6.068  1.00  0.00    -0.207 OA
BRANCH  76  79
ATOM     79  C   UNL     1       3.306  -2.520   5.171  1.00  0.00     0.083 A 
ATOM     80  C   UNL     1       3.783  -2.206   6.446  1.00  0.00     0.022 A 
ATOM     81  C   UNL     1       3.211  -1.527   4.193  1.00  0.00     0.030 A 
ATOM     82  C   UNL     1       4.225  -0.911   6.725  1.00  0.00     0.010 A 
ATOM     83  C   UNL     1       3.687  -0.231   4.455  1.00  0.00    -0.017 A 
ATOM     84  C   UNL     1       4.205   0.081   5.734  1.00  0.00    -0.018 A 
ATOM     85  C   UNL     1       3.659   0.767   3.473  1.00  0.00     0.009 A 
ATOM     86  C   UNL     1       4.681   1.378   5.991  1.00  0.00     0.009 A 
ATOM     87  C   UNL     1       4.148   2.044   3.740  1.00  0.00     0.001 A 
ATOM     88  C   UNL     1       4.662   2.353   4.994  1.00  0.00     0.001 A 
ENDBRANCH  76  79
ENDBRANCH  74  76
ENDBRANCH  70  74
ENDBRANCH  65  68
ENDBRANCH  63  64
ENDBRANCH   1  63
TORSDOF 13
