REMARK SMILES COC[C@@H](C)CC(=O)N1CC(CC(=O)NCCCNC(=O)c2ccc(-c3c4nc(c(-c5c(F)cccc5F)c5ccc([nH]5)c(-c5c(F)cccc5F)c5nc(c(-c6c(F)cccc6F)c6ccc3[nH]6)C=C5)C=C4)cc2)C1
REMARK SMILES IDX 13 1 14 2 15 3 12 5 11 6 7 7 8 8 9 9 10 10 76 11 6 12 4 13
REMARK SMILES IDX 5 14 3 15 2 16 1 17 16 18 17 19 18 20 19 21 20 22 21 24
REMARK SMILES IDX 22 25 23 26 75 27 24 28 74 29 25 30 26 31 27 32 68 33 28 34
REMARK SMILES IDX 73 35 67 36 69 37 29 38 72 39 66 40 65 41 30 43 56 44 39 45
REMARK SMILES IDX 55 46 40 47 43 48 54 49 70 50 41 51 42 52 53 54 71 55 44 56
REMARK SMILES IDX 31 57 32 58 37 59 33 60 34 61 36 62 38 63 35 64 57 65 58 66
REMARK SMILES IDX 63 67 59 68 60 69 62 70 64 71 61 72 45 73 46 74 51 75 47 76
REMARK SMILES IDX 48 77 50 78 52 79 49 80
REMARK H PARENT 15 4 19 23 69 42 43 53
REMARK Flexibility Score: inf
ROOT
ATOM      1  C   UNL     1       0.386   1.502  -6.407  1.00  0.00     0.220 C 
ATOM      2  O   UNL     1      -0.577   1.566  -7.174  1.00  0.00    -0.275 OA
ATOM      3  N   UNL     1       0.669   0.291  -5.849  1.00  0.00    -0.356 N 
ATOM      4  H   UNL     1       0.091  -0.442  -6.161  1.00  0.00     0.163 HD
ENDROOT
BRANCH   1   5
ATOM      5  C   UNL     1       1.184   2.752  -6.073  1.00  0.00     0.107 C 
BRANCH   5   6
ATOM      6  C   UNL     1       0.473   3.633  -5.049  1.00  0.00     0.037 C 
ATOM      7  C   UNL     1       0.643   5.056  -2.047  1.00  0.00     0.222 C 
ATOM      8  O   UNL     1      -0.031   6.083  -2.046  1.00  0.00    -0.275 OA
ATOM      9  N   UNL     1       1.047   4.429  -3.204  1.00  0.00    -0.342 N 
ATOM     10  C   UNL     1       1.085   4.959  -4.567  1.00  0.00     0.125 C 
ATOM     11  C   UNL     1       0.632   3.110  -3.630  1.00  0.00     0.125 C 
BRANCH   7  12
ATOM     12  C   UNL     1       1.249   4.494  -0.758  1.00  0.00     0.106 C 
BRANCH  12  13
ATOM     13  C   UNL     1       0.512   3.360  -0.014  1.00  0.00     0.021 C 
ATOM     14  C   UNL     1       0.928   3.364   1.464  1.00  0.00     0.010 C 
BRANCH  13  15
ATOM     15  C   UNL     1       0.805   1.990  -0.641  1.00  0.00     0.163 C 
BRANCH  15  16
ATOM     16  O   UNL     1       0.407   0.882   0.157  1.00  0.00    -0.384 OA
ATOM     17  C   UNL     1       1.502   0.126   0.651  1.00  0.00     0.194 C 
ENDBRANCH  15  16
ENDBRANCH  13  15
ENDBRANCH  12  13
ENDBRANCH   7  12
ENDBRANCH   5   6
ENDBRANCH   1   5
BRANCH   3  18
ATOM     18  C   UNL     1       1.671  -0.113  -4.874  1.00  0.00     0.117 C 
BRANCH  18  19
ATOM     19  C   UNL     1       1.079  -0.273  -3.474  1.00  0.00     0.042 C 
BRANCH  19  20
ATOM     20  C   UNL     1       0.337  -1.577  -3.204  1.00  0.00     0.118 C 
BRANCH  20  21
ATOM     21  N   UNL     1       1.227  -2.691  -2.923  1.00  0.00    -0.352 N 
ATOM     22  C   UNL     1       1.369  -3.491  -1.811  1.00  0.00     0.251 C 
ATOM     23  H   UNL     1       1.839  -2.914  -3.661  1.00  0.00     0.163 HD
ATOM     24  O   UNL     1       2.308  -4.281  -1.783  1.00  0.00    -0.269 OA
BRANCH  22  25
ATOM     25  C   UNL     1       0.458  -3.411  -0.635  1.00  0.00     0.039 A 
ATOM     26  C   UNL     1       0.999  -3.660   0.636  1.00  0.00     0.014 A 
ATOM     27  C   UNL     1      -0.909  -3.152  -0.743  1.00  0.00     0.014 A 
ATOM     28  C   UNL     1       0.200  -3.572   1.785  1.00  0.00     0.010 A 
ATOM     29  C   UNL     1      -1.695  -3.002   0.406  1.00  0.00     0.010 A 
ATOM     30  C   UNL     1      -1.150  -3.213   1.682  1.00  0.00    -0.014 A 
BRANCH  30  31
ATOM     31  C   UNL     1      -2.016  -3.100   2.888  1.00  0.00     0.031 A 
ATOM     32  C   UNL     1      -3.124  -4.092   3.113  1.00  0.00     0.074 A 
ATOM     33  C   UNL     1      -1.853  -2.082   3.755  1.00  0.00     0.049 A 
ATOM     34  N   UNL     1      -4.018  -4.134   4.069  1.00  0.00    -0.248 NA
ATOM     35  C   UNL     1      -3.258  -5.169   2.119  1.00  0.00     0.031 C 
ATOM     36  C   UNL     1      -0.852  -1.023   3.637  1.00  0.00     0.029 A 
ATOM     37  N   UNL     1      -2.542  -1.759   4.899  1.00  0.00    -0.354 N 
ATOM     38  C   UNL     1      -4.827  -5.226   3.784  1.00  0.00     0.074 A 
ATOM     39  C   UNL     1      -4.345  -5.796   2.545  1.00  0.00     0.031 C 
ATOM     40  C   UNL     1      -0.990  -0.167   4.664  1.00  0.00     0.029 A 
ATOM     41  C   UNL     1      -2.105  -0.602   5.501  1.00  0.00     0.049 A 
ATOM     42  H   UNL     1      -3.281  -2.304   5.255  1.00  0.00     0.167 HD
ATOM     43  C   UNL     1      -5.866  -5.722   4.498  1.00  0.00     0.037 A 
ATOM     44  C   UNL     1      -2.557   0.042   6.595  1.00  0.00     0.037 A 
ATOM     45  C   UNL     1      -6.333  -5.178   5.745  1.00  0.00     0.049 A 
ATOM     46  C   UNL     1      -3.712  -0.531   7.371  1.00  0.00     0.074 A 
ATOM     47  C   UNL     1      -7.328  -5.663   6.577  1.00  0.00     0.029 A 
ATOM     48  N   UNL     1      -5.844  -4.025   6.337  1.00  0.00    -0.354 N 
ATOM     49  N   UNL     1      -4.409  -1.616   7.136  1.00  0.00    -0.248 NA
ATOM     50  C   UNL     1      -4.138   0.207   8.570  1.00  0.00     0.031 C 
ATOM     51  C   UNL     1      -7.468  -4.780   7.653  1.00  0.00     0.029 A 
ATOM     52  C   UNL     1      -6.532  -3.769   7.512  1.00  0.00     0.049 A 
ATOM     53  H   UNL     1      -5.115  -3.470   5.976  1.00  0.00     0.167 HD
ATOM     54  C   UNL     1      -5.332  -1.706   8.170  1.00  0.00     0.074 A 
ATOM     55  C   UNL     1      -5.101  -0.573   9.041  1.00  0.00     0.031 C 
ATOM     56  C   UNL     1      -6.286  -2.646   8.379  1.00  0.00     0.037 A 
BRANCH  43  57
ATOM     57  C   UNL     1      -6.570  -6.925   3.945  1.00  0.00     0.057 A 
ATOM     58  C   UNL     1      -5.979  -8.195   3.956  1.00  0.00     0.134 A 
ATOM     59  C   UNL     1      -7.869  -6.820   3.434  1.00  0.00     0.134 A 
ATOM     60  F   UNL     1      -4.731  -8.360   4.422  1.00  0.00    -0.206 F 
ATOM     61  C   UNL     1      -6.646  -9.314   3.456  1.00  0.00     0.040 A 
ATOM     62  C   UNL     1      -8.556  -7.936   2.953  1.00  0.00     0.040 A 
ATOM     63  F   UNL     1      -8.495  -5.634   3.401  1.00  0.00    -0.206 F 
ATOM     64  C   UNL     1      -7.941  -9.187   2.958  1.00  0.00     0.006 A 
ENDBRANCH  43  57
BRANCH  44  65
ATOM     65  C   UNL     1      -1.911   1.303   7.038  1.00  0.00     0.057 A 
ATOM     66  C   UNL     1      -1.139   1.349   8.204  1.00  0.00     0.134 A 
ATOM     67  C   UNL     1      -2.076   2.497   6.326  1.00  0.00     0.134 A 
ATOM     68  F   UNL     1      -0.964   0.243   8.942  1.00  0.00    -0.206 F 
ATOM     69  C   UNL     1      -0.572   2.541   8.660  1.00  0.00     0.040 A 
ATOM     70  C   UNL     1      -1.495   3.691   6.756  1.00  0.00     0.040 A 
ATOM     71  F   UNL     1      -2.803   2.518   5.199  1.00  0.00    -0.206 F 
ATOM     72  C   UNL     1      -0.747   3.716   7.932  1.00  0.00     0.006 A 
ENDBRANCH  44  65
BRANCH  56  73
ATOM     73  C   UNL     1      -7.128  -2.515   9.614  1.00  0.00     0.057 A 
ATOM     74  C   UNL     1      -8.127  -1.540   9.728  1.00  0.00     0.134 A 
ATOM     75  C   UNL     1      -6.965  -3.404  10.684  1.00  0.00     0.134 A 
ATOM     76  F   UNL     1      -8.324  -0.650   8.743  1.00  0.00    -0.206 F 
ATOM     77  C   UNL     1      -8.923  -1.444  10.870  1.00  0.00     0.040 A 
ATOM     78  C   UNL     1      -7.771  -3.332  11.821  1.00  0.00     0.040 A 
ATOM     79  F   UNL     1      -6.031  -4.365  10.635  1.00  0.00    -0.206 F 
ATOM     80  C   UNL     1      -8.751  -2.346  11.918  1.00  0.00     0.006 A 
ENDBRANCH  56  73
ENDBRANCH  30  31
ENDBRANCH  22  25
ENDBRANCH  20  21
ENDBRANCH  19  20
ENDBRANCH  18  19
ENDBRANCH   3  18
TORSDOF 15
