REMARK SMILES CCn1cc(/C=C/c2cc(C(=O)NCCCNC(=O)c3ccc(-c4c5nc(c(-c6c(F)cccc6F)c6ccc([nH]6)c(-c6c(F)cccc6F)c6nc(c(-c7c(F)cccc7F)c7ccc4[nH]7)C=C6)C=C5)cc3)ncn2)cn1
REMARK SMILES IDX 14 1 13 2 11 3 12 4 10 6 8 7 9 8 76 9 75 10 74 11 7 12 6 13
REMARK SMILES IDX 5 14 3 15 4 16 78 17 77 18 2 19 1 20 15 21 16 22 17 23 18 24
REMARK SMILES IDX 19 26 20 27 21 28 73 29 22 30 72 31 23 32 24 33 25 34 66 35
REMARK SMILES IDX 26 36 71 37 65 38 67 39 27 40 70 41 64 42 63 43 28 45 54 46
REMARK SMILES IDX 37 47 53 48 38 49 41 50 52 51 68 52 39 53 40 54 51 56 69 57
REMARK SMILES IDX 42 58 29 59 30 60 35 61 31 62 32 63 34 64 36 65 33 66 55 67
REMARK SMILES IDX 56 68 61 69 57 70 58 71 60 72 62 73 59 74 43 75 44 76 49 77
REMARK SMILES IDX 45 78 46 79 48 80 50 81 47 82
REMARK H PARENT 13 5 17 25 67 44 41 55
REMARK Flexibility Score: inf
ROOT
ATOM      1  C   UNL     1       7.137  -4.878   0.202  1.00  0.00     0.118 C 
ENDROOT
BRANCH   1   2
ATOM      2  N   UNL     1       7.875  -6.136   0.174  1.00  0.00    -0.351 N 
ATOM      3  C   UNL     1       7.615  -7.353  -0.431  1.00  0.00     0.270 C 
ATOM      4  O   UNL     1       8.487  -8.219  -0.342  1.00  0.00    -0.268 OA
ATOM      5  H   UNL     1       8.719  -6.115   0.682  1.00  0.00     0.163 HD
BRANCH   3   6
ATOM      6  C   UNL     1       6.354  -7.625  -1.203  1.00  0.00     0.132 A 
ATOM      7  C   UNL     1       4.170  -7.111  -1.862  1.00  0.00     0.067 A 
ATOM      8  C   UNL     1       5.188  -6.952  -0.953  1.00  0.00     0.062 A 
ATOM      9  N   UNL     1       4.208  -8.026  -2.838  1.00  0.00    -0.237 NA
ATOM     10  C   UNL     1       5.349  -8.727  -2.930  1.00  0.00     0.223 A 
ATOM     11  N   UNL     1       6.446  -8.550  -2.183  1.00  0.00    -0.231 NA
BRANCH   7  12
ATOM     12  C   UNL     1       2.995  -6.237  -1.788  1.00  0.00     0.029 C 
ATOM     13  C   UNL     1       3.119  -4.899  -1.683  1.00  0.00     0.013 C 
BRANCH  13  14
ATOM     14  C   UNL     1       2.059  -3.967  -1.510  1.00  0.00     0.013 A 
ATOM     15  N   UNL     1       0.951  -2.090  -1.270  1.00  0.00    -0.272 N 
ATOM     16  C   UNL     1       2.201  -2.596  -1.503  1.00  0.00     0.116 A 
ATOM     17  N   UNL     1       0.012  -3.042  -1.118  1.00  0.00    -0.181 NA
ATOM     18  C   UNL     1       0.688  -4.183  -1.274  1.00  0.00     0.143 A 
BRANCH  15  19
ATOM     19  C   UNL     1       0.573  -0.690  -1.212  1.00  0.00     0.141 C 
ATOM     20  C   UNL     1       0.999  -0.018   0.081  1.00  0.00     0.029 C 
ENDBRANCH  15  19
ENDBRANCH  13  14
ENDBRANCH   7  12
ENDBRANCH   3   6
ENDBRANCH   1   2
BRANCH   1  21
ATOM     21  C   UNL     1       6.232  -4.766   1.441  1.00  0.00     0.042 C 
BRANCH  21  22
ATOM     22  C   UNL     1       6.950  -4.132   2.614  1.00  0.00     0.118 C 
BRANCH  22  23
ATOM     23  N   UNL     1       7.194  -2.696   2.408  1.00  0.00    -0.352 N 
ATOM     24  C   UNL     1       7.835  -1.783   3.236  1.00  0.00     0.251 C 
ATOM     25  H   UNL     1       6.855  -2.329   1.560  1.00  0.00     0.163 HD
ATOM     26  O   UNL     1       7.670  -0.586   3.097  1.00  0.00    -0.269 OA
BRANCH  24  27
ATOM     27  C   UNL     1       8.736  -2.303   4.280  1.00  0.00     0.039 A 
ATOM     28  C   UNL     1       8.893  -1.712   5.539  1.00  0.00     0.014 A 
ATOM     29  C   UNL     1       9.404  -3.471   3.966  1.00  0.00     0.014 A 
ATOM     30  C   UNL     1       9.727  -2.341   6.464  1.00  0.00     0.010 A 
ATOM     31  C   UNL     1       9.868  -4.247   4.972  1.00  0.00     0.010 A 
ATOM     32  C   UNL     1      10.217  -3.610   6.148  1.00  0.00    -0.014 A 
BRANCH  32  33
ATOM     33  C   UNL     1      11.100  -4.397   6.987  1.00  0.00     0.031 A 
ATOM     34  C   UNL     1      10.427  -4.995   8.161  1.00  0.00     0.074 A 
ATOM     35  C   UNL     1      12.273  -4.847   6.482  1.00  0.00     0.049 A 
ATOM     36  N   UNL     1      10.612  -4.704   9.404  1.00  0.00    -0.248 NA
ATOM     37  C   UNL     1       9.271  -5.879   7.922  1.00  0.00     0.031 C 
ATOM     38  C   UNL     1      12.846  -4.607   5.147  1.00  0.00     0.029 A 
ATOM     39  N   UNL     1      13.127  -5.767   7.007  1.00  0.00    -0.354 N 
ATOM     40  C   UNL     1       9.769  -5.558  10.106  1.00  0.00     0.074 A 
ATOM     41  C   UNL     1       8.792  -6.018   9.159  1.00  0.00     0.031 C 
ATOM     42  C   UNL     1      13.803  -5.526   4.889  1.00  0.00     0.029 A 
ATOM     43  C   UNL     1      14.004  -6.330   6.077  1.00  0.00     0.049 A 
ATOM     44  H   UNL     1      13.127  -6.014   7.960  1.00  0.00     0.167 HD
ATOM     45  C   UNL     1      10.133  -6.072  11.313  1.00  0.00     0.037 A 
ATOM     46  C   UNL     1      14.756  -7.442   6.290  1.00  0.00     0.037 A 
ATOM     47  C   UNL     1      11.288  -5.378  11.836  1.00  0.00     0.049 A 
ATOM     48  C   UNL     1      14.833  -7.621   7.770  1.00  0.00     0.074 A 
ATOM     49  C   UNL     1      11.577  -4.053  12.106  1.00  0.00     0.029 A 
ATOM     50  N   UNL     1      12.507  -6.012  11.744  1.00  0.00    -0.354 N 
ATOM     51  N   UNL     1      15.432  -6.774   8.567  1.00  0.00    -0.248 NA
ATOM     52  C   UNL     1      13.799  -8.436   8.395  1.00  0.00     0.031 C 
ATOM     53  C   UNL     1      12.914  -3.871  11.642  1.00  0.00     0.029 A 
ATOM     54  C   UNL     1      13.398  -5.110  11.219  1.00  0.00     0.049 A 
ATOM     55  H   UNL     1      12.703  -6.940  12.007  1.00  0.00     0.167 HD
ATOM     56  C   UNL     1      14.575  -6.639   9.653  1.00  0.00     0.074 A 
ATOM     57  C   UNL     1      13.612  -7.732   9.516  1.00  0.00     0.031 C 
ATOM     58  C   UNL     1      14.517  -5.483  10.382  1.00  0.00     0.037 A 
BRANCH  45  59
ATOM     59  C   UNL     1       9.721  -7.431  11.831  1.00  0.00     0.057 A 
ATOM     60  C   UNL     1      10.052  -7.772  13.155  1.00  0.00     0.134 A 
ATOM     61  C   UNL     1       9.269  -8.507  11.037  1.00  0.00     0.134 A 
ATOM     62  F   UNL     1      10.495  -6.843  14.015  1.00  0.00    -0.206 F 
ATOM     63  C   UNL     1      10.021  -9.091  13.623  1.00  0.00     0.040 A 
ATOM     64  C   UNL     1       9.180  -9.818  11.512  1.00  0.00     0.040 A 
ATOM     65  F   UNL     1       8.982  -8.384   9.737  1.00  0.00    -0.206 F 
ATOM     66  C   UNL     1       9.592 -10.121  12.797  1.00  0.00     0.006 A 
ENDBRANCH  45  59
BRANCH  46  67
ATOM     67  C   UNL     1      15.072  -8.522   5.317  1.00  0.00     0.057 A 
ATOM     68  C   UNL     1      16.021  -9.515   5.605  1.00  0.00     0.134 A 
ATOM     69  C   UNL     1      14.272  -8.760   4.183  1.00  0.00     0.134 A 
ATOM     70  F   UNL     1      16.805  -9.413   6.688  1.00  0.00    -0.206 F 
ATOM     71  C   UNL     1      16.154 -10.675   4.824  1.00  0.00     0.040 A 
ATOM     72  C   UNL     1      14.400  -9.906   3.390  1.00  0.00     0.040 A 
ATOM     73  F   UNL     1      13.275  -7.930   3.847  1.00  0.00    -0.206 F 
ATOM     74  C   UNL     1      15.335 -10.877   3.716  1.00  0.00     0.006 A 
ENDBRANCH  46  67
BRANCH  58  75
ATOM     75  C   UNL     1      15.542  -4.407  10.126  1.00  0.00     0.057 A 
ATOM     76  C   UNL     1      15.689  -3.730   8.904  1.00  0.00     0.134 A 
ATOM     77  C   UNL     1      16.263  -3.897  11.210  1.00  0.00     0.134 A 
ATOM     78  F   UNL     1      14.966  -4.069   7.833  1.00  0.00    -0.206 F 
ATOM     79  C   UNL     1      16.534  -2.624   8.761  1.00  0.00     0.040 A 
ATOM     80  C   UNL     1      17.085  -2.772  11.091  1.00  0.00     0.040 A 
ATOM     81  F   UNL     1      16.131  -4.447  12.427  1.00  0.00    -0.206 F 
ATOM     82  C   UNL     1      17.229  -2.136   9.861  1.00  0.00     0.006 A 
ENDBRANCH  58  75
ENDBRANCH  32  33
ENDBRANCH  24  27
ENDBRANCH  22  23
ENDBRANCH  21  22
ENDBRANCH   1  21
TORSDOF 13
