REMARK SMILES CNC(=O)c1cccc(-c2cnc(O)c(C(=O)NCCCNC(=O)c3ccc(-c4c5nc(c(-c6c(F)cccc6F)c6ccc([nH]6)c(-c6c(F)cccc6F)c6nc(c(-c7c(F)cccc7F)c7ccc4[nH]7)C=C6)C=C5)cc3)c2)c1
REMARK SMILES IDX 20 1 19 2 18 3 16 4 17 5 15 7 10 8 11 9 79 10 12 11 13 12
REMARK SMILES IDX 9 13 5 14 6 15 80 16 7 17 8 18 3 19 1 20 2 21 4 23 14 24
REMARK SMILES IDX 21 26 22 27 23 28 24 30 25 31 26 32 78 33 27 34 77 35 28 36
REMARK SMILES IDX 29 37 30 38 71 39 31 40 76 41 70 42 72 43 32 44 75 45 69 46
REMARK SMILES IDX 68 47 33 49 59 50 42 51 58 52 43 53 46 54 57 55 73 56 44 57
REMARK SMILES IDX 45 58 56 60 74 61 47 62 34 63 35 64 40 65 36 66 37 67 39 68
REMARK SMILES IDX 41 69 38 70 60 71 61 72 66 73 62 74 63 75 65 76 67 77 64 78
REMARK SMILES IDX 48 79 49 80 54 81 50 82 51 83 53 84 55 85 52 86
REMARK H PARENT 18 6 2 22 14 25 22 29 72 48 46 59
REMARK Flexibility Score: inf
ROOT
ATOM      1  C   UNL     1      -6.042  -1.056  -0.566  1.00  0.00     0.042 C 
ENDROOT
BRANCH   1   2
ATOM      2  C   UNL     1      -5.152  -1.839   0.400  1.00  0.00     0.118 C 
BRANCH   2   3
ATOM      3  N   UNL     1      -5.384  -3.271   0.288  1.00  0.00    -0.352 N 
ATOM      4  C   UNL     1      -4.716  -4.282  -0.354  1.00  0.00     0.256 C 
ATOM      5  O   UNL     1      -5.129  -5.432  -0.186  1.00  0.00    -0.269 OA
ATOM      6  H   UNL     1      -6.184  -3.577   0.773  1.00  0.00     0.163 HD
BRANCH   4   7
ATOM      7  C   UNL     1      -3.500  -4.098  -1.182  1.00  0.00     0.102 A 
ATOM      8  C   UNL     1      -1.919  -2.760  -2.457  1.00  0.00     0.001 A 
ATOM      9  C   UNL     1      -1.126  -3.897  -2.558  1.00  0.00     0.124 A 
ATOM     10  C   UNL     1      -3.152  -2.900  -1.806  1.00  0.00     0.029 A 
ATOM     11  N   UNL     1      -1.461  -5.098  -2.040  1.00  0.00    -0.221 NA
ATOM     12  C   UNL     1      -2.626  -5.174  -1.358  1.00  0.00     0.223 A 
BRANCH   8  13
ATOM     13  C   UNL     1      -1.448  -1.441  -2.876  1.00  0.00    -0.016 A 
ATOM     14  C   UNL     1      -0.639   0.770  -2.240  1.00  0.00     0.040 A 
ATOM     15  C   UNL     1      -0.543   1.126  -3.587  1.00  0.00     0.014 A 
ATOM     16  C   UNL     1      -1.119  -0.494  -1.889  1.00  0.00     0.022 A 
ATOM     17  C   UNL     1      -0.876   0.198  -4.576  1.00  0.00     0.001 A 
ATOM     18  C   UNL     1      -1.315  -1.082  -4.223  1.00  0.00     0.009 A 
BRANCH  14  19
ATOM     19  C   UNL     1      -0.300   1.771  -1.204  1.00  0.00     0.251 C 
ATOM     20  C   UNL     1       1.211   0.204   0.122  1.00  0.00     0.143 C 
ATOM     21  N   UNL     1       0.467   1.420  -0.121  1.00  0.00    -0.355 N 
ATOM     22  H   UNL     1       0.518   2.095   0.594  1.00  0.00     0.163 HD
ATOM     23  O   UNL     1      -0.711   2.921  -1.321  1.00  0.00    -0.269 OA
ENDBRANCH  14  19
ENDBRANCH   8  13
BRANCH  12  24
ATOM     24  O   UNL     1      -2.854  -6.415  -0.834  1.00  0.00    -0.493 OA
ATOM     25  H   UNL     1      -2.238  -7.106  -0.979  1.00  0.00     0.295 HD
ENDBRANCH  12  24
ENDBRANCH   4   7
ENDBRANCH   2   3
ENDBRANCH   1   2
BRANCH   1  26
ATOM     26  C   UNL     1      -7.502  -0.989  -0.121  1.00  0.00     0.118 C 
BRANCH  26  27
ATOM     27  N   UNL     1      -7.676  -0.144   1.052  1.00  0.00    -0.352 N 
ATOM     28  C   UNL     1      -8.480   0.953   1.240  1.00  0.00     0.251 C 
ATOM     29  H   UNL     1      -7.133  -0.399   1.832  1.00  0.00     0.163 HD
ATOM     30  O   UNL     1      -8.324   1.651   2.237  1.00  0.00    -0.269 OA
BRANCH  28  31
ATOM     31  C   UNL     1      -9.524   1.307   0.253  1.00  0.00     0.039 A 
ATOM     32  C   UNL     1      -9.717   2.655  -0.065  1.00  0.00     0.014 A 
ATOM     33  C   UNL     1     -10.347   0.331  -0.315  1.00  0.00     0.014 A 
ATOM     34  C   UNL     1     -10.699   3.020  -0.988  1.00  0.00     0.010 A 
ATOM     35  C   UNL     1     -11.285   0.689  -1.281  1.00  0.00     0.010 A 
ATOM     36  C   UNL     1     -11.473   2.036  -1.625  1.00  0.00    -0.014 A 
BRANCH  36  37
ATOM     37  C   UNL     1     -12.480   2.396  -2.654  1.00  0.00     0.031 A 
ATOM     38  C   UNL     1     -13.942   2.148  -2.404  1.00  0.00     0.074 A 
ATOM     39  C   UNL     1     -12.071   2.876  -3.843  1.00  0.00     0.049 A 
ATOM     40  N   UNL     1     -14.958   2.309  -3.214  1.00  0.00    -0.248 NA
ATOM     41  C   UNL     1     -14.306   1.626  -1.078  1.00  0.00     0.031 C 
ATOM     42  C   UNL     1     -10.678   3.120  -4.223  1.00  0.00     0.029 A 
ATOM     43  N   UNL     1     -12.787   3.229  -4.959  1.00  0.00    -0.354 N 
ATOM     44  C   UNL     1     -16.076   1.889  -2.505  1.00  0.00     0.074 A 
ATOM     45  C   UNL     1     -15.609   1.428  -1.215  1.00  0.00     0.031 C 
ATOM     46  C   UNL     1     -10.642   3.595  -5.478  1.00  0.00     0.029 A 
ATOM     47  C   UNL     1     -12.002   3.654  -6.003  1.00  0.00     0.049 A 
ATOM     48  H   UNL     1     -13.769   3.183  -5.007  1.00  0.00     0.167 HD
ATOM     49  C   UNL     1     -17.375   1.903  -2.888  1.00  0.00     0.037 A 
ATOM     50  C   UNL     1     -12.340   4.038  -7.249  1.00  0.00     0.037 A 
ATOM     51  C   UNL     1     -17.840   2.389  -4.161  1.00  0.00     0.049 A 
ATOM     52  C   UNL     1     -13.788   4.050  -7.649  1.00  0.00     0.074 A 
ATOM     53  C   UNL     1     -19.141   2.511  -4.616  1.00  0.00     0.029 A 
ATOM     54  N   UNL     1     -17.016   2.835  -5.184  1.00  0.00    -0.354 N 
ATOM     55  N   UNL     1     -14.841   3.710  -6.946  1.00  0.00    -0.248 NA
ATOM     56  C   UNL     1     -14.095   4.503  -9.013  1.00  0.00     0.031 C 
ATOM     57  C   UNL     1     -19.103   2.993  -5.929  1.00  0.00     0.029 A 
ATOM     58  C   UNL     1     -17.780   3.211  -6.277  1.00  0.00     0.049 A 
ATOM     59  H   UNL     1     -16.033   2.877  -5.140  1.00  0.00     0.167 HD
ATOM     60  C   UNL     1     -15.936   3.928  -7.772  1.00  0.00     0.074 A 
ATOM     61  C   UNL     1     -15.420   4.442  -9.024  1.00  0.00     0.031 C 
ATOM     62  C   UNL     1     -17.250   3.722  -7.515  1.00  0.00     0.037 A 
BRANCH  49  63
ATOM     63  C   UNL     1     -18.388   1.373  -1.916  1.00  0.00     0.057 A 
ATOM     64  C   UNL     1     -18.725   2.067  -0.747  1.00  0.00     0.134 A 
ATOM     65  C   UNL     1     -19.057   0.167  -2.165  1.00  0.00     0.134 A 
ATOM     66  F   UNL     1     -18.114   3.222  -0.443  1.00  0.00    -0.206 F 
ATOM     67  C   UNL     1     -19.668   1.568   0.154  1.00  0.00     0.040 A 
ATOM     68  C   UNL     1     -20.020  -0.329  -1.286  1.00  0.00     0.040 A 
ATOM     69  F   UNL     1     -18.788  -0.545  -3.270  1.00  0.00    -0.206 F 
ATOM     70  C   UNL     1     -20.323   0.369  -0.118  1.00  0.00     0.006 A 
ENDBRANCH  49  63
BRANCH  50  71
ATOM     71  C   UNL     1     -11.284   4.463  -8.200  1.00  0.00     0.057 A 
ATOM     72  C   UNL     1     -11.136   5.808  -8.556  1.00  0.00     0.134 A 
ATOM     73  C   UNL     1     -10.395   3.542  -8.766  1.00  0.00     0.134 A 
ATOM     74  F   UNL     1     -11.970   6.734  -8.060  1.00  0.00    -0.206 F 
ATOM     75  C   UNL     1     -10.148   6.222  -9.451  1.00  0.00     0.040 A 
ATOM     76  C   UNL     1      -9.389   3.944  -9.645  1.00  0.00     0.040 A 
ATOM     77  F   UNL     1     -10.482   2.240  -8.458  1.00  0.00    -0.206 F 
ATOM     78  C   UNL     1      -9.267   5.288  -9.994  1.00  0.00     0.006 A 
ENDBRANCH  50  71
BRANCH  62  79
ATOM     79  C   UNL     1     -18.223   4.075  -8.600  1.00  0.00     0.057 A 
ATOM     80  C   UNL     1     -18.371   3.282  -9.745  1.00  0.00     0.134 A 
ATOM     81  C   UNL     1     -19.050   5.199  -8.479  1.00  0.00     0.134 A 
ATOM     82  F   UNL     1     -17.598   2.200  -9.927  1.00  0.00    -0.206 F 
ATOM     83  C   UNL     1     -19.294   3.605 -10.740  1.00  0.00     0.040 A 
ATOM     84  C   UNL     1     -19.993   5.519  -9.456  1.00  0.00     0.040 A 
ATOM     85  F   UNL     1     -18.963   5.996  -7.403  1.00  0.00    -0.206 F 
ATOM     86  C   UNL     1     -20.114   4.723 -10.593  1.00  0.00     0.006 A 
ENDBRANCH  62  79
ENDBRANCH  36  37
ENDBRANCH  28  31
ENDBRANCH  26  27
ENDBRANCH   1  26
TORSDOF 13
