REMARK SMILES CC(C)c1ccc(OCC[C@H]2CCC[C@@]2([NH3+])C(=O)NCCCNC(=O)c2ccc(-c3c4nc(c(-c5c(F)cccc5F)c5ccc([nH]5)c(-c5c(F)cccc5F)c5nc(c(-c6c(F)cccc6F)c6ccc3[nH]6)C=C5)C=C4)cc2)cc1
REMARK SMILES IDX 17 1 18 2 19 3 15 5 11 6 12 7 13 8 14 9 10 10 9 11 8 12 7 13
REMARK SMILES IDX 4 14 5 15 81 16 6 17 80 18 2 19 1 20 3 21 16 22 20 26 21 27
REMARK SMILES IDX 22 28 23 29 24 30 25 32 26 33 27 34 79 35 28 36 78 37 29 38
REMARK SMILES IDX 30 39 31 40 72 41 32 42 77 43 71 44 73 45 33 46 76 47 70 48
REMARK SMILES IDX 69 49 34 51 60 52 43 53 59 54 44 55 47 56 58 57 74 58 45 59
REMARK SMILES IDX 46 60 57 62 75 63 48 64 35 65 36 66 41 67 37 68 38 69 40 70
REMARK SMILES IDX 42 71 39 72 61 73 62 74 67 75 63 76 64 77 66 78 68 79 65 80
REMARK SMILES IDX 49 81 50 82 55 83 51 84 52 85 54 86 56 87 53 88
REMARK H PARENT 19 4 16 23 16 24 16 25 23 31 73 50 47 61
REMARK Flexibility Score: inf
ROOT
ATOM      1  C   UNL     1      -3.504  -0.763  -1.243  1.00  0.00     0.281 C 
ATOM      2  O   UNL     1      -2.718  -0.704  -2.195  1.00  0.00    -0.268 OA
ATOM      3  N   UNL     1      -4.198   0.383  -0.966  1.00  0.00    -0.351 N 
ATOM      4  H   UNL     1      -4.008   1.134  -1.573  1.00  0.00     0.163 HD
ENDROOT
BRANCH   1   5
ATOM      5  C   UNL     1      -3.616  -2.048  -0.370  1.00  0.00     0.176 C 
ATOM      6  C   UNL     1      -4.008  -3.387  -1.079  1.00  0.00     0.064 C 
ATOM      7  C   UNL     1      -3.682  -4.380   0.041  1.00  0.00     0.011 C 
ATOM      8  C   UNL     1      -2.458  -3.800   0.780  1.00  0.00     0.008 C 
ATOM      9  C   UNL     1      -2.245  -2.402   0.206  1.00  0.00     0.079 C 
BRANCH   6  10
ATOM     10  C   UNL     1      -3.401  -3.781  -2.470  1.00  0.00     0.052 C 
BRANCH  10  11
ATOM     11  C   UNL     1      -2.111  -4.635  -2.630  1.00  0.00     0.230 C 
BRANCH  11  12
ATOM     12  O   UNL     1      -2.314  -6.066  -2.729  1.00  0.00    -0.494 OA
BRANCH  12  13
ATOM     13  C   UNL     1      -2.128  -6.842  -1.617  1.00  0.00     0.119 A 
ATOM     14  C   UNL     1      -2.652  -7.898   0.921  1.00  0.00    -0.045 A 
ATOM     15  C   UNL     1      -3.226  -8.480  -0.219  1.00  0.00     0.008 A 
ATOM     16  C   UNL     1      -1.573  -7.030   0.723  1.00  0.00     0.008 A 
ATOM     17  C   UNL     1      -2.968  -7.946  -1.488  1.00  0.00     0.047 A 
ATOM     18  C   UNL     1      -1.287  -6.531  -0.558  1.00  0.00     0.047 A 
BRANCH  14  19
ATOM     19  C   UNL     1      -3.342  -8.078   2.268  1.00  0.00     0.013 C 
ATOM     20  C   UNL     1      -3.117  -9.454   2.882  1.00  0.00     0.012 C 
ATOM     21  C   UNL     1      -3.055  -6.975   3.299  1.00  0.00     0.012 C 
ENDBRANCH  14  19
ENDBRANCH  12  13
ENDBRANCH  11  12
ENDBRANCH  10  11
ENDBRANCH   6  10
BRANCH   5  22
ATOM     22  N   UNL     1      -4.537  -1.859   0.791  1.00  0.00    -0.345 N 
ATOM     23  H   UNL     1      -4.582  -2.721   1.334  1.00  0.00     0.345 HD
ATOM     24  H   UNL     1      -5.470  -1.623   0.450  1.00  0.00     0.345 HD
ATOM     25  H   UNL     1      -4.190  -1.103   1.381  1.00  0.00     0.345 HD
ENDBRANCH   5  22
ENDBRANCH   1   5
BRANCH   3  26
ATOM     26  C   UNL     1      -5.171   0.678   0.074  1.00  0.00     0.118 C 
BRANCH  26  27
ATOM     27  C   UNL     1      -4.521   1.027   1.416  1.00  0.00     0.042 C 
BRANCH  27  28
ATOM     28  C   UNL     1      -3.856   2.393   1.409  1.00  0.00     0.118 C 
BRANCH  28  29
ATOM     29  N   UNL     1      -4.819   3.441   1.101  1.00  0.00    -0.352 N 
ATOM     30  C   UNL     1      -5.366   4.379   1.934  1.00  0.00     0.251 C 
ATOM     31  H   UNL     1      -5.118   3.479   0.164  1.00  0.00     0.163 HD
ATOM     32  O   UNL     1      -6.449   4.883   1.665  1.00  0.00    -0.269 OA
BRANCH  30  33
ATOM     33  C   UNL     1      -4.615   4.808   3.128  1.00  0.00     0.039 A 
ATOM     34  C   UNL     1      -5.311   5.182   4.279  1.00  0.00     0.014 A 
ATOM     35  C   UNL     1      -3.221   4.911   3.076  1.00  0.00     0.014 A 
ATOM     36  C   UNL     1      -4.602   5.642   5.387  1.00  0.00     0.010 A 
ATOM     37  C   UNL     1      -2.513   5.276   4.209  1.00  0.00     0.010 A 
ATOM     38  C   UNL     1      -3.199   5.676   5.362  1.00  0.00    -0.014 A 
BRANCH  38  39
ATOM     39  C   UNL     1      -2.417   6.166   6.516  1.00  0.00     0.031 A 
ATOM     40  C   UNL     1      -1.563   7.394   6.369  1.00  0.00     0.074 A 
ATOM     41  C   UNL     1      -2.422   5.460   7.661  1.00  0.00     0.049 A 
ATOM     42  N   UNL     1      -0.740   7.936   7.228  1.00  0.00    -0.248 NA
ATOM     43  C   UNL     1      -1.615   8.086   5.070  1.00  0.00     0.031 C 
ATOM     44  C   UNL     1      -3.175   4.224   7.889  1.00  0.00     0.029 A 
ATOM     45  N   UNL     1      -1.764   5.674   8.842  1.00  0.00    -0.354 N 
ATOM     46  C   UNL     1      -0.166   9.016   6.569  1.00  0.00     0.074 A 
ATOM     47  C   UNL     1      -0.684   9.016   5.220  1.00  0.00     0.031 C 
ATOM     48  C   UNL     1      -2.957   3.805   9.145  1.00  0.00     0.029 A 
ATOM     49  C   UNL     1      -2.019   4.716   9.792  1.00  0.00     0.049 A 
ATOM     50  H   UNL     1      -1.167   6.441   8.996  1.00  0.00     0.167 HD
ATOM     51  C   UNL     1       0.695   9.940   7.056  1.00  0.00     0.037 A 
ATOM     52  C   UNL     1      -1.539   4.587  11.042  1.00  0.00     0.037 A 
ATOM     53  C   UNL     1       1.183   9.938   8.409  1.00  0.00     0.049 A 
ATOM     54  C   UNL     1      -0.580   5.623  11.558  1.00  0.00     0.074 A 
ATOM     55  C   UNL     1       2.011  10.856   9.029  1.00  0.00     0.029 A 
ATOM     56  N   UNL     1       0.887   8.963   9.351  1.00  0.00    -0.354 N 
ATOM     57  N   UNL     1      -0.099   6.681  10.950  1.00  0.00    -0.248 NA
ATOM     58  C   UNL     1      -0.104   5.452  12.937  1.00  0.00     0.031 C 
ATOM     59  C   UNL     1       2.256  10.409  10.332  1.00  0.00     0.029 A 
ATOM     60  C   UNL     1       1.535   9.244  10.542  1.00  0.00     0.049 A 
ATOM     61  H   UNL     1       0.302   8.186   9.196  1.00  0.00     0.167 HD
ATOM     62  C   UNL     1       0.712   7.318  11.880  1.00  0.00     0.074 A 
ATOM     63  C   UNL     1       0.645   6.534  13.096  1.00  0.00     0.031 C 
ATOM     64  C   UNL     1       1.446   8.450  11.742  1.00  0.00     0.037 A 
BRANCH  51  65
ATOM     65  C   UNL     1       1.156  11.020   6.121  1.00  0.00     0.057 A 
ATOM     66  C   UNL     1       0.286  12.011   5.645  1.00  0.00     0.134 A 
ATOM     67  C   UNL     1       2.492  11.084   5.704  1.00  0.00     0.134 A 
ATOM     68  F   UNL     1      -1.010  12.003   5.993  1.00  0.00    -0.206 F 
ATOM     69  C   UNL     1       0.720  13.006   4.766  1.00  0.00     0.040 A 
ATOM     70  C   UNL     1       2.944  12.092   4.850  1.00  0.00     0.040 A 
ATOM     71  F   UNL     1       3.381  10.171   6.123  1.00  0.00    -0.206 F 
ATOM     72  C   UNL     1       2.055  13.052   4.372  1.00  0.00     0.006 A 
ENDBRANCH  51  65
BRANCH  52  73
ATOM     73  C   UNL     1      -1.980   3.455  11.893  1.00  0.00     0.057 A 
ATOM     74  C   UNL     1      -2.802   3.667  13.006  1.00  0.00     0.134 A 
ATOM     75  C   UNL     1      -1.601   2.136  11.614  1.00  0.00     0.134 A 
ATOM     76  F   UNL     1      -3.190   4.909  13.331  1.00  0.00    -0.206 F 
ATOM     77  C   UNL     1      -3.212   2.614  13.824  1.00  0.00     0.040 A 
ATOM     78  C   UNL     1      -2.026   1.070  12.408  1.00  0.00     0.040 A 
ATOM     79  F   UNL     1      -0.826   1.863  10.554  1.00  0.00    -0.206 F 
ATOM     80  C   UNL     1      -2.827   1.309  13.522  1.00  0.00     0.006 A 
ENDBRANCH  52  73
BRANCH  64  81
ATOM     81  C   UNL     1       2.200   8.927  12.948  1.00  0.00     0.057 A 
ATOM     82  C   UNL     1       3.334   8.259  13.425  1.00  0.00     0.134 A 
ATOM     83  C   UNL     1       1.808  10.096  13.613  1.00  0.00     0.134 A 
ATOM     84  F   UNL     1       3.754   7.127  12.840  1.00  0.00    -0.206 F 
ATOM     85  C   UNL     1       4.037   8.723  14.538  1.00  0.00     0.040 A 
ATOM     86  C   UNL     1       2.521  10.586  14.707  1.00  0.00     0.040 A 
ATOM     87  F   UNL     1       0.736  10.789  13.200  1.00  0.00    -0.206 F 
ATOM     88  C   UNL     1       3.635   9.895  15.177  1.00  0.00     0.006 A 
ENDBRANCH  64  81
ENDBRANCH  38  39
ENDBRANCH  30  33
ENDBRANCH  28  29
ENDBRANCH  27  28
ENDBRANCH  26  27
ENDBRANCH   3  26
TORSDOF 16
