REMARK SMILES Cc1ccc(Cl)cc1NC(=O)N[C@@](C)(C(=O)NCCCNC(=O)c1ccc(-c2c3nc(c(-c4c(F)cccc4F)c4ccc([nH]4)c(-c4c(F)cccc4F)c4nc(c(-c5c(F)cccc5F)c5ccc2[nH]5)C=C4)C=C3)cc1)C(F)(F)F
REMARK SMILES IDX 19 1 18 2 17 3 15 4 16 5 13 7 14 8 12 9 9 10 10 11 11 13
REMARK SMILES IDX 8 15 1 16 2 17 3 18 4 19 7 20 5 21 6 22 78 23 79 24 80 25
REMARK SMILES IDX 81 26 20 27 21 28 22 29 23 31 24 32 25 33 77 34 26 35 76 36
REMARK SMILES IDX 27 37 28 38 29 39 70 40 30 41 75 42 69 43 71 44 31 45 74 46
REMARK SMILES IDX 68 47 67 48 32 50 58 51 41 52 57 53 42 54 45 55 56 56 72 57
REMARK SMILES IDX 43 58 44 59 55 61 73 62 46 63 33 64 34 65 39 66 35 67 36 68
REMARK SMILES IDX 38 69 40 70 37 71 59 72 60 73 65 74 61 75 62 76 64 77 66 78
REMARK SMILES IDX 63 79 47 80 48 81 53 82 49 83 50 84 52 85 54 86 51 87
REMARK H PARENT 17 6 9 12 12 14 21 30 71 49 45 60
REMARK Flexibility Score: inf
ROOT
ATOM      1  C   UNL     1      -3.000   6.221  -0.770  1.00  0.00     0.042 C 
ENDROOT
BRANCH   1   2
ATOM      2  C   UNL     1      -3.205   4.894  -0.046  1.00  0.00     0.117 C 
BRANCH   2   3
ATOM      3  N   UNL     1      -3.077   3.768  -0.953  1.00  0.00    -0.354 N 
ATOM      4  C   UNL     1      -1.837   3.372  -1.389  1.00  0.00     0.255 C 
ATOM      5  O   UNL     1      -1.384   3.920  -2.394  1.00  0.00    -0.272 OA
ATOM      6  H   UNL     1      -3.881   3.287  -1.256  1.00  0.00     0.163 HD
BRANCH   4   7
ATOM      7  C   UNL     1      -1.028   2.383  -0.506  1.00  0.00     0.213 C 
ATOM      8  C   UNL     1      -1.932   1.771   0.579  1.00  0.00     0.056 C 
BRANCH   7   9
ATOM      9  N   UNL     1       0.057   3.212   0.112  1.00  0.00    -0.316 N 
ATOM     10  N   UNL     1       1.901   1.928   0.946  1.00  0.00    -0.308 N 
ATOM     11  C   UNL     1       1.236   3.067   0.718  1.00  0.00     0.320 C 
ATOM     12  H   UNL     1       2.854   2.090   1.137  1.00  0.00     0.171 HD
ATOM     13  O   UNL     1       1.824   4.121   0.991  1.00  0.00    -0.248 OA
ATOM     14  H   UNL     1      -0.174   4.168   0.052  1.00  0.00     0.166 HD
BRANCH  10  15
ATOM     15  C   UNL     1       1.586   0.567   0.982  1.00  0.00     0.047 A 
ATOM     16  C   UNL     1       3.836  -0.006  -0.113  1.00  0.00     0.046 C 
ATOM     17  C   UNL     1       2.468  -0.366   0.402  1.00  0.00    -0.027 A 
ATOM     18  C   UNL     1       2.071  -1.712   0.307  1.00  0.00     0.007 A 
ATOM     19  C   UNL     1       0.850  -2.136   0.830  1.00  0.00     0.021 A 
ATOM     20  C   UNL     1       0.447   0.106   1.637  1.00  0.00     0.047 A 
ATOM     21  C   UNL     1       0.064  -1.232   1.532  1.00  0.00     0.043 A 
ATOM     22  Cl  UNL     1      -1.412  -1.758   2.244  1.00  0.00    -0.084 Cl
ENDBRANCH  10  15
ENDBRANCH   7   9
BRANCH   7  23
ATOM     23  C   UNL     1      -0.621   1.361  -1.596  1.00  0.00     0.420 C 
ATOM     24  F   UNL     1       0.292   1.846  -2.467  1.00  0.00    -0.168 F 
ATOM     25  F   UNL     1      -0.108   0.223  -1.093  1.00  0.00    -0.168 F 
ATOM     26  F   UNL     1      -1.707   0.968  -2.317  1.00  0.00    -0.168 F 
ENDBRANCH   7  23
ENDBRANCH   4   7
ENDBRANCH   2   3
ENDBRANCH   1   2
BRANCH   1  27
ATOM     27  C   UNL     1      -3.834   6.361  -2.039  1.00  0.00     0.118 C 
BRANCH  27  28
ATOM     28  N   UNL     1      -5.269   6.283  -1.782  1.00  0.00    -0.352 N 
ATOM     29  C   UNL     1      -6.235   7.218  -2.062  1.00  0.00     0.251 C 
ATOM     30  H   UNL     1      -5.585   5.454  -1.355  1.00  0.00     0.163 HD
ATOM     31  O   UNL     1      -7.382   7.087  -1.649  1.00  0.00    -0.269 OA
BRANCH  29  32
ATOM     32  C   UNL     1      -5.850   8.403  -2.847  1.00  0.00     0.039 A 
ATOM     33  C   UNL     1      -6.082   9.676  -2.324  1.00  0.00     0.014 A 
ATOM     34  C   UNL     1      -5.171   8.234  -4.056  1.00  0.00     0.014 A 
ATOM     35  C   UNL     1      -5.564  10.790  -2.986  1.00  0.00     0.010 A 
ATOM     36  C   UNL     1      -4.584   9.333  -4.662  1.00  0.00     0.010 A 
ATOM     37  C   UNL     1      -4.780  10.622  -4.137  1.00  0.00    -0.014 A 
BRANCH  37  38
ATOM     38  C   UNL     1      -4.176  11.769  -4.856  1.00  0.00     0.031 A 
ATOM     39  C   UNL     1      -4.577  12.020  -6.283  1.00  0.00     0.074 A 
ATOM     40  C   UNL     1      -3.203  12.501  -4.280  1.00  0.00     0.049 A 
ATOM     41  N   UNL     1      -4.036  12.813  -7.170  1.00  0.00    -0.248 NA
ATOM     42  C   UNL     1      -5.712  11.232  -6.793  1.00  0.00     0.031 C 
ATOM     43  C   UNL     1      -2.703  12.331  -2.915  1.00  0.00     0.029 A 
ATOM     44  N   UNL     1      -2.441  13.523  -4.788  1.00  0.00    -0.354 N 
ATOM     45  C   UNL     1      -4.733  12.585  -8.349  1.00  0.00     0.074 A 
ATOM     46  C   UNL     1      -5.707  11.551  -8.078  1.00  0.00     0.031 C 
ATOM     47  C   UNL     1      -1.723  13.222  -2.692  1.00  0.00     0.029 A 
ATOM     48  C   UNL     1      -1.495  13.994  -3.909  1.00  0.00     0.049 A 
ATOM     49  H   UNL     1      -2.560  13.884  -5.696  1.00  0.00     0.167 HD
ATOM     50  C   UNL     1      -4.586  13.197  -9.546  1.00  0.00     0.037 A 
ATOM     51  C   UNL     1      -0.541  14.930  -4.078  1.00  0.00     0.037 A 
ATOM     52  C   UNL     1      -3.657  14.265  -9.791  1.00  0.00     0.049 A 
ATOM     53  C   UNL     1      -0.420  15.620  -5.410  1.00  0.00     0.074 A 
ATOM     54  C   UNL     1      -3.473  15.000 -10.948  1.00  0.00     0.029 A 
ATOM     55  N   UNL     1      -2.764  14.759  -8.852  1.00  0.00    -0.354 N 
ATOM     56  N   UNL     1      -1.113  15.426  -6.506  1.00  0.00    -0.248 NA
ATOM     57  C   UNL     1       0.613  16.659  -5.529  1.00  0.00     0.031 C 
ATOM     58  C   UNL     1      -2.450  15.924 -10.718  1.00  0.00     0.029 A 
ATOM     59  C   UNL     1      -2.025  15.790  -9.405  1.00  0.00     0.049 A 
ATOM     60  H   UNL     1      -2.670  14.427  -7.930  1.00  0.00     0.167 HD
ATOM     61  C   UNL     1      -0.628  16.343  -7.430  1.00  0.00     0.074 A 
ATOM     62  C   UNL     1       0.419  17.092  -6.768  1.00  0.00     0.031 C 
ATOM     63  C   UNL     1      -1.016  16.547  -8.712  1.00  0.00     0.037 A 
BRANCH  50  64
ATOM     64  C   UNL     1      -5.457  12.731 -10.675  1.00  0.00     0.057 A 
ATOM     65  C   UNL     1      -6.834  12.989 -10.701  1.00  0.00     0.134 A 
ATOM     66  C   UNL     1      -4.908  12.037 -11.760  1.00  0.00     0.134 A 
ATOM     67  F   UNL     1      -7.424  13.635  -9.684  1.00  0.00    -0.206 F 
ATOM     68  C   UNL     1      -7.638  12.550 -11.754  1.00  0.00     0.040 A 
ATOM     69  C   UNL     1      -5.697  11.618 -12.832  1.00  0.00     0.040 A 
ATOM     70  F   UNL     1      -3.596  11.760 -11.799  1.00  0.00    -0.206 F 
ATOM     71  C   UNL     1      -7.068  11.869 -12.827  1.00  0.00     0.006 A 
ENDBRANCH  50  64
BRANCH  51  72
ATOM     72  C   UNL     1       0.364  15.285  -2.957  1.00  0.00     0.057 A 
ATOM     73  C   UNL     1       0.256  16.522  -2.310  1.00  0.00     0.134 A 
ATOM     74  C   UNL     1       1.363  14.412  -2.512  1.00  0.00     0.134 A 
ATOM     75  F   UNL     1      -0.670  17.409  -2.703  1.00  0.00    -0.206 F 
ATOM     76  C   UNL     1       1.121  16.888  -1.278  1.00  0.00     0.040 A 
ATOM     77  C   UNL     1       2.221  14.754  -1.465  1.00  0.00     0.040 A 
ATOM     78  F   UNL     1       1.514  13.208  -3.084  1.00  0.00    -0.206 F 
ATOM     79  C   UNL     1       2.106  15.999  -0.850  1.00  0.00     0.006 A 
ENDBRANCH  51  72
BRANCH  63  80
ATOM     80  C   UNL     1      -0.361  17.664  -9.465  1.00  0.00     0.057 A 
ATOM     81  C   UNL     1       0.934  17.549  -9.981  1.00  0.00     0.134 A 
ATOM     82  C   UNL     1      -1.075  18.836  -9.747  1.00  0.00     0.134 A 
ATOM     83  F   UNL     1       1.670  16.455  -9.735  1.00  0.00    -0.206 F 
ATOM     84  C   UNL     1       1.501  18.567 -10.748  1.00  0.00     0.040 A 
ATOM     85  C   UNL     1      -0.527  19.851 -10.531  1.00  0.00     0.040 A 
ATOM     86  F   UNL     1      -2.325  19.000  -9.288  1.00  0.00    -0.206 F 
ATOM     87  C   UNL     1       0.766  19.717 -11.034  1.00  0.00     0.006 A 
ENDBRANCH  63  80
ENDBRANCH  37  38
ENDBRANCH  29  32
ENDBRANCH  27  28
ENDBRANCH   1  27
TORSDOF 13
