REMARK SMILES Cc1ccc2cc(C[N@H+]3CC[NH2+][C@H](C(=O)NCCCNC(=O)c4ccc(-c5c6nc(c(-c7c(F)cccc7F)c7ccc([nH]7)c(-c7c(F)cccc7F)c7nc(c(-c8c(F)cccc8F)c8ccc5[nH]8)C=C7)C=C6)cc4)C3)c(N3CCOCC3)nc2c1
REMARK SMILES IDX 17 1 16 2 14 3 15 4 13 6 9 7 10 8 77 9 11 11 12 12 8 15 7 16
REMARK SMILES IDX 1 17 2 18 3 19 87 20 4 21 86 22 5 23 85 24 6 25 78 26 79 27
REMARK SMILES IDX 80 28 84 29 81 30 83 31 82 32 18 33 19 34 20 35 21 36 22 38
REMARK SMILES IDX 23 39 24 40 76 41 25 42 75 43 26 44 27 45 28 46 69 47 29 48
REMARK SMILES IDX 74 49 68 50 70 51 30 52 73 53 67 54 66 55 31 57 57 58 40 59
REMARK SMILES IDX 56 60 41 61 44 62 55 63 71 64 42 65 43 66 54 68 72 69 45 70
REMARK SMILES IDX 32 71 33 72 38 73 34 74 35 75 37 76 39 77 36 78 58 79 59 80
REMARK SMILES IDX 64 81 60 82 61 83 63 84 65 85 62 86 46 87 47 88 52 89 48 90
REMARK SMILES IDX 49 91 51 92 53 93 50 94
REMARK H PARENT 16 5 9 10 12 13 12 14 20 37 70 56 44 67
REMARK Flexibility Score: inf
ROOT
ATOM      1  C   UNL     1       2.147  -5.482   0.409  1.00  0.00     0.118 C 
ENDROOT
BRANCH   1   2
ATOM      2  N   UNL     1       1.645  -6.758  -0.069  1.00  0.00    -0.351 N 
ATOM      3  C   UNL     1       0.352  -7.250  -0.041  1.00  0.00     0.284 C 
ATOM      4  O   UNL     1       0.109  -8.268  -0.692  1.00  0.00    -0.268 OA
ATOM      5  H   UNL     1       2.318  -7.356  -0.469  1.00  0.00     0.163 HD
BRANCH   3   6
ATOM      6  C   UNL     1      -0.716  -6.573   0.847  1.00  0.00     0.328 C 
ATOM      7  N   UNL     1      -1.771  -6.796   3.179  1.00  0.00    -0.321 N 
ATOM      8  C   UNL     1      -3.053  -6.461   2.549  1.00  0.00     0.324 C 
ATOM      9  C   UNL     1      -0.760  -7.282   2.229  1.00  0.00     0.339 C 
ATOM     10  H   UNL     1      -1.953  -7.635   3.729  1.00  0.00     0.348 HD
ATOM     11  C   UNL     1      -2.963  -5.803   1.149  1.00  0.00     0.323 C 
ATOM     12  N   UNL     1      -2.053  -6.495   0.206  1.00  0.00    -0.327 N 
ATOM     13  H   UNL     1      -1.990  -5.969  -0.666  1.00  0.00     0.347 HD
ATOM     14  H   UNL     1      -2.402  -7.429  -0.009  1.00  0.00     0.347 HD
BRANCH   7  15
ATOM     15  C   UNL     1      -1.343  -5.942   4.305  1.00  0.00     0.303 C 
BRANCH  15  16
ATOM     16  C   UNL     1      -1.105  -4.473   4.030  1.00  0.00     0.049 A 
ATOM     17  C   UNL     1       0.344   1.034   0.848  1.00  0.00     0.044 C 
ATOM     18  C   UNL     1       0.002  -0.326   1.374  1.00  0.00    -0.049 A 
ATOM     19  C   UNL     1       0.351  -1.411   0.587  1.00  0.00     0.004 A 
ATOM     20  C   UNL     1      -0.622  -0.552   2.625  1.00  0.00     0.032 A 
ATOM     21  C   UNL     1       0.207  -2.675   1.108  1.00  0.00     0.010 A 
ATOM     22  C   UNL     1      -0.837  -1.841   3.149  1.00  0.00     0.073 A 
ATOM     23  C   UNL     1      -0.285  -2.878   2.408  1.00  0.00     0.001 A 
ATOM     24  N   UNL     1      -1.519  -2.113   4.300  1.00  0.00    -0.230 NA
ATOM     25  C   UNL     1      -0.276  -4.139   2.981  1.00  0.00     0.023 A 
ATOM     26  C   UNL     1      -1.688  -3.408   4.711  1.00  0.00     0.138 A 
BRANCH  26  27
ATOM     27  N   UNL     1      -2.495  -3.658   5.792  1.00  0.00    -0.352 N 
ATOM     28  C   UNL     1      -1.969  -4.159   7.061  1.00  0.00     0.146 C 
ATOM     29  C   UNL     1      -3.831  -3.086   5.848  1.00  0.00     0.146 C 
ATOM     30  C   UNL     1      -2.987  -5.143   7.674  1.00  0.00     0.181 C 
ATOM     31  C   UNL     1      -4.757  -4.170   6.427  1.00  0.00     0.181 C 
ATOM     32  O   UNL     1      -4.315  -4.589   7.734  1.00  0.00    -0.378 OA
ENDBRANCH  26  27
ENDBRANCH  15  16
ENDBRANCH   7  15
ENDBRANCH   3   6
ENDBRANCH   1   2
BRANCH   1  33
ATOM     33  C   UNL     1       3.361  -5.522   1.318  1.00  0.00     0.042 C 
BRANCH  33  34
ATOM     34  C   UNL     1       4.646  -5.089   0.634  1.00  0.00     0.118 C 
BRANCH  34  35
ATOM     35  N   UNL     1       4.704  -3.670   0.276  1.00  0.00    -0.352 N 
ATOM     36  C   UNL     1       5.717  -2.740   0.440  1.00  0.00     0.251 C 
ATOM     37  H   UNL     1       3.889  -3.320  -0.151  1.00  0.00     0.163 HD
ATOM     38  O   UNL     1       5.543  -1.585   0.084  1.00  0.00    -0.269 OA
BRANCH  36  39
ATOM     39  C   UNL     1       6.989  -3.125   1.104  1.00  0.00     0.039 A 
ATOM     40  C   UNL     1       7.537  -4.387   0.911  1.00  0.00     0.014 A 
ATOM     41  C   UNL     1       7.606  -2.236   1.992  1.00  0.00     0.014 A 
ATOM     42  C   UNL     1       8.486  -4.862   1.803  1.00  0.00     0.010 A 
ATOM     43  C   UNL     1       8.681  -2.669   2.780  1.00  0.00     0.010 A 
ATOM     44  C   UNL     1       9.078  -4.014   2.752  1.00  0.00    -0.014 A 
BRANCH  44  45
ATOM     45  C   UNL     1      10.082  -4.584   3.696  1.00  0.00     0.031 A 
ATOM     46  C   UNL     1       9.880  -4.515   5.191  1.00  0.00     0.074 A 
ATOM     47  C   UNL     1      11.139  -5.257   3.197  1.00  0.00     0.049 A 
ATOM     48  N   UNL     1      10.645  -4.981   6.148  1.00  0.00    -0.248 NA
ATOM     49  C   UNL     1       8.673  -3.829   5.679  1.00  0.00     0.031 C 
ATOM     50  C   UNL     1      11.451  -5.405   1.772  1.00  0.00     0.029 A 
ATOM     51  N   UNL     1      12.123  -5.982   3.822  1.00  0.00    -0.354 N 
ATOM     52  C   UNL     1      10.038  -4.607   7.343  1.00  0.00     0.074 A 
ATOM     53  C   UNL     1       8.848  -3.863   6.993  1.00  0.00     0.031 C 
ATOM     54  C   UNL     1      12.489  -6.239   1.629  1.00  0.00     0.029 A 
ATOM     55  C   UNL     1      12.982  -6.607   2.949  1.00  0.00     0.049 A 
ATOM     56  H   UNL     1      12.206  -6.047   4.801  1.00  0.00     0.167 HD
ATOM     57  C   UNL     1      10.432  -4.865   8.613  1.00  0.00     0.037 A 
ATOM     58  C   UNL     1      14.064  -7.371   3.179  1.00  0.00     0.037 A 
ATOM     59  C   UNL     1      11.592  -5.646   8.961  1.00  0.00     0.049 A 
ATOM     60  C   UNL     1      14.481  -7.631   4.596  1.00  0.00     0.074 A 
ATOM     61  C   UNL     1      12.060  -5.984  10.220  1.00  0.00     0.029 A 
ATOM     62  N   UNL     1      12.461  -6.221   8.046  1.00  0.00    -0.354 N 
ATOM     63  N   UNL     1      13.900  -7.258   5.709  1.00  0.00    -0.248 NA
ATOM     64  C   UNL     1      15.716  -8.402   4.787  1.00  0.00     0.031 C 
ATOM     65  C   UNL     1      13.233  -6.731  10.067  1.00  0.00     0.029 A 
ATOM     66  C   UNL     1      13.470  -6.897   8.713  1.00  0.00     0.049 A 
ATOM     67  H   UNL     1      12.374  -6.158   7.067  1.00  0.00     0.167 HD
ATOM     68  C   UNL     1      14.691  -7.757   6.734  1.00  0.00     0.074 A 
ATOM     69  C   UNL     1      15.777  -8.484   6.108  1.00  0.00     0.031 C 
ATOM     70  C   UNL     1      14.540  -7.618   8.073  1.00  0.00     0.037 A 
BRANCH  57  71
ATOM     71  C   UNL     1       9.617  -4.279   9.731  1.00  0.00     0.057 A 
ATOM     72  C   UNL     1      10.130  -3.231  10.508  1.00  0.00     0.134 A 
ATOM     73  C   UNL     1       8.353  -4.774  10.073  1.00  0.00     0.134 A 
ATOM     74  F   UNL     1      11.339  -2.714  10.242  1.00  0.00    -0.206 F 
ATOM     75  C   UNL     1       9.418  -2.701  11.586  1.00  0.00     0.040 A 
ATOM     76  C   UNL     1       7.620  -4.236  11.134  1.00  0.00     0.040 A 
ATOM     77  F   UNL     1       7.798  -5.768   9.363  1.00  0.00    -0.206 F 
ATOM     78  C   UNL     1       8.155  -3.201  11.898  1.00  0.00     0.006 A 
ENDBRANCH  57  71
BRANCH  58  79
ATOM     79  C   UNL     1      14.853  -7.910   2.042  1.00  0.00     0.057 A 
ATOM     80  C   UNL     1      15.576  -7.062   1.194  1.00  0.00     0.134 A 
ATOM     81  C   UNL     1      14.913  -9.283   1.784  1.00  0.00     0.134 A 
ATOM     82  F   UNL     1      15.554  -5.734   1.383  1.00  0.00    -0.206 F 
ATOM     83  C   UNL     1      16.321  -7.558   0.124  1.00  0.00     0.040 A 
ATOM     84  C   UNL     1      15.681  -9.796   0.737  1.00  0.00     0.040 A 
ATOM     85  F   UNL     1      14.257 -10.148   2.572  1.00  0.00    -0.206 F 
ATOM     86  C   UNL     1      16.383  -8.931  -0.100  1.00  0.00     0.006 A 
ENDBRANCH  58  79
BRANCH  70  87
ATOM     87  C   UNL     1      15.558  -8.295   8.939  1.00  0.00     0.057 A 
ATOM     88  C   UNL     1      15.224  -9.445   9.664  1.00  0.00     0.134 A 
ATOM     89  C   UNL     1      16.868  -7.811   9.054  1.00  0.00     0.134 A 
ATOM     90  F   UNL     1      13.985  -9.956   9.600  1.00  0.00    -0.206 F 
ATOM     91  C   UNL     1      16.160 -10.095  10.470  1.00  0.00     0.040 A 
ATOM     92  C   UNL     1      17.819  -8.467   9.837  1.00  0.00     0.040 A 
ATOM     93  F   UNL     1      17.253  -6.724   8.370  1.00  0.00    -0.206 F 
ATOM     94  C   UNL     1      17.464  -9.610  10.550  1.00  0.00     0.006 A 
ENDBRANCH  70  87
ENDBRANCH  44  45
ENDBRANCH  36  39
ENDBRANCH  34  35
ENDBRANCH  33  34
ENDBRANCH   1  33
TORSDOF 13
