REMARK SMILES CCN1C(=O)[C@H](CC(=O)Nc2ccc(C(=O)NCCCNC(=O)c3ccc(-c4c5nc(c(-c6c(F)cccc6F)c6ccc([nH]6)c(-c6c(F)cccc6F)c6nc(c(-c7c(F)cccc7F)c7ccc4[nH]7)C=C6)C=C5)cc3)cc2)S/C1=[NH+]\c1ccc(Cl)cc1
REMARK SMILES IDX 18 1 17 2 15 3 16 4 14 6 11 7 12 8 79 9 13 10 78 11 10 12
REMARK SMILES IDX 8 13 9 14 7 16 6 17 3 18 4 19 81 20 5 21 80 22 82 23 2 25
REMARK SMILES IDX 1 26 83 27 84 28 89 29 85 30 88 31 86 32 87 33 19 34 20 35
REMARK SMILES IDX 21 36 22 37 23 39 24 40 25 41 77 42 26 43 76 44 27 45 28 46
REMARK SMILES IDX 29 47 70 48 30 49 75 50 69 51 71 52 31 53 74 54 68 55 67 56
REMARK SMILES IDX 32 58 58 59 41 60 57 61 42 62 45 63 56 64 72 65 43 66 44 67
REMARK SMILES IDX 55 69 73 70 46 71 33 72 34 73 39 74 35 75 36 76 38 77 40 78
REMARK SMILES IDX 37 79 59 80 60 81 65 82 61 83 62 84 64 85 66 86 63 87 47 88
REMARK SMILES IDX 48 89 53 90 49 91 50 92 52 93 54 94 51 95
REMARK H PARENT 17 5 10 15 82 24 21 38 71 57 45 68
REMARK Flexibility Score: inf
ROOT
ATOM      1  C   UNL     1       1.061   1.909  -0.889  1.00  0.00     0.118 C 
ENDROOT
BRANCH   1   2
ATOM      2  N   UNL     1      -0.020   2.163   0.070  1.00  0.00    -0.352 N 
ATOM      3  C   UNL     1      -0.730   1.441   1.007  1.00  0.00     0.251 C 
ATOM      4  O   UNL     1      -1.283   2.081   1.904  1.00  0.00    -0.269 OA
ATOM      5  H   UNL     1      -0.319   3.100   0.035  1.00  0.00     0.163 HD
BRANCH   3   6
ATOM      6  C   UNL     1      -0.890  -0.036   1.044  1.00  0.00     0.039 A 
ATOM      7  C   UNL     1      -1.119  -2.870   1.186  1.00  0.00     0.041 A 
ATOM      8  C   UNL     1      -0.772  -2.135   2.318  1.00  0.00     0.027 A 
ATOM      9  C   UNL     1      -1.564  -2.161   0.069  1.00  0.00     0.027 A 
ATOM     10  C   UNL     1      -0.641  -0.731   2.242  1.00  0.00     0.016 A 
ATOM     11  C   UNL     1      -1.461  -0.752  -0.004  1.00  0.00     0.016 A 
BRANCH   7  12
ATOM     12  N   UNL     1      -1.158  -4.281   1.241  1.00  0.00    -0.326 N 
ATOM     13  C   UNL     1      -0.725  -5.202   0.303  1.00  0.00     0.226 C 
ATOM     14  O   UNL     1      -1.377  -6.228   0.104  1.00  0.00    -0.275 OA
ATOM     15  H   UNL     1      -1.547  -4.663   2.061  1.00  0.00     0.169 HD
BRANCH  13  16
ATOM     16  C   UNL     1       0.697  -5.078  -0.258  1.00  0.00     0.128 C 
BRANCH  16  17
ATOM     17  C   UNL     1       0.781  -5.048  -1.792  1.00  0.00     0.183 C 
ATOM     18  N   UNL     1       1.356  -2.811  -2.102  1.00  0.00    -0.190 N 
ATOM     19  C   UNL     1       0.310  -3.684  -2.204  1.00  0.00     0.324 C 
ATOM     20  C   UNL     1       2.576  -3.287  -2.458  1.00  0.00     0.319 C 
ATOM     21  O   UNL     1      -0.839  -3.412  -2.532  1.00  0.00    -0.245 OA
ATOM     22  S   UNL     1       2.549  -5.018  -2.439  1.00  0.00    -0.022 SA
ATOM     23  N   UNL     1       3.474  -2.408  -2.706  1.00  0.00    -0.235 N 
ATOM     24  H   UNL     1       3.221  -1.481  -2.492  1.00  0.00     0.313 HD
BRANCH  18  25
ATOM     25  C   UNL     1       1.252  -1.462  -1.615  1.00  0.00     0.243 C 
ATOM     26  C   UNL     1       1.863  -1.429  -0.204  1.00  0.00     0.054 C 
ENDBRANCH  18  25
BRANCH  23  27
ATOM     27  C   UNL     1       4.739  -2.562  -3.226  1.00  0.00     0.125 A 
ATOM     28  C   UNL     1       5.782  -1.885  -2.585  1.00  0.00     0.053 A 
ATOM     29  C   UNL     1       4.926  -3.055  -4.516  1.00  0.00     0.053 A 
ATOM     30  C   UNL     1       7.019  -1.736  -3.209  1.00  0.00     0.025 A 
ATOM     31  C   UNL     1       6.163  -2.911  -5.145  1.00  0.00     0.025 A 
ATOM     32  C   UNL     1       7.204  -2.256  -4.487  1.00  0.00     0.041 A 
ATOM     33  Cl  UNL     1       8.718  -2.055  -5.277  1.00  0.00    -0.084 Cl
ENDBRANCH  23  27
ENDBRANCH  16  17
ENDBRANCH  13  16
ENDBRANCH   7  12
ENDBRANCH   3   6
ENDBRANCH   1   2
BRANCH   1  34
ATOM     34  C   UNL     1       0.634   1.931  -2.355  1.00  0.00     0.042 C 
BRANCH  34  35
ATOM     35  C   UNL     1       1.363   2.975  -3.202  1.00  0.00     0.118 C 
BRANCH  35  36
ATOM     36  N   UNL     1       2.774   2.704  -3.473  1.00  0.00    -0.352 N 
ATOM     37  C   UNL     1       3.510   2.983  -4.612  1.00  0.00     0.251 C 
ATOM     38  H   UNL     1       3.268   2.263  -2.745  1.00  0.00     0.163 HD
ATOM     39  O   UNL     1       4.695   2.665  -4.669  1.00  0.00    -0.269 OA
BRANCH  37  40
ATOM     40  C   UNL     1       2.865   3.619  -5.789  1.00  0.00     0.039 A 
ATOM     41  C   UNL     1       3.139   3.126  -7.070  1.00  0.00     0.014 A 
ATOM     42  C   UNL     1       1.957   4.666  -5.634  1.00  0.00     0.014 A 
ATOM     43  C   UNL     1       2.416   3.602  -8.170  1.00  0.00     0.010 A 
ATOM     44  C   UNL     1       1.168   5.065  -6.708  1.00  0.00     0.010 A 
ATOM     45  C   UNL     1       1.378   4.530  -7.988  1.00  0.00    -0.014 A 
BRANCH  45  46
ATOM     46  C   UNL     1       0.483   4.943  -9.102  1.00  0.00     0.031 A 
ATOM     47  C   UNL     1       0.388   6.392  -9.498  1.00  0.00     0.074 A 
ATOM     48  C   UNL     1      -0.322   4.032  -9.688  1.00  0.00     0.049 A 
ATOM     49  N   UNL     1      -0.420   6.967 -10.354  1.00  0.00    -0.248 NA
ATOM     50  C   UNL     1       1.298   7.325  -8.815  1.00  0.00     0.031 C 
ATOM     51  C   UNL     1      -0.368   2.606  -9.359  1.00  0.00     0.029 A 
ATOM     52  N   UNL     1      -1.270   4.173 -10.672  1.00  0.00    -0.354 N 
ATOM     53  C   UNL     1      -0.127   8.324 -10.296  1.00  0.00     0.074 A 
ATOM     54  C   UNL     1       0.886   8.495  -9.279  1.00  0.00     0.031 C 
ATOM     55  C   UNL     1      -1.276   2.001 -10.142  1.00  0.00     0.029 A 
ATOM     56  C   UNL     1      -1.912   3.000 -10.993  1.00  0.00     0.049 A 
ATOM     57  H   UNL     1      -1.471   5.034 -11.106  1.00  0.00     0.167 HD
ATOM     58  C   UNL     1      -0.637   9.334 -11.041  1.00  0.00     0.037 A 
ATOM     59  C   UNL     1      -2.911   2.759 -11.864  1.00  0.00     0.037 A 
ATOM     60  C   UNL     1      -1.629   9.155 -12.069  1.00  0.00     0.049 A 
ATOM     61  C   UNL     1      -3.475   3.900 -12.667  1.00  0.00     0.074 A 
ATOM     62  C   UNL     1      -2.164  10.102 -12.924  1.00  0.00     0.029 A 
ATOM     63  N   UNL     1      -2.240   7.948 -12.376  1.00  0.00    -0.354 N 
ATOM     64  N   UNL     1      -3.135   5.166 -12.655  1.00  0.00    -0.248 NA
ATOM     65  C   UNL     1      -4.559   3.579 -13.606  1.00  0.00     0.031 C 
ATOM     66  C   UNL     1      -3.139   9.480 -13.710  1.00  0.00     0.029 A 
ATOM     67  C   UNL     1      -3.169   8.133 -13.387  1.00  0.00     0.049 A 
ATOM     68  H   UNL     1      -2.043   7.088 -11.940  1.00  0.00     0.167 HD
ATOM     69  C   UNL     1      -3.942   5.786 -13.600  1.00  0.00     0.074 A 
ATOM     70  C   UNL     1      -4.776   4.754 -14.179  1.00  0.00     0.031 C 
ATOM     71  C   UNL     1      -3.988   7.093 -13.957  1.00  0.00     0.037 A 
BRANCH  58  72
ATOM     72  C   UNL     1      -0.128  10.722 -10.773  1.00  0.00     0.057 A 
ATOM     73  C   UNL     1       1.187  11.101 -11.078  1.00  0.00     0.134 A 
ATOM     74  C   UNL     1      -0.971  11.702 -10.233  1.00  0.00     0.134 A 
ATOM     75  F   UNL     1       2.050  10.210 -11.588  1.00  0.00    -0.206 F 
ATOM     76  C   UNL     1       1.653  12.393 -10.827  1.00  0.00     0.040 A 
ATOM     77  C   UNL     1      -0.525  13.006 -10.007  1.00  0.00     0.040 A 
ATOM     78  F   UNL     1      -2.244  11.412  -9.924  1.00  0.00    -0.206 F 
ATOM     79  C   UNL     1       0.793  13.351 -10.296  1.00  0.00     0.006 A 
ENDBRANCH  58  72
BRANCH  59  80
ATOM     80  C   UNL     1      -3.438   1.379 -12.034  1.00  0.00     0.057 A 
ATOM     81  C   UNL     1      -3.235   0.670 -13.225  1.00  0.00     0.134 A 
ATOM     82  C   UNL     1      -4.162   0.738 -11.022  1.00  0.00     0.134 A 
ATOM     83  F   UNL     1      -2.566   1.235 -14.241  1.00  0.00    -0.206 F 
ATOM     84  C   UNL     1      -3.751  -0.614 -13.411  1.00  0.00     0.040 A 
ATOM     85  C   UNL     1      -4.659  -0.557 -11.183  1.00  0.00     0.040 A 
ATOM     86  F   UNL     1      -4.386   1.357  -9.854  1.00  0.00    -0.206 F 
ATOM     87  C   UNL     1      -4.461  -1.233 -12.385  1.00  0.00     0.006 A 
ENDBRANCH  59  80
BRANCH  71  88
ATOM     88  C   UNL     1      -4.949   7.478 -15.044  1.00  0.00     0.057 A 
ATOM     89  C   UNL     1      -6.334   7.496 -14.838  1.00  0.00     0.134 A 
ATOM     90  C   UNL     1      -4.476   7.887 -16.299  1.00  0.00     0.134 A 
ATOM     91  F   UNL     1      -6.852   7.105 -13.664  1.00  0.00    -0.206 F 
ATOM     92  C   UNL     1      -7.215   7.887 -15.848  1.00  0.00     0.040 A 
ATOM     93  C   UNL     1      -5.346   8.309 -17.305  1.00  0.00     0.040 A 
ATOM     94  F   UNL     1      -3.160   7.903 -16.559  1.00  0.00    -0.206 F 
ATOM     95  C   UNL     1      -6.721   8.303 -17.082  1.00  0.00     0.006 A 
ENDBRANCH  71  88
ENDBRANCH  45  46
ENDBRANCH  37  40
ENDBRANCH  35  36
ENDBRANCH  34  35
ENDBRANCH   1  34
TORSDOF 15
