REMARK SMILES O=C(CSc1cccs1)N[C@H]1CCCCC[C@H]1C(=O)NCCCNC(=O)c1ccc(-c2c3nc(c(-c4c(F)cccc4F)c4ccc([nH]4)c(-c4c(F)cccc4F)c4nc(c(-c5c(F)cccc5F)c5ccc2[nH]5)C=C4)C=C3)cc1
REMARK SMILES IDX 18 1 19 2 20 3 17 5 11 6 10 8 1 9 2 10 3 12 4 13 5 14 6 15
REMARK SMILES IDX 9 16 7 17 8 18 16 19 15 20 14 21 13 22 12 23 21 25 22 26
REMARK SMILES IDX 23 27 24 28 25 29 26 31 27 32 28 33 80 34 29 35 79 36 30 37
REMARK SMILES IDX 31 38 32 39 73 40 33 41 78 42 72 43 74 44 34 45 77 46 71 47
REMARK SMILES IDX 70 48 35 50 61 51 44 52 60 53 45 54 48 55 59 56 75 57 46 58
REMARK SMILES IDX 47 59 58 61 76 62 49 63 36 64 37 65 42 66 38 67 39 68 41 69
REMARK SMILES IDX 43 70 40 71 62 72 63 73 68 74 64 75 65 76 67 77 69 78 66 79
REMARK SMILES IDX 50 80 51 81 56 82 52 83 53 84 55 85 57 86 54 87
REMARK H PARENT 20 4 10 11 24 30 74 49 48 60
REMARK Flexibility Score: 90.00
ROOT
ATOM      1  C   UNL     1       1.222  -0.937  -4.448  1.00  0.00     0.225 C 
ATOM      2  O   UNL     1       1.290  -2.058  -4.964  1.00  0.00    -0.275 OA
ATOM      3  N   UNL     1       1.038   0.104  -5.309  1.00  0.00    -0.356 N 
ATOM      4  H   UNL     1       1.620   0.130  -6.103  1.00  0.00     0.163 HD
ENDROOT
BRANCH   1   5
ATOM      5  C   UNL     1       1.357  -0.786  -2.921  1.00  0.00     0.101 C 
BRANCH   5   6
ATOM      6  C   UNL     1       2.235   0.334  -2.328  1.00  0.00     0.094 CG0
ATOM      7  G   UNL     1       1.584   1.401  -1.431  1.00  0.00     0.000 G0
BRANCH   6   8
ATOM      8  N   UNL     1       3.207   0.860  -3.289  1.00  0.00    -0.352 N 
ATOM      9  O   UNL     1       4.904  -0.529  -2.611  1.00  0.00    -0.274 OA
ATOM     10  C   UNL     1       4.457   0.274  -3.429  1.00  0.00     0.230 C 
ATOM     11  H   UNL     1       2.971   1.639  -3.842  1.00  0.00     0.163 HD
BRANCH  10  12
ATOM     12  C   UNL     1       5.297   0.733  -4.610  1.00  0.00     0.175 C 
BRANCH  12  13
ATOM     13  S   UNL     1       4.448   0.599  -6.205  1.00  0.00    -0.105 SA
BRANCH  13  14
ATOM     14  C   UNL     1       4.332  -1.130  -6.543  1.00  0.00     0.060 A 
ATOM     15  C   UNL     1       3.904  -1.637  -7.756  1.00  0.00     0.027 A 
ATOM     16  S   UNL     1       4.685  -2.396  -5.449  1.00  0.00    -0.137 S 
ATOM     17  C   UNL     1       3.770  -3.058  -7.746  1.00  0.00     0.013 A 
ATOM     18  C   UNL     1       4.128  -3.594  -6.531  1.00  0.00     0.066 A 
ENDBRANCH  13  14
ENDBRANCH  12  13
ENDBRANCH  10  12
ENDBRANCH   6   8
ENDBRANCH   5   6
BRANCH   5  19
ATOM     19  C   UNL     1       0.096  -1.124  -2.124  1.00  0.00     0.015 C 
BRANCH  19  20
ATOM     20  C   UNL     1      -1.104  -0.208  -2.284  1.00  0.00     0.001 C 
BRANCH  20  21
ATOM     21  C   UNL     1      -1.000   1.200  -1.693  1.00  0.00     0.000 C 
BRANCH  21  22
ATOM     22  C   UNL     1       0.273   2.039  -1.851  1.00  0.00     0.002 C 
BRANCH  22  23
ATOM     23  C   UNL     1       1.584   1.401  -1.431  1.00  0.00     0.026 CG0
ATOM     24  G   UNL     1       2.235   0.334  -2.328  1.00  0.00     0.000 G0
ENDBRANCH  22  23
ENDBRANCH  21  22
ENDBRANCH  20  21
ENDBRANCH  19  20
ENDBRANCH   5  19
ENDBRANCH   1   5
BRANCH   3  25
ATOM     25  C   UNL     1       0.077   1.167  -5.174  1.00  0.00     0.117 C 
BRANCH  25  26
ATOM     26  C   UNL     1       0.614   2.550  -5.488  1.00  0.00     0.042 C 
BRANCH  26  27
ATOM     27  C   UNL     1       0.261   3.001  -6.890  1.00  0.00     0.118 C 
BRANCH  27  28
ATOM     28  N   UNL     1      -1.174   3.250  -7.036  1.00  0.00    -0.352 N 
ATOM     29  C   UNL     1      -1.889   4.419  -7.117  1.00  0.00     0.251 C 
ATOM     30  H   UNL     1      -1.724   2.434  -7.085  1.00  0.00     0.163 HD
ATOM     31  O   UNL     1      -3.116   4.382  -6.992  1.00  0.00    -0.269 OA
BRANCH  29  32
ATOM     32  C   UNL     1      -1.215   5.715  -7.335  1.00  0.00     0.039 A 
ATOM     33  C   UNL     1      -1.756   6.882  -6.786  1.00  0.00     0.014 A 
ATOM     34  C   UNL     1      -0.058   5.794  -8.107  1.00  0.00     0.014 A 
ATOM     35  C   UNL     1      -1.096   8.103  -6.958  1.00  0.00     0.010 A 
ATOM     36  C   UNL     1       0.676   6.968  -8.143  1.00  0.00     0.010 A 
ATOM     37  C   UNL     1       0.150   8.148  -7.603  1.00  0.00    -0.014 A 
BRANCH  37  38
ATOM     38  C   UNL     1       0.906   9.410  -7.795  1.00  0.00     0.031 A 
ATOM     39  C   UNL     1       1.284   9.842  -9.190  1.00  0.00     0.074 A 
ATOM     40  C   UNL     1       1.333  10.112  -6.727  1.00  0.00     0.049 A 
ATOM     41  N   UNL     1       2.067  10.818  -9.573  1.00  0.00    -0.248 NA
ATOM     42  C   UNL     1       0.751   9.036 -10.303  1.00  0.00     0.031 C 
ATOM     43  C   UNL     1       1.080   9.768  -5.326  1.00  0.00     0.029 A 
ATOM     44  N   UNL     1       2.084  11.257  -6.655  1.00  0.00    -0.354 N 
ATOM     45  C   UNL     1       2.148  10.713 -10.957  1.00  0.00     0.074 A 
ATOM     46  C   UNL     1       1.397   9.541 -11.342  1.00  0.00     0.031 C 
ATOM     47  C   UNL     1       1.636  10.701  -4.536  1.00  0.00     0.029 A 
ATOM     48  C   UNL     1       2.325  11.680  -5.370  1.00  0.00     0.049 A 
ATOM     49  H   UNL     1       2.419  11.732  -7.450  1.00  0.00     0.167 HD
ATOM     50  C   UNL     1       2.764  11.540 -11.835  1.00  0.00     0.037 A 
ATOM     51  C   UNL     1       3.030  12.734  -4.919  1.00  0.00     0.037 A 
ATOM     52  C   UNL     1       3.458  12.738 -11.450  1.00  0.00     0.049 A 
ATOM     53  C   UNL     1       3.688  13.649  -5.915  1.00  0.00     0.074 A 
ATOM     54  C   UNL     1       4.050  13.689 -12.260  1.00  0.00     0.029 A 
ATOM     55  N   UNL     1       3.643  13.152 -10.139  1.00  0.00    -0.354 N 
ATOM     56  N   UNL     1       3.702  13.575  -7.224  1.00  0.00    -0.248 NA
ATOM     57  C   UNL     1       4.424  14.798  -5.370  1.00  0.00     0.031 C 
ATOM     58  C   UNL     1       4.634  14.657 -11.438  1.00  0.00     0.029 A 
ATOM     59  C   UNL     1       4.357  14.337 -10.118  1.00  0.00     0.049 A 
ATOM     60  H   UNL     1       3.316  12.675  -9.343  1.00  0.00     0.167 HD
ATOM     61  C   UNL     1       4.415  14.684  -7.660  1.00  0.00     0.074 A 
ATOM     62  C   UNL     1       4.807  15.420  -6.476  1.00  0.00     0.031 C 
ATOM     63  C   UNL     1       4.719  15.062  -8.926  1.00  0.00     0.037 A 
BRANCH  50  64
ATOM     64  C   UNL     1       2.698  11.184 -13.293  1.00  0.00     0.057 A 
ATOM     65  C   UNL     1       1.500  11.237 -14.018  1.00  0.00     0.134 A 
ATOM     66  C   UNL     1       3.855  10.812 -13.990  1.00  0.00     0.134 A 
ATOM     67  F   UNL     1       0.351  11.571 -13.410  1.00  0.00    -0.206 F 
ATOM     68  C   UNL     1       1.448  10.905 -15.373  1.00  0.00     0.040 A 
ATOM     69  C   UNL     1       3.822  10.509 -15.353  1.00  0.00     0.040 A 
ATOM     70  F   UNL     1       5.038  10.744 -13.361  1.00  0.00    -0.206 F 
ATOM     71  C   UNL     1       2.614  10.548 -16.046  1.00  0.00     0.006 A 
ENDBRANCH  50  64
BRANCH  51  72
ATOM     72  C   UNL     1       3.124  13.003  -3.461  1.00  0.00     0.057 A 
ATOM     73  C   UNL     1       2.494  14.116  -2.892  1.00  0.00     0.134 A 
ATOM     74  C   UNL     1       3.852  12.168  -2.603  1.00  0.00     0.134 A 
ATOM     75  F   UNL     1       1.794  14.962  -3.663  1.00  0.00    -0.206 F 
ATOM     76  C   UNL     1       2.606  14.406  -1.531  1.00  0.00     0.040 A 
ATOM     77  C   UNL     1       3.949  12.431  -1.236  1.00  0.00     0.040 A 
ATOM     78  F   UNL     1       4.470  11.078  -3.082  1.00  0.00    -0.206 F 
ATOM     79  C   UNL     1       3.332  13.559  -0.698  1.00  0.00     0.006 A 
ENDBRANCH  51  72
BRANCH  63  80
ATOM     80  C   UNL     1       5.467  16.350  -9.099  1.00  0.00     0.057 A 
ATOM     81  C   UNL     1       6.819  16.475  -8.758  1.00  0.00     0.134 A 
ATOM     82  C   UNL     1       4.835  17.466  -9.664  1.00  0.00     0.134 A 
ATOM     83  F   UNL     1       7.479  15.447  -8.203  1.00  0.00    -0.206 F 
ATOM     84  C   UNL     1       7.510  17.672  -8.949  1.00  0.00     0.040 A 
ATOM     85  C   UNL     1       5.523  18.658  -9.888  1.00  0.00     0.040 A 
ATOM     86  F   UNL     1       3.544  17.408 -10.024  1.00  0.00    -0.206 F 
ATOM     87  C   UNL     1       6.863  18.765  -9.524  1.00  0.00     0.006 A 
ENDBRANCH  63  80
ENDBRANCH  37  38
ENDBRANCH  29  32
ENDBRANCH  27  28
ENDBRANCH  26  27
ENDBRANCH  25  26
ENDBRANCH   3  25
TORSDOF 14
