REMARK SMILES O=C(CCc1cn(-c2ccc(Br)cc2)nc1-c1ccccc1)NCCCNC(=O)c1ccc(-c2c3nc(c(-c4c(F)cccc4F)c4ccc([nH]4)c(-c4c(F)cccc4F)c4nc(c(-c5c(F)cccc5F)c5ccc2[nH]5)C=C4)C=C3)cc1
REMARK SMILES IDX 24 1 23 2 1 3 2 4 3 6 4 7 5 8 6 9 16 10 7 11 15 12 17 13
REMARK SMILES IDX 18 14 22 15 19 16 21 17 20 18 8 19 9 20 14 21 10 22 13 23
REMARK SMILES IDX 11 24 12 25 25 26 26 27 27 28 28 29 29 31 30 32 31 33 83 34
REMARK SMILES IDX 32 35 82 36 33 37 34 38 35 39 76 40 36 41 81 42 75 43 77 44
REMARK SMILES IDX 37 45 80 46 74 47 73 48 38 50 64 51 47 52 63 53 48 54 51 55
REMARK SMILES IDX 62 56 78 57 49 58 50 59 61 61 79 62 52 63 39 64 40 65 45 66
REMARK SMILES IDX 41 67 42 68 44 69 46 70 43 71 65 72 66 73 71 74 67 75 68 76
REMARK SMILES IDX 70 77 72 78 69 79 53 80 54 81 59 82 55 83 56 84 58 85 60 86
REMARK SMILES IDX 57 87
REMARK H PARENT 23 5 27 30 77 49 51 60
REMARK Flexibility Score: inf
ROOT
ATOM      1  C   UNL     1       1.750  -0.462  -2.393  1.00  0.00     0.117 C 
ENDROOT
BRANCH   1   2
ATOM      2  N   UNL     1       2.437  -0.087  -1.162  1.00  0.00    -0.356 N 
ATOM      3  O   UNL     1       0.650  -0.181   0.275  1.00  0.00    -0.275 OA
ATOM      4  C   UNL     1       1.850  -0.016   0.082  1.00  0.00     0.220 C 
ATOM      5  H   UNL     1       3.395   0.133  -1.226  1.00  0.00     0.163 HD
BRANCH   4   6
ATOM      6  C   UNL     1       2.809   0.318   1.224  1.00  0.00     0.105 C 
BRANCH   6   7
ATOM      7  C   UNL     1       3.669  -0.866   1.695  1.00  0.00     0.049 C 
BRANCH   7   8
ATOM      8  C   UNL     1       4.592  -1.361   0.634  1.00  0.00    -0.001 A 
ATOM      9  C   UNL     1       5.540  -0.633  -0.070  1.00  0.00     0.119 A 
ATOM     10  C   UNL     1       4.704  -2.662   0.084  1.00  0.00     0.096 A 
ATOM     11  N   UNL     1       5.963  -1.447  -1.094  1.00  0.00    -0.240 N 
ATOM     12  N   UNL     1       5.330  -2.615  -1.089  1.00  0.00    -0.168 NA
BRANCH  10  13
ATOM     13  C   UNL     1       4.270  -3.967   0.519  1.00  0.00     0.002 A 
ATOM     14  C   UNL     1       5.268  -4.911   0.824  1.00  0.00     0.010 A 
ATOM     15  C   UNL     1       2.939  -4.356   0.418  1.00  0.00     0.010 A 
ATOM     16  C   UNL     1       4.937  -6.249   1.004  1.00  0.00     0.001 A 
ATOM     17  C   UNL     1       2.612  -5.700   0.598  1.00  0.00     0.001 A 
ATOM     18  C   UNL     1       3.607  -6.642   0.882  1.00  0.00     0.000 A 
ENDBRANCH  10  13
BRANCH  11  19
ATOM     19  C   UNL     1       6.972  -1.255  -2.041  1.00  0.00     0.065 A 
ATOM     20  C   UNL     1       8.044  -0.447  -1.724  1.00  0.00     0.029 A 
ATOM     21  C   UNL     1       6.952  -2.000  -3.238  1.00  0.00     0.029 A 
ATOM     22  C   UNL     1       9.133  -0.492  -2.576  1.00  0.00     0.018 A 
ATOM     23  C   UNL     1       7.994  -1.892  -4.153  1.00  0.00     0.018 A 
ATOM     24  C   UNL     1       9.098  -1.136  -3.811  1.00  0.00     0.018 A 
ATOM     25  Br  UNL     1      10.553  -0.984  -5.007  1.00  0.00    -0.051 Br
ENDBRANCH  11  19
ENDBRANCH   7   8
ENDBRANCH   6   7
ENDBRANCH   4   6
ENDBRANCH   1   2
BRANCH   1  26
ATOM     26  C   UNL     1       1.902   0.581  -3.513  1.00  0.00     0.042 C 
BRANCH  26  27
ATOM     27  C   UNL     1       3.350   0.825  -3.935  1.00  0.00     0.118 C 
BRANCH  27  28
ATOM     28  N   UNL     1       3.896  -0.080  -4.932  1.00  0.00    -0.352 N 
ATOM     29  C   UNL     1       5.085  -0.005  -5.652  1.00  0.00     0.251 C 
ATOM     30  H   UNL     1       3.340  -0.868  -5.129  1.00  0.00     0.163 HD
ATOM     31  O   UNL     1       5.240  -0.758  -6.599  1.00  0.00    -0.269 OA
BRANCH  29  32
ATOM     32  C   UNL     1       6.197   0.930  -5.279  1.00  0.00     0.039 A 
ATOM     33  C   UNL     1       7.216   1.226  -6.204  1.00  0.00     0.014 A 
ATOM     34  C   UNL     1       6.338   1.417  -3.986  1.00  0.00     0.014 A 
ATOM     35  C   UNL     1       8.339   1.989  -5.823  1.00  0.00     0.010 A 
ATOM     36  C   UNL     1       7.439   2.155  -3.601  1.00  0.00     0.010 A 
ATOM     37  C   UNL     1       8.465   2.423  -4.502  1.00  0.00    -0.014 A 
BRANCH  37  38
ATOM     38  C   UNL     1       9.387   3.471  -4.046  1.00  0.00     0.031 A 
ATOM     39  C   UNL     1       8.967   4.801  -4.507  1.00  0.00     0.074 A 
ATOM     40  C   UNL     1      10.217   3.338  -2.987  1.00  0.00     0.049 A 
ATOM     41  N   UNL     1       9.656   5.536  -5.312  1.00  0.00    -0.248 NA
ATOM     42  C   UNL     1       7.612   5.306  -4.236  1.00  0.00     0.031 C 
ATOM     43  C   UNL     1      10.756   2.111  -2.450  1.00  0.00     0.029 A 
ATOM     44  N   UNL     1      10.667   4.252  -2.074  1.00  0.00    -0.354 N 
ATOM     45  C   UNL     1       8.957   6.726  -5.364  1.00  0.00     0.074 A 
ATOM     46  C   UNL     1       7.608   6.410  -4.986  1.00  0.00     0.031 C 
ATOM     47  C   UNL     1      11.133   2.255  -1.162  1.00  0.00     0.029 A 
ATOM     48  C   UNL     1      11.095   3.677  -0.872  1.00  0.00     0.049 A 
ATOM     49  H   UNL     1      10.687   5.221  -2.246  1.00  0.00     0.167 HD
ATOM     50  C   UNL     1       9.644   7.895  -5.265  1.00  0.00     0.037 A 
ATOM     51  C   UNL     1      11.690   4.244   0.206  1.00  0.00     0.037 A 
ATOM     52  C   UNL     1      11.064   7.677  -5.489  1.00  0.00     0.049 A 
ATOM     53  C   UNL     1      12.385   5.439  -0.305  1.00  0.00     0.074 A 
ATOM     54  C   UNL     1      11.824   7.114  -6.496  1.00  0.00     0.029 A 
ATOM     55  N   UNL     1      11.867   7.714  -4.375  1.00  0.00    -0.354 N 
ATOM     56  N   UNL     1      13.415   5.375  -1.104  1.00  0.00    -0.248 NA
ATOM     57  C   UNL     1      11.666   6.701  -0.308  1.00  0.00     0.031 C 
ATOM     58  C   UNL     1      12.948   6.518  -5.851  1.00  0.00     0.029 A 
ATOM     59  C   UNL     1      12.879   6.796  -4.485  1.00  0.00     0.049 A 
ATOM     60  H   UNL     1      11.734   8.314  -3.606  1.00  0.00     0.167 HD
ATOM     61  C   UNL     1      13.172   6.363  -2.043  1.00  0.00     0.074 A 
ATOM     62  C   UNL     1      12.187   7.241  -1.413  1.00  0.00     0.031 C 
ATOM     63  C   UNL     1      13.548   6.194  -3.346  1.00  0.00     0.037 A 
BRANCH  50  64
ATOM     64  C   UNL     1       9.130   9.105  -4.516  1.00  0.00     0.057 A 
ATOM     65  C   UNL     1       9.857  10.302  -4.618  1.00  0.00     0.134 A 
ATOM     66  C   UNL     1       8.141   9.096  -3.506  1.00  0.00     0.134 A 
ATOM     67  F   UNL     1      10.836  10.434  -5.526  1.00  0.00    -0.206 F 
ATOM     68  C   UNL     1       9.668  11.374  -3.738  1.00  0.00     0.040 A 
ATOM     69  C   UNL     1       7.906  10.181  -2.659  1.00  0.00     0.040 A 
ATOM     70  F   UNL     1       7.410   8.019  -3.201  1.00  0.00    -0.206 F 
ATOM     71  C   UNL     1       8.693  11.314  -2.751  1.00  0.00     0.006 A 
ENDBRANCH  50  64
BRANCH  51  72
ATOM     72  C   UNL     1      11.514   3.923   1.643  1.00  0.00     0.057 A 
ATOM     73  C   UNL     1      12.370   4.445   2.624  1.00  0.00     0.134 A 
ATOM     74  C   UNL     1      10.343   3.304   2.121  1.00  0.00     0.134 A 
ATOM     75  F   UNL     1      13.502   5.072   2.273  1.00  0.00    -0.206 F 
ATOM     76  C   UNL     1      12.066   4.393   3.993  1.00  0.00     0.040 A 
ATOM     77  C   UNL     1      10.025   3.248   3.486  1.00  0.00     0.040 A 
ATOM     78  F   UNL     1       9.432   2.803   1.272  1.00  0.00    -0.206 F 
ATOM     79  C   UNL     1      10.880   3.808   4.427  1.00  0.00     0.006 A 
ENDBRANCH  51  72
BRANCH  63  80
ATOM     80  C   UNL     1      14.600   5.153  -3.645  1.00  0.00     0.057 A 
ATOM     81  C   UNL     1      14.420   3.769  -3.510  1.00  0.00     0.134 A 
ATOM     82  C   UNL     1      15.803   5.569  -4.226  1.00  0.00     0.134 A 
ATOM     83  F   UNL     1      13.283   3.265  -3.028  1.00  0.00    -0.206 F 
ATOM     84  C   UNL     1      15.391   2.846  -3.916  1.00  0.00     0.040 A 
ATOM     85  C   UNL     1      16.773   4.659  -4.659  1.00  0.00     0.040 A 
ATOM     86  F   UNL     1      16.038   6.875  -4.427  1.00  0.00    -0.206 F 
ATOM     87  C   UNL     1      16.571   3.291  -4.501  1.00  0.00     0.006 A 
ENDBRANCH  63  80
ENDBRANCH  37  38
ENDBRANCH  29  32
ENDBRANCH  27  28
ENDBRANCH  26  27
ENDBRANCH   1  26
TORSDOF 14
