REMARK SMILES O=C(NCCCNC(=O)c1cccc(CSc2nc(-c3ccccc3)n[nH]2)c1)c1ccc(-c2c3nc(c(-c4c(F)cccc4F)c4ccc([nH]4)c(-c4c(F)cccc4F)c4nc(c(-c5c(F)cccc5F)c5ccc2[nH]5)C=C4)C=C3)cc1
REMARK SMILES IDX 6 1 5 2 4 3 3 4 1 5 2 6 29 8 30 9 82 10 31 11 81 12 32 13
REMARK SMILES IDX 33 14 34 15 75 16 35 17 80 18 74 19 76 20 36 21 79 22 73 23
REMARK SMILES IDX 72 24 37 26 63 27 46 28 62 29 47 30 50 31 61 32 77 33 48 34
REMARK SMILES IDX 49 35 60 37 78 38 51 39 38 40 39 41 44 42 40 43 41 44 43 45
REMARK SMILES IDX 45 46 42 47 64 48 65 49 70 50 66 51 67 52 69 53 71 54 68 55
REMARK SMILES IDX 52 56 53 57 58 58 54 59 55 60 57 61 59 62 56 63 7 64 8 65
REMARK SMILES IDX 9 67 10 68 11 69 28 70 12 71 14 72 13 73 15 74 16 75 17 76
REMARK SMILES IDX 18 77 27 78 19 79 26 80 20 82 21 83 25 84 22 85 24 86 23 87
REMARK H PARENT 3 7 76 25 50 36 7 66 27 81
REMARK Flexibility Score: inf
ROOT
ATOM      1  C   UNL     1       4.383  -3.697   0.036  1.00  0.00     0.118 C 
ENDROOT
BRANCH   1   2
ATOM      2  C   UNL     1       4.880  -2.338   0.501  1.00  0.00     0.042 C 
BRANCH   2   3
ATOM      3  C   UNL     1       4.512  -1.191  -0.427  1.00  0.00     0.118 C 
BRANCH   3   4
ATOM      4  N   UNL     1       3.077  -0.944  -0.491  1.00  0.00    -0.352 N 
ATOM      5  O   UNL     1       1.111   0.075  -0.081  1.00  0.00    -0.269 OA
ATOM      6  C   UNL     1       2.338   0.137  -0.075  1.00  0.00     0.251 C 
ATOM      7  H   UNL     1       2.552  -1.670  -0.899  1.00  0.00     0.163 HD
BRANCH   6   8
ATOM      8  C   UNL     1       3.007   1.363   0.414  1.00  0.00     0.039 A 
ATOM      9  C   UNL     1       4.138   1.870  -0.224  1.00  0.00     0.014 A 
ATOM     10  C   UNL     1       2.483   2.025   1.529  1.00  0.00     0.014 A 
ATOM     11  C   UNL     1       4.852   2.912   0.356  1.00  0.00     0.010 A 
ATOM     12  C   UNL     1       3.142   3.143   2.049  1.00  0.00     0.010 A 
ATOM     13  C   UNL     1       4.359   3.567   1.496  1.00  0.00    -0.014 A 
BRANCH  13  14
ATOM     14  C   UNL     1       5.123   4.707   2.065  1.00  0.00     0.031 A 
ATOM     15  C   UNL     1       5.703   4.641   3.451  1.00  0.00     0.074 A 
ATOM     16  C   UNL     1       5.327   5.798   1.302  1.00  0.00     0.049 A 
ATOM     17  N   UNL     1       6.426   5.530   4.086  1.00  0.00    -0.248 NA
ATOM     18  C   UNL     1       5.430   3.425   4.233  1.00  0.00     0.031 C 
ATOM     19  C   UNL     1       4.809   5.985  -0.056  1.00  0.00     0.029 A 
ATOM     20  N   UNL     1       6.043   6.942   1.544  1.00  0.00    -0.354 N 
ATOM     21  C   UNL     1       6.670   4.997   5.345  1.00  0.00     0.074 A 
ATOM     22  C   UNL     1       5.998   3.716   5.395  1.00  0.00     0.031 C 
ATOM     23  C   UNL     1       5.274   7.142  -0.548  1.00  0.00     0.029 A 
ATOM     24  C   UNL     1       6.067   7.808   0.479  1.00  0.00     0.049 A 
ATOM     25  H   UNL     1       6.495   7.125   2.399  1.00  0.00     0.167 HD
ATOM     26  C   UNL     1       7.394   5.523   6.363  1.00  0.00     0.037 A 
ATOM     27  C   UNL     1       6.656   9.009   0.342  1.00  0.00     0.037 A 
ATOM     28  C   UNL     1       8.083   6.787   6.301  1.00  0.00     0.049 A 
ATOM     29  C   UNL     1       7.441   9.574   1.489  1.00  0.00     0.074 A 
ATOM     30  C   UNL     1       8.879   7.385   7.263  1.00  0.00     0.029 A 
ATOM     31  N   UNL     1       8.055   7.651   5.216  1.00  0.00    -0.354 N 
ATOM     32  N   UNL     1       7.689   9.043   2.660  1.00  0.00    -0.248 NA
ATOM     33  C   UNL     1       8.022  10.909   1.294  1.00  0.00     0.031 C 
ATOM     34  C   UNL     1       9.295   8.630   6.778  1.00  0.00     0.029 A 
ATOM     35  C   UNL     1       8.800   8.786   5.494  1.00  0.00     0.049 A 
ATOM     36  H   UNL     1       7.576   7.482   4.372  1.00  0.00     0.167 HD
ATOM     37  C   UNL     1       8.476   9.965   3.335  1.00  0.00     0.074 A 
ATOM     38  C   UNL     1       8.673  11.084   2.436  1.00  0.00     0.031 C 
ATOM     39  C   UNL     1       8.991   9.890   4.587  1.00  0.00     0.037 A 
BRANCH  26  40
ATOM     40  C   UNL     1       7.457   4.741   7.644  1.00  0.00     0.057 A 
ATOM     41  C   UNL     1       8.186   3.550   7.756  1.00  0.00     0.134 A 
ATOM     42  C   UNL     1       6.797   5.202   8.791  1.00  0.00     0.134 A 
ATOM     43  F   UNL     1       8.832   3.045   6.694  1.00  0.00    -0.206 F 
ATOM     44  C   UNL     1       8.233   2.832   8.953  1.00  0.00     0.040 A 
ATOM     45  C   UNL     1       6.858   4.507  10.000  1.00  0.00     0.040 A 
ATOM     46  F   UNL     1       6.088   6.340   8.757  1.00  0.00    -0.206 F 
ATOM     47  C   UNL     1       7.571   3.313  10.081  1.00  0.00     0.006 A 
ENDBRANCH  26  40
BRANCH  27  48
ATOM     48  C   UNL     1       6.536   9.744  -0.940  1.00  0.00     0.057 A 
ATOM     49  C   UNL     1       7.636   9.893  -1.791  1.00  0.00     0.134 A 
ATOM     50  C   UNL     1       5.317  10.292  -1.357  1.00  0.00     0.134 A 
ATOM     51  F   UNL     1       8.834   9.403  -1.438  1.00  0.00    -0.206 F 
ATOM     52  C   UNL     1       7.532  10.568  -3.008  1.00  0.00     0.040 A 
ATOM     53  C   UNL     1       5.191  10.947  -2.582  1.00  0.00     0.040 A 
ATOM     54  F   UNL     1       4.223  10.173  -0.589  1.00  0.00    -0.206 F 
ATOM     55  C   UNL     1       6.303  11.091  -3.409  1.00  0.00     0.006 A 
ENDBRANCH  27  48
BRANCH  39  56
ATOM     56  C   UNL     1       9.848  11.035   5.039  1.00  0.00     0.057 A 
ATOM     57  C   UNL     1       9.307  12.285   5.363  1.00  0.00     0.134 A 
ATOM     58  C   UNL     1      11.234  10.876   5.168  1.00  0.00     0.134 A 
ATOM     59  F   UNL     1       7.989  12.506   5.245  1.00  0.00    -0.206 F 
ATOM     60  C   UNL     1      10.116  13.345   5.774  1.00  0.00     0.040 A 
ATOM     61  C   UNL     1      12.051  11.920   5.603  1.00  0.00     0.040 A 
ATOM     62  F   UNL     1      11.815   9.701   4.880  1.00  0.00    -0.206 F 
ATOM     63  C   UNL     1      11.492  13.162   5.901  1.00  0.00     0.006 A 
ENDBRANCH  39  56
ENDBRANCH  13  14
ENDBRANCH   6   8
ENDBRANCH   3   4
ENDBRANCH   2   3
ENDBRANCH   1   2
BRANCH   1  64
ATOM     64  N   UNL     1       4.940  -4.080  -1.254  1.00  0.00    -0.352 N 
ATOM     65  C   UNL     1       5.794  -5.103  -1.583  1.00  0.00     0.251 C 
ATOM     66  H   UNL     1       4.659  -3.516  -2.010  1.00  0.00     0.163 HD
ATOM     67  O   UNL     1       6.294  -5.140  -2.704  1.00  0.00    -0.269 OA
BRANCH  65  68
ATOM     68  C   UNL     1       6.114  -6.158  -0.599  1.00  0.00     0.040 A 
ATOM     69  C   UNL     1       7.428  -6.613  -0.480  1.00  0.00     0.014 A 
ATOM     70  C   UNL     1       5.103  -6.748   0.162  1.00  0.00     0.018 A 
ATOM     71  C   UNL     1       7.733  -7.612   0.447  1.00  0.00     0.001 A 
ATOM     72  C   UNL     1       5.400  -7.730   1.115  1.00  0.00    -0.037 A 
ATOM     73  C   UNL     1       6.728  -8.155   1.252  1.00  0.00     0.004 A 
BRANCH  72  74
ATOM     74  C   UNL     1       4.285  -8.313   1.946  1.00  0.00     0.113 C 
BRANCH  74  75
ATOM     75  S   UNL     1       3.870 -10.022   1.514  1.00  0.00    -0.082 SA
BRANCH  75  76
ATOM     76  C   UNL     1       3.266  -9.858  -0.088  1.00  0.00     0.184 A 
ATOM     77  N   UNL     1       3.011  -8.777  -0.781  1.00  0.00    -0.201 NA
ATOM     78  N   UNL     1       2.995 -10.957  -0.834  1.00  0.00    -0.254 N 
ATOM     79  C   UNL     1       2.586  -9.278  -1.994  1.00  0.00     0.182 A 
ATOM     80  N   UNL     1       2.526 -10.620  -2.045  1.00  0.00    -0.153 NA
ATOM     81  H   UNL     1       3.125 -11.884  -0.527  1.00  0.00     0.192 HD
BRANCH  79  82
ATOM     82  C   UNL     1       2.231  -8.423  -3.113  1.00  0.00     0.021 A 
ATOM     83  C   UNL     1       0.997  -8.586  -3.757  1.00  0.00     0.012 A 
ATOM     84  C   UNL     1       3.125  -7.451  -3.578  1.00  0.00     0.012 A 
ATOM     85  C   UNL     1       0.661  -7.787  -4.851  1.00  0.00     0.001 A 
ATOM     86  C   UNL     1       2.794  -6.663  -4.684  1.00  0.00     0.001 A 
ATOM     87  C   UNL     1       1.562  -6.830  -5.317  1.00  0.00     0.000 A 
ENDBRANCH  79  82
ENDBRANCH  75  76
ENDBRANCH  74  75
ENDBRANCH  72  74
ENDBRANCH  65  68
ENDBRANCH   1  64
TORSDOF 14
