REMARK SMILES O=C(NCCCNC(=O)[C@@H](Cc1ccccc1)N1C(=O)/C(=C/c2ccc3ncccc3c2)SC1=S)c1ccc(-c2c3nc(c(-c4c(F)cccc4F)c4ccc([nH]4)c(-c4c(F)cccc4F)c4nc(c(-c5c(F)cccc5F)c5ccc2[nH]5)C=C4)C=C3)cc1
REMARK SMILES IDX 5 1 4 2 3 3 1 4 2 5 36 7 37 8 89 9 38 10 88 11 39 12 40 13
REMARK SMILES IDX 41 14 82 15 42 16 87 17 81 18 83 19 43 20 86 21 80 22 79 23
REMARK SMILES IDX 44 25 70 26 53 27 69 28 54 29 57 30 68 31 84 32 55 33 56 34
REMARK SMILES IDX 67 36 85 37 58 38 45 39 46 40 51 41 47 42 48 43 50 44 52 45
REMARK SMILES IDX 49 46 71 47 72 48 77 49 73 50 74 51 76 52 78 53 75 54 59 55
REMARK SMILES IDX 60 56 65 57 61 58 62 59 64 60 66 61 63 62 6 63 7 64 8 65
REMARK SMILES IDX 9 67 10 68 11 69 12 70 13 71 17 72 14 73 16 74 15 75 18 76
REMARK SMILES IDX 19 77 34 78 20 79 21 80 33 81 35 82 22 83 23 84 24 85 32 86
REMARK SMILES IDX 25 87 31 88 26 89 30 90 27 91 29 92 28 93
REMARK H PARENT 3 6 83 24 57 35 7 66
REMARK Flexibility Score: inf
ROOT
ATOM      1  C   UNL     1       4.858   2.580  -0.243  1.00  0.00     0.042 C 
ENDROOT
BRANCH   1   2
ATOM      2  C   UNL     1       4.163   1.882   0.912  1.00  0.00     0.118 C 
BRANCH   2   3
ATOM      3  N   UNL     1       2.846   1.379   0.555  1.00  0.00    -0.352 N 
ATOM      4  O   UNL     1       1.199   0.090  -0.195  1.00  0.00    -0.269 OA
ATOM      5  C   UNL     1       2.354   0.137   0.232  1.00  0.00     0.251 C 
ATOM      6  H   UNL     1       2.156   2.081   0.541  1.00  0.00     0.163 HD
BRANCH   5   7
ATOM      7  C   UNL     1       3.120  -1.137   0.357  1.00  0.00     0.039 A 
ATOM      8  C   UNL     1       4.183  -1.321   1.237  1.00  0.00     0.014 A 
ATOM      9  C   UNL     1       2.675  -2.252  -0.376  1.00  0.00     0.014 A 
ATOM     10  C   UNL     1       4.880  -2.530   1.276  1.00  0.00     0.010 A 
ATOM     11  C   UNL     1       3.296  -3.505  -0.244  1.00  0.00     0.010 A 
ATOM     12  C   UNL     1       4.424  -3.652   0.570  1.00  0.00    -0.014 A 
BRANCH  12  13
ATOM     13  C   UNL     1       5.097  -4.963   0.788  1.00  0.00     0.031 A 
ATOM     14  C   UNL     1       5.784  -5.696  -0.332  1.00  0.00     0.074 A 
ATOM     15  C   UNL     1       5.133  -5.473   2.037  1.00  0.00     0.049 A 
ATOM     16  N   UNL     1       6.481  -6.805  -0.282  1.00  0.00    -0.248 NA
ATOM     17  C   UNL     1       5.667  -5.124  -1.681  1.00  0.00     0.031 C 
ATOM     18  C   UNL     1       4.474  -4.885   3.207  1.00  0.00     0.029 A 
ATOM     19  N   UNL     1       5.779  -6.574   2.544  1.00  0.00    -0.354 N 
ATOM     20  C   UNL     1       6.864  -7.076  -1.589  1.00  0.00     0.074 A 
ATOM     21  C   UNL     1       6.305  -6.026  -2.415  1.00  0.00     0.031 C 
ATOM     22  C   UNL     1       4.817  -5.577   4.302  1.00  0.00     0.029 A 
ATOM     23  C   UNL     1       5.668  -6.694   3.909  1.00  0.00     0.049 A 
ATOM     24  H   UNL     1       6.274  -7.215   1.984  1.00  0.00     0.167 HD
ATOM     25  C   UNL     1       7.618  -8.100  -2.056  1.00  0.00     0.037 A 
ATOM     26  C   UNL     1       6.191  -7.599   4.757  1.00  0.00     0.037 A 
ATOM     27  C   UNL     1       8.202  -9.129  -1.235  1.00  0.00     0.049 A 
ATOM     28  C   UNL     1       7.045  -8.705   4.215  1.00  0.00     0.074 A 
ATOM     29  C   UNL     1       9.013 -10.184  -1.620  1.00  0.00     0.029 A 
ATOM     30  N   UNL     1       8.042  -9.231   0.138  1.00  0.00    -0.354 N 
ATOM     31  N   UNL     1       7.417  -8.927   2.979  1.00  0.00    -0.248 NA
ATOM     32  C   UNL     1       7.541  -9.693   5.183  1.00  0.00     0.031 C 
ATOM     33  C   UNL     1       9.320 -10.940  -0.483  1.00  0.00     0.029 A 
ATOM     34  C   UNL     1       8.726 -10.338   0.614  1.00  0.00     0.049 A 
ATOM     35  H   UNL     1       7.520  -8.608   0.694  1.00  0.00     0.167 HD
ATOM     36  C   UNL     1       8.188 -10.080   3.018  1.00  0.00     0.074 A 
ATOM     37  C   UNL     1       8.256 -10.494   4.405  1.00  0.00     0.031 C 
ATOM     38  C   UNL     1       8.777 -10.742   1.994  1.00  0.00     0.037 A 
BRANCH  25  39
ATOM     39  C   UNL     1       7.854  -8.166  -3.536  1.00  0.00     0.057 A 
ATOM     40  C   UNL     1       8.757  -7.310  -4.178  1.00  0.00     0.134 A 
ATOM     41  C   UNL     1       7.209  -9.133  -4.318  1.00  0.00     0.134 A 
ATOM     42  F   UNL     1       9.398  -6.356  -3.487  1.00  0.00    -0.206 F 
ATOM     43  C   UNL     1       8.999  -7.403  -5.550  1.00  0.00     0.040 A 
ATOM     44  C   UNL     1       7.457  -9.248  -5.687  1.00  0.00     0.040 A 
ATOM     45  F   UNL     1       6.337  -9.988  -3.763  1.00  0.00    -0.206 F 
ATOM     46  C   UNL     1       8.352  -8.379  -6.308  1.00  0.00     0.006 A 
ENDBRANCH  25  39
BRANCH  26  47
ATOM     47  C   UNL     1       5.924  -7.487   6.212  1.00  0.00     0.057 A 
ATOM     48  C   UNL     1       6.930  -7.098   7.103  1.00  0.00     0.134 A 
ATOM     49  C   UNL     1       4.655  -7.748   6.742  1.00  0.00     0.134 A 
ATOM     50  F   UNL     1       8.170  -6.853   6.656  1.00  0.00    -0.206 F 
ATOM     51  C   UNL     1       6.686  -6.979   8.472  1.00  0.00     0.040 A 
ATOM     52  C   UNL     1       4.390  -7.610   8.105  1.00  0.00     0.040 A 
ATOM     53  F   UNL     1       3.648  -8.118   5.936  1.00  0.00    -0.206 F 
ATOM     54  C   UNL     1       5.410  -7.229   8.975  1.00  0.00     0.006 A 
ENDBRANCH  26  47
BRANCH  38  55
ATOM     55  C   UNL     1       9.542 -11.982   2.342  1.00  0.00     0.057 A 
ATOM     56  C   UNL     1       8.888 -13.180   2.654  1.00  0.00     0.134 A 
ATOM     57  C   UNL     1      10.941 -11.982   2.352  1.00  0.00     0.134 A 
ATOM     58  F   UNL     1       7.548 -13.237   2.676  1.00  0.00    -0.206 F 
ATOM     59  C   UNL     1       9.601 -14.334   2.982  1.00  0.00     0.040 A 
ATOM     60  C   UNL     1      11.665 -13.134   2.661  1.00  0.00     0.040 A 
ATOM     61  F   UNL     1      11.625 -10.866   2.060  1.00  0.00    -0.206 F 
ATOM     62  C   UNL     1      10.994 -14.313   2.982  1.00  0.00     0.006 A 
ENDBRANCH  38  55
ENDBRANCH  12  13
ENDBRANCH   5   7
ENDBRANCH   2   3
ENDBRANCH   1   2
BRANCH   1  63
ATOM     63  C   UNL     1       4.280   3.952  -0.591  1.00  0.00     0.117 C 
BRANCH  63  64
ATOM     64  N   UNL     1       5.329   4.949  -0.517  1.00  0.00    -0.354 N 
ATOM     65  C   UNL     1       6.220   5.382  -1.444  1.00  0.00     0.243 C 
ATOM     66  H   UNL     1       5.410   5.389   0.360  1.00  0.00     0.163 HD
ATOM     67  O   UNL     1       7.271   5.862  -0.999  1.00  0.00    -0.273 OA
BRANCH  65  68
ATOM     68  C   UNL     1       6.044   5.229  -2.973  1.00  0.00     0.185 C 
BRANCH  68  69
ATOM     69  C   UNL     1       6.699   3.875  -3.416  1.00  0.00     0.071 C 
BRANCH  69  70
ATOM     70  C   UNL     1       6.028   2.506  -3.455  1.00  0.00    -0.045 A 
ATOM     71  C   UNL     1       4.655   2.259  -3.592  1.00  0.00     0.004 A 
ATOM     72  C   UNL     1       6.874   1.380  -3.466  1.00  0.00     0.004 A 
ATOM     73  C   UNL     1       4.143   0.960  -3.711  1.00  0.00     0.000 A 
ATOM     74  C   UNL     1       6.369   0.079  -3.582  1.00  0.00     0.000 A 
ATOM     75  C   UNL     1       5.001  -0.131  -3.704  1.00  0.00     0.000 A 
ENDBRANCH  69  70
ENDBRANCH  68  69
BRANCH  68  76
ATOM     76  N   UNL     1       4.727   5.605  -3.528  1.00  0.00    -0.280 N 
ATOM     77  C   UNL     1       4.356   5.117  -4.760  1.00  0.00     0.266 C 
ATOM     78  C   UNL     1       4.035   6.765  -3.213  1.00  0.00     0.149 C 
ATOM     79  O   UNL     1       5.070   4.560  -5.587  1.00  0.00    -0.268 OA
ATOM     80  C   UNL     1       2.955   5.466  -5.050  1.00  0.00     0.081 C 
ATOM     81  S   UNL     1       2.520   6.834  -4.133  1.00  0.00    -0.054 SA
ATOM     82  S   UNL     1       4.441   8.001  -2.169  1.00  0.00    -0.052 S 
ATOM     83  C   UNL     1       2.251   4.745  -5.926  1.00  0.00     0.029 C 
BRANCH  83  84
ATOM     84  C   UNL     1       0.949   5.117  -6.459  1.00  0.00    -0.024 A 
ATOM     85  C   UNL     1      -0.258   4.739  -5.879  1.00  0.00     0.010 A 
ATOM     86  C   UNL     1       0.949   5.871  -7.633  1.00  0.00     0.018 A 
ATOM     87  C   UNL     1      -1.461   5.112  -6.493  1.00  0.00     0.029 A 
ATOM     88  C   UNL     1      -0.255   6.238  -8.239  1.00  0.00     0.001 A 
ATOM     89  C   UNL     1      -1.487   5.855  -7.670  1.00  0.00     0.070 A 
ATOM     90  C   UNL     1      -0.258   6.982  -9.421  1.00  0.00     0.012 A 
ATOM     91  N   UNL     1      -2.659   6.184  -8.240  1.00  0.00    -0.256 NA
ATOM     92  C   UNL     1      -1.465   7.321 -10.009  1.00  0.00     0.021 A 
ATOM     93  C   UNL     1      -2.627   6.902  -9.387  1.00  0.00     0.112 A 
ENDBRANCH  83  84
ENDBRANCH  68  76
ENDBRANCH  65  68
ENDBRANCH  63  64
ENDBRANCH   1  63
TORSDOF 14
