REMARK SMILES C[C@@]1(C(=O)NCCCNC(=O)c2ccc(-c3c4nc(c(-c5c(F)cccc5F)c5ccc([nH]5)c(-c5c(F)cccc5F)c5nc(c(-c6c(F)cccc6F)c6ccc3[nH]6)C=C5)C=C4)cc2)CCCN1c1ncnc2c1CCCCC2
REMARK SMILES IDX 6 1 5 2 3 3 4 4 2 6 1 7 66 8 69 9 67 10 68 11 70 12 71 13
REMARK SMILES IDX 75 14 72 15 74 16 73 17 76 18 77 19 78 20 80 22 79 23 7 25
REMARK SMILES IDX 8 26 9 27 10 28 11 30 12 31 13 32 65 33 14 34 64 35 15 36
REMARK SMILES IDX 16 37 17 38 58 39 18 40 63 41 57 42 59 43 19 44 62 45 56 46
REMARK SMILES IDX 55 47 20 49 46 50 29 51 45 52 30 53 33 54 44 55 60 56 31 57
REMARK SMILES IDX 32 58 43 60 61 61 34 62 21 63 22 64 27 65 23 66 24 67 26 68
REMARK SMILES IDX 28 69 25 70 47 71 48 72 53 73 49 74 50 75 52 76 54 77 51 78
REMARK SMILES IDX 35 79 36 80 41 81 37 82 38 83 40 84 42 85 39 86
REMARK H PARENT 5 5 9 29 59 48 33 59
REMARK Flexibility Score: 90.00
ROOT
ATOM      1  C   UNL     1      -1.658  -3.637  -0.353  1.00  0.00     0.117 C 
ENDROOT
BRANCH   1   2
ATOM      2  N   UNL     1      -1.633  -2.275  -0.834  1.00  0.00    -0.354 N 
ATOM      3  C   UNL     1      -0.708  -1.282  -0.658  1.00  0.00     0.245 C 
ATOM      4  O   UNL     1      -0.978  -0.210  -1.216  1.00  0.00    -0.272 OA
ATOM      5  H   UNL     1      -2.412  -2.018  -1.379  1.00  0.00     0.163 HD
BRANCH   3   6
ATOM      6  C   UNL     1       0.612  -1.468   0.162  1.00  0.00     0.117 C 
ATOM      7  C   UNL     1       1.359  -0.118   0.209  1.00  0.00     0.045 C 
ATOM      8  C   UNL     1       1.536  -2.481  -0.567  1.00  0.00     0.040 C 
ATOM      9  N   UNL     1       0.399  -2.044   1.531  1.00  0.00    -0.342 N 
ATOM     10  C   UNL     1       1.687  -3.695   0.331  1.00  0.00     0.024 C 
ATOM     11  C   UNL     1       1.236  -3.248   1.712  1.00  0.00     0.119 C 
BRANCH   9  12
ATOM     12  C   UNL     1       0.319  -1.231   2.669  1.00  0.00     0.136 A 
ATOM     13  N   UNL     1       1.357  -1.331   3.527  1.00  0.00    -0.219 NA
ATOM     14  C   UNL     1      -0.736  -0.353   2.957  1.00  0.00     0.016 A 
ATOM     15  C   UNL     1       1.379  -0.556   4.613  1.00  0.00     0.224 A 
ATOM     16  C   UNL     1      -0.595   0.435   4.109  1.00  0.00     0.049 A 
ATOM     17  N   UNL     1       0.456   0.339   4.945  1.00  0.00    -0.241 NA
BRANCH  14  18
ATOM     18  C   UNL     1      -1.996  -0.235   2.147  1.00  0.00     0.041 C 
BRANCH  18  19
ATOM     19  C   UNL     1      -3.270  -0.634   2.899  1.00  0.00     0.005 C 
BRANCH  19  20
ATOM     20  C   UNL     1      -3.843   0.456   3.798  1.00  0.00     0.001 CG0
ATOM     21  G   UNL     1      -2.942   0.841   4.966  1.00  0.00     0.000 G0
ENDBRANCH  19  20
ENDBRANCH  18  19
ENDBRANCH  14  18
BRANCH  16  22
ATOM     22  C   UNL     1      -1.622   1.462   4.521  1.00  0.00     0.057 C 
BRANCH  22  23
ATOM     23  C   UNL     1      -2.942   0.841   4.966  1.00  0.00     0.006 CG0
ATOM     24  G   UNL     1      -3.843   0.456   3.798  1.00  0.00     0.000 G0
ENDBRANCH  22  23
ENDBRANCH  16  22
ENDBRANCH   9  12
ENDBRANCH   3   6
ENDBRANCH   1   2
BRANCH   1  25
ATOM     25  C   UNL     1      -2.715  -3.908   0.702  1.00  0.00     0.042 C 
BRANCH  25  26
ATOM     26  C   UNL     1      -4.134  -3.857   0.167  1.00  0.00     0.118 C 
BRANCH  26  27
ATOM     27  N   UNL     1      -4.373  -4.849  -0.877  1.00  0.00    -0.352 N 
ATOM     28  C   UNL     1      -5.145  -5.985  -0.878  1.00  0.00     0.251 C 
ATOM     29  H   UNL     1      -3.900  -4.675  -1.723  1.00  0.00     0.163 HD
ATOM     30  O   UNL     1      -5.022  -6.801  -1.784  1.00  0.00    -0.269 OA
BRANCH  28  31
ATOM     31  C   UNL     1      -6.111  -6.234   0.213  1.00  0.00     0.039 A 
ATOM     32  C   UNL     1      -6.293  -7.538   0.679  1.00  0.00     0.014 A 
ATOM     33  C   UNL     1      -6.850  -5.187   0.765  1.00  0.00     0.014 A 
ATOM     34  C   UNL     1      -7.160  -7.776   1.748  1.00  0.00     0.010 A 
ATOM     35  C   UNL     1      -7.617  -5.405   1.901  1.00  0.00     0.010 A 
ATOM     36  C   UNL     1      -7.795  -6.704   2.396  1.00  0.00    -0.014 A 
BRANCH  36  37
ATOM     37  C   UNL     1      -8.669  -6.914   3.578  1.00  0.00     0.031 A 
ATOM     38  C   UNL     1     -10.114  -6.496   3.527  1.00  0.00     0.074 A 
ATOM     39  C   UNL     1      -8.146  -7.414   4.715  1.00  0.00     0.049 A 
ATOM     40  N   UNL     1     -11.015  -6.514   4.476  1.00  0.00    -0.248 NA
ATOM     41  C   UNL     1     -10.604  -5.952   2.249  1.00  0.00     0.031 C 
ATOM     42  C   UNL     1      -6.748  -7.807   4.906  1.00  0.00     0.029 A 
ATOM     43  N   UNL     1      -8.730  -7.669   5.930  1.00  0.00    -0.354 N 
ATOM     44  C   UNL     1     -12.165  -5.973   3.915  1.00  0.00     0.074 A 
ATOM     45  C   UNL     1     -11.831  -5.570   2.567  1.00  0.00     0.031 C 
ATOM     46  C   UNL     1      -6.591  -8.285   6.151  1.00  0.00     0.029 A 
ATOM     47  C   UNL     1      -7.862  -8.189   6.860  1.00  0.00     0.049 A 
ATOM     48  H   UNL     1      -9.681  -7.496   6.118  1.00  0.00     0.167 HD
ATOM     49  C   UNL     1     -13.398  -5.851   4.461  1.00  0.00     0.037 A 
ATOM     50  C   UNL     1      -8.069  -8.541   8.143  1.00  0.00     0.037 A 
ATOM     51  C   UNL     1     -13.732  -6.278   5.793  1.00  0.00     0.049 A 
ATOM     52  C   UNL     1      -9.444  -8.381   8.731  1.00  0.00     0.074 A 
ATOM     53  C   UNL     1     -14.962  -6.248   6.425  1.00  0.00     0.029 A 
ATOM     54  N   UNL     1     -12.829  -6.815   6.699  1.00  0.00    -0.354 N 
ATOM     55  N   UNL     1     -10.539  -7.930   8.166  1.00  0.00    -0.248 NA
ATOM     56  C   UNL     1      -9.615  -8.786  10.133  1.00  0.00     0.031 C 
ATOM     57  C   UNL     1     -14.794  -6.721   7.730  1.00  0.00     0.029 A 
ATOM     58  C   UNL     1     -13.471  -7.101   7.892  1.00  0.00     0.049 A 
ATOM     59  H   UNL     1     -11.873  -6.970   6.520  1.00  0.00     0.167 HD
ATOM     60  C   UNL     1     -11.533  -8.029   9.131  1.00  0.00     0.074 A 
ATOM     61  C   UNL     1     -10.915  -8.598  10.310  1.00  0.00     0.031 C 
ATOM     62  C   UNL     1     -12.841  -7.681   9.050  1.00  0.00     0.037 A 
BRANCH  49  63
ATOM     63  C   UNL     1     -14.477  -5.244   3.611  1.00  0.00     0.057 A 
ATOM     64  C   UNL     1     -14.994  -5.905   2.488  1.00  0.00     0.134 A 
ATOM     65  C   UNL     1     -15.031  -3.999   3.937  1.00  0.00     0.134 A 
ATOM     66  F   UNL     1     -14.499  -7.094   2.111  1.00  0.00    -0.206 F 
ATOM     67  C   UNL     1     -16.001  -5.339   1.705  1.00  0.00     0.040 A 
ATOM     68  C   UNL     1     -16.061  -3.438   3.179  1.00  0.00     0.040 A 
ATOM     69  F   UNL     1     -14.589  -3.313   5.001  1.00  0.00    -0.206 F 
ATOM     70  C   UNL     1     -16.544  -4.105   2.056  1.00  0.00     0.006 A 
ENDBRANCH  49  63
BRANCH  50  71
ATOM     71  C   UNL     1      -6.958  -9.100   8.957  1.00  0.00     0.057 A 
ATOM     72  C   UNL     1      -6.975 -10.434   9.382  1.00  0.00     0.134 A 
ATOM     73  C   UNL     1      -5.868  -8.314   9.351  1.00  0.00     0.134 A 
ATOM     74  F   UNL     1      -7.999 -11.234   9.051  1.00  0.00    -0.206 F 
ATOM     75  C   UNL     1      -5.967 -10.958  10.193  1.00  0.00     0.040 A 
ATOM     76  C   UNL     1      -4.838  -8.833  10.137  1.00  0.00     0.040 A 
ATOM     77  F   UNL     1      -5.785  -7.031   8.970  1.00  0.00    -0.206 F 
ATOM     78  C   UNL     1      -4.891 -10.156  10.569  1.00  0.00     0.006 A 
ENDBRANCH  50  71
BRANCH  62  79
ATOM     79  C   UNL     1     -13.700  -7.951  10.251  1.00  0.00     0.057 A 
ATOM     80  C   UNL     1     -13.576  -7.213  11.435  1.00  0.00     0.134 A 
ATOM     81  C   UNL     1     -14.690  -8.941  10.207  1.00  0.00     0.134 A 
ATOM     82  F   UNL     1     -12.639  -6.259  11.547  1.00  0.00    -0.206 F 
ATOM     83  C   UNL     1     -14.388  -7.469  12.541  1.00  0.00     0.040 A 
ATOM     84  C   UNL     1     -15.529  -9.184  11.294  1.00  0.00     0.040 A 
ATOM     85  F   UNL     1     -14.869  -9.677   9.099  1.00  0.00    -0.206 F 
ATOM     86  C   UNL     1     -15.373  -8.452  12.469  1.00  0.00     0.006 A 
ENDBRANCH  62  79
ENDBRANCH  36  37
ENDBRANCH  28  31
ENDBRANCH  26  27
ENDBRANCH  25  26
ENDBRANCH   1  25
TORSDOF 11
