REMARK SMILES Cc1cc(C(=O)N[C@H]2C=C[C@H](C(=O)NCCCNC(=O)c3ccc(-c4c5nc(c(-c6c(F)cccc6F)c6ccc([nH]6)c(-c6c(F)cccc6F)c6nc(c(-c7c(F)cccc7F)c7ccc4[nH]7)C=C6)C=C5)cc3)C2)ccc1F
REMARK SMILES IDX 16 1 15 2 14 3 12 4 13 5 11 7 8 8 9 9 75 10 10 11 7 12 5 13
REMARK SMILES IDX 6 14 4 16 1 17 2 18 3 19 78 20 77 21 79 22 76 23 17 24 18 25
REMARK SMILES IDX 19 26 20 28 21 29 22 30 74 31 23 32 73 33 24 34 25 35 26 36
REMARK SMILES IDX 67 37 27 38 72 39 66 40 68 41 28 42 71 43 65 44 64 45 29 47
REMARK SMILES IDX 55 48 38 49 54 50 39 51 42 52 53 53 69 54 40 55 41 56 52 58
REMARK SMILES IDX 70 59 43 60 30 61 31 62 36 63 32 64 33 65 35 66 37 67 34 68
REMARK SMILES IDX 56 69 57 70 62 71 58 72 59 73 61 74 63 75 60 76 44 77 45 78
REMARK SMILES IDX 50 79 46 80 47 81 49 82 51 83 48 84
REMARK H PARENT 14 6 7 15 18 27 68 46 42 57
REMARK Flexibility Score: inf
ROOT
ATOM      1  C   UNL     1      -0.590   7.904   1.284  1.00  0.00     0.042 C 
ENDROOT
BRANCH   1   2
ATOM      2  C   UNL     1      -0.592   6.707   0.334  1.00  0.00     0.117 C 
BRANCH   2   3
ATOM      3  N   UNL     1       0.121   5.578   0.902  1.00  0.00    -0.356 N 
ATOM      4  C   UNL     1      -0.254   4.628   1.794  1.00  0.00     0.227 C 
ATOM      5  O   UNL     1       0.649   3.887   2.202  1.00  0.00    -0.274 OA
ATOM      6  H   UNL     1       1.047   5.485   0.580  1.00  0.00     0.163 HD
BRANCH   4   7
ATOM      7  C   UNL     1      -1.710   4.385   2.251  1.00  0.00     0.103 C 
ATOM      8  C   UNL     1      -2.666   3.256   0.363  1.00  0.00     0.106 C 
ATOM      9  C   UNL     1      -3.401   4.534   0.624  1.00  0.00    -0.006 C 
ATOM     10  C   UNL     1      -2.101   2.982   1.757  1.00  0.00     0.047 C 
ATOM     11  C   UNL     1      -2.848   5.173   1.667  1.00  0.00    -0.016 C 
BRANCH   8  12
ATOM     12  N   UNL     1      -3.535   2.239  -0.155  1.00  0.00    -0.346 N 
ATOM     13  C   UNL     1      -3.248   0.951  -0.544  1.00  0.00     0.251 C 
ATOM     14  O   UNL     1      -4.167   0.249  -0.964  1.00  0.00    -0.269 OA
ATOM     15  H   UNL     1      -4.479   2.502  -0.245  1.00  0.00     0.164 HD
BRANCH  13  16
ATOM     16  C   UNL     1      -1.890   0.351  -0.399  1.00  0.00     0.040 A 
ATOM     17  C   UNL     1       1.819   1.241  -0.445  1.00  0.00     0.047 C 
ATOM     18  C   UNL     1       0.547   0.454  -0.346  1.00  0.00    -0.015 A 
ATOM     19  C   UNL     1      -0.694   1.044  -0.630  1.00  0.00     0.020 A 
ATOM     20  C   UNL     1       0.579  -0.884   0.050  1.00  0.00     0.126 A 
ATOM     21  C   UNL     1      -0.593  -1.617   0.197  1.00  0.00     0.040 A 
ATOM     22  F   UNL     1       1.754  -1.481   0.292  1.00  0.00    -0.207 F 
ATOM     23  C   UNL     1      -1.827  -0.997  -0.013  1.00  0.00     0.017 A 
ENDBRANCH  13  16
ENDBRANCH   8  12
ENDBRANCH   4   7
ENDBRANCH   2   3
ENDBRANCH   1   2
BRANCH   1  24
ATOM     24  C   UNL     1       0.679   8.714   1.097  1.00  0.00     0.118 C 
BRANCH  24  25
ATOM     25  N   UNL     1       0.697   9.424  -0.185  1.00  0.00    -0.352 N 
ATOM     26  C   UNL     1       1.587  10.379  -0.626  1.00  0.00     0.251 C 
ATOM     27  H   UNL     1      -0.023   9.187  -0.814  1.00  0.00     0.163 HD
ATOM     28  O   UNL     1       1.375  11.022  -1.644  1.00  0.00    -0.269 OA
BRANCH  26  29
ATOM     29  C   UNL     1       2.817  10.597   0.149  1.00  0.00     0.039 A 
ATOM     30  C   UNL     1       3.336  11.882   0.360  1.00  0.00     0.014 A 
ATOM     31  C   UNL     1       3.470   9.474   0.642  1.00  0.00     0.014 A 
ATOM     32  C   UNL     1       4.519  12.027   1.086  1.00  0.00     0.010 A 
ATOM     33  C   UNL     1       4.512   9.626   1.508  1.00  0.00     0.010 A 
ATOM     34  C   UNL     1       5.099  10.887   1.645  1.00  0.00    -0.014 A 
BRANCH  34  35
ATOM     35  C   UNL     1       6.440  10.806   2.196  1.00  0.00     0.031 A 
ATOM     36  C   UNL     1       6.776  11.245   3.552  1.00  0.00     0.074 A 
ATOM     37  C   UNL     1       7.285  10.047   1.464  1.00  0.00     0.049 A 
ATOM     38  N   UNL     1       7.978  11.492   3.944  1.00  0.00    -0.248 NA
ATOM     39  C   UNL     1       5.773  11.427   4.594  1.00  0.00     0.031 C 
ATOM     40  C   UNL     1       8.510   9.379   1.863  1.00  0.00     0.029 A 
ATOM     41  N   UNL     1       7.178   9.777   0.097  1.00  0.00    -0.354 N 
ATOM     42  C   UNL     1       7.955  11.535   5.319  1.00  0.00     0.074 A 
ATOM     43  C   UNL     1       6.552  11.597   5.670  1.00  0.00     0.031 C 
ATOM     44  C   UNL     1       9.170   8.996   0.753  1.00  0.00     0.029 A 
ATOM     45  C   UNL     1       8.468   9.562  -0.392  1.00  0.00     0.049 A 
ATOM     46  H   UNL     1       6.345   9.744  -0.426  1.00  0.00     0.167 HD
ATOM     47  C   UNL     1       9.112  11.324   6.013  1.00  0.00     0.037 A 
ATOM     48  C   UNL     1       8.986  10.486  -1.257  1.00  0.00     0.037 A 
ATOM     49  C   UNL     1      10.224  11.049   5.100  1.00  0.00     0.049 A 
ATOM     50  C   UNL     1      10.136  11.250  -0.648  1.00  0.00     0.074 A 
ATOM     51  C   UNL     1      10.792   9.858   4.673  1.00  0.00     0.029 A 
ATOM     52  N   UNL     1      10.661  12.028   4.212  1.00  0.00    -0.354 N 
ATOM     53  N   UNL     1      10.338  11.356   0.636  1.00  0.00    -0.248 NA
ATOM     54  C   UNL     1      11.165  11.923  -1.433  1.00  0.00     0.031 C 
ATOM     55  C   UNL     1      11.506  10.112   3.476  1.00  0.00     0.029 A 
ATOM     56  C   UNL     1      11.395  11.460   3.186  1.00  0.00     0.049 A 
ATOM     57  H   UNL     1      10.473  12.991   4.301  1.00  0.00     0.167 HD
ATOM     58  C   UNL     1      11.492  12.050   0.865  1.00  0.00     0.074 A 
ATOM     59  C   UNL     1      11.973  12.388  -0.463  1.00  0.00     0.031 C 
ATOM     60  C   UNL     1      11.963  12.280   2.125  1.00  0.00     0.037 A 
BRANCH  47  61
ATOM     61  C   UNL     1       9.139  11.022   7.495  1.00  0.00     0.057 A 
ATOM     62  C   UNL     1      10.072  10.121   8.047  1.00  0.00     0.134 A 
ATOM     63  C   UNL     1       8.242  11.569   8.428  1.00  0.00     0.134 A 
ATOM     64  F   UNL     1      11.066   9.596   7.320  1.00  0.00    -0.206 F 
ATOM     65  C   UNL     1      10.036   9.706   9.386  1.00  0.00     0.040 A 
ATOM     66  C   UNL     1       8.164  11.131   9.760  1.00  0.00     0.040 A 
ATOM     67  F   UNL     1       7.425  12.579   8.095  1.00  0.00    -0.206 F 
ATOM     68  C   UNL     1       9.055  10.183  10.240  1.00  0.00     0.006 A 
ENDBRANCH  47  61
BRANCH  48  69
ATOM     69  C   UNL     1       7.952  11.041  -2.184  1.00  0.00     0.057 A 
ATOM     70  C   UNL     1       7.419  10.182  -3.164  1.00  0.00     0.134 A 
ATOM     71  C   UNL     1       7.189  12.170  -1.856  1.00  0.00     0.134 A 
ATOM     72  F   UNL     1       8.089   9.074  -3.521  1.00  0.00    -0.206 F 
ATOM     73  C   UNL     1       6.143  10.370  -3.706  1.00  0.00     0.040 A 
ATOM     74  C   UNL     1       5.908  12.367  -2.393  1.00  0.00     0.040 A 
ATOM     75  F   UNL     1       7.612  13.030  -0.918  1.00  0.00    -0.206 F 
ATOM     76  C   UNL     1       5.368  11.448  -3.291  1.00  0.00     0.006 A 
ENDBRANCH  48  69
BRANCH  60  77
ATOM     77  C   UNL     1      13.069  13.236   2.475  1.00  0.00     0.057 A 
ATOM     78  C   UNL     1      13.326  14.417   1.767  1.00  0.00     0.134 A 
ATOM     79  C   UNL     1      13.804  13.071   3.670  1.00  0.00     0.134 A 
ATOM     80  F   UNL     1      12.630  14.742   0.669  1.00  0.00    -0.206 F 
ATOM     81  C   UNL     1      14.276  15.351   2.195  1.00  0.00     0.040 A 
ATOM     82  C   UNL     1      14.710  14.024   4.136  1.00  0.00     0.040 A 
ATOM     83  F   UNL     1      13.649  11.992   4.452  1.00  0.00    -0.206 F 
ATOM     84  C   UNL     1      14.958  15.166   3.391  1.00  0.00     0.006 A 
ENDBRANCH  60  77
ENDBRANCH  34  35
ENDBRANCH  26  29
ENDBRANCH  24  25
ENDBRANCH   1  24
TORSDOF 12
