REMARK SMILES Cc1cc(C(=O)Nc2ccn(C)n2)sc1/C=C/C(=O)NCCCNC(=O)c1ccc(-c2c3nc(c(-c4c(F)cccc4F)c4ccc([nH]4)c(-c4c(F)cccc4F)c4nc(c(-c5c(F)cccc5F)c5ccc2[nH]5)C=C4)C=C3)cc1
REMARK SMILES IDX 21 1 20 2 18 3 19 4 17 6 16 7 15 8 1 9 2 10 3 11 4 12 14 13
REMARK SMILES IDX 5 14 6 15 7 16 8 18 9 19 13 20 10 21 11 22 12 23 22 24 23 25
REMARK SMILES IDX 24 26 25 27 26 29 27 30 28 31 80 32 29 33 79 34 30 35 31 36
REMARK SMILES IDX 32 37 73 38 33 39 78 40 72 41 74 42 34 43 77 44 71 45 70 46
REMARK SMILES IDX 35 48 61 49 44 50 60 51 45 52 48 53 59 54 75 55 46 56 47 57
REMARK SMILES IDX 58 59 76 60 49 61 36 62 37 63 42 64 38 65 39 66 41 67 43 68
REMARK SMILES IDX 40 69 62 70 63 71 68 72 64 73 65 74 67 75 69 76 66 77 50 78
REMARK SMILES IDX 51 79 56 80 52 81 53 82 55 83 57 84 54 85
REMARK H PARENT 20 5 7 17 24 28 74 47 48 58
REMARK Flexibility Score: inf
ROOT
ATOM      1  C   UNL     1       2.226  -4.779  -0.597  1.00  0.00     0.118 C 
ENDROOT
BRANCH   1   2
ATOM      2  N   UNL     1       0.928  -5.296  -0.203  1.00  0.00    -0.352 N 
ATOM      3  C   UNL     1      -0.276  -4.672  -0.119  1.00  0.00     0.244 C 
ATOM      4  O   UNL     1      -1.284  -5.322   0.146  1.00  0.00    -0.270 OA
ATOM      5  H   UNL     1       0.919  -6.250   0.043  1.00  0.00     0.163 HD
BRANCH   3   6
ATOM      6  C   UNL     1      -0.398  -3.232  -0.428  1.00  0.00     0.072 C 
ATOM      7  C   UNL     1       0.409  -2.294   0.089  1.00  0.00     0.025 C 
BRANCH   7   8
ATOM      8  C   UNL     1       0.265  -0.893  -0.136  1.00  0.00     0.031 A 
ATOM      9  C   UNL     1       2.634  -0.025   0.385  1.00  0.00     0.046 C 
ATOM     10  C   UNL     1       1.174   0.133   0.108  1.00  0.00    -0.032 A 
ATOM     11  C   UNL     1       0.506   1.409   0.126  1.00  0.00     0.029 A 
ATOM     12  C   UNL     1      -0.839   1.325  -0.189  1.00  0.00     0.093 A 
ATOM     13  S   UNL     1      -1.139  -0.218  -0.858  1.00  0.00    -0.130 S 
BRANCH  12  14
ATOM     14  C   UNL     1      -1.815   2.414  -0.204  1.00  0.00     0.266 C 
ATOM     15  O   UNL     1      -1.450   3.592  -0.222  1.00  0.00    -0.268 OA
ATOM     16  N   UNL     1      -3.170   2.175  -0.288  1.00  0.00    -0.304 N 
ATOM     17  H   UNL     1      -3.703   2.926  -0.635  1.00  0.00     0.171 HD
BRANCH  16  18
ATOM     18  C   UNL     1      -3.892   1.056   0.036  1.00  0.00     0.154 A 
ATOM     19  C   UNL     1      -3.655   0.083   1.037  1.00  0.00     0.068 A 
ATOM     20  N   UNL     1      -5.002   0.777  -0.650  1.00  0.00    -0.155 NA
ATOM     21  C   UNL     1      -4.584  -0.905   0.803  1.00  0.00     0.110 A 
ATOM     22  N   UNL     1      -5.309  -0.476  -0.268  1.00  0.00    -0.274 N 
ATOM     23  C   UNL     1      -6.245  -1.247  -1.049  1.00  0.00     0.173 C 
ENDBRANCH  16  18
ENDBRANCH  12  14
ENDBRANCH   7   8
ENDBRANCH   3   6
ENDBRANCH   1   2
BRANCH   1  24
ATOM     24  C   UNL     1       3.166  -4.678   0.602  1.00  0.00     0.042 C 
BRANCH  24  25
ATOM     25  C   UNL     1       3.740  -6.027   1.022  1.00  0.00     0.118 C 
BRANCH  25  26
ATOM     26  N   UNL     1       4.662  -6.552   0.025  1.00  0.00    -0.352 N 
ATOM     27  C   UNL     1       5.983  -6.899   0.139  1.00  0.00     0.251 C 
ATOM     28  H   UNL     1       4.276  -6.677  -0.872  1.00  0.00     0.163 HD
ATOM     29  O   UNL     1       6.646  -7.090  -0.876  1.00  0.00    -0.269 OA
BRANCH  27  30
ATOM     30  C   UNL     1       6.616  -7.040   1.467  1.00  0.00     0.039 A 
ATOM     31  C   UNL     1       7.933  -6.599   1.631  1.00  0.00     0.014 A 
ATOM     32  C   UNL     1       5.947  -7.654   2.529  1.00  0.00     0.014 A 
ATOM     33  C   UNL     1       8.562  -6.736   2.870  1.00  0.00     0.010 A 
ATOM     34  C   UNL     1       6.550  -7.727   3.782  1.00  0.00     0.010 A 
ATOM     35  C   UNL     1       7.867  -7.279   3.962  1.00  0.00    -0.014 A 
BRANCH  35  36
ATOM     36  C   UNL     1       8.505  -7.395   5.296  1.00  0.00     0.031 A 
ATOM     37  C   UNL     1       8.765  -8.748   5.896  1.00  0.00     0.074 A 
ATOM     38  C   UNL     1       8.797  -6.279   5.990  1.00  0.00     0.049 A 
ATOM     39  N   UNL     1       9.248  -9.052   7.074  1.00  0.00    -0.248 NA
ATOM     40  C   UNL     1       8.411  -9.916   5.073  1.00  0.00     0.031 C 
ATOM     41  C   UNL     1       8.552  -4.910   5.533  1.00  0.00     0.029 A 
ATOM     42  N   UNL     1       9.354  -6.120   7.234  1.00  0.00    -0.354 N 
ATOM     43  C   UNL     1       9.241 -10.439   7.140  1.00  0.00     0.074 A 
ATOM     44  C   UNL     1       8.661 -10.918   5.904  1.00  0.00     0.031 C 
ATOM     45  C   UNL     1       8.973  -4.051   6.475  1.00  0.00     0.029 A 
ATOM     46  C   UNL     1       9.485  -4.807   7.614  1.00  0.00     0.049 A 
ATOM     47  H   UNL     1       9.633  -6.876   7.800  1.00  0.00     0.167 HD
ATOM     48  C   UNL     1       9.696 -11.242   8.132  1.00  0.00     0.037 A 
ATOM     49  C   UNL     1       9.959  -4.273   8.755  1.00  0.00     0.037 A 
ATOM     50  C   UNL     1      10.295 -10.762   9.349  1.00  0.00     0.049 A 
ATOM     51  C   UNL     1      10.464  -5.185   9.838  1.00  0.00     0.074 A 
ATOM     52  C   UNL     1      10.837 -11.495  10.391  1.00  0.00     0.029 A 
ATOM     53  N   UNL     1      10.433  -9.424   9.687  1.00  0.00    -0.354 N 
ATOM     54  N   UNL     1      10.504  -6.495   9.862  1.00  0.00    -0.248 NA
ATOM     55  C   UNL     1      10.996  -4.543  11.048  1.00  0.00     0.031 C 
ATOM     56  C   UNL     1      11.270 -10.600  11.376  1.00  0.00     0.029 A 
ATOM     57  C   UNL     1      11.036  -9.310  10.928  1.00  0.00     0.049 A 
ATOM     58  H   UNL     1      10.144  -8.668   9.127  1.00  0.00     0.167 HD
ATOM     59  C   UNL     1      11.086  -6.834  11.076  1.00  0.00     0.074 A 
ATOM     60  C   UNL     1      11.396  -5.592  11.753  1.00  0.00     0.031 C 
ATOM     61  C   UNL     1      11.342  -8.064  11.585  1.00  0.00     0.037 A 
BRANCH  48  62
ATOM     62  C   UNL     1       9.565 -12.724   7.935  1.00  0.00     0.057 A 
ATOM     63  C   UNL     1      10.350 -13.417   7.003  1.00  0.00     0.134 A 
ATOM     64  C   UNL     1       8.667 -13.473   8.706  1.00  0.00     0.134 A 
ATOM     65  F   UNL     1      11.221 -12.757   6.225  1.00  0.00    -0.206 F 
ATOM     66  C   UNL     1      10.227 -14.796   6.826  1.00  0.00     0.040 A 
ATOM     67  C   UNL     1       8.554 -14.857   8.556  1.00  0.00     0.040 A 
ATOM     68  F   UNL     1       7.890 -12.874   9.621  1.00  0.00    -0.206 F 
ATOM     69  C   UNL     1       9.331 -15.521   7.609  1.00  0.00     0.006 A 
ENDBRANCH  48  62
BRANCH  49  70
ATOM     70  C   UNL     1      10.003  -2.800   8.919  1.00  0.00     0.057 A 
ATOM     71  C   UNL     1      11.219  -2.108   8.903  1.00  0.00     0.134 A 
ATOM     72  C   UNL     1       8.835  -2.048   9.091  1.00  0.00     0.134 A 
ATOM     73  F   UNL     1      12.373  -2.777   8.758  1.00  0.00    -0.206 F 
ATOM     74  C   UNL     1      11.276  -0.724   9.069  1.00  0.00     0.040 A 
ATOM     75  C   UNL     1       8.874  -0.660   9.235  1.00  0.00     0.040 A 
ATOM     76  F   UNL     1       7.637  -2.651   9.106  1.00  0.00    -0.206 F 
ATOM     77  C   UNL     1      10.099   0.005   9.230  1.00  0.00     0.006 A 
ENDBRANCH  49  70
BRANCH  61  78
ATOM     78  C   UNL     1      12.015  -8.124  12.924  1.00  0.00     0.057 A 
ATOM     79  C   UNL     1      11.334  -7.814  14.107  1.00  0.00     0.134 A 
ATOM     80  C   UNL     1      13.351  -8.530  13.031  1.00  0.00     0.134 A 
ATOM     81  F   UNL     1      10.057  -7.405  14.070  1.00  0.00    -0.206 F 
ATOM     82  C   UNL     1      11.966  -7.885  15.350  1.00  0.00     0.040 A 
ATOM     83  C   UNL     1      13.986  -8.629  14.270  1.00  0.00     0.040 A 
ATOM     84  F   UNL     1      14.057  -8.849  11.935  1.00  0.00    -0.206 F 
ATOM     85  C   UNL     1      13.294  -8.300  15.433  1.00  0.00     0.006 A 
ENDBRANCH  61  78
ENDBRANCH  35  36
ENDBRANCH  27  30
ENDBRANCH  25  26
ENDBRANCH  24  25
ENDBRANCH   1  24
TORSDOF 13
