REMARK SMILES Cn1ccnc1SCC[C@@H]1CCC[C@]1([NH3+])C(=O)NCCCNC(=O)c1ccc(-c2c3nc(c(-c4c(F)cccc4F)c4ccc([nH]4)c(-c4c(F)cccc4F)c4nc(c(-c5c(F)cccc5F)c5ccc2[nH]5)C=C4)C=C3)cc1
REMARK SMILES IDX 19 1 18 2 16 3 17 4 14 6 10 7 11 8 12 9 13 10 9 11 8 12 7 13
REMARK SMILES IDX 6 14 1 15 2 16 3 17 4 18 5 19 15 20 20 24 21 25 22 26 23 27
REMARK SMILES IDX 24 29 25 30 26 31 78 32 27 33 77 34 28 35 29 36 30 37 71 38
REMARK SMILES IDX 31 39 76 40 70 41 72 42 32 43 75 44 69 45 68 46 33 48 59 49
REMARK SMILES IDX 42 50 58 51 43 52 46 53 57 54 73 55 44 56 45 57 56 59 74 60
REMARK SMILES IDX 47 61 34 62 35 63 40 64 36 65 37 66 39 67 41 68 38 69 60 70
REMARK SMILES IDX 61 71 66 72 62 73 63 74 65 75 67 76 64 77 48 78 49 79 54 80
REMARK SMILES IDX 50 81 51 82 53 83 55 84 52 85
REMARK H PARENT 18 5 15 21 15 22 15 23 22 28 72 47 46 58
REMARK Flexibility Score: inf
ROOT
ATOM      1  C   UNL     1       5.411   1.346   0.018  1.00  0.00     0.118 C 
ENDROOT
BRANCH   1   2
ATOM      2  N   UNL     1       5.547   0.555   1.229  1.00  0.00    -0.351 N 
ATOM      3  C   UNL     1       4.695  -0.300   1.861  1.00  0.00     0.281 C 
ATOM      4  O   UNL     1       5.122  -0.817   2.898  1.00  0.00    -0.268 OA
ATOM      5  H   UNL     1       6.418   0.655   1.677  1.00  0.00     0.163 HD
BRANCH   3   6
ATOM      6  C   UNL     1       3.274  -0.635   1.288  1.00  0.00     0.176 C 
ATOM      7  C   UNL     1       2.141   0.331   1.740  1.00  0.00     0.061 C 
ATOM      8  C   UNL     1       1.959  -0.061   3.215  1.00  0.00     0.011 C 
ATOM      9  C   UNL     1       2.102  -1.575   3.246  1.00  0.00     0.008 C 
ATOM     10  C   UNL     1       2.778  -1.962   1.930  1.00  0.00     0.079 C 
BRANCH   7  11
ATOM     11  C   UNL     1       2.263   1.859   1.650  1.00  0.00     0.022 C 
BRANCH  11  12
ATOM     12  C   UNL     1       2.010   2.549   0.307  1.00  0.00     0.079 C 
BRANCH  12  13
ATOM     13  S   UNL     1       0.296   2.818  -0.236  1.00  0.00    -0.088 SA
BRANCH  13  14
ATOM     14  C   UNL     1      -0.452   1.264  -0.244  1.00  0.00     0.167 A 
ATOM     15  C   UNL     1       0.959   0.105  -2.010  1.00  0.00     0.152 C 
ATOM     16  N   UNL     1      -0.085   0.197  -1.023  1.00  0.00    -0.329 N 
ATOM     17  C   UNL     1      -0.929  -0.841  -0.711  1.00  0.00     0.108 A 
ATOM     18  C   UNL     1      -1.833  -0.315   0.180  1.00  0.00     0.132 A 
ATOM     19  N   UNL     1      -1.523   0.986   0.468  1.00  0.00    -0.231 NA
ENDBRANCH  13  14
ENDBRANCH  12  13
ENDBRANCH  11  12
ENDBRANCH   7  11
BRANCH   6  20
ATOM     20  N   UNL     1       3.389  -0.867  -0.170  1.00  0.00    -0.345 N 
ATOM     21  H   UNL     1       2.470  -1.087  -0.554  1.00  0.00     0.345 HD
ATOM     22  H   UNL     1       4.024  -1.647  -0.342  1.00  0.00     0.345 HD
ATOM     23  H   UNL     1       3.754  -0.028  -0.620  1.00  0.00     0.345 HD
ENDBRANCH   6  20
ENDBRANCH   3   6
ENDBRANCH   1   2
BRANCH   1  24
ATOM     24  C   UNL     1       5.557   2.835   0.291  1.00  0.00     0.042 C 
BRANCH  24  25
ATOM     25  C   UNL     1       6.925   3.220   0.817  1.00  0.00     0.118 C 
BRANCH  25  26
ATOM     26  N   UNL     1       7.932   3.241  -0.229  1.00  0.00    -0.352 N 
ATOM     27  C   UNL     1       8.718   4.292  -0.638  1.00  0.00     0.251 C 
ATOM     28  H   UNL     1       8.069   2.391  -0.708  1.00  0.00     0.163 HD
ATOM     29  O   UNL     1       9.369   4.210  -1.670  1.00  0.00    -0.269 OA
BRANCH  27  30
ATOM     30  C   UNL     1       8.743   5.535   0.167  1.00  0.00     0.039 A 
ATOM     31  C   UNL     1       8.683   6.766  -0.487  1.00  0.00     0.014 A 
ATOM     32  C   UNL     1       8.800   5.483   1.562  1.00  0.00     0.014 A 
ATOM     33  C   UNL     1       8.628   7.942   0.263  1.00  0.00     0.010 A 
ATOM     34  C   UNL     1       8.631   6.645   2.306  1.00  0.00     0.010 A 
ATOM     35  C   UNL     1       8.568   7.890   1.666  1.00  0.00    -0.014 A 
BRANCH  35  36
ATOM     36  C   UNL     1       8.481   9.129   2.481  1.00  0.00     0.031 A 
ATOM     37  C   UNL     1       9.575   9.464   3.460  1.00  0.00     0.074 A 
ATOM     38  C   UNL     1       7.403   9.930   2.374  1.00  0.00     0.049 A 
ATOM     39  N   UNL     1       9.666  10.476   4.286  1.00  0.00    -0.248 NA
ATOM     40  C   UNL     1      10.702   8.520   3.546  1.00  0.00     0.031 C 
ATOM     41  C   UNL     1       6.251   9.691   1.501  1.00  0.00     0.029 A 
ATOM     42  N   UNL     1       7.098  11.109   3.007  1.00  0.00    -0.354 N 
ATOM     43  C   UNL     1      10.846  10.281   4.992  1.00  0.00     0.074 A 
ATOM     44  C   UNL     1      11.402   9.021   4.552  1.00  0.00     0.031 C 
ATOM     45  C   UNL     1       5.385  10.709   1.627  1.00  0.00     0.029 A 
ATOM     46  C   UNL     1       5.897  11.650   2.618  1.00  0.00     0.049 A 
ATOM     47  H   UNL     1       7.686  11.528   3.676  1.00  0.00     0.167 HD
ATOM     48  C   UNL     1      11.434  11.092   5.903  1.00  0.00     0.037 A 
ATOM     49  C   UNL     1       5.277  12.777   3.017  1.00  0.00     0.037 A 
ATOM     50  C   UNL     1      10.891  12.357   6.322  1.00  0.00     0.049 A 
ATOM     51  C   UNL     1       5.942  13.655   4.041  1.00  0.00     0.074 A 
ATOM     52  C   UNL     1      11.436  13.281   7.195  1.00  0.00     0.029 A 
ATOM     53  N   UNL     1       9.675  12.872   5.899  1.00  0.00    -0.354 N 
ATOM     54  N   UNL     1       7.095  13.496   4.645  1.00  0.00    -0.248 NA
ATOM     55  C   UNL     1       5.223  14.875   4.434  1.00  0.00     0.031 C 
ATOM     56  C   UNL     1      10.524  14.331   7.344  1.00  0.00     0.029 A 
ATOM     57  C   UNL     1       9.440  14.090   6.515  1.00  0.00     0.049 A 
ATOM     58  H   UNL     1       9.069  12.437   5.257  1.00  0.00     0.167 HD
ATOM     59  C   UNL     1       7.254  14.607   5.464  1.00  0.00     0.074 A 
ATOM     60  C   UNL     1       6.085  15.440   5.267  1.00  0.00     0.031 C 
ATOM     61  C   UNL     1       8.275  14.912   6.302  1.00  0.00     0.037 A 
BRANCH  48  62
ATOM     62  C   UNL     1      12.733  10.634   6.503  1.00  0.00     0.057 A 
ATOM     63  C   UNL     1      13.911  10.550   5.747  1.00  0.00     0.134 A 
ATOM     64  C   UNL     1      12.815  10.296   7.860  1.00  0.00     0.134 A 
ATOM     65  F   UNL     1      13.901  10.847   4.438  1.00  0.00    -0.206 F 
ATOM     66  C   UNL     1      15.113  10.117   6.309  1.00  0.00     0.040 A 
ATOM     67  C   UNL     1      14.018   9.893   8.441  1.00  0.00     0.040 A 
ATOM     68  F   UNL     1      11.729  10.358   8.645  1.00  0.00    -0.206 F 
ATOM     69  C   UNL     1      15.170   9.794   7.663  1.00  0.00     0.006 A 
ENDBRANCH  48  62
BRANCH  49  70
ATOM     70  C   UNL     1       3.965  13.154   2.431  1.00  0.00     0.057 A 
ATOM     71  C   UNL     1       3.840  14.269   1.593  1.00  0.00     0.134 A 
ATOM     72  C   UNL     1       2.804  12.419   2.700  1.00  0.00     0.134 A 
ATOM     73  F   UNL     1       4.912  15.024   1.311  1.00  0.00    -0.206 F 
ATOM     74  C   UNL     1       2.606  14.653   1.064  1.00  0.00     0.040 A 
ATOM     75  C   UNL     1       1.569  12.774   2.155  1.00  0.00     0.040 A 
ATOM     76  F   UNL     1       2.857  11.335   3.488  1.00  0.00    -0.206 F 
ATOM     77  C   UNL     1       1.467  13.900   1.341  1.00  0.00     0.006 A 
ENDBRANCH  49  70
BRANCH  61  78
ATOM     78  C   UNL     1       8.196  16.218   7.039  1.00  0.00     0.057 A 
ATOM     79  C   UNL     1       7.281  16.431   8.077  1.00  0.00     0.134 A 
ATOM     80  C   UNL     1       9.080  17.261   6.731  1.00  0.00     0.134 A 
ATOM     81  F   UNL     1       6.399  15.478   8.414  1.00  0.00    -0.206 F 
ATOM     82  C   UNL     1       7.230  17.645   8.766  1.00  0.00     0.040 A 
ATOM     83  C   UNL     1       9.059  18.466   7.433  1.00  0.00     0.040 A 
ATOM     84  F   UNL     1       9.989  17.119   5.755  1.00  0.00    -0.206 F 
ATOM     85  C   UNL     1       8.127  18.663   8.449  1.00  0.00     0.006 A 
ENDBRANCH  61  78
ENDBRANCH  35  36
ENDBRANCH  27  30
ENDBRANCH  25  26
ENDBRANCH  24  25
ENDBRANCH   1  24
TORSDOF 15
