REMARK SMILES COC(=O)C[C@@H](NC(=O)c1ccccc1C(=O)NCCCNC(=O)c1ccc(-c2c3nc(c(-c4c(F)cccc4F)c4ccc([nH]4)c(-c4c(F)cccc4F)c4nc(c(-c5c(F)cccc5F)c5ccc2[nH]5)C=C4)C=C3)cc1)c1cccc(C)c1C
REMARK SMILES IDX 16 1 17 2 18 3 15 5 10 6 11 7 12 8 14 9 13 10 8 11 7 12 9 14
REMARK SMILES IDX 6 15 5 16 3 17 4 18 2 19 1 20 79 21 80 22 85 23 81 24 83 25
REMARK SMILES IDX 86 26 82 27 84 28 19 29 20 30 21 31 22 32 23 33 24 35 25 36
REMARK SMILES IDX 26 37 78 38 27 39 77 40 28 41 29 42 30 43 71 44 31 45 76 46
REMARK SMILES IDX 70 47 72 48 32 49 75 50 69 51 68 52 33 54 59 55 42 56 58 57
REMARK SMILES IDX 43 58 46 59 57 60 73 61 44 62 45 63 56 65 74 66 47 67 34 68
REMARK SMILES IDX 35 69 40 70 36 71 37 72 39 73 41 74 38 75 60 76 61 77 66 78
REMARK SMILES IDX 62 79 63 80 65 81 67 82 64 83 48 84 49 85 54 86 50 87 51 88
REMARK SMILES IDX 53 89 55 90 52 91
REMARK H PARENT 18 4 7 13 22 34 72 53 46 64
REMARK Flexibility Score: inf
ROOT
ATOM      1  C   UNL     1       1.526  -5.076   4.219  1.00  0.00     0.252 C 
ATOM      2  O   UNL     1       2.288  -6.042   4.110  1.00  0.00    -0.269 OA
ATOM      3  N   UNL     1       2.102  -3.851   4.003  1.00  0.00    -0.352 N 
ATOM      4  H   UNL     1       3.083  -3.824   4.083  1.00  0.00     0.163 HD
ENDROOT
BRANCH   1   5
ATOM      5  C   UNL     1       0.125  -5.308   4.714  1.00  0.00     0.052 A 
ATOM      6  C   UNL     1      -1.086  -4.630   4.478  1.00  0.00     0.052 A 
ATOM      7  C   UNL     1      -2.243  -5.008   5.212  1.00  0.00     0.014 A 
ATOM      8  C   UNL     1      -2.247  -6.082   6.094  1.00  0.00     0.001 A 
ATOM      9  C   UNL     1       0.078  -6.415   5.606  1.00  0.00     0.014 A 
ATOM     10  C   UNL     1      -1.085  -6.805   6.275  1.00  0.00     0.001 A 
BRANCH   6  11
ATOM     11  C   UNL     1      -1.421  -3.518   3.552  1.00  0.00     0.252 C 
ATOM     12  N   UNL     1      -1.215  -3.519   2.199  1.00  0.00    -0.345 N 
ATOM     13  H   UNL     1      -1.695  -2.794   1.736  1.00  0.00     0.164 HD
ATOM     14  O   UNL     1      -1.983  -2.526   4.026  1.00  0.00    -0.269 OA
BRANCH  12  15
ATOM     15  C   UNL     1      -0.432  -4.366   1.285  1.00  0.00     0.124 C 
BRANCH  15  16
ATOM     16  C   UNL     1      -0.668  -3.923  -0.162  1.00  0.00     0.152 C 
BRANCH  16  17
ATOM     17  C   UNL     1       0.178  -2.713  -0.460  1.00  0.00     0.307 C 
ATOM     18  O   UNL     1       1.383  -2.765  -0.661  1.00  0.00    -0.252 OA
BRANCH  17  19
ATOM     19  O   UNL     1      -0.578  -1.584  -0.424  1.00  0.00    -0.469 OA
ATOM     20  C   UNL     1       0.083  -0.358  -0.767  1.00  0.00     0.282 C 
ENDBRANCH  17  19
ENDBRANCH  16  17
ENDBRANCH  15  16
BRANCH  15  21
ATOM     21  C   UNL     1      -0.670  -5.857   1.449  1.00  0.00    -0.022 A 
ATOM     22  C   UNL     1      -1.887  -6.313   1.985  1.00  0.00     0.006 A 
ATOM     23  C   UNL     1       0.352  -6.798   1.154  1.00  0.00    -0.043 A 
ATOM     24  C   UNL     1      -2.027  -7.624   2.417  1.00  0.00     0.001 A 
ATOM     25  C   UNL     1       0.172  -8.148   1.536  1.00  0.00    -0.048 A 
ATOM     26  C   UNL     1       1.594  -6.411   0.379  1.00  0.00     0.045 C 
ATOM     27  C   UNL     1      -0.991  -8.526   2.222  1.00  0.00     0.004 A 
ATOM     28  C   UNL     1       1.226  -9.197   1.305  1.00  0.00     0.044 C 
ENDBRANCH  15  21
ENDBRANCH  12  15
ENDBRANCH   6  11
ENDBRANCH   1   5
BRANCH   3  29
ATOM     29  C   UNL     1       1.477  -2.609   3.679  1.00  0.00     0.118 C 
BRANCH  29  30
ATOM     30  C   UNL     1       1.940  -1.392   4.419  1.00  0.00     0.042 C 
BRANCH  30  31
ATOM     31  C   UNL     1       2.986  -0.610   3.668  1.00  0.00     0.118 C 
BRANCH  31  32
ATOM     32  N   UNL     1       2.627  -0.236   2.295  1.00  0.00    -0.352 N 
ATOM     33  C   UNL     1       2.747   0.981   1.671  1.00  0.00     0.251 C 
ATOM     34  H   UNL     1       2.247  -0.959   1.745  1.00  0.00     0.163 HD
ATOM     35  O   UNL     1       2.384   1.148   0.510  1.00  0.00    -0.269 OA
BRANCH  33  36
ATOM     36  C   UNL     1       3.292   2.111   2.427  1.00  0.00     0.039 A 
ATOM     37  C   UNL     1       2.656   3.351   2.359  1.00  0.00     0.014 A 
ATOM     38  C   UNL     1       4.394   1.908   3.256  1.00  0.00     0.014 A 
ATOM     39  C   UNL     1       3.107   4.381   3.175  1.00  0.00     0.010 A 
ATOM     40  C   UNL     1       4.713   2.863   4.193  1.00  0.00     0.010 A 
ATOM     41  C   UNL     1       4.121   4.128   4.111  1.00  0.00    -0.014 A 
BRANCH  41  42
ATOM     42  C   UNL     1       4.713   5.202   4.925  1.00  0.00     0.031 A 
ATOM     43  C   UNL     1       6.178   5.494   4.743  1.00  0.00     0.074 A 
ATOM     44  C   UNL     1       3.966   5.834   5.845  1.00  0.00     0.049 A 
ATOM     45  N   UNL     1       6.962   6.268   5.442  1.00  0.00    -0.248 NA
ATOM     46  C   UNL     1       6.874   4.756   3.670  1.00  0.00     0.031 C 
ATOM     47  C   UNL     1       2.552   5.571   6.123  1.00  0.00     0.029 A 
ATOM     48  N   UNL     1       4.299   6.831   6.718  1.00  0.00    -0.354 N 
ATOM     49  C   UNL     1       8.235   6.068   4.925  1.00  0.00     0.074 A 
ATOM     50  C   UNL     1       8.140   5.036   3.922  1.00  0.00     0.031 C 
ATOM     51  C   UNL     1       2.127   6.421   7.072  1.00  0.00     0.029 A 
ATOM     52  C   UNL     1       3.248   7.254   7.492  1.00  0.00     0.049 A 
ATOM     53  H   UNL     1       5.205   7.209   6.786  1.00  0.00     0.167 HD
ATOM     54  C   UNL     1       9.376   6.726   5.228  1.00  0.00     0.037 A 
ATOM     55  C   UNL     1       3.211   8.219   8.428  1.00  0.00     0.037 A 
ATOM     56  C   UNL     1       9.420   7.806   6.172  1.00  0.00     0.049 A 
ATOM     57  C   UNL     1       4.477   8.985   8.698  1.00  0.00     0.074 A 
ATOM     58  C   UNL     1      10.491   8.600   6.532  1.00  0.00     0.029 A 
ATOM     59  N   UNL     1       8.319   8.257   6.888  1.00  0.00    -0.354 N 
ATOM     60  N   UNL     1       5.672   8.818   8.180  1.00  0.00    -0.248 NA
ATOM     61  C   UNL     1       4.387  10.082   9.667  1.00  0.00     0.031 C 
ATOM     62  C   UNL     1      10.041   9.517   7.489  1.00  0.00     0.029 A 
ATOM     63  C   UNL     1       8.681   9.323   7.687  1.00  0.00     0.049 A 
ATOM     64  H   UNL     1       7.414   7.873   6.834  1.00  0.00     0.167 HD
ATOM     65  C   UNL     1       6.469   9.812   8.731  1.00  0.00     0.074 A 
ATOM     66  C   UNL     1       5.614  10.582   9.614  1.00  0.00     0.031 C 
ATOM     67  C   UNL     1       7.786  10.070   8.533  1.00  0.00     0.037 A 
BRANCH  54  68
ATOM     68  C   UNL     1      10.630   6.303   4.517  1.00  0.00     0.057 A 
ATOM     69  C   UNL     1      10.801   6.484   3.136  1.00  0.00     0.134 A 
ATOM     70  C   UNL     1      11.674   5.686   5.216  1.00  0.00     0.134 A 
ATOM     71  F   UNL     1       9.831   7.045   2.398  1.00  0.00    -0.206 F 
ATOM     72  C   UNL     1      11.944   6.033   2.473  1.00  0.00     0.040 A 
ATOM     73  C   UNL     1      12.837   5.262   4.570  1.00  0.00     0.040 A 
ATOM     74  F   UNL     1      11.578   5.476   6.538  1.00  0.00    -0.206 F 
ATOM     75  C   UNL     1      12.970   5.425   3.193  1.00  0.00     0.006 A 
ENDBRANCH  54  68
BRANCH  55  76
ATOM     76  C   UNL     1       1.937   8.546   9.114  1.00  0.00     0.057 A 
ATOM     77  C   UNL     1       1.271   9.751   8.860  1.00  0.00     0.134 A 
ATOM     78  C   UNL     1       1.344   7.664  10.025  1.00  0.00     0.134 A 
ATOM     79  F   UNL     1       1.791  10.641   8.002  1.00  0.00    -0.206 F 
ATOM     80  C   UNL     1       0.077  10.080   9.505  1.00  0.00     0.040 A 
ATOM     81  C   UNL     1       0.137   7.968  10.658  1.00  0.00     0.040 A 
ATOM     82  F   UNL     1       1.920   6.485  10.300  1.00  0.00    -0.206 F 
ATOM     83  C   UNL     1      -0.496   9.183  10.405  1.00  0.00     0.006 A 
ENDBRANCH  55  76
BRANCH  67  84
ATOM     84  C   UNL     1       8.351  11.265   9.239  1.00  0.00     0.057 A 
ATOM     85  C   UNL     1       8.574  11.272  10.620  1.00  0.00     0.134 A 
ATOM     86  C   UNL     1       8.707  12.408   8.512  1.00  0.00     0.134 A 
ATOM     87  F   UNL     1       8.244  10.209  11.368  1.00  0.00    -0.206 F 
ATOM     88  C   UNL     1       9.104  12.391  11.262  1.00  0.00     0.040 A 
ATOM     89  C   UNL     1       9.265  13.521   9.139  1.00  0.00     0.040 A 
ATOM     90  F   UNL     1       8.529  12.455   7.183  1.00  0.00    -0.206 F 
ATOM     91  C   UNL     1       9.456  13.517  10.519  1.00  0.00     0.006 A 
ENDBRANCH  67  84
ENDBRANCH  41  42
ENDBRANCH  33  36
ENDBRANCH  31  32
ENDBRANCH  30  31
ENDBRANCH  29  30
ENDBRANCH   3  29
TORSDOF 16
