REMARK SMILES Cc1ncccc1C(=O)Nc1cnccc1C(=O)NCCCNC(=O)c1ccc(-c2c3nc(c(-c4c(F)cccc4F)c4ccc([nH]4)c(-c4c(F)cccc4F)c4nc(c(-c5c(F)cccc5F)c5ccc2[nH]5)C=C4)C=C3)cc1
REMARK SMILES IDX 21 1 20 2 19 3 17 4 18 5 16 7 11 8 12 9 13 10 15 11 14 12
REMARK SMILES IDX 10 13 8 14 9 15 7 17 1 18 2 19 3 20 4 21 6 22 5 23 22 24
REMARK SMILES IDX 23 25 24 26 25 28 26 29 27 30 79 31 28 32 78 33 29 34 30 35
REMARK SMILES IDX 31 36 72 37 32 38 77 39 71 40 73 41 33 42 76 43 70 44 69 45
REMARK SMILES IDX 34 47 60 48 43 49 59 50 44 51 47 52 58 53 74 54 45 55 46 56
REMARK SMILES IDX 57 58 75 59 48 60 35 61 36 62 41 63 37 64 38 65 40 66 42 67
REMARK SMILES IDX 39 68 61 69 62 70 67 71 63 72 64 73 66 74 68 75 65 76 49 77
REMARK SMILES IDX 50 78 55 79 51 80 52 81 54 82 56 83 53 84
REMARK H PARENT 19 6 10 16 23 27 73 46 47 57
REMARK Flexibility Score: inf
ROOT
ATOM      1  C   UNL     1       1.454  -4.193   2.595  1.00  0.00     0.042 C 
ENDROOT
BRANCH   1   2
ATOM      2  C   UNL     1       1.538  -3.071   1.585  1.00  0.00     0.118 C 
BRANCH   2   3
ATOM      3  N   UNL     1       1.353  -1.744   2.134  1.00  0.00    -0.352 N 
ATOM      4  C   UNL     1       1.986  -0.564   1.830  1.00  0.00     0.253 C 
ATOM      5  O   UNL     1       1.623   0.454   2.418  1.00  0.00    -0.269 OA
ATOM      6  H   UNL     1       0.665  -1.677   2.835  1.00  0.00     0.163 HD
BRANCH   4   7
ATOM      7  C   UNL     1       3.166  -0.490   0.927  1.00  0.00     0.066 A 
ATOM      8  C   UNL     1       3.377  -1.173  -0.276  1.00  0.00     0.072 A 
ATOM      9  C   UNL     1       4.684  -1.145  -0.780  1.00  0.00     0.137 A 
ATOM     10  N   UNL     1       5.701  -0.407  -0.285  1.00  0.00    -0.263 NA
ATOM     11  C   UNL     1       4.201   0.323   1.431  1.00  0.00     0.036 A 
ATOM     12  C   UNL     1       5.425   0.347   0.789  1.00  0.00     0.112 A 
BRANCH   8  13
ATOM     13  N   UNL     1       2.458  -1.875  -1.081  1.00  0.00    -0.320 N 
ATOM     14  C   UNL     1       1.108  -1.788  -1.302  1.00  0.00     0.257 C 
ATOM     15  O   UNL     1       0.578  -2.716  -1.917  1.00  0.00    -0.269 OA
ATOM     16  H   UNL     1       2.883  -2.593  -1.605  1.00  0.00     0.170 HD
BRANCH  14  17
ATOM     17  C   UNL     1       0.257  -0.659  -0.884  1.00  0.00     0.061 A 
ATOM     18  C   UNL     1       1.793   1.195  -1.748  1.00  0.00     0.067 C 
ATOM     19  C   UNL     1       0.550   0.690  -1.082  1.00  0.00     0.050 A 
ATOM     20  N   UNL     1      -0.316   1.674  -0.712  1.00  0.00    -0.261 NA
ATOM     21  C   UNL     1      -1.510   1.316  -0.192  1.00  0.00     0.111 A 
ATOM     22  C   UNL     1      -1.016  -0.993  -0.389  1.00  0.00     0.017 A 
ATOM     23  C   UNL     1      -1.912   0.005  -0.032  1.00  0.00     0.021 A 
ENDBRANCH  14  17
ENDBRANCH   8  13
ENDBRANCH   4   7
ENDBRANCH   2   3
ENDBRANCH   1   2
BRANCH   1  24
ATOM     24  C   UNL     1       0.072  -4.434   3.179  1.00  0.00     0.118 C 
BRANCH  24  25
ATOM     25  N   UNL     1      -0.962  -4.749   2.199  1.00  0.00    -0.352 N 
ATOM     26  C   UNL     1      -1.763  -5.861   2.034  1.00  0.00     0.251 C 
ATOM     27  H   UNL     1      -1.117  -4.039   1.535  1.00  0.00     0.163 HD
ATOM     28  O   UNL     1      -2.536  -5.914   1.092  1.00  0.00    -0.269 OA
BRANCH  26  29
ATOM     29  C   UNL     1      -1.657  -7.009   2.964  1.00  0.00     0.039 A 
ATOM     30  C   UNL     1      -1.740  -8.308   2.452  1.00  0.00     0.014 A 
ATOM     31  C   UNL     1      -1.453  -6.818   4.327  1.00  0.00     0.014 A 
ATOM     32  C   UNL     1      -1.517  -9.400   3.295  1.00  0.00     0.010 A 
ATOM     33  C   UNL     1      -1.080  -7.889   5.127  1.00  0.00     0.010 A 
ATOM     34  C   UNL     1      -1.129  -9.196   4.629  1.00  0.00    -0.014 A 
BRANCH  34  35
ATOM     35  C   UNL     1      -0.804 -10.332   5.528  1.00  0.00     0.031 A 
ATOM     36  C   UNL     1      -1.576 -10.526   6.808  1.00  0.00     0.074 A 
ATOM     37  C   UNL     1       0.227 -11.148   5.229  1.00  0.00     0.049 A 
ATOM     38  N   UNL     1      -1.422 -11.433   7.738  1.00  0.00    -0.248 NA
ATOM     39  C   UNL     1      -2.632  -9.543   7.106  1.00  0.00     0.031 C 
ATOM     40  C   UNL     1       1.109 -11.012   4.067  1.00  0.00     0.029 A 
ATOM     41  N   UNL     1       0.704 -12.259   5.877  1.00  0.00    -0.354 N 
ATOM     42  C   UNL     1      -2.337 -11.112   8.733  1.00  0.00     0.074 A 
ATOM     43  C   UNL     1      -2.983  -9.883   8.335  1.00  0.00     0.031 C 
ATOM     44  C   UNL     1       1.981 -12.033   4.054  1.00  0.00     0.029 A 
ATOM     45  C   UNL     1       1.742 -12.876   5.220  1.00  0.00     0.049 A 
ATOM     46  H   UNL     1       0.339 -12.583   6.731  1.00  0.00     0.167 HD
ATOM     47  C   UNL     1      -2.648 -11.800   9.857  1.00  0.00     0.037 A 
ATOM     48  C   UNL     1       2.408 -14.007   5.516  1.00  0.00     0.037 A 
ATOM     49  C   UNL     1      -2.040 -13.049  10.222  1.00  0.00     0.049 A 
ATOM     50  C   UNL     1       2.009 -14.787   6.737  1.00  0.00     0.074 A 
ATOM     51  C   UNL     1      -2.322 -13.867  11.301  1.00  0.00     0.029 A 
ATOM     52  N   UNL     1      -1.027 -13.667   9.503  1.00  0.00    -0.354 N 
ATOM     53  N   UNL     1       1.086 -14.513   7.628  1.00  0.00    -0.248 NA
ATOM     54  C   UNL     1       2.732 -16.041   6.986  1.00  0.00     0.031 C 
ATOM     55  C   UNL     1      -1.458 -14.966  11.251  1.00  0.00     0.029 A 
ATOM     56  C   UNL     1      -0.668 -14.854  10.118  1.00  0.00     0.049 A 
ATOM     57  H   UNL     1      -0.624 -13.314   8.677  1.00  0.00     0.167 HD
ATOM     58  C   UNL     1       1.094 -15.574   8.523  1.00  0.00     0.074 A 
ATOM     59  C   UNL     1       2.106 -16.502   8.059  1.00  0.00     0.031 C 
ATOM     60  C   UNL     1       0.333 -15.766   9.629  1.00  0.00     0.037 A 
BRANCH  47  61
ATOM     61  C   UNL     1      -3.708 -11.217  10.748  1.00  0.00     0.057 A 
ATOM     62  C   UNL     1      -5.051 -11.147  10.351  1.00  0.00     0.134 A 
ATOM     63  C   UNL     1      -3.385 -10.717  12.016  1.00  0.00     0.134 A 
ATOM     64  F   UNL     1      -5.427 -11.591   9.142  1.00  0.00    -0.206 F 
ATOM     65  C   UNL     1      -6.026 -10.565  11.164  1.00  0.00     0.040 A 
ATOM     66  C   UNL     1      -4.357 -10.162  12.851  1.00  0.00     0.040 A 
ATOM     67  F   UNL     1      -2.121 -10.756  12.462  1.00  0.00    -0.206 F 
ATOM     68  C   UNL     1      -5.680 -10.076  12.421  1.00  0.00     0.006 A 
ENDBRANCH  47  61
BRANCH  48  69
ATOM     69  C   UNL     1       3.466 -14.508   4.602  1.00  0.00     0.057 A 
ATOM     70  C   UNL     1       3.252 -15.644   3.811  1.00  0.00     0.134 A 
ATOM     71  C   UNL     1       4.704 -13.867   4.486  1.00  0.00     0.134 A 
ATOM     72  F   UNL     1       2.090 -16.309   3.887  1.00  0.00    -0.206 F 
ATOM     73  C   UNL     1       4.237 -16.136   2.954  1.00  0.00     0.040 A 
ATOM     74  C   UNL     1       5.690 -14.335   3.615  1.00  0.00     0.040 A 
ATOM     75  F   UNL     1       4.967 -12.767   5.207  1.00  0.00    -0.206 F 
ATOM     76  C   UNL     1       5.460 -15.477   2.850  1.00  0.00     0.006 A 
ENDBRANCH  48  69
BRANCH  60  77
ATOM     77  C   UNL     1       0.538 -17.045  10.383  1.00  0.00     0.057 A 
ATOM     78  C   UNL     1       1.682 -17.273  11.158  1.00  0.00     0.134 A 
ATOM     79  C   UNL     1      -0.440 -18.048  10.358  1.00  0.00     0.134 A 
ATOM     80  F   UNL     1       2.659 -16.355  11.214  1.00  0.00    -0.206 F 
ATOM     81  C   UNL     1       1.859 -18.465  11.861  1.00  0.00     0.040 A 
ATOM     82  C   UNL     1      -0.287 -19.233  11.077  1.00  0.00     0.040 A 
ATOM     83  F   UNL     1      -1.563 -17.886   9.643  1.00  0.00    -0.206 F 
ATOM     84  C   UNL     1       0.869 -19.447  11.825  1.00  0.00     0.006 A 
ENDBRANCH  60  77
ENDBRANCH  34  35
ENDBRANCH  26  29
ENDBRANCH  24  25
ENDBRANCH   1  24
TORSDOF 12
