REMARK SMILES C/C(=C\C(=O)c1c(O)n(C)c2ccccc2c1=O)Nc1ccc(C(=O)NCCCNC(=O)c2ccc(-c3c4nc(c(-c5c(F)cccc5F)c5ccc([nH]5)c(-c5c(F)cccc5F)c5nc(c(-c6c(F)cccc6F)c6ccc3[nH]6)C=C5)C=C4)cc2)cc1
REMARK SMILES IDX 24 1 25 2 26 3 23 5 20 6 21 7 88 8 22 9 87 10 19 11 2 13
REMARK SMILES IDX 1 14 3 15 4 16 5 17 6 18 7 19 17 20 9 21 16 22 18 23 10 24
REMARK SMILES IDX 11 25 15 26 12 27 14 28 13 29 8 30 27 32 28 33 29 34 30 35
REMARK SMILES IDX 31 36 32 38 33 39 34 40 86 41 35 42 85 43 36 44 37 45 38 46
REMARK SMILES IDX 79 47 39 48 84 49 78 50 80 51 40 52 83 53 77 54 76 55 41 57
REMARK SMILES IDX 67 58 50 59 66 60 51 61 54 62 65 63 81 64 52 65 53 66 64 68
REMARK SMILES IDX 82 69 55 70 42 71 43 72 48 73 44 74 45 75 47 76 49 77 46 78
REMARK SMILES IDX 68 79 69 80 74 81 70 82 71 83 73 84 75 85 72 86 56 87 57 88
REMARK SMILES IDX 62 89 58 90 59 91 61 92 63 93 60 94
REMARK H PARENT 26 4 19 12 8 31 30 37 80 56 54 67
REMARK Flexibility Score: inf
ROOT
ATOM      1  C   UNL     1       4.043   3.215  -4.273  1.00  0.00     0.251 C 
ATOM      2  O   UNL     1       5.040   3.635  -3.676  1.00  0.00    -0.269 OA
ATOM      3  N   UNL     1       3.571   4.043  -5.251  1.00  0.00    -0.352 N 
ATOM      4  H   UNL     1       4.106   4.866  -5.321  1.00  0.00     0.163 HD
ENDROOT
BRANCH   1   5
ATOM      5  C   UNL     1       3.452   1.912  -3.845  1.00  0.00     0.039 A 
ATOM      6  C   UNL     1       2.336  -0.416  -2.628  1.00  0.00     0.038 A 
ATOM      7  C   UNL     1       3.486   0.183  -2.122  1.00  0.00     0.027 A 
ATOM      8  C   UNL     1       1.841   0.085  -3.836  1.00  0.00     0.027 A 
ATOM      9  C   UNL     1       4.016   1.342  -2.696  1.00  0.00     0.016 A 
ATOM     10  C   UNL     1       2.411   1.212  -4.452  1.00  0.00     0.016 A 
BRANCH   6  11
ATOM     11  N   UNL     1       1.587  -1.390  -1.933  1.00  0.00    -0.359 N 
ATOM     12  H   UNL     1       1.362  -2.207  -2.435  1.00  0.00     0.166 HD
BRANCH  11  13
ATOM     13  C   UNL     1       1.124  -1.327  -0.607  1.00  0.00     0.016 C 
ATOM     14  C   UNL     1       1.897  -0.460   0.358  1.00  0.00     0.064 C 
ATOM     15  C   UNL     1       0.003  -2.005  -0.262  1.00  0.00     0.074 C 
BRANCH  15  16
ATOM     16  C   UNL     1      -0.851  -2.025   0.976  1.00  0.00     0.196 C 
ATOM     17  O   UNL     1      -1.851  -2.740   1.002  1.00  0.00    -0.289 OA
BRANCH  16  18
ATOM     18  C   UNL     1      -0.593  -1.057   2.057  1.00  0.00     0.130 A 
ATOM     19  C   UNL     1      -0.842   0.253   1.858  1.00  0.00     0.206 A 
ATOM     20  C   UNL     1       0.114  -1.480   3.284  1.00  0.00     0.204 A 
ATOM     21  N   UNL     1      -0.350   1.257   2.687  1.00  0.00    -0.315 N 
ATOM     22  C   UNL     1       0.533  -0.422   4.231  1.00  0.00     0.047 A 
ATOM     23  O   UNL     1       0.396  -2.656   3.490  1.00  0.00    -0.288 OA
ATOM     24  C   UNL     1      -0.302   2.659   2.257  1.00  0.00     0.153 C 
ATOM     25  C   UNL     1       0.315   0.929   3.895  1.00  0.00     0.055 A 
ATOM     26  C   UNL     1       1.198  -0.792   5.410  1.00  0.00     0.014 A 
ATOM     27  C   UNL     1       0.788   1.893   4.803  1.00  0.00     0.027 A 
ATOM     28  C   UNL     1       1.657   0.186   6.285  1.00  0.00     0.001 A 
ATOM     29  C   UNL     1       1.453   1.528   5.981  1.00  0.00     0.002 A 
BRANCH  19  30
ATOM     30  O   UNL     1      -1.548   0.693   0.750  1.00  0.00    -0.494 OA
ATOM     31  H   UNL     1      -1.909   0.073   0.147  1.00  0.00     0.295 HD
ENDBRANCH  19  30
ENDBRANCH  16  18
ENDBRANCH  15  16
ENDBRANCH  11  13
ENDBRANCH   6  11
ENDBRANCH   1   5
BRANCH   3  32
ATOM     32  C   UNL     1       2.485   4.024  -6.213  1.00  0.00     0.118 C 
BRANCH  32  33
ATOM     33  C   UNL     1       1.560   5.224  -6.071  1.00  0.00     0.042 C 
BRANCH  33  34
ATOM     34  C   UNL     1       2.243   6.559  -6.335  1.00  0.00     0.118 C 
BRANCH  34  35
ATOM     35  N   UNL     1       2.707   6.694  -7.712  1.00  0.00    -0.352 N 
ATOM     36  C   UNL     1       2.129   7.285  -8.813  1.00  0.00     0.251 C 
ATOM     37  H   UNL     1       3.590   6.293  -7.884  1.00  0.00     0.163 HD
ATOM     38  O   UNL     1       2.602   7.090  -9.925  1.00  0.00    -0.269 OA
BRANCH  36  39
ATOM     39  C   UNL     1       0.917   8.123  -8.667  1.00  0.00     0.039 A 
ATOM     40  C   UNL     1       0.780   8.996  -7.592  1.00  0.00     0.014 A 
ATOM     41  C   UNL     1      -0.097   8.043  -9.627  1.00  0.00     0.014 A 
ATOM     42  C   UNL     1      -0.445   9.601  -7.347  1.00  0.00     0.010 A 
ATOM     43  C   UNL     1      -1.286   8.759  -9.447  1.00  0.00     0.010 A 
ATOM     44  C   UNL     1      -1.495   9.495  -8.272  1.00  0.00    -0.014 A 
BRANCH  44  45
ATOM     45  C   UNL     1      -2.792  10.159  -7.969  1.00  0.00     0.031 A 
ATOM     46  C   UNL     1      -4.057   9.353  -7.824  1.00  0.00     0.074 A 
ATOM     47  C   UNL     1      -2.812  11.487  -7.739  1.00  0.00     0.049 A 
ATOM     48  N   UNL     1      -5.267   9.762  -7.532  1.00  0.00    -0.248 NA
ATOM     49  C   UNL     1      -3.955   7.901  -8.039  1.00  0.00     0.031 C 
ATOM     50  C   UNL     1      -1.653  12.378  -7.833  1.00  0.00     0.029 A 
ATOM     51  N   UNL     1      -3.831  12.313  -7.340  1.00  0.00    -0.354 N 
ATOM     52  C   UNL     1      -6.070   8.628  -7.552  1.00  0.00     0.074 A 
ATOM     53  C   UNL     1      -5.218   7.516  -7.915  1.00  0.00     0.031 C 
ATOM     54  C   UNL     1      -2.006  13.606  -7.427  1.00  0.00     0.029 A 
ATOM     55  C   UNL     1      -3.432  13.610  -7.124  1.00  0.00     0.049 A 
ATOM     56  H   UNL     1      -4.759  12.007  -7.220  1.00  0.00     0.167 HD
ATOM     57  C   UNL     1      -7.394   8.518  -7.282  1.00  0.00     0.037 A 
ATOM     58  C   UNL     1      -4.136  14.690  -6.740  1.00  0.00     0.037 A 
ATOM     59  C   UNL     1      -8.238   9.620  -6.899  1.00  0.00     0.049 A 
ATOM     60  C   UNL     1      -5.609  14.549  -6.497  1.00  0.00     0.074 A 
ATOM     61  C   UNL     1      -9.588   9.610  -6.595  1.00  0.00     0.029 A 
ATOM     62  N   UNL     1      -7.809  10.932  -6.763  1.00  0.00    -0.354 N 
ATOM     63  N   UNL     1      -6.354  13.470  -6.531  1.00  0.00    -0.248 NA
ATOM     64  C   UNL     1      -6.344  15.780  -6.179  1.00  0.00     0.031 C 
ATOM     65  C   UNL     1      -9.984  10.923  -6.312  1.00  0.00     0.029 A 
ATOM     66  C   UNL     1      -8.872  11.743  -6.398  1.00  0.00     0.049 A 
ATOM     67  H   UNL     1      -6.885  11.242  -6.905  1.00  0.00     0.167 HD
ATOM     68  C   UNL     1      -7.641  13.890  -6.231  1.00  0.00     0.074 A 
ATOM     69  C   UNL     1      -7.571  15.317  -5.989  1.00  0.00     0.031 C 
ATOM     70  C   UNL     1      -8.783  13.162  -6.169  1.00  0.00     0.037 A 
BRANCH  57  71
ATOM     71  C   UNL     1      -8.014   7.156  -7.411  1.00  0.00     0.057 A 
ATOM     72  C   UNL     1      -8.895   6.871  -8.463  1.00  0.00     0.134 A 
ATOM     73  C   UNL     1      -7.761   6.134  -6.487  1.00  0.00     0.134 A 
ATOM     74  F   UNL     1      -9.186   7.805  -9.380  1.00  0.00    -0.206 F 
ATOM     75  C   UNL     1      -9.499   5.619  -8.591  1.00  0.00     0.040 A 
ATOM     76  C   UNL     1      -8.340   4.870  -6.619  1.00  0.00     0.040 A 
ATOM     77  F   UNL     1      -6.915   6.336  -5.465  1.00  0.00    -0.206 F 
ATOM     78  C   UNL     1      -9.217   4.612  -7.671  1.00  0.00     0.006 A 
ENDBRANCH  57  71
BRANCH  58  79
ATOM     79  C   UNL     1      -3.462  16.003  -6.586  1.00  0.00     0.057 A 
ATOM     80  C   UNL     1      -2.956  16.698  -7.691  1.00  0.00     0.134 A 
ATOM     81  C   UNL     1      -3.320  16.600  -5.328  1.00  0.00     0.134 A 
ATOM     82  F   UNL     1      -3.058  16.177  -8.923  1.00  0.00    -0.206 F 
ATOM     83  C   UNL     1      -2.319  17.931  -7.551  1.00  0.00     0.040 A 
ATOM     84  C   UNL     1      -2.711  17.846  -5.176  1.00  0.00     0.040 A 
ATOM     85  F   UNL     1      -3.803  15.992  -4.234  1.00  0.00    -0.206 F 
ATOM     86  C   UNL     1      -2.203  18.512  -6.290  1.00  0.00     0.006 A 
ENDBRANCH  58  79
BRANCH  70  87
ATOM     87  C   UNL     1     -10.035  13.904  -5.807  1.00  0.00     0.057 A 
ATOM     88  C   UNL     1     -10.620  13.746  -4.545  1.00  0.00     0.134 A 
ATOM     89  C   UNL     1     -10.658  14.778  -6.707  1.00  0.00     0.134 A 
ATOM     90  F   UNL     1     -10.074  12.920  -3.639  1.00  0.00    -0.206 F 
ATOM     91  C   UNL     1     -11.780  14.434  -4.189  1.00  0.00     0.040 A 
ATOM     92  C   UNL     1     -11.804  15.491  -6.353  1.00  0.00     0.040 A 
ATOM     93  F   UNL     1     -10.135  14.987  -7.925  1.00  0.00    -0.206 F 
ATOM     94  C   UNL     1     -12.370  15.317  -5.092  1.00  0.00     0.006 A 
ENDBRANCH  70  87
ENDBRANCH  44  45
ENDBRANCH  36  39
ENDBRANCH  34  35
ENDBRANCH  33  34
ENDBRANCH  32  33
ENDBRANCH   3  32
TORSDOF 15
