REMARK SMILES Nc1c(Nc2ncc(C(F)(F)F)cc2Cl)ncnc1N1CCC(C(=O)NCCCNC(=O)c2ccc(-c3c4nc(c(-c5c(F)cccc5F)c5ccc([nH]5)c(-c5c(F)cccc5F)c5nc(c(-c6c(F)cccc6F)c6ccc3[nH]6)C=C5)C=C4)cc2)CC1
REMARK SMILES IDX 27 1 26 2 24 3 25 4 23 6 20 7 21 8 88 9 22 10 87 11 19 12
REMARK SMILES IDX 2 13 3 14 16 15 18 16 17 17 1 18 4 21 5 23 6 24 14 25 7 26
REMARK SMILES IDX 13 27 15 28 8 29 9 30 10 31 11 32 12 33 28 34 29 35 30 36
REMARK SMILES IDX 31 37 32 39 33 40 34 41 86 42 35 43 85 44 36 45 37 46 38 47
REMARK SMILES IDX 79 48 39 49 84 50 78 51 80 52 40 53 83 54 77 55 76 56 41 58
REMARK SMILES IDX 67 59 50 60 66 61 51 62 54 63 65 64 81 65 52 66 53 67 64 69
REMARK SMILES IDX 82 70 55 71 42 72 43 73 48 74 44 75 45 76 47 77 49 78 46 79
REMARK SMILES IDX 68 80 69 81 74 82 70 83 71 84 73 85 75 86 72 87 56 88 57 89
REMARK SMILES IDX 62 90 58 91 59 92 61 93 63 94 60 95
REMARK H PARENT 26 5 1 19 1 20 4 22 30 38 80 57 54 68
REMARK Flexibility Score: inf
ROOT
ATOM      1  C   UNL     1       0.317  -0.366   6.701  1.00  0.00     0.117 C 
ENDROOT
BRANCH   1   2
ATOM      2  N   UNL     1       1.466   0.408   7.149  1.00  0.00    -0.356 N 
ATOM      3  C   UNL     1       2.559   0.864   6.482  1.00  0.00     0.223 C 
ATOM      4  O   UNL     1       3.408   1.479   7.134  1.00  0.00    -0.275 OA
ATOM      5  H   UNL     1       1.448   0.643   8.105  1.00  0.00     0.163 HD
BRANCH   3   6
ATOM      6  C   UNL     1       2.742   0.653   4.989  1.00  0.00     0.082 C 
ATOM      7  N   UNL     1       1.846  -0.360   2.482  1.00  0.00    -0.355 N 
ATOM      8  C   UNL     1       2.939  -1.057   3.136  1.00  0.00     0.119 C 
ATOM      9  C   UNL     1       1.710   1.072   2.699  1.00  0.00     0.119 C 
ATOM     10  C   UNL     1       2.904  -0.829   4.638  1.00  0.00     0.035 C 
ATOM     11  C   UNL     1       1.668   1.399   4.185  1.00  0.00     0.035 C 
BRANCH   7  12
ATOM     12  C   UNL     1       0.762  -1.100   2.024  1.00  0.00     0.157 A 
ATOM     13  C   UNL     1       0.267  -0.878   0.728  1.00  0.00     0.118 A 
ATOM     14  C   UNL     1      -0.772  -1.720   0.306  1.00  0.00     0.160 A 
ATOM     15  N   UNL     1      -1.324  -2.642   1.112  1.00  0.00    -0.217 NA
ATOM     16  N   UNL     1       0.238  -2.041   2.832  1.00  0.00    -0.217 NA
ATOM     17  C   UNL     1      -0.789  -2.749   2.335  1.00  0.00     0.226 A 
BRANCH  13  18
ATOM     18  N   UNL     1       0.910  -0.010  -0.179  1.00  0.00    -0.393 N 
ATOM     19  H   UNL     1       0.537   0.124  -1.081  1.00  0.00     0.156 HD
ATOM     20  H   UNL     1       1.731   0.462   0.089  1.00  0.00     0.156 HD
ENDBRANCH  13  18
BRANCH  14  21
ATOM     21  N   UNL     1      -1.176  -1.612  -1.048  1.00  0.00    -0.322 N 
ATOM     22  H   UNL     1      -0.653  -0.984  -1.596  1.00  0.00     0.170 HD
BRANCH  21  23
ATOM     23  C   UNL     1      -2.208  -2.268  -1.710  1.00  0.00     0.150 A 
ATOM     24  N   UNL     1      -1.831  -2.825  -2.890  1.00  0.00    -0.237 NA
ATOM     25  C   UNL     1      -3.532  -2.346  -1.260  1.00  0.00     0.084 A 
ATOM     26  C   UNL     1      -2.745  -3.535  -3.591  1.00  0.00     0.126 A 
ATOM     27  C   UNL     1      -4.458  -3.077  -2.011  1.00  0.00     0.039 A 
ATOM     28  Cl  UNL     1      -4.128  -1.484   0.113  1.00  0.00    -0.080 Cl
ATOM     29  C   UNL     1      -4.061  -3.703  -3.195  1.00  0.00     0.075 A 
BRANCH  29  30
ATOM     30  C   UNL     1      -4.987  -4.524  -4.033  1.00  0.00     0.417 C 
ATOM     31  F   UNL     1      -5.074  -4.070  -5.313  1.00  0.00    -0.166 F 
ATOM     32  F   UNL     1      -4.589  -5.822  -4.125  1.00  0.00    -0.166 F 
ATOM     33  F   UNL     1      -6.263  -4.557  -3.561  1.00  0.00    -0.166 F 
ENDBRANCH  29  30
ENDBRANCH  21  23
ENDBRANCH  14  21
ENDBRANCH   7  12
ENDBRANCH   3   6
ENDBRANCH   1   2
BRANCH   1  34
ATOM     34  C   UNL     1       0.312  -1.774   7.280  1.00  0.00     0.042 C 
BRANCH  34  35
ATOM     35  C   UNL     1       0.177  -1.810   8.795  1.00  0.00     0.118 C 
BRANCH  35  36
ATOM     36  N   UNL     1      -1.120  -1.332   9.255  1.00  0.00    -0.352 N 
ATOM     37  C   UNL     1      -2.165  -2.020   9.820  1.00  0.00     0.251 C 
ATOM     38  H   UNL     1      -1.270  -0.365   9.144  1.00  0.00     0.163 HD
ATOM     39  O   UNL     1      -3.253  -1.470   9.966  1.00  0.00    -0.269 OA
BRANCH  37  40
ATOM     40  C   UNL     1      -1.993  -3.430  10.226  1.00  0.00     0.039 A 
ATOM     41  C   UNL     1      -2.993  -4.352   9.907  1.00  0.00     0.014 A 
ATOM     42  C   UNL     1      -0.853  -3.844  10.919  1.00  0.00     0.014 A 
ATOM     43  C   UNL     1      -2.810  -5.702  10.211  1.00  0.00     0.010 A 
ATOM     44  C   UNL     1      -0.631  -5.200  11.141  1.00  0.00     0.010 A 
ATOM     45  C   UNL     1      -1.608  -6.142  10.790  1.00  0.00    -0.014 A 
BRANCH  45  46
ATOM     46  C   UNL     1      -1.358  -7.586  11.028  1.00  0.00     0.031 A 
ATOM     47  C   UNL     1      -1.188  -8.105  12.428  1.00  0.00     0.074 A 
ATOM     48  C   UNL     1      -1.239  -8.421   9.977  1.00  0.00     0.049 A 
ATOM     49  N   UNL     1      -0.940  -9.326  12.829  1.00  0.00    -0.248 NA
ATOM     50  C   UNL     1      -1.286  -7.123  13.521  1.00  0.00     0.031 C 
ATOM     51  C   UNL     1      -1.333  -8.028   8.569  1.00  0.00     0.029 A 
ATOM     52  N   UNL     1      -1.016  -9.774   9.928  1.00  0.00    -0.354 N 
ATOM     53  C   UNL     1      -0.851  -9.257  14.213  1.00  0.00     0.074 A 
ATOM     54  C   UNL     1      -1.008  -7.867  14.581  1.00  0.00     0.031 C 
ATOM     55  C   UNL     1      -1.212  -9.120   7.799  1.00  0.00     0.029 A 
ATOM     56  C   UNL     1      -0.996 -10.284   8.652  1.00  0.00     0.049 A 
ATOM     57  H   UNL     1      -0.882 -10.327  10.732  1.00  0.00     0.167 HD
ATOM     58  C   UNL     1      -0.685 -10.265  15.100  1.00  0.00     0.037 A 
ATOM     59  C   UNL     1      -0.830 -11.549   8.220  1.00  0.00     0.037 A 
ATOM     60  C   UNL     1      -0.557 -11.650  14.735  1.00  0.00     0.049 A 
ATOM     61  C   UNL     1      -0.634 -12.649   9.225  1.00  0.00     0.074 A 
ATOM     62  C   UNL     1      -0.436 -12.751  15.565  1.00  0.00     0.029 A 
ATOM     63  N   UNL     1      -0.538 -12.124  13.432  1.00  0.00    -0.354 N 
ATOM     64  N   UNL     1      -0.613 -12.576  10.534  1.00  0.00    -0.248 NA
ATOM     65  C   UNL     1      -0.441 -14.007   8.696  1.00  0.00     0.031 C 
ATOM     66  C   UNL     1      -0.307 -13.888  14.763  1.00  0.00     0.029 A 
ATOM     67  C   UNL     1      -0.390 -13.501  13.435  1.00  0.00     0.049 A 
ATOM     68  H   UNL     1      -0.619 -11.566  12.625  1.00  0.00     0.167 HD
ATOM     69  C   UNL     1      -0.429 -13.876  10.985  1.00  0.00     0.074 A 
ATOM     70  C   UNL     1      -0.355 -14.721   9.811  1.00  0.00     0.031 C 
ATOM     71  C   UNL     1      -0.331 -14.327  12.258  1.00  0.00     0.037 A 
BRANCH  58  72
ATOM     72  C   UNL     1      -0.661  -9.914  16.558  1.00  0.00     0.057 A 
ATOM     73  C   UNL     1      -1.823  -9.524  17.235  1.00  0.00     0.134 A 
ATOM     74  C   UNL     1       0.518 -10.026  17.306  1.00  0.00     0.134 A 
ATOM     75  F   UNL     1      -2.982  -9.387  16.573  1.00  0.00    -0.206 F 
ATOM     76  C   UNL     1      -1.812  -9.244  18.602  1.00  0.00     0.040 A 
ATOM     77  C   UNL     1       0.536  -9.772  18.678  1.00  0.00     0.040 A 
ATOM     78  F   UNL     1       1.665 -10.401  16.719  1.00  0.00    -0.206 F 
ATOM     79  C   UNL     1      -0.631  -9.377  19.329  1.00  0.00     0.006 A 
ENDBRANCH  58  72
BRANCH  59  80
ATOM     80  C   UNL     1      -0.889 -11.847   6.767  1.00  0.00     0.057 A 
ATOM     81  C   UNL     1      -1.981 -12.531   6.220  1.00  0.00     0.134 A 
ATOM     82  C   UNL     1       0.128 -11.448   5.892  1.00  0.00     0.134 A 
ATOM     83  F   UNL     1      -2.978 -12.953   7.012  1.00  0.00    -0.206 F 
ATOM     84  C   UNL     1      -2.056 -12.817   4.856  1.00  0.00     0.040 A 
ATOM     85  C   UNL     1       0.055 -11.708   4.522  1.00  0.00     0.040 A 
ATOM     86  F   UNL     1       1.197 -10.783   6.353  1.00  0.00    -0.206 F 
ATOM     87  C   UNL     1      -1.038 -12.399   4.002  1.00  0.00     0.006 A 
ENDBRANCH  59  80
BRANCH  71  88
ATOM     88  C   UNL     1      -0.153 -15.802  12.462  1.00  0.00     0.057 A 
ATOM     89  C   UNL     1       1.074 -16.432  12.226  1.00  0.00     0.134 A 
ATOM     90  C   UNL     1      -1.194 -16.578  12.988  1.00  0.00     0.134 A 
ATOM     91  F   UNL     1       2.105 -15.743  11.714  1.00  0.00    -0.206 F 
ATOM     92  C   UNL     1       1.259 -17.787  12.503  1.00  0.00     0.040 A 
ATOM     93  C   UNL     1      -1.013 -17.928  13.290  1.00  0.00     0.040 A 
ATOM     94  F   UNL     1      -2.391 -16.030  13.245  1.00  0.00    -0.206 F 
ATOM     95  C   UNL     1       0.217 -18.536  13.047  1.00  0.00     0.006 A 
ENDBRANCH  71  88
ENDBRANCH  45  46
ENDBRANCH  37  40
ENDBRANCH  35  36
ENDBRANCH  34  35
ENDBRANCH   1  34
TORSDOF 15
