REMARK SMILES O=C(NCCCNC(=O)[C@H]1CC(=O)N(Cc2ccc3cc[nH]c3c2)C1)c1ccc(-c2c3nc(c(-c4c(F)cccc4F)c4ccc([nH]4)c(-c4c(F)cccc4F)c4nc(c(-c5c(F)cccc5F)c5ccc2[nH]5)C=C4)C=C3)cc1
REMARK SMILES IDX 5 1 4 2 3 3 1 4 2 5 26 7 27 8 79 9 28 10 78 11 29 12 30 13
REMARK SMILES IDX 31 14 72 15 32 16 77 17 71 18 73 19 33 20 76 21 70 22 69 23
REMARK SMILES IDX 34 25 60 26 43 27 59 28 44 29 47 30 58 31 74 32 45 33 46 34
REMARK SMILES IDX 57 36 75 37 48 38 35 39 36 40 41 41 37 42 38 43 40 44 42 45
REMARK SMILES IDX 39 46 61 47 62 48 67 49 63 50 64 51 66 52 68 53 65 54 49 55
REMARK SMILES IDX 50 56 55 57 51 58 52 59 54 60 56 61 53 62 6 63 7 64 8 65
REMARK SMILES IDX 9 67 10 68 11 69 25 70 12 71 14 72 13 73 15 74 16 75 17 76
REMARK SMILES IDX 24 77 18 78 23 79 19 80 22 81 20 82 21 83
REMARK H PARENT 3 6 73 24 47 35 7 66 22 84
REMARK Flexibility Score: inf
ROOT
ATOM      1  C   UNL     1       8.213  -6.599   0.339  1.00  0.00     0.042 C 
ENDROOT
BRANCH   1   2
ATOM      2  C   UNL     1       7.710  -6.687   1.775  1.00  0.00     0.118 C 
BRANCH   2   3
ATOM      3  N   UNL     1       7.641  -8.057   2.267  1.00  0.00    -0.352 N 
ATOM      4  O   UNL     1       8.255  -9.877   3.445  1.00  0.00    -0.269 OA
ATOM      5  C   UNL     1       8.325  -8.662   3.295  1.00  0.00     0.251 C 
ATOM      6  H   UNL     1       7.007  -8.639   1.790  1.00  0.00     0.163 HD
BRANCH   5   7
ATOM      7  C   UNL     1       9.167  -7.854   4.204  1.00  0.00     0.039 A 
ATOM      8  C   UNL     1       8.723  -6.619   4.678  1.00  0.00     0.014 A 
ATOM      9  C   UNL     1      10.421  -8.338   4.587  1.00  0.00     0.014 A 
ATOM     10  C   UNL     1       9.599  -5.791   5.367  1.00  0.00     0.010 A 
ATOM     11  C   UNL     1      11.260  -7.547   5.378  1.00  0.00     0.010 A 
ATOM     12  C   UNL     1      10.876  -6.246   5.734  1.00  0.00    -0.014 A 
BRANCH  12  13
ATOM     13  C   UNL     1      11.768  -5.345   6.510  1.00  0.00     0.031 A 
ATOM     14  C   UNL     1      13.086  -4.881   5.950  1.00  0.00     0.074 A 
ATOM     15  C   UNL     1      11.356  -4.903   7.715  1.00  0.00     0.049 A 
ATOM     16  N   UNL     1      13.958  -4.053   6.471  1.00  0.00    -0.248 NA
ATOM     17  C   UNL     1      13.486  -5.421   4.642  1.00  0.00     0.031 C 
ATOM     18  C   UNL     1      10.103  -5.289   8.370  1.00  0.00     0.029 A 
ATOM     19  N   UNL     1      11.928  -4.017   8.591  1.00  0.00    -0.354 N 
ATOM     20  C   UNL     1      15.013  -3.989   5.569  1.00  0.00     0.074 A 
ATOM     21  C   UNL     1      14.689  -4.888   4.482  1.00  0.00     0.031 C 
ATOM     22  C   UNL     1       9.973  -4.599   9.511  1.00  0.00     0.029 A 
ATOM     23  C   UNL     1      11.161  -3.776   9.705  1.00  0.00     0.049 A 
ATOM     24  H   UNL     1      12.803  -3.593   8.437  1.00  0.00     0.167 HD
ATOM     25  C   UNL     1      16.143  -3.244   5.637  1.00  0.00     0.037 A 
ATOM     26  C   UNL     1      11.390  -2.989  10.772  1.00  0.00     0.037 A 
ATOM     27  C   UNL     1      16.454  -2.339   6.716  1.00  0.00     0.049 A 
ATOM     28  C   UNL     1      12.663  -2.195  10.832  1.00  0.00     0.074 A 
ATOM     29  C   UNL     1      17.554  -1.510   6.856  1.00  0.00     0.029 A 
ATOM     30  N   UNL     1      15.667  -2.150   7.843  1.00  0.00    -0.354 N 
ATOM     31  N   UNL     1      13.629  -2.113   9.950  1.00  0.00    -0.248 NA
ATOM     32  C   UNL     1      12.874  -1.382  12.036  1.00  0.00     0.031 C 
ATOM     33  C   UNL     1      17.462  -0.865   8.094  1.00  0.00     0.029 A 
ATOM     34  C   UNL     1      16.272  -1.239   8.696  1.00  0.00     0.049 A 
ATOM     35  H   UNL     1      14.807  -2.598   8.013  1.00  0.00     0.167 HD
ATOM     36  C   UNL     1      14.547  -1.215  10.477  1.00  0.00     0.074 A 
ATOM     37  C   UNL     1      14.012  -0.769  11.747  1.00  0.00     0.031 C 
ATOM     38  C   UNL     1      15.726  -0.795   9.954  1.00  0.00     0.037 A 
BRANCH  25  39
ATOM     39  C   UNL     1      17.146  -3.392   4.526  1.00  0.00     0.057 A 
ATOM     40  C   UNL     1      16.899  -2.923   3.229  1.00  0.00     0.134 A 
ATOM     41  C   UNL     1      18.395  -3.980   4.769  1.00  0.00     0.134 A 
ATOM     42  F   UNL     1      15.721  -2.358   2.922  1.00  0.00    -0.206 F 
ATOM     43  C   UNL     1      17.845  -3.057   2.210  1.00  0.00     0.040 A 
ATOM     44  C   UNL     1      19.360  -4.093   3.767  1.00  0.00     0.040 A 
ATOM     45  F   UNL     1      18.704  -4.443   5.990  1.00  0.00    -0.206 F 
ATOM     46  C   UNL     1      19.083  -3.637   2.480  1.00  0.00     0.006 A 
ENDBRANCH  25  39
BRANCH  26  47
ATOM     47  C   UNL     1      10.389  -2.911  11.866  1.00  0.00     0.057 A 
ATOM     48  C   UNL     1       9.678  -1.732  12.114  1.00  0.00     0.134 A 
ATOM     49  C   UNL     1      10.125  -4.010  12.693  1.00  0.00     0.134 A 
ATOM     50  F   UNL     1       9.897  -0.640  11.366  1.00  0.00    -0.206 F 
ATOM     51  C   UNL     1       8.758  -1.640  13.160  1.00  0.00     0.040 A 
ATOM     52  C   UNL     1       9.185  -3.942  13.722  1.00  0.00     0.040 A 
ATOM     53  F   UNL     1      10.765  -5.173  12.501  1.00  0.00    -0.206 F 
ATOM     54  C   UNL     1       8.506  -2.750  13.963  1.00  0.00     0.006 A 
ENDBRANCH  26  47
BRANCH  38  55
ATOM     55  C   UNL     1      16.488   0.240  10.731  1.00  0.00     0.057 A 
ATOM     56  C   UNL     1      17.108  -0.049  11.954  1.00  0.00     0.134 A 
ATOM     57  C   UNL     1      16.610   1.546  10.238  1.00  0.00     0.134 A 
ATOM     58  F   UNL     1      17.018  -1.276  12.489  1.00  0.00    -0.206 F 
ATOM     59  C   UNL     1      17.791   0.932  12.675  1.00  0.00     0.040 A 
ATOM     60  C   UNL     1      17.319   2.526  10.934  1.00  0.00     0.040 A 
ATOM     61  F   UNL     1      16.049   1.889   9.069  1.00  0.00    -0.206 F 
ATOM     62  C   UNL     1      17.903   2.223  12.161  1.00  0.00     0.006 A 
ENDBRANCH  38  55
ENDBRANCH  12  13
ENDBRANCH   5   7
ENDBRANCH   2   3
ENDBRANCH   1   2
BRANCH   1  63
ATOM     63  C   UNL     1       7.227  -7.153  -0.683  1.00  0.00     0.117 C 
BRANCH  63  64
ATOM     64  N   UNL     1       6.017  -6.347  -0.719  1.00  0.00    -0.356 N 
ATOM     65  C   UNL     1       5.578  -5.409  -1.595  1.00  0.00     0.225 C 
ATOM     66  H   UNL     1       5.402  -6.513   0.032  1.00  0.00     0.163 HD
ATOM     67  O   UNL     1       4.552  -4.796  -1.288  1.00  0.00    -0.275 OA
BRANCH  65  68
ATOM     68  C   UNL     1       6.226  -5.165  -2.940  1.00  0.00     0.107 C 
ATOM     69  C   UNL     1       7.706  -4.810  -2.977  1.00  0.00     0.115 C 
ATOM     70  C   UNL     1       6.070  -6.392  -3.815  1.00  0.00     0.133 C 
ATOM     71  C   UNL     1       8.234  -5.557  -4.178  1.00  0.00     0.223 C 
ATOM     72  N   UNL     1       7.257  -6.423  -4.626  1.00  0.00    -0.338 N 
ATOM     73  O   UNL     1       9.349  -5.407  -4.654  1.00  0.00    -0.275 OA
BRANCH  72  74
ATOM     74  C   UNL     1       7.386  -7.287  -5.791  1.00  0.00     0.155 C 
BRANCH  74  75
ATOM     75  C   UNL     1       7.377  -8.764  -5.458  1.00  0.00    -0.026 A 
ATOM     76  C   UNL     1       6.203  -9.390  -5.010  1.00  0.00     0.006 A 
ATOM     77  C   UNL     1       8.547  -9.526  -5.616  1.00  0.00     0.032 A 
ATOM     78  C   UNL     1       6.182 -10.743  -4.653  1.00  0.00     0.010 A 
ATOM     79  C   UNL     1       8.498 -10.890  -5.297  1.00  0.00     0.046 A 
ATOM     80  C   UNL     1       7.350 -11.508  -4.802  1.00  0.00    -0.001 A 
ATOM     81  N   UNL     1       9.469 -11.863  -5.388  1.00  0.00    -0.361 N 
ATOM     82  C   UNL     1       7.676 -12.870  -4.555  1.00  0.00     0.028 A 
ATOM     83  C   UNL     1       8.984 -13.061  -4.934  1.00  0.00     0.083 A 
ATOM     84  H   UNL     1      10.381 -11.717  -5.729  1.00  0.00     0.166 HD
ENDBRANCH  74  75
ENDBRANCH  72  74
ENDBRANCH  65  68
ENDBRANCH  63  64
ENDBRANCH   1  63
TORSDOF 12
