REMARK SMILES C[N@H+]1CCCN(C(=O)N[C@@H]2CCCCC[C@@H]2C(=O)NCCCNC(=O)c2ccc(-c3c4nc(c(-c5c(F)cccc5F)c5ccc([nH]5)c(-c5c(F)cccc5F)c5nc(c(-c6c(F)cccc6F)c6ccc3[nH]6)C=C5)C=C4)cc2)CC1
REMARK SMILES IDX 16 1 10 2 9 3 7 4 8 5 6 7 80 8 81 9 2 10 1 11 3 13 4 14 5 16
REMARK SMILES IDX 11 18 12 19 15 21 14 22 13 23 17 25 18 26 19 27 20 29 21 30
REMARK SMILES IDX 22 31 23 32 24 33 25 35 26 36 27 37 79 38 28 39 78 40 29 41
REMARK SMILES IDX 30 42 31 43 72 44 32 45 77 46 71 47 73 48 33 49 76 50 70 51
REMARK SMILES IDX 69 52 34 54 60 55 43 56 59 57 44 58 47 59 58 60 74 61 45 62
REMARK SMILES IDX 46 63 57 65 75 66 48 67 35 68 36 69 41 70 37 71 38 72 40 73
REMARK SMILES IDX 42 74 39 75 61 76 62 77 67 78 63 79 64 80 66 81 68 82 65 83
REMARK SMILES IDX 49 84 50 85 55 86 51 87 52 88 54 89 56 90 53 91
REMARK H PARENT 9 6 2 12 19 28 23 34 73 53 47 64
REMARK Flexibility Score: 170.00
ROOT
ATOM      1  C   UNL     1       0.276   1.266  -7.536  1.00  0.00     0.101 C 
ENDROOT
BRANCH   1   2
ATOM      2  C   UNL     1       0.511   1.337  -6.013  1.00  0.00     0.096 C 
BRANCH   2   3
ATOM      3  N   UNL     1       0.605   2.729  -5.552  1.00  0.00    -0.334 N 
ATOM      4  C   UNL     1       0.744   3.441  -4.423  1.00  0.00     0.317 C 
ATOM      5  O   UNL     1       0.957   4.642  -4.624  1.00  0.00    -0.249 OA
ATOM      6  H   UNL     1       0.548   3.338  -6.323  1.00  0.00     0.165 HD
BRANCH   4   7
ATOM      7  N   UNL     1       0.669   2.923  -3.163  1.00  0.00    -0.319 N 
BRANCH   7   8
ATOM      8  C   UNL     1       0.218   1.590  -2.791  1.00  0.00     0.182 C 
BRANCH   8   9
ATOM      9  C   UNL     1       1.036   0.928  -1.673  1.00  0.00     0.283 C 
BRANCH   9  10
ATOM     10  N   UNL     1       0.428   1.163  -0.357  1.00  0.00    -0.336 N 
ATOM     11  C   UNL     1       0.942   0.203   0.622  1.00  0.00     0.332 C 
ATOM     12  H   UNL     1      -0.577   1.028  -0.473  1.00  0.00     0.347 HD
BRANCH  10  13
ATOM     13  C   UNL     1       0.616   2.535   0.130  1.00  0.00     0.263 C 
BRANCH  13  14
ATOM     14  C   UNL     1       0.104   3.647  -0.794  1.00  0.00     0.083 CG0
ATOM     15  G   UNL     1       0.952   3.845  -2.052  1.00  0.00     0.000 G0
ENDBRANCH  13  14
ENDBRANCH  10  13
ENDBRANCH   9  10
ENDBRANCH   8   9
ENDBRANCH   7   8
BRANCH   7  16
ATOM     16  C   UNL     1       0.952   3.845  -2.052  1.00  0.00     0.127 CG0
ATOM     17  G   UNL     1       0.104   3.647  -0.794  1.00  0.00     0.000 G0
ENDBRANCH   7  16
ENDBRANCH   4   7
ENDBRANCH   2   3
BRANCH   2  18
ATOM     18  C   UNL     1       1.662   0.407  -5.597  1.00  0.00     0.026 C 
BRANCH  18  19
ATOM     19  C   UNL     1       1.164  -1.000  -5.258  1.00  0.00     0.002 CG1
ATOM     20  G   UNL     1       0.827  -1.918  -6.430  1.00  0.00     0.000 G1
ENDBRANCH  18  19
ENDBRANCH   2  18
ENDBRANCH   1   2
BRANCH   1  21
ATOM     21  C   UNL     1      -0.414  -0.098  -7.845  1.00  0.00     0.015 C 
BRANCH  21  22
ATOM     22  C   UNL     1       0.516  -1.317  -7.798  1.00  0.00     0.001 C 
BRANCH  22  23
ATOM     23  C   UNL     1       0.827  -1.918  -6.430  1.00  0.00     0.000 CG1
ATOM     24  G   UNL     1       1.164  -1.000  -5.258  1.00  0.00     0.000 G1
ENDBRANCH  22  23
ENDBRANCH  21  22
ENDBRANCH   1  21
BRANCH   1  25
ATOM     25  C   UNL     1       1.410   1.481  -8.572  1.00  0.00     0.225 C 
ATOM     26  O   UNL     1       1.279   1.000  -9.710  1.00  0.00    -0.275 OA
ATOM     27  N   UNL     1       2.542   2.205  -8.437  1.00  0.00    -0.356 N 
ATOM     28  H   UNL     1       3.128   2.110  -9.223  1.00  0.00     0.163 HD
BRANCH  27  29
ATOM     29  C   UNL     1       3.123   3.086  -7.440  1.00  0.00     0.117 C 
BRANCH  29  30
ATOM     30  C   UNL     1       4.313   2.478  -6.706  1.00  0.00     0.042 C 
BRANCH  30  31
ATOM     31  C   UNL     1       5.568   2.380  -7.561  1.00  0.00     0.118 C 
BRANCH  31  32
ATOM     32  N   UNL     1       6.142   3.687  -7.838  1.00  0.00    -0.352 N 
ATOM     33  C   UNL     1       7.293   4.278  -7.383  1.00  0.00     0.251 C 
ATOM     34  H   UNL     1       5.614   4.242  -8.457  1.00  0.00     0.163 HD
ATOM     35  O   UNL     1       7.450   5.484  -7.555  1.00  0.00    -0.269 OA
BRANCH  33  36
ATOM     36  C   UNL     1       8.349   3.497  -6.698  1.00  0.00     0.039 A 
ATOM     37  C   UNL     1       9.116   4.130  -5.714  1.00  0.00     0.014 A 
ATOM     38  C   UNL     1       8.658   2.186  -7.071  1.00  0.00     0.014 A 
ATOM     39  C   UNL     1      10.168   3.448  -5.098  1.00  0.00     0.010 A 
ATOM     40  C   UNL     1       9.637   1.472  -6.385  1.00  0.00     0.010 A 
ATOM     41  C   UNL     1      10.430   2.107  -5.419  1.00  0.00    -0.014 A 
BRANCH  41  42
ATOM     42  C   UNL     1      11.579   1.381  -4.819  1.00  0.00     0.031 A 
ATOM     43  C   UNL     1      12.698   0.891  -5.703  1.00  0.00     0.074 A 
ATOM     44  C   UNL     1      11.610   1.141  -3.494  1.00  0.00     0.049 A 
ATOM     45  N   UNL     1      13.760   0.192  -5.387  1.00  0.00    -0.248 NA
ATOM     46  C   UNL     1      12.595   1.198  -7.140  1.00  0.00     0.031 C 
ATOM     47  C   UNL     1      10.572   1.528  -2.537  1.00  0.00     0.029 A 
ATOM     48  N   UNL     1      12.556   0.514  -2.723  1.00  0.00    -0.354 N 
ATOM     49  C   UNL     1      14.433  -0.034  -6.582  1.00  0.00     0.074 A 
ATOM     50  C   UNL     1      13.630   0.540  -7.637  1.00  0.00     0.031 C 
ATOM     51  C   UNL     1      10.956   1.165  -1.302  1.00  0.00     0.029 A 
ATOM     52  C   UNL     1      12.248   0.492  -1.384  1.00  0.00     0.049 A 
ATOM     53  H   UNL     1      13.377   0.118  -3.093  1.00  0.00     0.167 HD
ATOM     54  C   UNL     1      15.630  -0.634  -6.782  1.00  0.00     0.037 A 
ATOM     55  C   UNL     1      12.936  -0.011  -0.342  1.00  0.00     0.037 A 
ATOM     56  C   UNL     1      16.453  -1.163  -5.728  1.00  0.00     0.049 A 
ATOM     57  C   UNL     1      14.268  -0.663  -0.590  1.00  0.00     0.074 A 
ATOM     58  C   UNL     1      17.700  -1.756  -5.820  1.00  0.00     0.029 A 
ATOM     59  N   UNL     1      16.113  -1.147  -4.385  1.00  0.00    -0.354 N 
ATOM     60  N   UNL     1      14.909  -0.832  -1.721  1.00  0.00    -0.248 NA
ATOM     61  C   UNL     1      14.976  -1.188   0.586  1.00  0.00     0.031 C 
ATOM     62  C   UNL     1      18.105  -2.119  -4.531  1.00  0.00     0.029 A 
ATOM     63  C   UNL     1      17.125  -1.722  -3.636  1.00  0.00     0.049 A 
ATOM     64  H   UNL     1      15.276  -0.780  -4.018  1.00  0.00     0.167 HD
ATOM     65  C   UNL     1      16.106  -1.454  -1.390  1.00  0.00     0.074 A 
ATOM     66  C   UNL     1      16.108  -1.618   0.048  1.00  0.00     0.031 C 
ATOM     67  C   UNL     1      17.113  -1.857  -2.203  1.00  0.00     0.037 A 
BRANCH  54  68
ATOM     68  C   UNL     1      16.132  -0.722  -8.194  1.00  0.00     0.057 A 
ATOM     69  C   UNL     1      16.574   0.412  -8.888  1.00  0.00     0.134 A 
ATOM     70  C   UNL     1      16.200  -1.952  -8.860  1.00  0.00     0.134 A 
ATOM     71  F   UNL     1      16.521   1.624  -8.313  1.00  0.00    -0.206 F 
ATOM     72  C   UNL     1      17.041   0.331 -10.201  1.00  0.00     0.040 A 
ATOM     73  C   UNL     1      16.690  -2.050 -10.164  1.00  0.00     0.040 A 
ATOM     74  F   UNL     1      15.798  -3.079  -8.253  1.00  0.00    -0.206 F 
ATOM     75  C   UNL     1      17.106  -0.905 -10.840  1.00  0.00     0.006 A 
ENDBRANCH  54  68
BRANCH  55  76
ATOM     76  C   UNL     1      12.403   0.113   1.038  1.00  0.00     0.057 A 
ATOM     77  C   UNL     1      13.014   0.961   1.970  1.00  0.00     0.134 A 
ATOM     78  C   UNL     1      11.297  -0.628   1.468  1.00  0.00     0.134 A 
ATOM     79  F   UNL     1      14.089   1.683   1.623  1.00  0.00    -0.206 F 
ATOM     80  C   UNL     1      12.560   1.048   3.287  1.00  0.00     0.040 A 
ATOM     81  C   UNL     1      10.818  -0.532   2.776  1.00  0.00     0.040 A 
ATOM     82  F   UNL     1      10.663  -1.452   0.622  1.00  0.00    -0.206 F 
ATOM     83  C   UNL     1      11.457   0.301   3.692  1.00  0.00     0.006 A 
ENDBRANCH  55  76
BRANCH  67  84
ATOM     84  C   UNL     1      18.311  -2.476  -1.550  1.00  0.00     0.057 A 
ATOM     85  C   UNL     1      18.275  -3.774  -1.025  1.00  0.00     0.134 A 
ATOM     86  C   UNL     1      19.522  -1.778  -1.477  1.00  0.00     0.134 A 
ATOM     87  F   UNL     1      17.139  -4.487  -1.053  1.00  0.00    -0.206 F 
ATOM     88  C   UNL     1      19.398  -4.348  -0.429  1.00  0.00     0.040 A 
ATOM     89  C   UNL     1      20.659  -2.351  -0.906  1.00  0.00     0.040 A 
ATOM     90  F   UNL     1      19.623  -0.534  -1.970  1.00  0.00    -0.206 F 
ATOM     91  C   UNL     1      20.596  -3.638  -0.374  1.00  0.00     0.006 A 
ENDBRANCH  67  84
ENDBRANCH  41  42
ENDBRANCH  33  36
ENDBRANCH  31  32
ENDBRANCH  30  31
ENDBRANCH  29  30
ENDBRANCH  27  29
ENDBRANCH   1  25
TORSDOF 12
