REMARK SMILES Cc1ccc(N2C(=O)S/C(=C/c3cccc(O[C@H](C)C(=O)NCCCNC(=O)c4ccc(-c5c6nc(c(-c7c(F)cccc7F)c7ccc([nH]7)c(-c7c(F)cccc7F)c7nc(c(-c8c(F)cccc8F)c8ccc5[nH]8)C=C7)C=C6)cc4)c3)C2=O)c(C)c1
REMARK SMILES IDX 23 1 22 2 20 3 21 4 18 6 19 7 17 8 16 9 12 10 13 11 83 12
REMARK SMILES IDX 14 13 15 14 11 15 6 16 7 17 84 18 8 19 9 20 10 21 85 22 5 23
REMARK SMILES IDX 1 24 2 25 3 26 88 27 4 28 86 29 87 30 24 31 25 32 26 33
REMARK SMILES IDX 27 34 28 36 29 37 30 38 82 39 31 40 81 41 32 42 33 43 34 44
REMARK SMILES IDX 75 45 35 46 80 47 74 48 76 49 36 50 79 51 73 52 72 53 37 55
REMARK SMILES IDX 63 56 46 57 62 58 47 59 50 60 61 61 77 62 48 63 49 64 60 66
REMARK SMILES IDX 78 67 51 68 38 69 39 70 44 71 40 72 41 73 43 74 45 75 42 76
REMARK SMILES IDX 64 77 65 78 70 79 66 80 67 81 69 82 71 83 68 84 52 85 53 86
REMARK SMILES IDX 58 87 54 88 55 89 57 90 59 91 56 92
REMARK H PARENT 22 5 26 35 76 54 50 65
REMARK Flexibility Score: inf
ROOT
ATOM      1  C   UNL     1      -4.669  -2.660  -3.437  1.00  0.00     0.118 C 
ENDROOT
BRANCH   1   2
ATOM      2  N   UNL     1      -4.668  -3.559  -4.577  1.00  0.00    -0.353 N 
ATOM      3  C   UNL     1      -3.825  -3.593  -5.643  1.00  0.00     0.260 C 
ATOM      4  O   UNL     1      -4.025  -4.449  -6.508  1.00  0.00    -0.271 OA
ATOM      5  H   UNL     1      -5.379  -4.241  -4.579  1.00  0.00     0.163 HD
BRANCH   3   6
ATOM      6  C   UNL     1      -2.651  -2.597  -5.762  1.00  0.00     0.258 C 
ATOM      7  C   UNL     1      -3.238  -1.214  -6.095  1.00  0.00     0.064 C 
BRANCH   6   8
ATOM      8  O   UNL     1      -1.686  -2.401  -4.737  1.00  0.00    -0.481 OA
BRANCH   8   9
ATOM      9  C   UNL     1      -1.398  -3.361  -3.813  1.00  0.00     0.121 A 
ATOM     10  C   UNL     1      -0.465  -3.699  -1.583  1.00  0.00    -0.021 A 
ATOM     11  C   UNL     1      -0.873  -5.032  -1.617  1.00  0.00     0.008 A 
ATOM     12  C   UNL     1      -0.725  -2.876  -2.688  1.00  0.00     0.054 A 
ATOM     13  C   UNL     1      -1.491  -5.538  -2.760  1.00  0.00     0.004 A 
ATOM     14  C   UNL     1      -1.721  -4.713  -3.867  1.00  0.00     0.046 A 
BRANCH  10  15
ATOM     15  C   UNL     1       0.255  -3.182  -0.416  1.00  0.00     0.029 C 
ATOM     16  N   UNL     1      -1.525  -0.546   1.379  1.00  0.00    -0.236 N 
ATOM     17  C   UNL     1      -0.383  -0.374   2.128  1.00  0.00     0.298 C 
ATOM     18  C   UNL     1      -1.468  -1.481   0.357  1.00  0.00     0.272 C 
ATOM     19  O   UNL     1      -0.150   0.450   2.997  1.00  0.00    -0.260 OA
ATOM     20  S   UNL     1       0.806  -1.593   1.687  1.00  0.00    -0.022 SA
ATOM     21  C   UNL     1      -0.165  -2.206   0.402  1.00  0.00     0.083 C 
ATOM     22  O   UNL     1      -2.319  -1.669  -0.504  1.00  0.00    -0.268 OA
BRANCH  16  23
ATOM     23  C   UNL     1      -2.672   0.274   1.549  1.00  0.00     0.056 A 
ATOM     24  C   UNL     1      -6.119   2.876   1.680  1.00  0.00     0.044 C 
ATOM     25  C   UNL     1      -4.913   1.985   1.650  1.00  0.00    -0.051 A 
ATOM     26  C   UNL     1      -3.623   2.516   1.629  1.00  0.00     0.005 A 
ATOM     27  C   UNL     1      -5.076   0.596   1.667  1.00  0.00     0.009 A 
ATOM     28  C   UNL     1      -2.513   1.669   1.587  1.00  0.00     0.027 A 
ATOM     29  C   UNL     1      -3.970  -0.273   1.633  1.00  0.00    -0.026 A 
ATOM     30  C   UNL     1      -4.258  -1.749   1.734  1.00  0.00     0.046 C 
ENDBRANCH  16  23
ENDBRANCH  10  15
ENDBRANCH   8   9
ENDBRANCH   6   8
ENDBRANCH   3   6
ENDBRANCH   1   2
BRANCH   1  31
ATOM     31  C   UNL     1      -6.043  -2.038  -3.250  1.00  0.00     0.042 C 
BRANCH  31  32
ATOM     32  C   UNL     1      -7.117  -3.051  -2.877  1.00  0.00     0.118 C 
BRANCH  32  33
ATOM     33  N   UNL     1      -6.920  -3.615  -1.549  1.00  0.00    -0.352 N 
ATOM     34  C   UNL     1      -7.814  -3.704  -0.510  1.00  0.00     0.251 C 
ATOM     35  H   UNL     1      -6.024  -3.984  -1.372  1.00  0.00     0.163 HD
ATOM     36  O   UNL     1      -7.436  -4.041   0.607  1.00  0.00    -0.269 OA
BRANCH  34  37
ATOM     37  C   UNL     1      -9.230  -3.350  -0.741  1.00  0.00     0.039 A 
ATOM     38  C   UNL     1      -9.874  -2.521   0.178  1.00  0.00     0.014 A 
ATOM     39  C   UNL     1      -9.906  -3.803  -1.878  1.00  0.00     0.014 A 
ATOM     40  C   UNL     1     -11.175  -2.087  -0.080  1.00  0.00     0.010 A 
ATOM     41  C   UNL     1     -11.167  -3.300  -2.177  1.00  0.00     0.010 A 
ATOM     42  C   UNL     1     -11.817  -2.438  -1.280  1.00  0.00    -0.014 A 
BRANCH  42  43
ATOM     43  C   UNL     1     -13.164  -1.911  -1.613  1.00  0.00     0.031 A 
ATOM     44  C   UNL     1     -14.324  -2.853  -1.783  1.00  0.00     0.074 A 
ATOM     45  C   UNL     1     -13.330  -0.590  -1.820  1.00  0.00     0.049 A 
ATOM     46  N   UNL     1     -15.559  -2.589  -2.126  1.00  0.00    -0.248 NA
ATOM     47  C   UNL     1     -14.054  -4.283  -1.565  1.00  0.00     0.031 C 
ATOM     48  C   UNL     1     -12.274   0.421  -1.733  1.00  0.00     0.029 A 
ATOM     49  N   UNL     1     -14.450   0.130  -2.152  1.00  0.00    -0.354 N 
ATOM     50  C   UNL     1     -16.207  -3.817  -2.173  1.00  0.00     0.074 A 
ATOM     51  C   UNL     1     -15.216  -4.830  -1.885  1.00  0.00     0.031 C 
ATOM     52  C   UNL     1     -12.803   1.632  -1.974  1.00  0.00     0.029 A 
ATOM     53  C   UNL     1     -14.223   1.480  -2.276  1.00  0.00     0.049 A 
ATOM     54  H   UNL     1     -15.334  -0.281  -2.289  1.00  0.00     0.167 HD
ATOM     55  C   UNL     1     -17.516  -4.075  -2.408  1.00  0.00     0.037 A 
ATOM     56  C   UNL     1     -15.062   2.481  -2.602  1.00  0.00     0.037 A 
ATOM     57  C   UNL     1     -18.503  -3.063  -2.678  1.00  0.00     0.049 A 
ATOM     58  C   UNL     1     -16.506   2.165  -2.882  1.00  0.00     0.074 A 
ATOM     59  C   UNL     1     -19.863  -3.217  -2.878  1.00  0.00     0.029 A 
ATOM     60  N   UNL     1     -18.233  -1.707  -2.791  1.00  0.00    -0.354 N 
ATOM     61  N   UNL     1     -17.120   1.006  -2.855  1.00  0.00    -0.248 NA
ATOM     62  C   UNL     1     -17.375   3.297  -3.233  1.00  0.00     0.031 C 
ATOM     63  C   UNL     1     -20.409  -1.962  -3.163  1.00  0.00     0.029 A 
ATOM     64  C   UNL     1     -19.398  -1.016  -3.083  1.00  0.00     0.049 A 
ATOM     65  H   UNL     1     -17.346  -1.296  -2.680  1.00  0.00     0.167 HD
ATOM     66  C   UNL     1     -18.450   1.273  -3.154  1.00  0.00     0.074 A 
ATOM     67  C   UNL     1     -18.555   2.705  -3.344  1.00  0.00     0.031 C 
ATOM     68  C   UNL     1     -19.490   0.411  -3.261  1.00  0.00     0.037 A 
BRANCH  55  69
ATOM     69  C   UNL     1     -17.954  -5.511  -2.379  1.00  0.00     0.057 A 
ATOM     70  C   UNL     1     -17.984  -6.251  -1.189  1.00  0.00     0.134 A 
ATOM     71  C   UNL     1     -18.381  -6.154  -3.548  1.00  0.00     0.134 A 
ATOM     72  F   UNL     1     -17.577  -5.701  -0.035  1.00  0.00    -0.206 F 
ATOM     73  C   UNL     1     -18.396  -7.585  -1.168  1.00  0.00     0.040 A 
ATOM     74  C   UNL     1     -18.824  -7.477  -3.534  1.00  0.00     0.040 A 
ATOM     75  F   UNL     1     -18.385  -5.503  -4.721  1.00  0.00    -0.206 F 
ATOM     76  C   UNL     1     -18.825  -8.199  -2.342  1.00  0.00     0.006 A 
ENDBRANCH  55  69
BRANCH  56  77
ATOM     77  C   UNL     1     -14.567   3.880  -2.662  1.00  0.00     0.057 A 
ATOM     78  C   UNL     1     -14.982   4.833  -1.724  1.00  0.00     0.134 A 
ATOM     79  C   UNL     1     -13.683   4.303  -3.662  1.00  0.00     0.134 A 
ATOM     80  F   UNL     1     -15.843   4.495  -0.753  1.00  0.00    -0.206 F 
ATOM     81  C   UNL     1     -14.554   6.160  -1.791  1.00  0.00     0.040 A 
ATOM     82  C   UNL     1     -13.225   5.620  -3.724  1.00  0.00     0.040 A 
ATOM     83  F   UNL     1     -13.241   3.437  -4.586  1.00  0.00    -0.206 F 
ATOM     84  C   UNL     1     -13.668   6.555  -2.792  1.00  0.00     0.006 A 
ENDBRANCH  56  77
BRANCH  68  85
ATOM     85  C   UNL     1     -20.840   0.995  -3.560  1.00  0.00     0.057 A 
ATOM     86  C   UNL     1     -21.158   1.527  -4.815  1.00  0.00     0.134 A 
ATOM     87  C   UNL     1     -21.849   0.988  -2.587  1.00  0.00     0.134 A 
ATOM     88  F   UNL     1     -20.235   1.576  -5.787  1.00  0.00    -0.206 F 
ATOM     89  C   UNL     1     -22.423   2.055  -5.085  1.00  0.00     0.040 A 
ATOM     90  C   UNL     1     -23.125   1.484  -2.853  1.00  0.00     0.040 A 
ATOM     91  F   UNL     1     -21.614   0.483  -1.366  1.00  0.00    -0.206 F 
ATOM     92  C   UNL     1     -23.413   2.026  -4.104  1.00  0.00     0.006 A 
ENDBRANCH  68  85
ENDBRANCH  42  43
ENDBRANCH  34  37
ENDBRANCH  32  33
ENDBRANCH  31  32
ENDBRANCH   1  31
TORSDOF 14
