REMARK SMILES CCc1cc(C[NH+]2CCC(CC(=O)NCCCNC(=O)c3ccc(-c4c5nc(c(-c6c(F)cccc6F)c6ccc([nH]6)c(-c6c(F)cccc6F)c6nc(c(-c7c(F)cccc7F)c7ccc4[nH]7)C=C6)C=C5)cc3)CC2)n(C)n1
REMARK SMILES IDX 15 1 14 2 12 3 13 4 11 6 10 7 7 8 8 9 76 10 9 12 75 13 6 14
REMARK SMILES IDX 5 15 3 16 4 17 79 18 77 19 78 20 2 21 1 22 16 23 17 24 18 25
REMARK SMILES IDX 19 26 20 28 21 29 22 30 74 31 23 32 73 33 24 34 25 35 26 36
REMARK SMILES IDX 67 37 27 38 72 39 66 40 68 41 28 42 71 43 65 44 64 45 29 47
REMARK SMILES IDX 55 48 38 49 54 50 39 51 42 52 53 53 69 54 40 55 41 56 52 58
REMARK SMILES IDX 70 59 43 60 30 61 31 62 36 63 32 64 33 65 35 66 37 67 34 68
REMARK SMILES IDX 56 69 57 70 62 71 58 72 59 73 61 74 63 75 60 76 44 77 45 78
REMARK SMILES IDX 50 79 46 80 47 81 49 82 51 83 48 84
REMARK H PARENT 14 5 7 11 18 27 68 46 42 57
REMARK Flexibility Score: inf
ROOT
ATOM      1  C   UNL     1      -4.362   7.511  -3.956  1.00  0.00     0.117 C 
ENDROOT
BRANCH   1   2
ATOM      2  N   UNL     1      -5.100   6.443  -3.292  1.00  0.00    -0.356 N 
ATOM      3  C   UNL     1      -5.210   6.104  -1.973  1.00  0.00     0.220 C 
ATOM      4  O   UNL     1      -5.952   5.164  -1.681  1.00  0.00    -0.275 OA
ATOM      5  H   UNL     1      -5.610   5.863  -3.902  1.00  0.00     0.163 HD
BRANCH   3   6
ATOM      6  C   UNL     1      -4.413   6.825  -0.897  1.00  0.00     0.104 C 
BRANCH   6   7
ATOM      7  C   UNL     1      -3.095   6.104  -0.561  1.00  0.00     0.009 C 
ATOM      8  N   UNL     1      -0.155   6.312  -0.454  1.00  0.00    -0.330 N 
ATOM      9  C   UNL     1      -0.798   5.544  -1.520  1.00  0.00     0.262 C 
ATOM     10  C   UNL     1      -0.934   6.218   0.788  1.00  0.00     0.262 C 
ATOM     11  H   UNL     1      -0.148   7.296  -0.725  1.00  0.00     0.348 HD
ATOM     12  C   UNL     1      -2.197   6.053  -1.790  1.00  0.00     0.066 C 
ATOM     13  C   UNL     1      -2.348   6.789   0.594  1.00  0.00     0.066 C 
BRANCH   8  14
ATOM     14  C   UNL     1       1.267   5.954  -0.287  1.00  0.00     0.319 C 
BRANCH  14  15
ATOM     15  C   UNL     1       1.514   4.482  -0.273  1.00  0.00     0.093 A 
ATOM     16  C   UNL     1       1.355   2.301   0.107  1.00  0.00     0.063 A 
ATOM     17  C   UNL     1       1.266   3.564   0.728  1.00  0.00     0.055 A 
ATOM     18  N   UNL     1       1.798   2.409  -1.149  1.00  0.00    -0.178 NA
ATOM     19  N   UNL     1       1.922   3.736  -1.353  1.00  0.00    -0.267 N 
ATOM     20  C   UNL     1       2.322   4.167  -2.673  1.00  0.00     0.174 C 
BRANCH  16  21
ATOM     21  C   UNL     1       0.915   1.000   0.690  1.00  0.00     0.055 C 
ATOM     22  C   UNL     1       1.354  -0.235  -0.078  1.00  0.00     0.011 C 
ENDBRANCH  16  21
ENDBRANCH  14  15
ENDBRANCH   8  14
ENDBRANCH   6   7
ENDBRANCH   3   6
ENDBRANCH   1   2
BRANCH   1  23
ATOM     23  C   UNL     1      -3.223   7.007  -4.851  1.00  0.00     0.042 C 
BRANCH  23  24
ATOM     24  C   UNL     1      -3.670   6.220  -6.078  1.00  0.00     0.118 C 
BRANCH  24  25
ATOM     25  N   UNL     1      -3.819   7.082  -7.236  1.00  0.00    -0.352 N 
ATOM     26  C   UNL     1      -3.015   7.234  -8.340  1.00  0.00     0.251 C 
ATOM     27  H   UNL     1      -4.625   7.647  -7.230  1.00  0.00     0.163 HD
ATOM     28  O   UNL     1      -3.178   8.219  -9.058  1.00  0.00    -0.269 OA
BRANCH  26  29
ATOM     29  C   UNL     1      -1.955   6.252  -8.687  1.00  0.00     0.039 A 
ATOM     30  C   UNL     1      -0.771   6.727  -9.265  1.00  0.00     0.014 A 
ATOM     31  C   UNL     1      -2.141   4.873  -8.551  1.00  0.00     0.014 A 
ATOM     32  C   UNL     1       0.228   5.834  -9.670  1.00  0.00     0.010 A 
ATOM     33  C   UNL     1      -1.116   3.985  -8.893  1.00  0.00     0.010 A 
ATOM     34  C   UNL     1       0.074   4.453  -9.470  1.00  0.00    -0.014 A 
BRANCH  34  35
ATOM     35  C   UNL     1       1.137   3.494  -9.878  1.00  0.00     0.031 A 
ATOM     36  C   UNL     1       0.884   2.491 -10.974  1.00  0.00     0.074 A 
ATOM     37  C   UNL     1       2.320   3.488  -9.234  1.00  0.00     0.049 A 
ATOM     38  N   UNL     1       1.665   1.539 -11.422  1.00  0.00    -0.248 NA
ATOM     39  C   UNL     1      -0.425   2.552 -11.641  1.00  0.00     0.031 C 
ATOM     40  C   UNL     1       2.687   4.377  -8.130  1.00  0.00     0.029 A 
ATOM     41  N   UNL     1       3.431   2.698  -9.406  1.00  0.00    -0.354 N 
ATOM     42  C   UNL     1       0.937   0.877 -12.402  1.00  0.00     0.074 A 
ATOM     43  C   UNL     1      -0.362   1.514 -12.463  1.00  0.00     0.031 C 
ATOM     44  C   UNL     1       3.938   4.091  -7.732  1.00  0.00     0.029 A 
ATOM     45  C   UNL     1       4.450   2.980  -8.529  1.00  0.00     0.049 A 
ATOM     46  H   UNL     1       3.491   1.996 -10.094  1.00  0.00     0.167 HD
ATOM     47  C   UNL     1       1.318  -0.154 -13.194  1.00  0.00     0.037 A 
ATOM     48  C   UNL     1       5.657   2.403  -8.374  1.00  0.00     0.037 A 
ATOM     49  C   UNL     1       2.621  -0.765 -13.169  1.00  0.00     0.049 A 
ATOM     50  C   UNL     1       6.060   1.267  -9.273  1.00  0.00     0.074 A 
ATOM     51  C   UNL     1       3.122  -1.762 -13.989  1.00  0.00     0.029 A 
ATOM     52  N   UNL     1       3.631  -0.436 -12.279  1.00  0.00    -0.354 N 
ATOM     53  N   UNL     1       5.383   0.700 -10.241  1.00  0.00    -0.248 NA
ATOM     54  C   UNL     1       7.397   0.694  -9.060  1.00  0.00     0.031 C 
ATOM     55  C   UNL     1       4.423  -2.061 -13.573  1.00  0.00     0.029 A 
ATOM     56  C   UNL     1       4.745  -1.225 -12.517  1.00  0.00     0.049 A 
ATOM     57  H   UNL     1       3.567   0.256 -11.582  1.00  0.00     0.167 HD
ATOM     58  C   UNL     1       6.216  -0.280 -10.764  1.00  0.00     0.074 A 
ATOM     59  C   UNL     1       7.455  -0.221 -10.018  1.00  0.00     0.031 C 
ATOM     60  C   UNL     1       5.974  -1.153 -11.771  1.00  0.00     0.037 A 
BRANCH  47  61
ATOM     61  C   UNL     1       0.312  -0.692 -14.169  1.00  0.00     0.057 A 
ATOM     62  C   UNL     1      -0.036   0.010 -15.330  1.00  0.00     0.134 A 
ATOM     63  C   UNL     1      -0.270  -1.951 -13.974  1.00  0.00     0.134 A 
ATOM     64  F   UNL     1       0.481   1.224 -15.571  1.00  0.00    -0.206 F 
ATOM     65  C   UNL     1      -0.942  -0.514 -16.254  1.00  0.00     0.040 A 
ATOM     66  C   UNL     1      -1.160  -2.494 -14.902  1.00  0.00     0.040 A 
ATOM     67  F   UNL     1       0.028  -2.678 -12.886  1.00  0.00    -0.206 F 
ATOM     68  C   UNL     1      -1.501  -1.773 -16.044  1.00  0.00     0.006 A 
ENDBRANCH  47  61
BRANCH  48  69
ATOM     69  C   UNL     1       6.585   2.896  -7.326  1.00  0.00     0.057 A 
ATOM     70  C   UNL     1       7.744   3.605  -7.663  1.00  0.00     0.134 A 
ATOM     71  C   UNL     1       6.344   2.658  -5.968  1.00  0.00     0.134 A 
ATOM     72  F   UNL     1       8.037   3.846  -8.949  1.00  0.00    -0.206 F 
ATOM     73  C   UNL     1       8.641   4.043  -6.687  1.00  0.00     0.040 A 
ATOM     74  C   UNL     1       7.221   3.108  -4.981  1.00  0.00     0.040 A 
ATOM     75  F   UNL     1       5.245   1.993  -5.582  1.00  0.00    -0.206 F 
ATOM     76  C   UNL     1       8.378   3.797  -5.341  1.00  0.00     0.006 A 
ENDBRANCH  48  69
BRANCH  60  77
ATOM     77  C   UNL     1       7.078  -2.098 -12.141  1.00  0.00     0.057 A 
ATOM     78  C   UNL     1       7.400  -3.201 -11.340  1.00  0.00     0.134 A 
ATOM     79  C   UNL     1       7.802  -1.923 -13.327  1.00  0.00     0.134 A 
ATOM     80  F   UNL     1       6.752  -3.415 -10.185  1.00  0.00    -0.206 F 
ATOM     81  C   UNL     1       8.416  -4.088 -11.698  1.00  0.00     0.040 A 
ATOM     82  C   UNL     1       8.806  -2.815 -13.705  1.00  0.00     0.040 A 
ATOM     83  F   UNL     1       7.537  -0.890 -14.140  1.00  0.00    -0.206 F 
ATOM     84  C   UNL     1       9.118  -3.899 -12.887  1.00  0.00     0.006 A 
ENDBRANCH  60  77
ENDBRANCH  34  35
ENDBRANCH  26  29
ENDBRANCH  24  25
ENDBRANCH  23  24
ENDBRANCH   1  23
TORSDOF 14
