REMARK SMILES O=C(NCCCNC(=O)c1cc2c(c(S(=O)(=O)Nc3cc(C(F)(F)F)ccc3-n3cccn3)c1)CCC2)c1ccc(-c2c3nc(c(-c4c(F)cccc4F)c4ccc([nH]4)c(-c4c(F)cccc4F)c4nc(c(-c5c(F)cccc5F)c5ccc2[nH]5)C=C4)C=C3)cc1
REMARK SMILES IDX 6 1 5 2 4 3 3 4 1 5 2 6 38 8 39 9 91 10 40 11 90 12 41 13
REMARK SMILES IDX 42 14 43 15 84 16 44 17 89 18 83 19 85 20 45 21 88 22 82 23
REMARK SMILES IDX 81 24 46 26 72 27 55 28 71 29 56 30 59 31 70 32 86 33 57 34
REMARK SMILES IDX 58 35 69 37 87 38 60 39 47 40 48 41 53 42 49 43 50 44 52 45
REMARK SMILES IDX 54 46 51 47 73 48 74 49 79 50 75 51 76 52 78 53 80 54 77 55
REMARK SMILES IDX 61 56 62 57 67 58 63 59 64 60 66 61 68 62 65 63 7 64 8 65
REMARK SMILES IDX 9 67 10 68 11 69 34 70 12 71 14 72 13 73 37 74 35 75 36 76
REMARK SMILES IDX 15 77 16 78 17 79 18 80 19 82 20 83 28 84 21 85 27 86 26 87
REMARK SMILES IDX 29 88 30 89 33 90 31 91 32 92 22 93 23 94 24 95 25 96
REMARK H PARENT 3 7 85 25 59 36 7 66 18 81
REMARK Flexibility Score: inf
ROOT
ATOM      1  C   UNL     1       4.477   2.847   1.917  1.00  0.00     0.118 C 
ENDROOT
BRANCH   1   2
ATOM      2  C   UNL     1       4.954   1.917   0.801  1.00  0.00     0.042 C 
BRANCH   2   3
ATOM      3  C   UNL     1       4.578   0.450   0.978  1.00  0.00     0.118 C 
BRANCH   3   4
ATOM      4  N   UNL     1       3.152   0.193   1.045  1.00  0.00    -0.352 N 
ATOM      5  O   UNL     1       1.052  -0.300   0.587  1.00  0.00    -0.269 OA
ATOM      6  C   UNL     1       2.144   0.054   0.133  1.00  0.00     0.251 C 
ATOM      7  H   UNL     1       2.834   0.095   1.971  1.00  0.00     0.163 HD
BRANCH   6   8
ATOM      8  C   UNL     1       2.242   0.342  -1.325  1.00  0.00     0.039 A 
ATOM      9  C   UNL     1       3.420   0.528  -2.050  1.00  0.00     0.014 A 
ATOM     10  C   UNL     1       1.015   0.428  -2.013  1.00  0.00     0.014 A 
ATOM     11  C   UNL     1       3.373   0.849  -3.408  1.00  0.00     0.010 A 
ATOM     12  C   UNL     1       0.962   0.733  -3.369  1.00  0.00     0.010 A 
ATOM     13  C   UNL     1       2.144   0.968  -4.065  1.00  0.00    -0.014 A 
BRANCH  13  14
ATOM     14  C   UNL     1       2.139   1.177  -5.515  1.00  0.00     0.031 A 
ATOM     15  C   UNL     1       2.691   0.048  -6.327  1.00  0.00     0.074 A 
ATOM     16  C   UNL     1       1.509   2.203  -6.122  1.00  0.00     0.049 A 
ATOM     17  N   UNL     1       3.628   0.072  -7.221  1.00  0.00    -0.248 NA
ATOM     18  C   UNL     1       2.155  -1.299  -6.064  1.00  0.00     0.031 C 
ATOM     19  C   UNL     1       0.641   3.213  -5.511  1.00  0.00     0.029 A 
ATOM     20  N   UNL     1       1.427   2.491  -7.454  1.00  0.00    -0.354 N 
ATOM     21  C   UNL     1       3.693  -1.218  -7.749  1.00  0.00     0.074 A 
ATOM     22  C   UNL     1       2.844  -2.042  -6.929  1.00  0.00     0.031 C 
ATOM     23  C   UNL     1      -0.040   3.861  -6.483  1.00  0.00     0.029 A 
ATOM     24  C   UNL     1       0.431   3.403  -7.780  1.00  0.00     0.049 A 
ATOM     25  H   UNL     1       2.022   2.087  -8.126  1.00  0.00     0.167 HD
ATOM     26  C   UNL     1       4.298  -1.494  -8.938  1.00  0.00     0.037 A 
ATOM     27  C   UNL     1      -0.019   3.711  -9.022  1.00  0.00     0.037 A 
ATOM     28  C   UNL     1       5.220  -0.465  -9.327  1.00  0.00     0.049 A 
ATOM     29  C   UNL     1       0.998   3.267 -10.003  1.00  0.00     0.074 A 
ATOM     30  C   UNL     1       6.364   0.076  -8.774  1.00  0.00     0.029 A 
ATOM     31  N   UNL     1       4.849   0.405 -10.319  1.00  0.00    -0.354 N 
ATOM     32  N   UNL     1       2.165   3.823 -10.159  1.00  0.00    -0.248 NA
ATOM     33  C   UNL     1       0.863   1.930 -10.559  1.00  0.00     0.031 C 
ATOM     34  C   UNL     1       6.314   1.461  -9.106  1.00  0.00     0.029 A 
ATOM     35  C   UNL     1       5.166   1.662  -9.873  1.00  0.00     0.049 A 
ATOM     36  H   UNL     1       4.436   0.173 -11.182  1.00  0.00     0.167 HD
ATOM     37  C   UNL     1       3.022   2.769 -10.436  1.00  0.00     0.074 A 
ATOM     38  C   UNL     1       2.150   1.648 -10.774  1.00  0.00     0.031 C 
ATOM     39  C   UNL     1       4.343   2.825 -10.099  1.00  0.00     0.037 A 
BRANCH  26  40
ATOM     40  C   UNL     1       3.818  -2.551  -9.900  1.00  0.00     0.057 A 
ATOM     41  C   UNL     1       4.619  -2.922 -10.996  1.00  0.00     0.134 A 
ATOM     42  C   UNL     1       2.484  -3.006  -9.951  1.00  0.00     0.134 A 
ATOM     43  F   UNL     1       5.897  -2.525 -11.079  1.00  0.00    -0.206 F 
ATOM     44  C   UNL     1       4.114  -3.645 -12.084  1.00  0.00     0.040 A 
ATOM     45  C   UNL     1       1.984  -3.771 -11.008  1.00  0.00     0.040 A 
ATOM     46  F   UNL     1       1.576  -2.650  -9.034  1.00  0.00    -0.206 F 
ATOM     47  C   UNL     1       2.791  -4.069 -12.095  1.00  0.00     0.006 A 
ENDBRANCH  26  40
BRANCH  27  48
ATOM     48  C   UNL     1      -1.381   4.109  -9.445  1.00  0.00     0.057 A 
ATOM     49  C   UNL     1      -1.611   4.718 -10.687  1.00  0.00     0.134 A 
ATOM     50  C   UNL     1      -2.521   3.653  -8.762  1.00  0.00     0.134 A 
ATOM     51  F   UNL     1      -0.585   5.148 -11.436  1.00  0.00    -0.206 F 
ATOM     52  C   UNL     1      -2.897   4.846 -11.228  1.00  0.00     0.040 A 
ATOM     53  C   UNL     1      -3.811   3.782  -9.286  1.00  0.00     0.040 A 
ATOM     54  F   UNL     1      -2.414   2.984  -7.604  1.00  0.00    -0.206 F 
ATOM     55  C   UNL     1      -4.002   4.367 -10.531  1.00  0.00     0.006 A 
ENDBRANCH  27  48
BRANCH  39  56
ATOM     56  C   UNL     1       4.903   4.150  -9.664  1.00  0.00     0.057 A 
ATOM     57  C   UNL     1       4.471   4.849  -8.527  1.00  0.00     0.134 A 
ATOM     58  C   UNL     1       6.018   4.665 -10.336  1.00  0.00     0.134 A 
ATOM     59  F   UNL     1       3.480   4.380  -7.758  1.00  0.00    -0.206 F 
ATOM     60  C   UNL     1       5.088   6.032  -8.109  1.00  0.00     0.040 A 
ATOM     61  C   UNL     1       6.666   5.826  -9.907  1.00  0.00     0.040 A 
ATOM     62  F   UNL     1       6.527   4.019 -11.397  1.00  0.00    -0.206 F 
ATOM     63  C   UNL     1       6.194   6.520  -8.797  1.00  0.00     0.006 A 
ENDBRANCH  39  56
ENDBRANCH  13  14
ENDBRANCH   6   8
ENDBRANCH   3   4
ENDBRANCH   2   3
ENDBRANCH   1   2
BRANCH   1  64
ATOM     64  N   UNL     1       5.085   2.580   3.221  1.00  0.00    -0.352 N 
ATOM     65  C   UNL     1       5.801   3.400   4.073  1.00  0.00     0.251 C 
ATOM     66  H   UNL     1       4.962   1.660   3.548  1.00  0.00     0.163 HD
ATOM     67  O   UNL     1       6.299   2.933   5.095  1.00  0.00    -0.269 OA
BRANCH  65  68
ATOM     68  C   UNL     1       6.005   4.833   3.749  1.00  0.00     0.041 A 
ATOM     69  C   UNL     1       4.929   5.584   3.288  1.00  0.00     0.018 A 
ATOM     70  C   UNL     1       7.299   5.400   3.823  1.00  0.00     0.036 A 
ATOM     71  C   UNL     1       5.212   6.771   2.650  1.00  0.00    -0.043 A 
ATOM     72  C   UNL     1       7.570   6.660   3.242  1.00  0.00     0.092 A 
ATOM     73  C   UNL     1       6.529   7.264   2.547  1.00  0.00    -0.024 A 
ATOM     74  C   UNL     1       4.243   7.592   1.855  1.00  0.00     0.036 C 
ATOM     75  C   UNL     1       6.525   8.325   1.492  1.00  0.00     0.037 C 
ATOM     76  C   UNL     1       5.086   8.838   1.600  1.00  0.00     0.010 C 
BRANCH  72  77
ATOM     77  S   UNL     1       9.259   7.232   3.179  1.00  0.00     0.262 S 
ATOM     78  O   UNL     1      10.037   6.345   4.023  1.00  0.00    -0.201 OA
ATOM     79  O   UNL     1       9.613   7.384   1.784  1.00  0.00    -0.201 OA
BRANCH  77  80
ATOM     80  N   UNL     1       9.485   8.764   3.906  1.00  0.00    -0.277 N 
ATOM     81  H   UNL     1      10.246   8.888   4.518  1.00  0.00     0.180 HD
BRANCH  80  82
ATOM     82  C   UNL     1       8.611   9.876   3.661  1.00  0.00     0.075 A 
ATOM     83  C   UNL     1       8.861  10.711   2.557  1.00  0.00     0.042 A 
ATOM     84  C   UNL     1       7.446  10.072   4.419  1.00  0.00     0.089 A 
ATOM     85  C   UNL     1       7.924  11.694   2.166  1.00  0.00     0.058 A 
ATOM     86  C   UNL     1       6.529  11.071   4.055  1.00  0.00     0.031 A 
ATOM     87  C   UNL     1       6.769  11.877   2.940  1.00  0.00     0.015 A 
BRANCH  84  88
ATOM     88  N   UNL     1       7.133   9.236   5.518  1.00  0.00    -0.239 N 
ATOM     89  C   UNL     1       8.000   8.607   6.383  1.00  0.00     0.115 A 
ATOM     90  N   UNL     1       5.848   8.873   5.760  1.00  0.00    -0.177 NA
ATOM     91  C   UNL     1       7.273   7.658   7.057  1.00  0.00     0.042 A 
ATOM     92  C   UNL     1       5.958   7.845   6.606  1.00  0.00     0.135 A 
ENDBRANCH  84  88
BRANCH  85  93
ATOM     93  C   UNL     1       8.123  12.477   0.886  1.00  0.00     0.416 C 
ATOM     94  F   UNL     1       9.107  13.408   0.988  1.00  0.00    -0.166 F 
ATOM     95  F   UNL     1       8.464  11.676  -0.161  1.00  0.00    -0.166 F 
ATOM     96  F   UNL     1       7.006  13.149   0.485  1.00  0.00    -0.166 F 
ENDBRANCH  85  93
ENDBRANCH  80  82
ENDBRANCH  77  80
ENDBRANCH  72  77
ENDBRANCH  65  68
ENDBRANCH   1  64
TORSDOF 15
