REMARK SMILES [NH3+][C@@]1(C(=O)NCCCNC(=O)c2ccc(-c3c4nc(c(-c5c(F)cccc5F)c5ccc([nH]5)c(-c5c(F)cccc5F)c5nc(c(-c6c(F)cccc6F)c6ccc3[nH]6)C=C5)C=C4)cc2)CCC[C@@H](Oc2ccccc2[N+](=O)[O-])C1
REMARK SMILES IDX 6 1 5 2 3 3 4 4 2 6 66 7 80 8 67 9 69 10 68 11 1 12 70 16
REMARK SMILES IDX 71 17 72 18 76 19 73 20 75 21 74 22 77 23 78 24 79 25 7 26
REMARK SMILES IDX 8 27 9 28 10 29 11 31 12 32 13 33 65 34 14 35 64 36 15 37
REMARK SMILES IDX 16 38 17 39 58 40 18 41 63 42 57 43 59 44 19 45 62 46 56 47
REMARK SMILES IDX 55 48 20 50 46 51 29 52 45 53 30 54 33 55 44 56 60 57 31 58
REMARK SMILES IDX 32 59 43 61 61 62 34 63 21 64 22 65 27 66 23 67 24 68 26 69
REMARK SMILES IDX 28 70 25 71 47 72 48 73 53 74 49 75 50 76 52 77 54 78 51 79
REMARK SMILES IDX 35 80 36 81 41 82 37 83 38 84 40 85 42 86 39 87
REMARK H PARENT 5 5 1 13 1 14 1 15 9 30 59 49 33 60
REMARK Flexibility Score: inf
ROOT
ATOM      1  C   UNL     1      -3.773   0.057  -1.460  1.00  0.00     0.118 C 
ENDROOT
BRANCH   1   2
ATOM      2  N   UNL     1      -3.555  -0.196  -0.047  1.00  0.00    -0.351 N 
ATOM      3  C   UNL     1      -2.423  -0.478   0.667  1.00  0.00     0.281 C 
ATOM      4  O   UNL     1      -2.571  -0.573   1.891  1.00  0.00    -0.268 OA
ATOM      5  H   UNL     1      -4.374  -0.158   0.498  1.00  0.00     0.163 HD
BRANCH   3   6
ATOM      6  C   UNL     1      -0.992  -0.570   0.019  1.00  0.00     0.177 C 
ATOM      7  C   UNL     1      -0.098  -1.464   0.906  1.00  0.00     0.079 C 
ATOM      8  C   UNL     1      -0.391   0.855  -0.017  1.00  0.00     0.124 C 
ATOM      9  C   UNL     1       1.356  -1.516   0.437  1.00  0.00     0.011 C 
ATOM     10  C   UNL     1       1.129   0.975  -0.258  1.00  0.00     0.180 C 
ATOM     11  C   UNL     1       1.995  -0.132   0.366  1.00  0.00     0.046 C 
BRANCH   6  12
ATOM     12  N   UNL     1      -1.078  -1.229  -1.295  1.00  0.00    -0.345 N 
ATOM     13  H   UNL     1      -0.147  -1.285  -1.708  1.00  0.00     0.345 HD
ATOM     14  H   UNL     1      -1.689  -0.689  -1.907  1.00  0.00     0.345 HD
ATOM     15  H   UNL     1      -1.456  -2.169  -1.180  1.00  0.00     0.345 HD
ENDBRANCH   6  12
BRANCH  10  16
ATOM     16  O   UNL     1       1.553   1.384  -1.580  1.00  0.00    -0.483 OA
BRANCH  16  17
ATOM     17  C   UNL     1       1.123   0.651  -2.640  1.00  0.00     0.197 A 
ATOM     18  C   UNL     1       1.816  -0.514  -2.973  1.00  0.00     0.054 A 
ATOM     19  C   UNL     1       0.052   1.053  -3.448  1.00  0.00     0.310 A 
ATOM     20  C   UNL     1       1.343  -1.349  -3.989  1.00  0.00     0.004 A 
ATOM     21  C   UNL     1      -0.445   0.206  -4.452  1.00  0.00     0.090 A 
ATOM     22  C   UNL     1       0.192  -1.009  -4.701  1.00  0.00     0.007 A 
BRANCH  19  23
ATOM     23  N   UNL     1      -0.617   2.330  -3.237  1.00  0.00     0.066 N 
ATOM     24  O   UNL     1      -1.854   2.333  -3.329  1.00  0.00    -0.258 OA
ATOM     25  O   UNL     1       0.076   3.325  -2.993  1.00  0.00    -0.258 OA
ENDBRANCH  19  23
ENDBRANCH  16  17
ENDBRANCH  10  16
ENDBRANCH   3   6
ENDBRANCH   1   2
BRANCH   1  26
ATOM     26  C   UNL     1      -3.987  -1.221  -2.275  1.00  0.00     0.042 C 
BRANCH  26  27
ATOM     27  C   UNL     1      -5.452  -1.541  -2.539  1.00  0.00     0.118 C 
BRANCH  27  28
ATOM     28  N   UNL     1      -6.085  -0.585  -3.440  1.00  0.00    -0.352 N 
ATOM     29  C   UNL     1      -6.916  -0.792  -4.513  1.00  0.00     0.251 C 
ATOM     30  H   UNL     1      -5.884   0.360  -3.248  1.00  0.00     0.163 HD
ATOM     31  O   UNL     1      -7.241   0.160  -5.219  1.00  0.00    -0.269 OA
BRANCH  29  32
ATOM     32  C   UNL     1      -7.395  -2.151  -4.853  1.00  0.00     0.039 A 
ATOM     33  C   UNL     1      -7.499  -2.509  -6.202  1.00  0.00     0.014 A 
ATOM     34  C   UNL     1      -7.753  -3.068  -3.863  1.00  0.00     0.014 A 
ATOM     35  C   UNL     1      -7.894  -3.802  -6.552  1.00  0.00     0.010 A 
ATOM     36  C   UNL     1      -8.052  -4.381  -4.209  1.00  0.00     0.010 A 
ATOM     37  C   UNL     1      -8.135  -4.762  -5.557  1.00  0.00    -0.014 A 
BRANCH  37  38
ATOM     38  C   UNL     1      -8.497  -6.162  -5.894  1.00  0.00     0.031 A 
ATOM     39  C   UNL     1      -9.816  -6.724  -5.436  1.00  0.00     0.074 A 
ATOM     40  C   UNL     1      -7.612  -6.948  -6.538  1.00  0.00     0.049 A 
ATOM     41  N   UNL     1     -10.269  -7.949  -5.519  1.00  0.00    -0.248 NA
ATOM     42  C   UNL     1     -10.735  -5.791  -4.763  1.00  0.00     0.031 C 
ATOM     43  C   UNL     1      -6.282  -6.534  -6.990  1.00  0.00     0.029 A 
ATOM     44  N   UNL     1      -7.691  -8.267  -6.910  1.00  0.00    -0.354 N 
ATOM     45  C   UNL     1     -11.509  -7.936  -4.892  1.00  0.00     0.074 A 
ATOM     46  C   UNL     1     -11.710  -6.600  -4.378  1.00  0.00     0.031 C 
ATOM     47  C   UNL     1      -5.679  -7.571  -7.593  1.00  0.00     0.029 A 
ATOM     48  C   UNL     1      -6.559  -8.733  -7.533  1.00  0.00     0.049 A 
ATOM     49  H   UNL     1      -8.484  -8.826  -6.745  1.00  0.00     0.167 HD
ATOM     50  C   UNL     1     -12.412  -8.938  -4.781  1.00  0.00     0.037 A 
ATOM     51  C   UNL     1      -6.259  -9.964  -7.992  1.00  0.00     0.037 A 
ATOM     52  C   UNL     1     -12.220 -10.257  -5.322  1.00  0.00     0.049 A 
ATOM     53  C   UNL     1      -7.279 -11.061  -7.854  1.00  0.00     0.074 A 
ATOM     54  C   UNL     1     -13.092 -11.331  -5.308  1.00  0.00     0.029 A 
ATOM     55  N   UNL     1     -11.073 -10.679  -5.979  1.00  0.00    -0.354 N 
ATOM     56  N   UNL     1      -8.472 -11.019  -7.310  1.00  0.00    -0.248 NA
ATOM     57  C   UNL     1      -6.915 -12.376  -8.400  1.00  0.00     0.031 C 
ATOM     58  C   UNL     1     -12.457 -12.416  -5.920  1.00  0.00     0.029 A 
ATOM     59  C   UNL     1     -11.210 -12.002  -6.363  1.00  0.00     0.049 A 
ATOM     60  H   UNL     1     -10.280 -10.121  -6.147  1.00  0.00     0.167 HD
ATOM     61  C   UNL     1      -9.012 -12.287  -7.479  1.00  0.00     0.074 A 
ATOM     62  C   UNL     1      -8.023 -13.072  -8.187  1.00  0.00     0.031 C 
ATOM     63  C   UNL     1     -10.219 -12.761  -7.083  1.00  0.00     0.037 A 
BRANCH  50  64
ATOM     64  C   UNL     1     -13.694  -8.641  -4.056  1.00  0.00     0.057 A 
ATOM     65  C   UNL     1     -14.661  -7.777  -4.591  1.00  0.00     0.134 A 
ATOM     66  C   UNL     1     -13.982  -9.247  -2.827  1.00  0.00     0.134 A 
ATOM     67  F   UNL     1     -14.444  -7.153  -5.758  1.00  0.00    -0.206 F 
ATOM     68  C   UNL     1     -15.852  -7.505  -3.916  1.00  0.00     0.040 A 
ATOM     69  C   UNL     1     -15.183  -9.007  -2.158  1.00  0.00     0.040 A 
ATOM     70  F   UNL     1     -13.105 -10.089  -2.260  1.00  0.00    -0.206 F 
ATOM     71  C   UNL     1     -16.119  -8.128  -2.699  1.00  0.00     0.006 A 
ENDBRANCH  50  64
BRANCH  51  72
ATOM     72  C   UNL     1      -4.946 -10.224  -8.637  1.00  0.00     0.057 A 
ATOM     73  C   UNL     1      -4.856 -10.508 -10.005  1.00  0.00     0.134 A 
ATOM     74  C   UNL     1      -3.754 -10.215  -7.903  1.00  0.00     0.134 A 
ATOM     75  F   UNL     1      -5.964 -10.548 -10.760  1.00  0.00    -0.206 F 
ATOM     76  C   UNL     1      -3.635 -10.801 -10.614  1.00  0.00     0.040 A 
ATOM     77  C   UNL     1      -2.522 -10.478  -8.505  1.00  0.00     0.040 A 
ATOM     78  F   UNL     1      -3.768  -9.939  -6.591  1.00  0.00    -0.206 F 
ATOM     79  C   UNL     1      -2.462 -10.782  -9.863  1.00  0.00     0.006 A 
ENDBRANCH  51  72
BRANCH  63  80
ATOM     80  C   UNL     1     -10.558 -14.176  -7.451  1.00  0.00     0.057 A 
ATOM     81  C   UNL     1      -9.946 -15.271  -6.830  1.00  0.00     0.134 A 
ATOM     82  C   UNL     1     -11.547 -14.442  -8.407  1.00  0.00     0.134 A 
ATOM     83  F   UNL     1      -8.983 -15.084  -5.915  1.00  0.00    -0.206 F 
ATOM     84  C   UNL     1     -10.289 -16.582  -7.164  1.00  0.00     0.040 A 
ATOM     85  C   UNL     1     -11.919 -15.747  -8.728  1.00  0.00     0.040 A 
ATOM     86  F   UNL     1     -12.179 -13.437  -9.032  1.00  0.00    -0.206 F 
ATOM     87  C   UNL     1     -11.284 -16.822  -8.110  1.00  0.00     0.006 A 
ENDBRANCH  63  80
ENDBRANCH  37  38
ENDBRANCH  29  32
ENDBRANCH  27  28
ENDBRANCH  26  27
ENDBRANCH   1  26
TORSDOF 14
