REMARK SMILES CC[C@@H](C)c1ccccc1NC(=O)[C@@H]1[C@@H](C(=O)NCCCNC(=O)c2ccc(-c3c4nc(c(-c5c(F)cccc5F)c5ccc([nH]5)c(-c5c(F)cccc5F)c5nc(c(-c6c(F)cccc6F)c6ccc3[nH]6)C=C5)C=C4)cc2)[C@@H]2C=C[C@H]1C2
REMARK SMILES IDX 19 1 18 2 16 3 17 4 15 6 14 7 82 8 79 9 81 10 83 11 80 12
REMARK SMILES IDX 12 13 11 14 13 16 10 17 5 18 6 19 7 20 9 21 8 22 3 23 4 24
REMARK SMILES IDX 2 25 1 26 20 27 21 28 22 29 23 30 24 32 25 33 26 34 78 35
REMARK SMILES IDX 27 36 77 37 28 38 29 39 30 40 71 41 31 42 76 43 70 44 72 45
REMARK SMILES IDX 32 46 75 47 69 48 68 49 33 51 59 52 42 53 58 54 43 55 46 56
REMARK SMILES IDX 57 57 73 58 44 59 45 60 56 62 74 63 47 64 34 65 35 66 40 67
REMARK SMILES IDX 36 68 37 69 39 70 41 71 38 72 60 73 61 74 66 75 62 76 63 77
REMARK SMILES IDX 65 78 67 79 64 80 48 81 49 82 54 83 50 84 51 85 53 86 55 87
REMARK SMILES IDX 52 88
REMARK H PARENT 18 5 11 15 22 31 72 50 46 61
REMARK Flexibility Score: inf
ROOT
ATOM      1  C   UNL     1      -0.529  -4.304   8.591  1.00  0.00     0.117 C 
ENDROOT
BRANCH   1   2
ATOM      2  N   UNL     1      -1.320  -4.880   7.523  1.00  0.00    -0.356 N 
ATOM      3  C   UNL     1      -1.697  -4.469   6.291  1.00  0.00     0.224 C 
ATOM      4  O   UNL     1      -2.298  -5.331   5.633  1.00  0.00    -0.275 OA
ATOM      5  H   UNL     1      -1.661  -5.777   7.745  1.00  0.00     0.163 HD
BRANCH   3   6
ATOM      6  C   UNL     1      -1.605  -3.055   5.719  1.00  0.00     0.098 C 
ATOM      7  C   UNL     1      -0.298  -2.164   5.736  1.00  0.00     0.099 C 
ATOM      8  C   UNL     1      -0.895  -0.814   6.221  1.00  0.00     0.025 C 
ATOM      9  C   UNL     1      -2.669  -2.145   6.394  1.00  0.00     0.025 C 
ATOM     10  C   UNL     1      -1.940  -0.277   5.277  1.00  0.00    -0.027 C 
ATOM     11  C   UNL     1      -1.830  -1.283   7.324  1.00  0.00     0.017 C 
ATOM     12  C   UNL     1      -3.020  -1.062   5.397  1.00  0.00    -0.027 C 
BRANCH   7  13
ATOM     13  C   UNL     1       0.460  -2.228   4.391  1.00  0.00     0.228 C 
ATOM     14  N   UNL     1       1.234  -1.222   3.861  1.00  0.00    -0.326 N 
ATOM     15  H   UNL     1       1.804  -1.482   3.101  1.00  0.00     0.169 HD
ATOM     16  O   UNL     1       0.453  -3.289   3.751  1.00  0.00    -0.274 OA
BRANCH  14  17
ATOM     17  C   UNL     1       1.326   0.118   4.251  1.00  0.00     0.044 A 
ATOM     18  C   UNL     1       0.932   1.167   3.388  1.00  0.00    -0.022 A 
ATOM     19  C   UNL     1       0.622   2.394   4.016  1.00  0.00     0.006 A 
ATOM     20  C   UNL     1       0.906   2.631   5.363  1.00  0.00     0.000 A 
ATOM     21  C   UNL     1       1.758   0.401   5.553  1.00  0.00     0.026 A 
ATOM     22  C   UNL     1       1.558   1.663   6.108  1.00  0.00     0.002 A 
BRANCH  18  23
ATOM     23  C   UNL     1       1.006   1.097   1.847  1.00  0.00     0.018 C 
ATOM     24  C   UNL     1       0.730   2.458   1.159  1.00  0.00     0.013 C 
BRANCH  23  25
ATOM     25  C   UNL     1       0.187   0.005   1.118  1.00  0.00     0.005 C 
ATOM     26  C   UNL     1       0.575  -0.122  -0.359  1.00  0.00     0.004 C 
ENDBRANCH  23  25
ENDBRANCH  18  23
ENDBRANCH  14  17
ENDBRANCH   7  13
ENDBRANCH   3   6
ENDBRANCH   1   2
BRANCH   1  27
ATOM     27  C   UNL     1      -1.370  -3.651   9.684  1.00  0.00     0.042 C 
BRANCH  27  28
ATOM     28  C   UNL     1      -1.928  -4.588  10.743  1.00  0.00     0.118 C 
BRANCH  28  29
ATOM     29  N   UNL     1      -0.900  -5.142  11.605  1.00  0.00    -0.352 N 
ATOM     30  C   UNL     1      -0.663  -4.979  12.950  1.00  0.00     0.251 C 
ATOM     31  H   UNL     1      -0.262  -5.737  11.149  1.00  0.00     0.163 HD
ATOM     32  O   UNL     1       0.389  -5.404  13.420  1.00  0.00    -0.269 OA
BRANCH  30  33
ATOM     33  C   UNL     1      -1.632  -4.292  13.840  1.00  0.00     0.039 A 
ATOM     34  C   UNL     1      -1.135  -3.541  14.912  1.00  0.00     0.014 A 
ATOM     35  C   UNL     1      -3.013  -4.428  13.684  1.00  0.00     0.014 A 
ATOM     36  C   UNL     1      -2.013  -2.893  15.787  1.00  0.00     0.010 A 
ATOM     37  C   UNL     1      -3.887  -3.709  14.498  1.00  0.00     0.010 A 
ATOM     38  C   UNL     1      -3.398  -2.948  15.570  1.00  0.00    -0.014 A 
BRANCH  38  39
ATOM     39  C   UNL     1      -4.351  -2.246  16.469  1.00  0.00     0.031 A 
ATOM     40  C   UNL     1      -5.350  -3.034  17.275  1.00  0.00     0.074 A 
ATOM     41  C   UNL     1      -4.358  -0.900  16.518  1.00  0.00     0.049 A 
ATOM     42  N   UNL     1      -6.311  -2.604  18.052  1.00  0.00    -0.248 NA
ATOM     43  C   UNL     1      -5.277  -4.501  17.170  1.00  0.00     0.031 C 
ATOM     44  C   UNL     1      -3.472  -0.020  15.755  1.00  0.00     0.029 A 
ATOM     45  N   UNL     1      -5.148  -0.035  17.234  1.00  0.00    -0.354 N 
ATOM     46  C   UNL     1      -6.966  -3.741  18.510  1.00  0.00     0.074 A 
ATOM     47  C   UNL     1      -6.327  -4.878  17.885  1.00  0.00     0.031 C 
ATOM     48  C   UNL     1      -3.753   1.258  16.057  1.00  0.00     0.029 A 
ATOM     49  C   UNL     1      -4.862   1.290  17.005  1.00  0.00     0.049 A 
ATOM     50  H   UNL     1      -5.852  -0.334  17.853  1.00  0.00     0.167 HD
ATOM     51  C   UNL     1      -7.992  -3.833  19.390  1.00  0.00     0.037 A 
ATOM     52  C   UNL     1      -5.435   2.404  17.497  1.00  0.00     0.037 A 
ATOM     53  C   UNL     1      -8.604  -2.703  20.037  1.00  0.00     0.049 A 
ATOM     54  C   UNL     1      -6.571   2.276  18.474  1.00  0.00     0.074 A 
ATOM     55  C   UNL     1      -9.607  -2.695  20.991  1.00  0.00     0.029 A 
ATOM     56  N   UNL     1      -8.270  -1.379  19.796  1.00  0.00    -0.354 N 
ATOM     57  N   UNL     1      -7.136   1.191  18.946  1.00  0.00    -0.248 NA
ATOM     58  C   UNL     1      -7.144   3.526  18.992  1.00  0.00     0.031 C 
ATOM     59  C   UNL     1      -9.907  -1.363  21.297  1.00  0.00     0.029 A 
ATOM     60  C   UNL     1      -9.059  -0.544  20.569  1.00  0.00     0.049 A 
ATOM     61  H   UNL     1      -7.573  -1.078  19.168  1.00  0.00     0.167 HD
ATOM     62  C   UNL     1      -8.110   1.626  19.835  1.00  0.00     0.074 A 
ATOM     63  C   UNL     1      -8.049   3.073  19.848  1.00  0.00     0.031 C 
ATOM     64  C   UNL     1      -8.978   0.893  20.575  1.00  0.00     0.037 A 
BRANCH  51  65
ATOM     65  C   UNL     1      -8.513  -5.205  19.710  1.00  0.00     0.057 A 
ATOM     66  C   UNL     1      -7.771  -6.119  20.468  1.00  0.00     0.134 A 
ATOM     67  C   UNL     1      -9.788  -5.602  19.288  1.00  0.00     0.134 A 
ATOM     68  F   UNL     1      -6.537  -5.806  20.894  1.00  0.00    -0.206 F 
ATOM     69  C   UNL     1      -8.266  -7.388  20.774  1.00  0.00     0.040 A 
ATOM     70  C   UNL     1     -10.306  -6.858  19.610  1.00  0.00     0.040 A 
ATOM     71  F   UNL     1     -10.556  -4.774  18.564  1.00  0.00    -0.206 F 
ATOM     72  C   UNL     1      -9.541  -7.758  20.350  1.00  0.00     0.006 A 
ENDBRANCH  51  65
BRANCH  52  73
ATOM     73  C   UNL     1      -4.934   3.741  17.089  1.00  0.00     0.057 A 
ATOM     74  C   UNL     1      -4.249   4.562  17.993  1.00  0.00     0.134 A 
ATOM     75  C   UNL     1      -5.135   4.236  15.795  1.00  0.00     0.134 A 
ATOM     76  F   UNL     1      -4.042   4.152  19.253  1.00  0.00    -0.206 F 
ATOM     77  C   UNL     1      -3.799   5.833  17.632  1.00  0.00     0.040 A 
ATOM     78  C   UNL     1      -4.669   5.494  15.412  1.00  0.00     0.040 A 
ATOM     79  F   UNL     1      -5.778   3.495  14.879  1.00  0.00    -0.206 F 
ATOM     80  C   UNL     1      -4.005   6.300  16.335  1.00  0.00     0.006 A 
ENDBRANCH  52  73
BRANCH  64  81
ATOM     81  C   UNL     1      -9.906   1.643  21.485  1.00  0.00     0.057 A 
ATOM     82  C   UNL     1     -10.992   2.376  20.993  1.00  0.00     0.134 A 
ATOM     83  C   UNL     1      -9.732   1.595  22.874  1.00  0.00     0.134 A 
ATOM     84  F   UNL     1     -11.205   2.472  19.671  1.00  0.00    -0.206 F 
ATOM     85  C   UNL     1     -11.861   3.054  21.849  1.00  0.00     0.040 A 
ATOM     86  C   UNL     1     -10.609   2.247  23.742  1.00  0.00     0.040 A 
ATOM     87  F   UNL     1      -8.716   0.902  23.411  1.00  0.00    -0.206 F 
ATOM     88  C   UNL     1     -11.674   2.985  23.229  1.00  0.00     0.006 A 
ENDBRANCH  64  81
ENDBRANCH  38  39
ENDBRANCH  30  33
ENDBRANCH  28  29
ENDBRANCH  27  28
ENDBRANCH   1  27
TORSDOF 14
