REMARK SMILES O=C(NCCCNC(=O)[C@@H](NC(=O)c1ccc(C[NH+]2CCCCC2)cc1)c1ccccc1F)c1ccc(-c2c3nc(c(-c4c(F)cccc4F)c4ccc([nH]4)c(-c4c(F)cccc4F)c4nc(c(-c5c(F)cccc5F)c5ccc2[nH]5)C=C4)C=C3)cc1
REMARK SMILES IDX 6 1 5 2 4 3 3 4 1 5 2 6 34 8 35 9 87 10 36 11 86 12 37 13
REMARK SMILES IDX 38 14 39 15 80 16 40 17 85 18 79 19 81 20 41 21 84 22 78 23
REMARK SMILES IDX 77 24 42 26 68 27 51 28 67 29 52 30 55 31 66 32 82 33 53 34
REMARK SMILES IDX 54 35 65 37 83 38 56 39 43 40 44 41 49 42 45 43 46 44 48 45
REMARK SMILES IDX 50 46 47 47 69 48 70 49 75 50 71 51 72 52 74 53 76 54 73 55
REMARK SMILES IDX 57 56 58 57 63 58 59 59 60 60 62 61 64 62 61 63 7 64 8 65
REMARK SMILES IDX 9 67 10 68 11 69 12 70 13 72 14 73 15 74 26 75 16 76 25 77
REMARK SMILES IDX 17 78 18 79 19 80 20 81 24 82 21 84 23 85 22 86 27 87 28 88
REMARK SMILES IDX 32 89 29 90 31 91 33 92 30 93
REMARK H PARENT 3 7 81 25 55 36 7 66 11 71 19 83
REMARK Flexibility Score: inf
ROOT
ATOM      1  C   UNL     1       4.949  -1.711   2.873  1.00  0.00     0.117 C 
ENDROOT
BRANCH   1   2
ATOM      2  C   UNL     1       5.301  -0.753   1.758  1.00  0.00     0.042 C 
BRANCH   2   3
ATOM      3  C   UNL     1       4.731  -1.193   0.422  1.00  0.00     0.118 C 
BRANCH   3   4
ATOM      4  N   UNL     1       3.273  -1.119   0.382  1.00  0.00    -0.352 N 
ATOM      5  O   UNL     1       1.240  -0.198   0.075  1.00  0.00    -0.269 OA
ATOM      6  C   UNL     1       2.440  -0.186  -0.186  1.00  0.00     0.251 C 
ATOM      7  H   UNL     1       2.811  -1.860   0.836  1.00  0.00     0.163 HD
BRANCH   6   8
ATOM      8  C   UNL     1       2.989   0.849  -1.084  1.00  0.00     0.039 A 
ATOM      9  C   UNL     1       3.989   0.531  -2.003  1.00  0.00     0.014 A 
ATOM     10  C   UNL     1       2.494   2.154  -1.015  1.00  0.00     0.014 A 
ATOM     11  C   UNL     1       4.639   1.540  -2.696  1.00  0.00     0.010 A 
ATOM     12  C   UNL     1       3.058   3.148  -1.816  1.00  0.00     0.010 A 
ATOM     13  C   UNL     1       4.161   2.855  -2.634  1.00  0.00    -0.014 A 
BRANCH  13  14
ATOM     14  C   UNL     1       4.780   3.897  -3.486  1.00  0.00     0.031 A 
ATOM     15  C   UNL     1       5.420   5.109  -2.876  1.00  0.00     0.074 A 
ATOM     16  C   UNL     1       4.743   3.743  -4.823  1.00  0.00     0.049 A 
ATOM     17  N   UNL     1       5.909   6.168  -3.469  1.00  0.00    -0.248 NA
ATOM     18  C   UNL     1       5.514   5.143  -1.409  1.00  0.00     0.031 C 
ATOM     19  C   UNL     1       4.154   2.598  -5.524  1.00  0.00     0.029 A 
ATOM     20  N   UNL     1       5.201   4.549  -5.831  1.00  0.00    -0.354 N 
ATOM     21  C   UNL     1       6.333   7.010  -2.450  1.00  0.00     0.074 A 
ATOM     22  C   UNL     1       6.030   6.346  -1.200  1.00  0.00     0.031 C 
ATOM     23  C   UNL     1       4.303   2.766  -6.844  1.00  0.00     0.029 A 
ATOM     24  C   UNL     1       4.918   4.064  -7.084  1.00  0.00     0.049 A 
ATOM     25  H   UNL     1       5.684   5.392  -5.673  1.00  0.00     0.167 HD
ATOM     26  C   UNL     1       6.920   8.227  -2.554  1.00  0.00     0.037 A 
ATOM     27  C   UNL     1       5.088   4.620  -8.296  1.00  0.00     0.037 A 
ATOM     28  C   UNL     1       7.226   8.866  -3.809  1.00  0.00     0.049 A 
ATOM     29  C   UNL     1       5.702   5.983  -8.387  1.00  0.00     0.074 A 
ATOM     30  C   UNL     1       7.853  10.080  -4.028  1.00  0.00     0.029 A 
ATOM     31  N   UNL     1       6.918   8.343  -5.058  1.00  0.00    -0.354 N 
ATOM     32  N   UNL     1       6.114   6.765  -7.419  1.00  0.00    -0.248 NA
ATOM     33  C   UNL     1       5.873   6.544  -9.732  1.00  0.00     0.031 C 
ATOM     34  C   UNL     1       7.877  10.315  -5.407  1.00  0.00     0.029 A 
ATOM     35  C   UNL     1       7.318   9.222  -6.051  1.00  0.00     0.049 A 
ATOM     36  H   UNL     1       6.481   7.475  -5.214  1.00  0.00     0.167 HD
ATOM     37  C   UNL     1       6.614   7.901  -8.035  1.00  0.00     0.074 A 
ATOM     38  C   UNL     1       6.457   7.704  -9.463  1.00  0.00     0.031 C 
ATOM     39  C   UNL     1       7.160   9.004  -7.468  1.00  0.00     0.037 A 
BRANCH  26  40
ATOM     40  C   UNL     1       7.226   8.960  -1.279  1.00  0.00     0.057 A 
ATOM     41  C   UNL     1       8.226   8.537  -0.393  1.00  0.00     0.134 A 
ATOM     42  C   UNL     1       6.511  10.116  -0.937  1.00  0.00     0.134 A 
ATOM     43  F   UNL     1       8.941   7.432  -0.653  1.00  0.00    -0.206 F 
ATOM     44  C   UNL     1       8.479   9.214   0.802  1.00  0.00     0.040 A 
ATOM     45  C   UNL     1       6.774  10.818   0.241  1.00  0.00     0.040 A 
ATOM     46  F   UNL     1       5.545  10.584  -1.742  1.00  0.00    -0.206 F 
ATOM     47  C   UNL     1       7.754  10.361   1.120  1.00  0.00     0.006 A 
ENDBRANCH  26  40
BRANCH  27  48
ATOM     48  C   UNL     1       4.638   3.879  -9.498  1.00  0.00     0.057 A 
ATOM     49  C   UNL     1       5.558   3.301 -10.378  1.00  0.00     0.134 A 
ATOM     50  C   UNL     1       3.276   3.667  -9.752  1.00  0.00     0.134 A 
ATOM     51  F   UNL     1       6.874   3.476 -10.191  1.00  0.00    -0.206 F 
ATOM     52  C   UNL     1       5.140   2.537 -11.469  1.00  0.00     0.040 A 
ATOM     53  C   UNL     1       2.845   2.884 -10.823  1.00  0.00     0.040 A 
ATOM     54  F   UNL     1       2.347   4.180  -8.932  1.00  0.00    -0.206 F 
ATOM     55  C   UNL     1       3.780   2.318 -11.687  1.00  0.00     0.006 A 
ENDBRANCH  27  48
BRANCH  39  56
ATOM     56  C   UNL     1       7.673  10.068  -8.391  1.00  0.00     0.057 A 
ATOM     57  C   UNL     1       6.813  10.930  -9.079  1.00  0.00     0.134 A 
ATOM     58  C   UNL     1       9.052  10.270  -8.538  1.00  0.00     0.134 A 
ATOM     59  F   UNL     1       5.483  10.777  -8.992  1.00  0.00    -0.206 F 
ATOM     60  C   UNL     1       7.306  11.956  -9.888  1.00  0.00     0.040 A 
ATOM     61  C   UNL     1       9.556  11.306  -9.324  1.00  0.00     0.040 A 
ATOM     62  F   UNL     1       9.928   9.479  -7.901  1.00  0.00    -0.206 F 
ATOM     63  C   UNL     1       8.681  12.152 -10.003  1.00  0.00     0.006 A 
ENDBRANCH  39  56
ENDBRANCH  13  14
ENDBRANCH   6   8
ENDBRANCH   3   4
ENDBRANCH   2   3
ENDBRANCH   1   2
BRANCH   1  64
ATOM     64  N   UNL     1       5.613  -2.997   2.778  1.00  0.00    -0.354 N 
ATOM     65  C   UNL     1       6.005  -3.831   3.795  1.00  0.00     0.247 C 
ATOM     66  H   UNL     1       5.809  -3.312   1.866  1.00  0.00     0.163 HD
ATOM     67  O   UNL     1       6.293  -4.993   3.493  1.00  0.00    -0.272 OA
BRANCH  65  68
ATOM     68  C   UNL     1       6.012  -3.344   5.271  1.00  0.00     0.205 C 
BRANCH  68  69
ATOM     69  N   UNL     1       6.790  -2.086   5.314  1.00  0.00    -0.336 N 
ATOM     70  C   UNL     1       6.788  -0.929   6.031  1.00  0.00     0.252 C 
ATOM     71  H   UNL     1       7.506  -2.086   4.638  1.00  0.00     0.165 HD
ATOM     72  O   UNL     1       7.655  -0.082   5.836  1.00  0.00    -0.269 OA
BRANCH  70  73
ATOM     73  C   UNL     1       5.670  -0.620   6.916  1.00  0.00     0.039 A 
ATOM     74  C   UNL     1       4.758   0.341   6.473  1.00  0.00     0.014 A 
ATOM     75  C   UNL     1       5.459  -1.346   8.084  1.00  0.00     0.014 A 
ATOM     76  C   UNL     1       3.540   0.468   7.130  1.00  0.00     0.010 A 
ATOM     77  C   UNL     1       4.249  -1.191   8.756  1.00  0.00     0.010 A 
ATOM     78  C   UNL     1       3.260  -0.320   8.259  1.00  0.00     0.006 A 
BRANCH  78  79
ATOM     79  C   UNL     1       1.892  -0.276   8.912  1.00  0.00     0.299 C 
BRANCH  79  80
ATOM     80  N   UNL     1       1.637   0.856   9.813  1.00  0.00    -0.331 N 
ATOM     81  C   UNL     1       2.634   0.942  10.886  1.00  0.00     0.262 C 
ATOM     82  C   UNL     1       1.456   2.120   9.094  1.00  0.00     0.262 C 
ATOM     83  H   UNL     1       0.743   0.671  10.268  1.00  0.00     0.348 HD
ATOM     84  C   UNL     1       2.329   2.080  11.858  1.00  0.00     0.062 C 
ATOM     85  C   UNL     1       1.118   3.271  10.037  1.00  0.00     0.062 C 
ATOM     86  C   UNL     1       2.186   3.403  11.115  1.00  0.00     0.012 C 
ENDBRANCH  79  80
ENDBRANCH  78  79
ENDBRANCH  70  73
ENDBRANCH  68  69
BRANCH  68  87
ATOM     87  C   UNL     1       4.632  -3.501   5.886  1.00  0.00     0.020 A 
ATOM     88  C   UNL     1       3.528  -2.675   5.630  1.00  0.00     0.009 A 
ATOM     89  C   UNL     1       4.391  -4.620   6.698  1.00  0.00     0.129 A 
ATOM     90  C   UNL     1       2.265  -2.930   6.178  1.00  0.00     0.001 A 
ATOM     91  C   UNL     1       3.138  -4.885   7.254  1.00  0.00     0.039 A 
ATOM     92  F   UNL     1       5.386  -5.479   6.961  1.00  0.00    -0.207 F 
ATOM     93  C   UNL     1       2.070  -4.033   6.998  1.00  0.00     0.003 A 
ENDBRANCH  68  87
ENDBRANCH  65  68
ENDBRANCH   1  64
TORSDOF 15
