REMARK SMILES O=C(NCCCNC(=O)c1nc2c(F)cccc2s1)c1ccc(-c2c3nc(c(-c4c(F)cccc4F)c4ccc([nH]4)c(-c4c(F)cccc4F)c4nc(c(-c5c(F)cccc5F)c5ccc2[nH]5)C=C4)C=C3)cc1
REMARK SMILES IDX 4 1 3 2 1 3 2 4 20 6 21 7 73 8 22 9 72 10 23 11 24 12 25 13
REMARK SMILES IDX 66 14 26 15 71 16 65 17 67 18 27 19 70 20 64 21 63 22 28 24
REMARK SMILES IDX 54 25 37 26 53 27 38 28 41 29 52 30 68 31 39 32 40 33 51 35
REMARK SMILES IDX 69 36 42 37 29 38 30 39 35 40 31 41 32 42 34 43 36 44 33 45
REMARK SMILES IDX 55 46 56 47 61 48 57 49 58 50 60 51 62 52 59 53 43 54 44 55
REMARK SMILES IDX 49 56 45 57 46 58 48 59 50 60 47 61 5 62 6 63 7 64 8 65 9 67
REMARK SMILES IDX 10 68 11 69 19 70 12 71 18 72 13 73 17 74 14 75 15 76 16 77
REMARK H PARENT 3 5 67 23 41 34 7 66
REMARK Flexibility Score: inf
ROOT
ATOM      1  C   UNL     1       4.660   0.755   1.095  1.00  0.00     0.118 C 
ENDROOT
BRANCH   1   2
ATOM      2  N   UNL     1       3.262   0.424   1.304  1.00  0.00    -0.352 N 
ATOM      3  O   UNL     1       1.220  -0.405   1.057  1.00  0.00    -0.269 OA
ATOM      4  C   UNL     1       2.258  -0.043   0.498  1.00  0.00     0.251 C 
ATOM      5  H   UNL     1       2.971   0.566   2.234  1.00  0.00     0.163 HD
BRANCH   4   6
ATOM      6  C   UNL     1       2.306  -0.049  -0.986  1.00  0.00     0.039 A 
ATOM      7  C   UNL     1       3.471   0.011  -1.748  1.00  0.00     0.014 A 
ATOM      8  C   UNL     1       1.065  -0.080  -1.651  1.00  0.00     0.014 A 
ATOM      9  C   UNL     1       3.400   0.186  -3.125  1.00  0.00     0.010 A 
ATOM     10  C   UNL     1       0.988   0.052  -3.034  1.00  0.00     0.010 A 
ATOM     11  C   UNL     1       2.158   0.235  -3.763  1.00  0.00    -0.014 A 
BRANCH  11  12
ATOM     12  C   UNL     1       2.162   0.381  -5.214  1.00  0.00     0.031 A 
ATOM     13  C   UNL     1       2.759  -0.751  -5.978  1.00  0.00     0.074 A 
ATOM     14  C   UNL     1       1.586   1.406  -5.869  1.00  0.00     0.049 A 
ATOM     15  N   UNL     1       3.773  -0.734  -6.783  1.00  0.00    -0.248 NA
ATOM     16  C   UNL     1       2.179  -2.085  -5.766  1.00  0.00     0.031 C 
ATOM     17  C   UNL     1       0.699   2.441  -5.336  1.00  0.00     0.029 A 
ATOM     18  N   UNL     1       1.617   1.675  -7.205  1.00  0.00    -0.354 N 
ATOM     19  C   UNL     1       3.866  -2.022  -7.308  1.00  0.00     0.074 A 
ATOM     20  C   UNL     1       2.928  -2.834  -6.574  1.00  0.00     0.031 C 
ATOM     21  C   UNL     1       0.122   3.100  -6.366  1.00  0.00     0.029 A 
ATOM     22  C   UNL     1       0.692   2.621  -7.615  1.00  0.00     0.049 A 
ATOM     23  H   UNL     1       2.243   1.236  -7.825  1.00  0.00     0.167 HD
ATOM     24  C   UNL     1       4.582  -2.305  -8.431  1.00  0.00     0.037 A 
ATOM     25  C   UNL     1       0.374   2.941  -8.892  1.00  0.00     0.037 A 
ATOM     26  C   UNL     1       5.551  -1.288  -8.730  1.00  0.00     0.049 A 
ATOM     27  C   UNL     1       1.472   2.479  -9.774  1.00  0.00     0.074 A 
ATOM     28  C   UNL     1       6.648  -0.761  -8.076  1.00  0.00     0.029 A 
ATOM     29  N   UNL     1       5.297  -0.425  -9.765  1.00  0.00    -0.354 N 
ATOM     30  N   UNL     1       2.654   3.023  -9.827  1.00  0.00    -0.248 NA
ATOM     31  C   UNL     1       1.375   1.145 -10.347  1.00  0.00     0.031 C 
ATOM     32  C   UNL     1       6.671   0.617  -8.442  1.00  0.00     0.029 A 
ATOM     33  C   UNL     1       5.599   0.831  -9.308  1.00  0.00     0.049 A 
ATOM     34  H   UNL     1       4.963  -0.661 -10.661  1.00  0.00     0.167 HD
ATOM     35  C   UNL     1       3.522   1.965 -10.049  1.00  0.00     0.074 A 
ATOM     36  C   UNL     1       2.672   0.858 -10.473  1.00  0.00     0.031 C 
ATOM     37  C   UNL     1       4.813   2.004  -9.605  1.00  0.00     0.037 A 
BRANCH  24  38
ATOM     38  C   UNL     1       4.190  -3.361  -9.431  1.00  0.00     0.057 A 
ATOM     39  C   UNL     1       2.861  -3.793  -9.621  1.00  0.00     0.134 A 
ATOM     40  C   UNL     1       5.098  -3.755 -10.429  1.00  0.00     0.134 A 
ATOM     41  F   UNL     1       1.867  -3.411  -8.809  1.00  0.00    -0.206 F 
ATOM     42  C   UNL     1       2.465  -4.560 -10.719  1.00  0.00     0.040 A 
ATOM     43  C   UNL     1       4.701  -4.480 -11.560  1.00  0.00     0.040 A 
ATOM     44  F   UNL     1       6.385  -3.380 -10.376  1.00  0.00    -0.206 F 
ATOM     45  C   UNL     1       3.379  -4.882 -11.709  1.00  0.00     0.006 A 
ENDBRANCH  24  38
BRANCH  25  46
ATOM     46  C   UNL     1      -0.924   3.401  -9.427  1.00  0.00     0.057 A 
ATOM     47  C   UNL     1      -2.138   2.990  -8.848  1.00  0.00     0.134 A 
ATOM     48  C   UNL     1      -1.018   4.045 -10.667  1.00  0.00     0.134 A 
ATOM     49  F   UNL     1      -2.158   2.289  -7.705  1.00  0.00    -0.206 F 
ATOM     50  C   UNL     1      -3.373   3.204  -9.466  1.00  0.00     0.040 A 
ATOM     51  C   UNL     1      -2.248   4.257 -11.302  1.00  0.00     0.040 A 
ATOM     52  F   UNL     1       0.087   4.433 -11.319  1.00  0.00    -0.206 F 
ATOM     53  C   UNL     1      -3.430   3.829 -10.704  1.00  0.00     0.006 A 
ENDBRANCH  25  46
BRANCH  37  54
ATOM     54  C   UNL     1       5.342   3.323  -9.121  1.00  0.00     0.057 A 
ATOM     55  C   UNL     1       6.492   3.856  -9.713  1.00  0.00     0.134 A 
ATOM     56  C   UNL     1       4.823   4.007  -8.011  1.00  0.00     0.134 A 
ATOM     57  F   UNL     1       7.082   3.221 -10.738  1.00  0.00    -0.206 F 
ATOM     58  C   UNL     1       7.085   5.030  -9.243  1.00  0.00     0.040 A 
ATOM     59  C   UNL     1       5.387   5.201  -7.553  1.00  0.00     0.040 A 
ATOM     60  F   UNL     1       3.794   3.513  -7.311  1.00  0.00    -0.206 F 
ATOM     61  C   UNL     1       6.524   5.715  -8.168  1.00  0.00     0.006 A 
ENDBRANCH  37  54
ENDBRANCH  11  12
ENDBRANCH   4   6
ENDBRANCH   1   2
BRANCH   1  62
ATOM     62  C   UNL     1       4.937   2.099   0.421  1.00  0.00     0.042 C 
BRANCH  62  63
ATOM     63  C   UNL     1       4.417   3.323   1.168  1.00  0.00     0.118 C 
BRANCH  63  64
ATOM     64  N   UNL     1       4.952   3.431   2.515  1.00  0.00    -0.350 N 
ATOM     65  C   UNL     1       5.711   4.418   3.104  1.00  0.00     0.280 C 
ATOM     66  H   UNL     1       4.736   2.673   3.104  1.00  0.00     0.163 HD
ATOM     67  O   UNL     1       6.146   4.153   4.236  1.00  0.00    -0.267 OA
BRANCH  65  68
ATOM     68  C   UNL     1       5.983   5.674   2.420  1.00  0.00     0.182 A 
ATOM     69  N   UNL     1       7.189   6.202   2.357  1.00  0.00    -0.228 NA
ATOM     70  S   UNL     1       4.721   6.641   1.776  1.00  0.00    -0.109 S 
ATOM     71  C   UNL     1       7.148   7.406   1.665  1.00  0.00     0.118 A 
ATOM     72  C   UNL     1       5.880   7.785   1.218  1.00  0.00     0.058 A 
ATOM     73  C   UNL     1       8.233   8.256   1.365  1.00  0.00     0.150 A 
ATOM     74  C   UNL     1       5.673   8.945   0.451  1.00  0.00     0.021 A 
ATOM     75  F   UNL     1       9.471   7.960   1.790  1.00  0.00    -0.205 F 
ATOM     76  C   UNL     1       8.045   9.416   0.612  1.00  0.00     0.041 A 
ATOM     77  C   UNL     1       6.777   9.749   0.148  1.00  0.00     0.005 A 
ENDBRANCH  65  68
ENDBRANCH  63  64
ENDBRANCH  62  63
ENDBRANCH   1  62
TORSDOF 10
