REMARK SMILES Cc1cnn(C2(C(=O)NCCCNC(=O)c3ccc(-c4c5nc(c(-c6c(F)cccc6F)c6ccc([nH]6)c(-c6c(F)cccc6F)c6nc(c(-c7c(F)cccc7F)c7ccc4[nH]7)C=C6)C=C5)cc3)CCN(C(=O)c3cc4ccccc4[nH]3)CC2)c1
REMARK SMILES IDX 11 1 10 2 9 3 7 4 8 5 6 7 70 8 85 9 71 10 84 11 72 12 73 13
REMARK SMILES IDX 74 14 5 15 1 16 2 17 3 18 86 19 4 20 75 21 76 22 83 23 77 24
REMARK SMILES IDX 82 25 78 27 81 28 79 29 80 30 12 31 13 32 14 33 15 35 16 36
REMARK SMILES IDX 17 37 69 38 18 39 68 40 19 41 20 42 21 43 62 44 22 45 67 46
REMARK SMILES IDX 61 47 63 48 23 49 66 50 60 51 59 52 24 54 50 55 33 56 49 57
REMARK SMILES IDX 34 58 37 59 48 60 64 61 35 62 36 63 47 65 65 66 38 67 25 68
REMARK SMILES IDX 26 69 31 70 27 71 28 72 30 73 32 74 29 75 51 76 52 77 57 78
REMARK SMILES IDX 53 79 54 80 56 81 58 82 55 83 39 84 40 85 45 86 41 87 42 88
REMARK SMILES IDX 44 89 46 90 43 91
REMARK H PARENT 9 6 83 26 13 34 63 53 37 64
REMARK Flexibility Score: inf
ROOT
ATOM      1  C   UNL     1      -4.117  -6.877  -2.649  1.00  0.00     0.042 C 
ENDROOT
BRANCH   1   2
ATOM      2  C   UNL     1      -3.843  -6.314  -1.253  1.00  0.00     0.117 C 
BRANCH   2   3
ATOM      3  N   UNL     1      -2.432  -6.363  -0.893  1.00  0.00    -0.354 N 
ATOM      4  C   UNL     1      -1.467  -5.400  -0.720  1.00  0.00     0.248 C 
ATOM      5  O   UNL     1      -0.338  -5.880  -0.606  1.00  0.00    -0.272 OA
ATOM      6  H   UNL     1      -2.100  -7.277  -0.743  1.00  0.00     0.163 HD
BRANCH   4   7
ATOM      7  C   UNL     1      -1.827  -3.872  -0.706  1.00  0.00     0.144 C 
ATOM      8  C   UNL     1      -2.284  -3.521  -2.151  1.00  0.00     0.062 C 
ATOM      9  C   UNL     1      -2.885  -3.672   0.414  1.00  0.00     0.062 C 
ATOM     10  C   UNL     1      -3.387  -2.480  -2.252  1.00  0.00     0.123 C 
ATOM     11  C   UNL     1      -3.975  -2.648   0.121  1.00  0.00     0.123 C 
ATOM     12  N   UNL     1      -4.428  -2.699  -1.263  1.00  0.00    -0.337 N 
ATOM     13  C   UNL     1      -5.731  -2.979  -1.702  1.00  0.00     0.270 C 
ATOM     14  O   UNL     1      -5.947  -3.330  -2.857  1.00  0.00    -0.267 OA
BRANCH   7  15
ATOM     15  N   UNL     1      -0.673  -2.978  -0.368  1.00  0.00    -0.257 N 
ATOM     16  C   UNL     1       1.116   0.191   0.092  1.00  0.00     0.048 C 
ATOM     17  C   UNL     1       0.598  -1.189  -0.024  1.00  0.00    -0.013 A 
ATOM     18  C   UNL     1       1.297  -2.392   0.173  1.00  0.00     0.138 A 
ATOM     19  C   UNL     1      -0.681  -1.599  -0.337  1.00  0.00     0.113 A 
ATOM     20  N   UNL     1       0.523  -3.460   0.008  1.00  0.00    -0.180 NA
ENDBRANCH   7  15
BRANCH  13  21
ATOM     21  C   UNL     1      -6.815  -2.907  -0.742  1.00  0.00     0.105 A 
ATOM     22  C   UNL     1      -7.025  -2.078   0.345  1.00  0.00     0.042 A 
ATOM     23  N   UNL     1      -7.940  -3.702  -0.834  1.00  0.00    -0.351 N 
ATOM     24  C   UNL     1      -8.134  -2.576   1.073  1.00  0.00     0.000 A 
ATOM     25  C   UNL     1      -8.720  -3.569   0.292  1.00  0.00     0.046 A 
ATOM     26  H   UNL     1      -8.155  -4.284  -1.599  1.00  0.00     0.167 HD
ATOM     27  C   UNL     1      -8.684  -2.278   2.332  1.00  0.00     0.010 A 
ATOM     28  C   UNL     1      -9.882  -4.244   0.685  1.00  0.00     0.026 A 
ATOM     29  C   UNL     1      -9.808  -2.986   2.767  1.00  0.00     0.001 A 
ATOM     30  C   UNL     1     -10.408  -3.938   1.946  1.00  0.00     0.002 A 
ENDBRANCH  13  21
ENDBRANCH   4   7
ENDBRANCH   2   3
ENDBRANCH   1   2
BRANCH   1  31
ATOM     31  C   UNL     1      -3.781  -8.351  -2.763  1.00  0.00     0.118 C 
BRANCH  31  32
ATOM     32  N   UNL     1      -4.646  -9.212  -1.957  1.00  0.00    -0.352 N 
ATOM     33  C   UNL     1      -4.719 -10.595  -1.986  1.00  0.00     0.251 C 
ATOM     34  H   UNL     1      -5.243  -8.757  -1.320  1.00  0.00     0.163 HD
ATOM     35  O   UNL     1      -5.709 -11.179  -1.570  1.00  0.00    -0.269 OA
BRANCH  33  36
ATOM     36  C   UNL     1      -3.560 -11.348  -2.510  1.00  0.00     0.039 A 
ATOM     37  C   UNL     1      -3.707 -12.513  -3.264  1.00  0.00     0.014 A 
ATOM     38  C   UNL     1      -2.291 -10.835  -2.250  1.00  0.00     0.014 A 
ATOM     39  C   UNL     1      -2.557 -13.125  -3.768  1.00  0.00     0.010 A 
ATOM     40  C   UNL     1      -1.202 -11.295  -2.940  1.00  0.00     0.010 A 
ATOM     41  C   UNL     1      -1.301 -12.499  -3.610  1.00  0.00    -0.014 A 
BRANCH  41  42
ATOM     42  C   UNL     1      -0.117 -12.937  -4.348  1.00  0.00     0.031 A 
ATOM     43  C   UNL     1      -0.418 -12.973  -5.799  1.00  0.00     0.074 A 
ATOM     44  C   UNL     1       1.122 -13.096  -3.816  1.00  0.00     0.049 A 
ATOM     45  N   UNL     1      -0.731 -14.025  -6.476  1.00  0.00    -0.248 NA
ATOM     46  C   UNL     1      -0.700 -11.714  -6.515  1.00  0.00     0.031 C 
ATOM     47  C   UNL     1       1.555 -12.827  -2.438  1.00  0.00     0.029 A 
ATOM     48  N   UNL     1       2.297 -13.484  -4.413  1.00  0.00    -0.354 N 
ATOM     49  C   UNL     1      -0.898 -13.584  -7.781  1.00  0.00     0.074 A 
ATOM     50  C   UNL     1      -1.149 -12.174  -7.687  1.00  0.00     0.031 C 
ATOM     51  C   UNL     1       2.908 -12.841  -2.360  1.00  0.00     0.029 A 
ATOM     52  C   UNL     1       3.451 -13.271  -3.634  1.00  0.00     0.049 A 
ATOM     53  H   UNL     1       2.330 -13.879  -5.315  1.00  0.00     0.167 HD
ATOM     54  C   UNL     1      -0.391 -14.342  -8.792  1.00  0.00     0.037 A 
ATOM     55  C   UNL     1       4.749 -13.465  -4.010  1.00  0.00     0.037 A 
ATOM     56  C   UNL     1      -0.091 -15.671  -8.293  1.00  0.00     0.049 A 
ATOM     57  C   UNL     1       4.718 -14.409  -5.145  1.00  0.00     0.074 A 
ATOM     58  C   UNL     1      -0.794 -16.724  -7.746  1.00  0.00     0.029 A 
ATOM     59  N   UNL     1       1.208 -15.803  -7.882  1.00  0.00    -0.354 N 
ATOM     60  N   UNL     1       4.373 -15.659  -5.028  1.00  0.00    -0.248 NA
ATOM     61  C   UNL     1       4.634 -13.849  -6.482  1.00  0.00     0.031 C 
ATOM     62  C   UNL     1       0.088 -17.329  -6.795  1.00  0.00     0.029 A 
ATOM     63  C   UNL     1       1.331 -16.701  -6.867  1.00  0.00     0.049 A 
ATOM     64  H   UNL     1       1.963 -15.307  -8.274  1.00  0.00     0.167 HD
ATOM     65  C   UNL     1       3.575 -15.889  -6.133  1.00  0.00     0.074 A 
ATOM     66  C   UNL     1       3.888 -14.795  -7.057  1.00  0.00     0.031 C 
ATOM     67  C   UNL     1       2.513 -16.744  -6.034  1.00  0.00     0.037 A 
BRANCH  54  68
ATOM     68  C   UNL     1       0.400 -13.767  -9.965  1.00  0.00     0.057 A 
ATOM     69  C   UNL     1       0.927 -14.668 -10.913  1.00  0.00     0.134 A 
ATOM     70  C   UNL     1       0.945 -12.466 -10.030  1.00  0.00     0.134 A 
ATOM     71  F   UNL     1       0.514 -15.944 -10.952  1.00  0.00    -0.206 F 
ATOM     72  C   UNL     1       1.968 -14.325 -11.787  1.00  0.00     0.040 A 
ATOM     73  C   UNL     1       1.954 -12.103 -10.929  1.00  0.00     0.040 A 
ATOM     74  F   UNL     1       0.617 -11.491  -9.178  1.00  0.00    -0.206 F 
ATOM     75  C   UNL     1       2.491 -13.040 -11.791  1.00  0.00     0.006 A 
ENDBRANCH  54  68
BRANCH  55  76
ATOM     76  C   UNL     1       6.003 -12.722  -3.690  1.00  0.00     0.057 A 
ATOM     77  C   UNL     1       7.272 -13.211  -4.067  1.00  0.00     0.134 A 
ATOM     78  C   UNL     1       5.966 -11.369  -3.321  1.00  0.00     0.134 A 
ATOM     79  F   UNL     1       7.421 -14.479  -4.480  1.00  0.00    -0.206 F 
ATOM     80  C   UNL     1       8.416 -12.396  -4.115  1.00  0.00     0.040 A 
ATOM     81  C   UNL     1       7.101 -10.544  -3.365  1.00  0.00     0.040 A 
ATOM     82  F   UNL     1       4.807 -10.778  -3.003  1.00  0.00    -0.206 F 
ATOM     83  C   UNL     1       8.328 -11.050  -3.779  1.00  0.00     0.006 A 
ENDBRANCH  55  76
BRANCH  67  84
ATOM     84  C   UNL     1       2.509 -17.727  -4.896  1.00  0.00     0.057 A 
ATOM     85  C   UNL     1       2.403 -17.398  -3.536  1.00  0.00     0.134 A 
ATOM     86  C   UNL     1       2.500 -19.088  -5.221  1.00  0.00     0.134 A 
ATOM     87  F   UNL     1       2.324 -16.124  -3.131  1.00  0.00    -0.206 F 
ATOM     88  C   UNL     1       2.326 -18.387  -2.547  1.00  0.00     0.040 A 
ATOM     89  C   UNL     1       2.388 -20.081  -4.249  1.00  0.00     0.040 A 
ATOM     90  F   UNL     1       2.557 -19.474  -6.506  1.00  0.00    -0.206 F 
ATOM     91  C   UNL     1       2.311 -19.733  -2.905  1.00  0.00     0.006 A 
ENDBRANCH  67  84
ENDBRANCH  41  42
ENDBRANCH  33  36
ENDBRANCH  31  32
ENDBRANCH   1  31
TORSDOF 12
