REMARK SMILES C[C@@H]1CN(C(=O)Nc2ccc(O)c(C(=O)NCCCNC(=O)c3ccc(-c4c5nc(c(-c6c(F)cccc6F)c6ccc([nH]6)c(-c6c(F)cccc6F)c6nc(c(-c7c(F)cccc7F)c7ccc4[nH]7)C=C6)C=C5)cc3)c2)C[C@@H]1C
REMARK SMILES IDX 18 1 17 2 16 3 14 4 15 5 13 7 8 8 9 9 77 10 10 11 11 12 7 13
REMARK SMILES IDX 5 14 6 15 4 17 1 18 2 19 3 20 79 21 78 22 80 23 12 24 19 26
REMARK SMILES IDX 20 27 21 28 22 30 23 31 24 32 76 33 25 34 75 35 26 36 27 37
REMARK SMILES IDX 28 38 69 39 29 40 74 41 68 42 70 43 30 44 73 45 67 46 66 47
REMARK SMILES IDX 31 49 57 50 40 51 56 52 41 53 44 54 55 55 71 56 42 57 43 58
REMARK SMILES IDX 54 60 72 61 45 62 32 63 33 64 38 65 34 66 35 67 37 68 39 69
REMARK SMILES IDX 36 70 58 71 59 72 64 73 60 74 61 75 63 76 65 77 62 78 46 79
REMARK SMILES IDX 47 80 52 81 48 82 49 83 51 84 53 85 50 86
REMARK H PARENT 16 6 7 16 12 25 20 29 70 48 44 59
REMARK Flexibility Score: inf
ROOT
ATOM      1  C   UNL     1      -4.049   5.394   1.236  1.00  0.00     0.042 C 
ENDROOT
BRANCH   1   2
ATOM      2  C   UNL     1      -3.698   3.993   1.739  1.00  0.00     0.118 C 
BRANCH   2   3
ATOM      3  N   UNL     1      -4.833   3.097   1.640  1.00  0.00    -0.352 N 
ATOM      4  C   UNL     1      -5.171   2.128   0.734  1.00  0.00     0.255 C 
ATOM      5  O   UNL     1      -6.221   1.514   0.946  1.00  0.00    -0.269 OA
ATOM      6  H   UNL     1      -5.489   3.207   2.366  1.00  0.00     0.163 HD
BRANCH   4   7
ATOM      7  C   UNL     1      -4.333   1.697  -0.419  1.00  0.00     0.083 A 
ATOM      8  C   UNL     1      -3.577  -0.251  -1.679  1.00  0.00     0.043 A 
ATOM      9  C   UNL     1      -2.960   0.578  -2.608  1.00  0.00     0.030 A 
ATOM     10  C   UNL     1      -4.325   0.306  -0.642  1.00  0.00     0.044 A 
ATOM     11  C   UNL     1      -2.967   1.956  -2.416  1.00  0.00     0.049 A 
ATOM     12  C   UNL     1      -3.626   2.510  -1.312  1.00  0.00     0.128 A 
BRANCH   8  13
ATOM     13  N   UNL     1      -3.477  -1.641  -1.753  1.00  0.00    -0.308 N 
ATOM     14  C   UNL     1      -2.426  -2.450  -2.066  1.00  0.00     0.321 C 
ATOM     15  O   UNL     1      -2.685  -3.599  -2.434  1.00  0.00    -0.248 OA
ATOM     16  H   UNL     1      -4.311  -2.120  -1.543  1.00  0.00     0.171 HD
BRANCH  14  17
ATOM     17  N   UNL     1      -1.135  -2.048  -1.817  1.00  0.00    -0.324 N 
ATOM     18  C   UNL     1       1.384  -0.183   0.171  1.00  0.00     0.010 C 
ATOM     19  C   UNL     1       0.843  -1.030  -0.969  1.00  0.00     0.010 C 
ATOM     20  C   UNL     1      -0.656  -0.827  -1.177  1.00  0.00     0.125 C 
ATOM     21  C   UNL     1       0.970  -2.552  -0.843  1.00  0.00     0.010 C 
ATOM     22  C   UNL     1      -0.056  -3.027  -1.883  1.00  0.00     0.125 C 
ATOM     23  C   UNL     1       0.644  -3.094   0.550  1.00  0.00     0.010 C 
ENDBRANCH  14  17
ENDBRANCH   8  13
BRANCH  12  24
ATOM     24  O   UNL     1      -3.573   3.864  -1.180  1.00  0.00    -0.507 OA
ATOM     25  H   UNL     1      -3.090   4.376  -1.798  1.00  0.00     0.293 HD
ENDBRANCH  12  24
ENDBRANCH   4   7
ENDBRANCH   2   3
ENDBRANCH   1   2
BRANCH   1  26
ATOM     26  C   UNL     1      -4.979   6.179   2.154  1.00  0.00     0.118 C 
BRANCH  26  27
ATOM     27  N   UNL     1      -4.290   6.714   3.318  1.00  0.00    -0.352 N 
ATOM     28  C   UNL     1      -4.025   8.015   3.671  1.00  0.00     0.251 C 
ATOM     29  H   UNL     1      -3.963   6.037   3.954  1.00  0.00     0.163 HD
ATOM     30  O   UNL     1      -3.247   8.242   4.593  1.00  0.00    -0.269 OA
BRANCH  28  31
ATOM     31  C   UNL     1      -4.643   9.149   2.943  1.00  0.00     0.039 A 
ATOM     32  C   UNL     1      -3.856  10.271   2.659  1.00  0.00     0.014 A 
ATOM     33  C   UNL     1      -5.991   9.139   2.575  1.00  0.00     0.014 A 
ATOM     34  C   UNL     1      -4.396  11.343   1.943  1.00  0.00     0.010 A 
ATOM     35  C   UNL     1      -6.512  10.179   1.804  1.00  0.00     0.010 A 
ATOM     36  C   UNL     1      -5.718  11.287   1.474  1.00  0.00    -0.014 A 
BRANCH  36  37
ATOM     37  C   UNL     1      -6.275  12.356   0.606  1.00  0.00     0.031 A 
ATOM     38  C   UNL     1      -7.410  13.216   1.083  1.00  0.00     0.074 A 
ATOM     39  C   UNL     1      -5.807  12.497  -0.650  1.00  0.00     0.049 A 
ATOM     40  N   UNL     1      -8.086  14.129   0.431  1.00  0.00    -0.248 NA
ATOM     41  C   UNL     1      -7.857  13.011   2.469  1.00  0.00     0.031 C 
ATOM     42  C   UNL     1      -4.732  11.700  -1.245  1.00  0.00     0.029 A 
ATOM     43  N   UNL     1      -6.187  13.347  -1.658  1.00  0.00    -0.354 N 
ATOM     44  C   UNL     1      -9.045  14.597   1.321  1.00  0.00     0.074 A 
ATOM     45  C   UNL     1      -8.889  13.841   2.545  1.00  0.00     0.031 C 
ATOM     46  C   UNL     1      -4.532  12.106  -2.508  1.00  0.00     0.029 A 
ATOM     47  C   UNL     1      -5.489  13.161  -2.826  1.00  0.00     0.049 A 
ATOM     48  H   UNL     1      -6.892  14.026  -1.553  1.00  0.00     0.167 HD
ATOM     49  C   UNL     1      -9.961  15.578   1.137  1.00  0.00     0.037 A 
ATOM     50  C   UNL     1      -5.618  13.757  -4.026  1.00  0.00     0.037 A 
ATOM     51  C   UNL     1     -10.103  16.342  -0.075  1.00  0.00     0.049 A 
ATOM     52  C   UNL     1      -6.667  14.815  -4.216  1.00  0.00     0.074 A 
ATOM     53  C   UNL     1     -10.947  17.409  -0.329  1.00  0.00     0.029 A 
ATOM     54  N   UNL     1      -9.388  16.111  -1.241  1.00  0.00    -0.354 N 
ATOM     55  N   UNL     1      -7.522  15.293  -3.346  1.00  0.00    -0.248 NA
ATOM     56  C   UNL     1      -6.775  15.409  -5.556  1.00  0.00     0.031 C 
ATOM     57  C   UNL     1     -10.775  17.796  -1.663  1.00  0.00     0.029 A 
ATOM     58  C   UNL     1      -9.797  16.993  -2.228  1.00  0.00     0.049 A 
ATOM     59  H   UNL     1      -8.693  15.423  -1.351  1.00  0.00     0.167 HD
ATOM     60  C   UNL     1      -8.262  16.250  -4.027  1.00  0.00     0.074 A 
ATOM     61  C   UNL     1      -7.743  16.298  -5.378  1.00  0.00     0.031 C 
ATOM     62  C   UNL     1      -9.281  17.019  -3.573  1.00  0.00     0.037 A 
BRANCH  49  63
ATOM     63  C   UNL     1     -10.886  15.881   2.279  1.00  0.00     0.057 A 
ATOM     64  C   UNL     1     -10.440  16.532   3.437  1.00  0.00     0.134 A 
ATOM     65  C   UNL     1     -12.245  15.551   2.206  1.00  0.00     0.134 A 
ATOM     66  F   UNL     1      -9.149  16.868   3.573  1.00  0.00    -0.206 F 
ATOM     67  C   UNL     1     -11.308  16.820   4.492  1.00  0.00     0.040 A 
ATOM     68  C   UNL     1     -13.127  15.854   3.245  1.00  0.00     0.040 A 
ATOM     69  F   UNL     1     -12.739  14.933   1.123  1.00  0.00    -0.206 F 
ATOM     70  C   UNL     1     -12.657  16.486   4.395  1.00  0.00     0.006 A 
ENDBRANCH  49  63
BRANCH  50  71
ATOM     71  C   UNL     1      -4.725  13.365  -5.144  1.00  0.00     0.057 A 
ATOM     72  C   UNL     1      -3.712  14.221  -5.588  1.00  0.00     0.134 A 
ATOM     73  C   UNL     1      -4.853  12.127  -5.784  1.00  0.00     0.134 A 
ATOM     74  F   UNL     1      -3.554  15.428  -5.026  1.00  0.00    -0.206 F 
ATOM     75  C   UNL     1      -2.861  13.864  -6.635  1.00  0.00     0.040 A 
ATOM     76  C   UNL     1      -3.996  11.748  -6.818  1.00  0.00     0.040 A 
ATOM     77  F   UNL     1      -5.801  11.260  -5.399  1.00  0.00    -0.206 F 
ATOM     78  C   UNL     1      -2.998  12.620  -7.249  1.00  0.00     0.006 A 
ENDBRANCH  50  71
BRANCH  62  79
ATOM     79  C   UNL     1      -9.902  17.975  -4.546  1.00  0.00     0.057 A 
ATOM     80  C   UNL     1     -10.763  17.532  -5.558  1.00  0.00     0.134 A 
ATOM     81  C   UNL     1      -9.669  19.352  -4.448  1.00  0.00     0.134 A 
ATOM     82  F   UNL     1     -11.012  16.224  -5.714  1.00  0.00    -0.206 F 
ATOM     83  C   UNL     1     -11.361  18.427  -6.447  1.00  0.00     0.040 A 
ATOM     84  C   UNL     1     -10.278  20.258  -5.317  1.00  0.00     0.040 A 
ATOM     85  F   UNL     1      -8.858  19.840  -3.497  1.00  0.00    -0.206 F 
ATOM     86  C   UNL     1     -11.124  19.794  -6.323  1.00  0.00     0.006 A 
ENDBRANCH  62  79
ENDBRANCH  36  37
ENDBRANCH  28  31
ENDBRANCH  26  27
ENDBRANCH   1  26
TORSDOF 13
