REMARK SMILES C[C@](C(=O)NCCCNC(=O)c1ccc(-c2c3nc(c(-c4c(F)cccc4F)c4ccc([nH]4)c(-c4c(F)cccc4F)c4nc(c(-c5c(F)cccc5F)c5ccc2[nH]5)C=C4)C=C3)cc1)(c1cc(F)cc(F)c1)[NH+]1CCCC1
REMARK SMILES IDX 7 1 6 2 5 3 3 4 4 5 2 7 1 8 66 9 67 10 73 11 68 12 71 13
REMARK SMILES IDX 69 14 70 15 72 16 74 17 75 18 78 19 76 21 77 22 8 23 9 24
REMARK SMILES IDX 10 25 11 27 12 28 13 29 65 30 14 31 64 32 15 33 16 34 17 35
REMARK SMILES IDX 58 36 18 37 63 38 57 39 59 40 19 41 62 42 56 43 55 44 20 46
REMARK SMILES IDX 46 47 29 48 45 49 30 50 33 51 44 52 60 53 31 54 32 55 43 57
REMARK SMILES IDX 61 58 34 59 21 60 22 61 27 62 23 63 24 64 26 65 28 66 25 67
REMARK SMILES IDX 47 68 48 69 53 70 49 71 50 72 52 73 54 74 51 75 35 76 36 77
REMARK SMILES IDX 41 78 37 79 38 80 40 81 42 82 39 83
REMARK H PARENT 5 6 74 20 9 26 59 45 33 56
REMARK Flexibility Score: inf
ROOT
ATOM      1  C   UNL     1      -1.561   2.995  -0.140  1.00  0.00     0.042 C 
ENDROOT
BRANCH   1   2
ATOM      2  C   UNL     1      -0.287   2.420  -0.705  1.00  0.00     0.118 C 
BRANCH   2   3
ATOM      3  N   UNL     1       0.315   1.405   0.140  1.00  0.00    -0.350 N 
ATOM      4  C   UNL     1       0.818   0.159  -0.079  1.00  0.00     0.286 C 
ATOM      5  O   UNL     1       1.535  -0.224   0.862  1.00  0.00    -0.267 OA
ATOM      6  H   UNL     1       0.373   1.680   1.083  1.00  0.00     0.163 HD
BRANCH   4   7
ATOM      7  C   UNL     1       0.541  -0.790  -1.337  1.00  0.00     0.200 C 
ATOM      8  C   UNL     1       1.126  -2.170  -0.842  1.00  0.00     0.096 C 
BRANCH   7   9
ATOM      9  C   UNL     1      -1.018  -1.022  -1.519  1.00  0.00     0.028 A 
ATOM     10  C   UNL     1      -1.885  -0.042  -2.022  1.00  0.00     0.050 A 
ATOM     11  C   UNL     1      -1.667  -2.197  -1.064  1.00  0.00     0.050 A 
ATOM     12  C   UNL     1      -3.275  -0.117  -1.835  1.00  0.00     0.126 A 
ATOM     13  C   UNL     1      -3.059  -2.293  -0.956  1.00  0.00     0.126 A 
ATOM     14  F   UNL     1      -4.036   0.933  -2.173  1.00  0.00    -0.207 F 
ATOM     15  C   UNL     1      -3.873  -1.230  -1.278  1.00  0.00     0.078 A 
ATOM     16  F   UNL     1      -3.602  -3.427  -0.492  1.00  0.00    -0.207 F 
ENDBRANCH   7   9
BRANCH   7  17
ATOM     17  N   UNL     1       1.257  -0.380  -2.622  1.00  0.00    -0.319 N 
ATOM     18  C   UNL     1       2.503  -1.104  -2.968  1.00  0.00     0.263 C 
ATOM     19  C   UNL     1       1.672   1.022  -2.812  1.00  0.00     0.263 C 
ATOM     20  H   UNL     1       0.457  -0.617  -3.209  1.00  0.00     0.349 HD
ATOM     21  C   UNL     1       3.615  -0.275  -2.351  1.00  0.00     0.067 C 
ATOM     22  C   UNL     1       3.196   1.114  -2.758  1.00  0.00     0.067 C 
ENDBRANCH   7  17
ENDBRANCH   4   7
ENDBRANCH   2   3
ENDBRANCH   1   2
BRANCH   1  23
ATOM     23  C   UNL     1      -1.257   3.983   0.969  1.00  0.00     0.118 C 
BRANCH  23  24
ATOM     24  N   UNL     1      -0.565   5.175   0.471  1.00  0.00    -0.352 N 
ATOM     25  C   UNL     1      -1.047   6.429   0.174  1.00  0.00     0.251 C 
ATOM     26  H   UNL     1       0.401   5.060   0.325  1.00  0.00     0.163 HD
ATOM     27  O   UNL     1      -0.374   7.209  -0.484  1.00  0.00    -0.269 OA
BRANCH  25  28
ATOM     28  C   UNL     1      -2.389   6.814   0.648  1.00  0.00     0.039 A 
ATOM     29  C   UNL     1      -3.226   7.577  -0.168  1.00  0.00     0.014 A 
ATOM     30  C   UNL     1      -2.824   6.395   1.903  1.00  0.00     0.014 A 
ATOM     31  C   UNL     1      -4.531   7.840   0.252  1.00  0.00     0.010 A 
ATOM     32  C   UNL     1      -4.159   6.512   2.241  1.00  0.00     0.010 A 
ATOM     33  C   UNL     1      -5.021   7.266   1.437  1.00  0.00    -0.014 A 
BRANCH  33  34
ATOM     34  C   UNL     1      -6.416   7.470   1.894  1.00  0.00     0.031 A 
ATOM     35  C   UNL     1      -6.672   8.073   3.250  1.00  0.00     0.074 A 
ATOM     36  C   UNL     1      -7.438   7.035   1.133  1.00  0.00     0.049 A 
ATOM     37  N   UNL     1      -7.806   8.241   3.880  1.00  0.00    -0.248 NA
ATOM     38  C   UNL     1      -5.493   8.503   4.025  1.00  0.00     0.031 C 
ATOM     39  C   UNL     1      -7.310   6.367  -0.164  1.00  0.00     0.029 A 
ATOM     40  N   UNL     1      -8.792   7.083   1.348  1.00  0.00    -0.354 N 
ATOM     41  C   UNL     1      -7.471   8.762   5.123  1.00  0.00     0.074 A 
ATOM     42  C   UNL     1      -6.030   8.813   5.193  1.00  0.00     0.031 C 
ATOM     43  C   UNL     1      -8.534   6.104  -0.647  1.00  0.00     0.029 A 
ATOM     44  C   UNL     1      -9.530   6.538   0.325  1.00  0.00     0.049 A 
ATOM     45  H   UNL     1      -9.196   7.470   2.158  1.00  0.00     0.167 HD
ATOM     46  C   UNL     1      -8.293   9.195   6.107  1.00  0.00     0.037 A 
ATOM     47  C   UNL     1     -10.863   6.402   0.193  1.00  0.00     0.037 A 
ATOM     48  C   UNL     1      -9.726   9.185   6.008  1.00  0.00     0.049 A 
ATOM     49  C   UNL     1     -11.756   6.913   1.288  1.00  0.00     0.074 A 
ATOM     50  C   UNL     1     -10.654   9.673   6.910  1.00  0.00     0.029 A 
ATOM     51  N   UNL     1     -10.438   8.662   4.939  1.00  0.00    -0.354 N 
ATOM     52  N   UNL     1     -11.429   7.477   2.427  1.00  0.00    -0.248 NA
ATOM     53  C   UNL     1     -13.204   6.780   1.078  1.00  0.00     0.031 C 
ATOM     54  C   UNL     1     -11.930   9.396   6.410  1.00  0.00     0.029 A 
ATOM     55  C   UNL     1     -11.796   8.792   5.170  1.00  0.00     0.049 A 
ATOM     56  H   UNL     1     -10.037   8.257   4.136  1.00  0.00     0.167 HD
ATOM     57  C   UNL     1     -12.627   7.788   3.056  1.00  0.00     0.074 A 
ATOM     58  C   UNL     1     -13.688   7.366   2.163  1.00  0.00     0.031 C 
ATOM     59  C   UNL     1     -12.834   8.369   4.263  1.00  0.00     0.037 A 
BRANCH  46  60
ATOM     60  C   UNL     1      -7.660   9.726   7.361  1.00  0.00     0.057 A 
ATOM     61  C   UNL     1      -6.936  10.926   7.378  1.00  0.00     0.134 A 
ATOM     62  C   UNL     1      -7.805   9.045   8.576  1.00  0.00     0.134 A 
ATOM     63  F   UNL     1      -6.744  11.621   6.246  1.00  0.00    -0.206 F 
ATOM     64  C   UNL     1      -6.356  11.415   8.550  1.00  0.00     0.040 A 
ATOM     65  C   UNL     1      -7.257   9.540   9.761  1.00  0.00     0.040 A 
ATOM     66  F   UNL     1      -8.487   7.891   8.633  1.00  0.00    -0.206 F 
ATOM     67  C   UNL     1      -6.525  10.725   9.748  1.00  0.00     0.006 A 
ENDBRANCH  46  60
BRANCH  47  68
ATOM     68  C   UNL     1     -11.427   5.779  -1.031  1.00  0.00     0.057 A 
ATOM     69  C   UNL     1     -12.141   6.538  -1.966  1.00  0.00     0.134 A 
ATOM     70  C   UNL     1     -11.261   4.415  -1.302  1.00  0.00     0.134 A 
ATOM     71  F   UNL     1     -12.347   7.847  -1.757  1.00  0.00    -0.206 F 
ATOM     72  C   UNL     1     -12.688   5.961  -3.114  1.00  0.00     0.040 A 
ATOM     73  C   UNL     1     -11.778   3.831  -2.459  1.00  0.00     0.040 A 
ATOM     74  F   UNL     1     -10.576   3.635  -0.453  1.00  0.00    -0.206 F 
ATOM     75  C   UNL     1     -12.501   4.603  -3.365  1.00  0.00     0.006 A 
ENDBRANCH  47  68
BRANCH  59  76
ATOM     76  C   UNL     1     -14.255   8.615   4.673  1.00  0.00     0.057 A 
ATOM     77  C   UNL     1     -15.114   7.570   5.035  1.00  0.00     0.134 A 
ATOM     78  C   UNL     1     -14.754   9.922   4.754  1.00  0.00     0.134 A 
ATOM     79  F   UNL     1     -14.700   6.296   4.970  1.00  0.00    -0.206 F 
ATOM     80  C   UNL     1     -16.427   7.814   5.439  1.00  0.00     0.040 A 
ATOM     81  C   UNL     1     -16.055  10.181   5.187  1.00  0.00     0.040 A 
ATOM     82  F   UNL     1     -13.979  10.969   4.434  1.00  0.00    -0.206 F 
ATOM     83  C   UNL     1     -16.898   9.124   5.523  1.00  0.00     0.006 A 
ENDBRANCH  59  76
ENDBRANCH  33  34
ENDBRANCH  25  28
ENDBRANCH  23  24
ENDBRANCH   1  23
TORSDOF 12
