REMARK SMILES O=C(NCCCNC(=O)[C@H]1C=C[C@H](NS(=O)(=O)c2ccc3c(c2)CCO3)C1)c1ccc(-c2c3nc(c(-c4c(F)cccc4F)c4ccc([nH]4)c(-c4c(F)cccc4F)c4nc(c(-c5c(F)cccc5F)c5ccc2[nH]5)C=C4)C=C3)cc1
REMARK SMILES IDX 5 1 4 2 3 3 1 4 2 5 28 7 29 8 81 9 30 10 80 11 31 12 32 13
REMARK SMILES IDX 33 14 74 15 34 16 79 17 73 18 75 19 35 20 78 21 72 22 71 23
REMARK SMILES IDX 36 25 62 26 45 27 61 28 46 29 49 30 60 31 76 32 47 33 48 34
REMARK SMILES IDX 59 36 77 37 50 38 37 39 38 40 43 41 39 42 40 43 42 44 44 45
REMARK SMILES IDX 41 46 63 47 64 48 69 49 65 50 66 51 68 52 70 53 67 54 51 55
REMARK SMILES IDX 52 56 57 57 53 58 54 59 56 60 58 61 55 62 6 63 7 64 8 65
REMARK SMILES IDX 9 67 10 68 11 69 27 70 12 71 13 72 14 73 15 75 16 76 17 77
REMARK SMILES IDX 18 78 19 79 23 80 20 81 22 82 21 83 24 84 26 85 25 86
REMARK H PARENT 3 6 75 24 49 35 7 66 14 74
REMARK Flexibility Score: inf
ROOT
ATOM      1  C   UNL     1       4.694  -0.555   2.339  1.00  0.00     0.042 C 
ENDROOT
BRANCH   1   2
ATOM      2  C   UNL     1       4.470  -0.973   0.890  1.00  0.00     0.118 C 
BRANCH   2   3
ATOM      3  N   UNL     1       3.055  -1.037   0.552  1.00  0.00    -0.352 N 
ATOM      4  O   UNL     1       1.078  -0.302  -0.221  1.00  0.00    -0.269 OA
ATOM      5  C   UNL     1       2.303  -0.234  -0.266  1.00  0.00     0.251 C 
ATOM      6  H   UNL     1       2.560  -1.773   0.980  1.00  0.00     0.163 HD
BRANCH   5   7
ATOM      7  C   UNL     1       2.951   0.709  -1.201  1.00  0.00     0.039 A 
ATOM      8  C   UNL     1       4.068   0.329  -1.950  1.00  0.00     0.014 A 
ATOM      9  C   UNL     1       2.380   1.971  -1.386  1.00  0.00     0.014 A 
ATOM     10  C   UNL     1       4.678   1.243  -2.804  1.00  0.00     0.010 A 
ATOM     11  C   UNL     1       2.950   2.864  -2.294  1.00  0.00     0.010 A 
ATOM     12  C   UNL     1       4.114   2.513  -2.995  1.00  0.00    -0.014 A 
BRANCH  12  13
ATOM     13  C   UNL     1       4.705   3.449  -3.979  1.00  0.00     0.031 A 
ATOM     14  C   UNL     1       5.331   4.736  -3.530  1.00  0.00     0.074 A 
ATOM     15  C   UNL     1       4.639   3.146  -5.289  1.00  0.00     0.049 A 
ATOM     16  N   UNL     1       5.816   5.713  -4.253  1.00  0.00    -0.248 NA
ATOM     17  C   UNL     1       5.412   4.960  -2.079  1.00  0.00     0.031 C 
ATOM     18  C   UNL     1       4.044   1.929  -5.843  1.00  0.00     0.029 A 
ATOM     19  N   UNL     1       5.062   3.843  -6.391  1.00  0.00    -0.354 N 
ATOM     20  C   UNL     1       6.236   6.679  -3.349  1.00  0.00     0.074 A 
ATOM     21  C   UNL     1       5.934   6.178  -2.025  1.00  0.00     0.031 C 
ATOM     22  C   UNL     1       4.142   1.962  -7.180  1.00  0.00     0.029 A 
ATOM     23  C   UNL     1       4.758   3.223  -7.577  1.00  0.00     0.049 A 
ATOM     24  H   UNL     1       5.537   4.704  -6.337  1.00  0.00     0.167 HD
ATOM     25  C   UNL     1       6.822   7.873  -3.604  1.00  0.00     0.037 A 
ATOM     26  C   UNL     1       4.926   3.636  -8.847  1.00  0.00     0.037 A 
ATOM     27  C   UNL     1       7.133   8.357  -4.924  1.00  0.00     0.049 A 
ATOM     28  C   UNL     1       5.559   4.970  -9.106  1.00  0.00     0.074 A 
ATOM     29  C   UNL     1       7.775   9.529  -5.285  1.00  0.00     0.029 A 
ATOM     30  N   UNL     1       6.817   7.695  -6.102  1.00  0.00    -0.354 N 
ATOM     31  N   UNL     1       5.988   5.858  -8.243  1.00  0.00    -0.248 NA
ATOM     32  C   UNL     1       5.730   5.362 -10.511  1.00  0.00     0.031 C 
ATOM     33  C   UNL     1       7.811   9.595  -6.682  1.00  0.00     0.029 A 
ATOM     34  C   UNL     1       7.228   8.446  -7.191  1.00  0.00     0.049 A 
ATOM     35  H   UNL     1       6.367   6.821  -6.155  1.00  0.00     0.167 HD
ATOM     36  C   UNL     1       6.495   6.907  -8.996  1.00  0.00     0.074 A 
ATOM     37  C   UNL     1       6.326   6.541 -10.388  1.00  0.00     0.031 C 
ATOM     38  C   UNL     1       7.053   8.065  -8.570  1.00  0.00     0.037 A 
BRANCH  25  39
ATOM     39  C   UNL     1       7.141   8.748  -2.429  1.00  0.00     0.057 A 
ATOM     40  C   UNL     1       8.188   8.455  -1.546  1.00  0.00     0.134 A 
ATOM     41  C   UNL     1       6.398   9.911  -2.187  1.00  0.00     0.134 A 
ATOM     42  F   UNL     1       8.929   7.349  -1.714  1.00  0.00    -0.206 F 
ATOM     43  C   UNL     1       8.468   9.272  -0.449  1.00  0.00     0.040 A 
ATOM     44  C   UNL     1       6.683  10.748  -1.107  1.00  0.00     0.040 A 
ATOM     45  F   UNL     1       5.385  10.253  -2.997  1.00  0.00    -0.206 F 
ATOM     46  C   UNL     1       7.716  10.425  -0.230  1.00  0.00     0.006 A 
ENDBRANCH  25  39
BRANCH  26  47
ATOM     47  C   UNL     1       4.466   2.767  -9.955  1.00  0.00     0.057 A 
ATOM     48  C   UNL     1       5.376   2.053 -10.740  1.00  0.00     0.134 A 
ATOM     49  C   UNL     1       3.102   2.580 -10.211  1.00  0.00     0.134 A 
ATOM     50  F   UNL     1       6.695   2.202 -10.548  1.00  0.00    -0.206 F 
ATOM     51  C   UNL     1       4.947   1.182 -11.742  1.00  0.00     0.040 A 
ATOM     52  C   UNL     1       2.658   1.697 -11.195  1.00  0.00     0.040 A 
ATOM     53  F   UNL     1       2.182   3.230  -9.482  1.00  0.00    -0.206 F 
ATOM     54  C   UNL     1       3.583   0.995 -11.965  1.00  0.00     0.006 A 
ENDBRANCH  26  47
BRANCH  38  55
ATOM     55  C   UNL     1       7.548   9.014  -9.619  1.00  0.00     0.057 A 
ATOM     56  C   UNL     1       6.671   9.822 -10.351  1.00  0.00     0.134 A 
ATOM     57  C   UNL     1       8.921   9.161  -9.854  1.00  0.00     0.134 A 
ATOM     58  F   UNL     1       5.345   9.716 -10.180  1.00  0.00    -0.206 F 
ATOM     59  C   UNL     1       7.144  10.742 -11.288  1.00  0.00     0.040 A 
ATOM     60  C   UNL     1       9.405  10.091 -10.774  1.00  0.00     0.040 A 
ATOM     61  F   UNL     1       9.811   8.418  -9.179  1.00  0.00    -0.206 F 
ATOM     62  C   UNL     1       8.515  10.884 -11.495  1.00  0.00     0.006 A 
ENDBRANCH  38  55
ENDBRANCH  12  13
ENDBRANCH   5   7
ENDBRANCH   2   3
ENDBRANCH   1   2
BRANCH   1  63
ATOM     63  C   UNL     1       4.150  -1.560   3.346  1.00  0.00     0.117 C 
BRANCH  63  64
ATOM     64  N   UNL     1       4.880  -2.812   3.316  1.00  0.00    -0.356 N 
ATOM     65  C   UNL     1       5.823  -3.325   4.149  1.00  0.00     0.226 C 
ATOM     66  H   UNL     1       4.652  -3.395   2.557  1.00  0.00     0.163 HD
ATOM     67  O   UNL     1       6.367  -4.375   3.795  1.00  0.00    -0.274 OA
BRANCH  65  68
ATOM     68  C   UNL     1       6.206  -2.675   5.481  1.00  0.00     0.103 C 
ATOM     69  C   UNL     1       6.870  -1.340   5.377  1.00  0.00    -0.016 C 
ATOM     70  C   UNL     1       5.032  -2.446   6.441  1.00  0.00     0.042 C 
ATOM     71  C   UNL     1       6.258  -0.420   6.130  1.00  0.00    -0.011 C 
ATOM     72  C   UNL     1       5.036  -0.949   6.798  1.00  0.00     0.093 C 
BRANCH  72  73
ATOM     73  N   UNL     1       5.134  -0.793   8.235  1.00  0.00    -0.204 NA
ATOM     74  H   UNL     1       6.128  -0.731   8.457  1.00  0.00     0.142 HD
BRANCH  73  75
ATOM     75  S   UNL     1       4.390   0.501   8.988  1.00  0.00     0.241 S 
ATOM     76  O   UNL     1       4.833   0.465  10.364  1.00  0.00    -0.207 OA
ATOM     77  O   UNL     1       4.578   1.664   8.151  1.00  0.00    -0.207 OA
BRANCH  75  78
ATOM     78  C   UNL     1       2.652   0.123   8.995  1.00  0.00     0.083 A 
ATOM     79  C   UNL     1       2.158  -1.115   8.540  1.00  0.00     0.025 A 
ATOM     80  C   UNL     1       1.779   1.135   9.421  1.00  0.00     0.029 A 
ATOM     81  C   UNL     1       0.779  -1.339   8.474  1.00  0.00     0.048 A 
ATOM     82  C   UNL     1       0.420   0.876   9.383  1.00  0.00    -0.001 A 
ATOM     83  C   UNL     1      -0.061  -0.333   8.906  1.00  0.00     0.122 A 
ATOM     84  C   UNL     1      -0.721   1.754   9.726  1.00  0.00     0.081 C 
ATOM     85  O   UNL     1      -1.428  -0.416   8.895  1.00  0.00    -0.493 OA
ATOM     86  C   UNL     1      -1.843   0.714   9.698  1.00  0.00     0.234 C 
ENDBRANCH  75  78
ENDBRANCH  73  75
ENDBRANCH  72  73
ENDBRANCH  65  68
ENDBRANCH  63  64
ENDBRANCH   1  63
TORSDOF 13
