REMARK SMILES O=C(NCCCNC(=O)c1ccc2c(c1)[C@@H](C1CCOCC1)C(=O)N2)c1ccc(-c2c3nc(c(-c4c(F)cccc4F)c4ccc([nH]4)c(-c4c(F)cccc4F)c4nc(c(-c5c(F)cccc5F)c5ccc2[nH]5)C=C4)C=C3)cc1
REMARK SMILES IDX 4 1 3 2 1 3 2 4 26 6 27 7 79 8 28 9 78 10 29 11 30 12 31 13
REMARK SMILES IDX 72 14 32 15 77 16 71 17 73 18 33 19 76 20 70 21 69 22 34 24
REMARK SMILES IDX 60 25 43 26 59 27 44 28 47 29 58 30 74 31 45 32 46 33 57 35
REMARK SMILES IDX 75 36 48 37 35 38 36 39 41 40 37 41 38 42 40 43 42 44 39 45
REMARK SMILES IDX 61 46 62 47 67 48 63 49 64 50 66 51 68 52 65 53 49 54 50 55
REMARK SMILES IDX 55 56 51 57 52 58 54 59 56 60 53 61 5 62 6 63 7 64 8 65 9 67
REMARK SMILES IDX 10 68 11 69 15 70 12 71 14 72 13 73 16 74 25 75 23 76 24 78
REMARK SMILES IDX 17 79 18 80 22 81 19 82 21 83 20 84
REMARK H PARENT 3 5 73 23 47 34 7 66 25 77
REMARK Flexibility Score: inf
ROOT
ATOM      1  C   UNL     1       4.429   0.532  -1.361  1.00  0.00     0.118 C 
ENDROOT
BRANCH   1   2
ATOM      2  N   UNL     1       2.998   0.557  -1.081  1.00  0.00    -0.352 N 
ATOM      3  O   UNL     1       1.067   0.073  -0.025  1.00  0.00    -0.269 OA
ATOM      4  C   UNL     1       2.293   0.116   0.015  1.00  0.00     0.251 C 
ATOM      5  H   UNL     1       2.446   0.955  -1.792  1.00  0.00     0.163 HD
BRANCH   4   6
ATOM      6  C   UNL     1       3.009  -0.328   1.229  1.00  0.00     0.039 A 
ATOM      7  C   UNL     1       4.133   0.363   1.679  1.00  0.00     0.014 A 
ATOM      8  C   UNL     1       2.550  -1.445   1.935  1.00  0.00     0.014 A 
ATOM      9  C   UNL     1       4.910  -0.172   2.694  1.00  0.00     0.010 A 
ATOM     10  C   UNL     1       3.263  -1.906   3.047  1.00  0.00     0.010 A 
ATOM     11  C   UNL     1       4.471  -1.295   3.414  1.00  0.00    -0.014 A 
BRANCH  11  12
ATOM     12  C   UNL     1       5.268  -1.741   4.585  1.00  0.00     0.031 A 
ATOM     13  C   UNL     1       5.897  -3.105   4.638  1.00  0.00     0.074 A 
ATOM     14  C   UNL     1       5.471  -0.862   5.588  1.00  0.00     0.049 A 
ATOM     15  N   UNL     1       6.663  -3.620   5.569  1.00  0.00    -0.248 NA
ATOM     16  C   UNL     1       5.633  -4.013   3.512  1.00  0.00     0.031 C 
ATOM     17  C   UNL     1       4.898   0.486   5.654  1.00  0.00     0.029 A 
ATOM     18  N   UNL     1       6.232  -0.951   6.724  1.00  0.00    -0.354 N 
ATOM     19  C   UNL     1       6.969  -4.907   5.144  1.00  0.00     0.074 A 
ATOM     20  C   UNL     1       6.271  -5.112   3.892  1.00  0.00     0.031 C 
ATOM     21  C   UNL     1       5.372   1.116   6.736  1.00  0.00     0.029 A 
ATOM     22  C   UNL     1       6.216   0.194   7.484  1.00  0.00     0.049 A 
ATOM     23  H   UNL     1       6.740  -1.757   6.972  1.00  0.00     0.167 HD
ATOM     24  C   UNL     1       7.769  -5.825   5.738  1.00  0.00     0.037 A 
ATOM     25  C   UNL     1       6.795   0.468   8.666  1.00  0.00     0.037 A 
ATOM     26  C   UNL     1       8.457  -5.616   6.988  1.00  0.00     0.049 A 
ATOM     27  C   UNL     1       7.637  -0.587   9.320  1.00  0.00     0.074 A 
ATOM     28  C   UNL     1       9.292  -6.484   7.671  1.00  0.00     0.029 A 
ATOM     29  N   UNL     1       8.386  -4.456   7.747  1.00  0.00    -0.354 N 
ATOM     30  N   UNL     1       7.937  -1.789   8.892  1.00  0.00    -0.248 NA
ATOM     31  C   UNL     1       8.223  -0.248  10.623  1.00  0.00     0.031 C 
ATOM     32  C   UNL     1       9.687  -5.869   8.863  1.00  0.00     0.029 A 
ATOM     33  C   UNL     1       9.148  -4.594   8.897  1.00  0.00     0.049 A 
ATOM     34  H   UNL     1       7.871  -3.653   7.504  1.00  0.00     0.167 HD
ATOM     35  C   UNL     1       8.761  -2.342   9.861  1.00  0.00     0.074 A 
ATOM     36  C   UNL     1       8.938  -1.332  10.884  1.00  0.00     0.031 C 
ATOM     37  C   UNL     1       9.317  -3.578   9.905  1.00  0.00     0.037 A 
BRANCH  24  38
ATOM     38  C   UNL     1       7.945  -7.149   5.047  1.00  0.00     0.057 A 
ATOM     39  C   UNL     1       8.678  -7.270   3.859  1.00  0.00     0.134 A 
ATOM     40  C   UNL     1       7.427  -8.325   5.606  1.00  0.00     0.134 A 
ATOM     41  F   UNL     1       9.193  -6.184   3.264  1.00  0.00    -0.206 F 
ATOM     42  C   UNL     1       8.873  -8.508   3.242  1.00  0.00     0.040 A 
ATOM     43  C   UNL     1       7.638  -9.572   5.013  1.00  0.00     0.040 A 
ATOM     44  F   UNL     1       6.723  -8.285   6.747  1.00  0.00    -0.206 F 
ATOM     45  C   UNL     1       8.359  -9.665   3.824  1.00  0.00     0.006 A 
ENDBRANCH  24  38
BRANCH  25  46
ATOM     46  C   UNL     1       6.570   1.783   9.318  1.00  0.00     0.057 A 
ATOM     47  C   UNL     1       7.615   2.693   9.509  1.00  0.00     0.134 A 
ATOM     48  C   UNL     1       5.301   2.153   9.782  1.00  0.00     0.134 A 
ATOM     49  F   UNL     1       8.856   2.392   9.100  1.00  0.00    -0.206 F 
ATOM     50  C   UNL     1       7.414   3.908  10.166  1.00  0.00     0.040 A 
ATOM     51  C   UNL     1       5.078   3.380  10.407  1.00  0.00     0.040 A 
ATOM     52  F   UNL     1       4.252   1.332   9.618  1.00  0.00    -0.206 F 
ATOM     53  C   UNL     1       6.141   4.256  10.612  1.00  0.00     0.006 A 
ENDBRANCH  25  46
BRANCH  37  54
ATOM     54  C   UNL     1      10.198  -3.883  11.082  1.00  0.00     0.057 A 
ATOM     55  C   UNL     1       9.682  -4.038  12.376  1.00  0.00     0.134 A 
ATOM     56  C   UNL     1      11.581  -4.027  10.916  1.00  0.00     0.134 A 
ATOM     57  F   UNL     1       8.368  -3.896  12.606  1.00  0.00    -0.206 F 
ATOM     58  C   UNL     1      10.515  -4.289  13.467  1.00  0.00     0.040 A 
ATOM     59  C   UNL     1      12.420  -4.310  11.995  1.00  0.00     0.040 A 
ATOM     60  F   UNL     1      12.140  -3.899   9.703  1.00  0.00    -0.206 F 
ATOM     61  C   UNL     1      11.888  -4.431  13.277  1.00  0.00     0.006 A 
ENDBRANCH  37  54
ENDBRANCH  11  12
ENDBRANCH   4   6
ENDBRANCH   1   2
BRANCH   1  62
ATOM     62  C   UNL     1       4.796  -0.424  -2.483  1.00  0.00     0.042 C 
BRANCH  62  63
ATOM     63  C   UNL     1       4.224  -0.021  -3.831  1.00  0.00     0.118 C 
BRANCH  63  64
ATOM     64  N   UNL     1       4.753   1.254  -4.295  1.00  0.00    -0.352 N 
ATOM     65  C   UNL     1       5.680   1.515  -5.273  1.00  0.00     0.251 C 
ATOM     66  H   UNL     1       4.392   2.048  -3.838  1.00  0.00     0.163 HD
ATOM     67  O   UNL     1       6.168   2.635  -5.381  1.00  0.00    -0.269 OA
BRANCH  65  68
ATOM     68  C   UNL     1       6.110   0.434  -6.182  1.00  0.00     0.040 A 
ATOM     69  C   UNL     1       5.150  -0.369  -6.836  1.00  0.00     0.016 A 
ATOM     70  C   UNL     1       7.483   0.227  -6.375  1.00  0.00     0.020 A 
ATOM     71  C   UNL     1       5.545  -1.460  -7.606  1.00  0.00     0.027 A 
ATOM     72  C   UNL     1       7.864  -0.850  -7.155  1.00  0.00    -0.011 A 
ATOM     73  C   UNL     1       6.899  -1.676  -7.736  1.00  0.00     0.045 A 
ATOM     74  C   UNL     1       9.241  -1.358  -7.519  1.00  0.00     0.114 C 
ATOM     75  N   UNL     1       7.511  -2.703  -8.429  1.00  0.00    -0.325 N 
ATOM     76  C   UNL     1       8.892  -2.606  -8.369  1.00  0.00     0.232 C 
ATOM     77  H   UNL     1       7.026  -3.414  -8.906  1.00  0.00     0.169 HD
ATOM     78  O   UNL     1       9.666  -3.370  -8.925  1.00  0.00    -0.274 OA
BRANCH  74  79
ATOM     79  C   UNL     1      10.156  -1.629  -6.307  1.00  0.00     0.010 C 
ATOM     80  C   UNL     1      11.549  -2.125  -6.732  1.00  0.00     0.033 C 
ATOM     81  C   UNL     1       9.554  -2.598  -5.273  1.00  0.00     0.033 C 
ATOM     82  C   UNL     1      12.419  -2.439  -5.521  1.00  0.00     0.160 C 
ATOM     83  C   UNL     1      10.544  -2.868  -4.145  1.00  0.00     0.160 C 
ATOM     84  O   UNL     1      11.771  -3.374  -4.661  1.00  0.00    -0.381 OA
ENDBRANCH  74  79
ENDBRANCH  65  68
ENDBRANCH  63  64
ENDBRANCH  62  63
ENDBRANCH   1  62
TORSDOF 11
