REMARK SMILES Cc1ccc2c(c1)OCCN2c1sc(C(=O)NCCCNC(=O)c2ccc(-c3c4nc(c(-c5c(F)cccc5F)c5ccc([nH]5)c(-c5c(F)cccc5F)c5nc(c(-c6c(F)cccc6F)c6ccc3[nH]6)C=C5)C=C4)cc2)cc1C
REMARK SMILES IDX 19 1 18 2 17 3 15 4 16 5 14 7 12 8 13 9 79 10 78 11 80 12
REMARK SMILES IDX 11 13 1 14 2 15 3 16 7 17 4 18 6 19 5 20 8 21 9 22 10 23
REMARK SMILES IDX 20 24 21 25 22 26 23 28 24 29 25 30 77 31 26 32 76 33 27 34
REMARK SMILES IDX 28 35 29 36 70 37 30 38 75 39 69 40 71 41 31 42 74 43 68 44
REMARK SMILES IDX 67 45 32 47 58 48 41 49 57 50 42 51 45 52 56 53 72 54 43 55
REMARK SMILES IDX 44 56 55 58 73 59 46 60 33 61 34 62 39 63 35 64 36 65 38 66
REMARK SMILES IDX 40 67 37 68 59 69 60 70 65 71 61 72 62 73 64 74 66 75 63 76
REMARK SMILES IDX 47 77 48 78 53 79 49 80 50 81 52 82 54 83 51 84
REMARK H PARENT 17 6 21 27 71 46 45 57
REMARK Flexibility Score: inf
ROOT
ATOM      1  C   UNL     1      -2.194   3.281   7.674  1.00  0.00     0.042 C 
ENDROOT
BRANCH   1   2
ATOM      2  C   UNL     1      -3.222   3.011   6.580  1.00  0.00     0.118 C 
BRANCH   2   3
ATOM      3  N   UNL     1      -4.188   4.089   6.490  1.00  0.00    -0.351 N 
ATOM      4  C   UNL     1      -4.327   5.160   5.643  1.00  0.00     0.261 C 
ATOM      5  O   UNL     1      -5.324   5.857   5.860  1.00  0.00    -0.268 OA
ATOM      6  H   UNL     1      -4.889   4.044   7.180  1.00  0.00     0.163 HD
BRANCH   4   7
ATOM      7  C   UNL     1      -3.439   5.439   4.524  1.00  0.00     0.094 A 
ATOM      8  C   UNL     1      -1.687   5.479   2.756  1.00  0.00     0.099 A 
ATOM      9  S   UNL     1      -1.809   4.966   4.394  1.00  0.00    -0.112 S 
ATOM     10  C   UNL     1      -2.781   6.263   2.413  1.00  0.00    -0.015 A 
ATOM     11  C   UNL     1      -3.779   6.229   3.440  1.00  0.00     0.031 A 
ATOM     12  C   UNL     1      -2.981   7.003   1.131  1.00  0.00     0.047 C 
BRANCH   8  13
ATOM     13  N   UNL     1      -0.608   5.188   1.973  1.00  0.00    -0.327 N 
ATOM     14  C   UNL     1       0.989   0.027  -0.055  1.00  0.00     0.044 C 
ATOM     15  C   UNL     1       0.577   1.362   0.491  1.00  0.00    -0.047 A 
ATOM     16  C   UNL     1      -0.483   1.473   1.392  1.00  0.00     0.006 A 
ATOM     17  C   UNL     1       1.212   2.528   0.057  1.00  0.00     0.052 A 
ATOM     18  C   UNL     1      -0.885   2.728   1.872  1.00  0.00     0.030 A 
ATOM     19  C   UNL     1       0.810   3.779   0.539  1.00  0.00     0.143 A 
ATOM     20  C   UNL     1      -0.234   3.909   1.484  1.00  0.00     0.085 A 
ATOM     21  O   UNL     1       1.505   4.849   0.020  1.00  0.00    -0.490 OA
ATOM     22  C   UNL     1       0.818   6.089   0.220  1.00  0.00     0.251 C 
ATOM     23  C   UNL     1       0.363   6.239   1.665  1.00  0.00     0.165 C 
ENDBRANCH   8  13
ENDBRANCH   4   7
ENDBRANCH   2   3
ENDBRANCH   1   2
BRANCH   1  24
ATOM     24  C   UNL     1      -2.775   3.170   9.082  1.00  0.00     0.118 C 
BRANCH  24  25
ATOM     25  N   UNL     1      -3.142   1.802   9.436  1.00  0.00    -0.352 N 
ATOM     26  C   UNL     1      -2.763   1.033  10.510  1.00  0.00     0.251 C 
ATOM     27  H   UNL     1      -3.756   1.361   8.806  1.00  0.00     0.163 HD
ATOM     28  O   UNL     1      -3.049  -0.161  10.537  1.00  0.00    -0.269 OA
BRANCH  26  29
ATOM     29  C   UNL     1      -1.988   1.630  11.619  1.00  0.00     0.039 A 
ATOM     30  C   UNL     1      -2.309   2.893  12.116  1.00  0.00     0.014 A 
ATOM     31  C   UNL     1      -0.918   0.915  12.165  1.00  0.00     0.014 A 
ATOM     32  C   UNL     1      -1.452   3.516  13.016  1.00  0.00     0.010 A 
ATOM     33  C   UNL     1      -0.111   1.508  13.141  1.00  0.00     0.010 A 
ATOM     34  C   UNL     1      -0.334   2.838  13.530  1.00  0.00    -0.014 A 
BRANCH  34  35
ATOM     35  C   UNL     1       0.598   3.560  14.436  1.00  0.00     0.031 A 
ATOM     36  C   UNL     1       2.021   3.828  14.018  1.00  0.00     0.074 A 
ATOM     37  C   UNL     1       0.139   4.049  15.604  1.00  0.00     0.049 A 
ATOM     38  N   UNL     1       2.957   4.496  14.649  1.00  0.00    -0.248 NA
ATOM     39  C   UNL     1       2.455   3.270  12.728  1.00  0.00     0.031 C 
ATOM     40  C   UNL     1      -1.219   3.865  16.121  1.00  0.00     0.029 A 
ATOM     41  N   UNL     1       0.752   4.828  16.552  1.00  0.00    -0.354 N 
ATOM     42  C   UNL     1       4.086   4.426  13.841  1.00  0.00     0.074 A 
ATOM     43  C   UNL     1       3.734   3.616  12.695  1.00  0.00     0.031 C 
ATOM     44  C   UNL     1      -1.353   4.562  17.260  1.00  0.00     0.029 A 
ATOM     45  C   UNL     1      -0.079   5.192  17.584  1.00  0.00     0.049 A 
ATOM     46  H   UNL     1       1.697   5.099  16.498  1.00  0.00     0.167 HD
ATOM     47  C   UNL     1       5.302   4.997  14.026  1.00  0.00     0.037 A 
ATOM     48  C   UNL     1       0.161   5.945  18.672  1.00  0.00     0.037 A 
ATOM     49  C   UNL     1       5.652   5.814  15.159  1.00  0.00     0.049 A 
ATOM     50  C   UNL     1       1.529   6.531  18.872  1.00  0.00     0.074 A 
ATOM     51  C   UNL     1       6.854   6.444  15.433  1.00  0.00     0.029 A 
ATOM     52  N   UNL     1       4.796   6.118  16.208  1.00  0.00    -0.354 N 
ATOM     53  N   UNL     1       2.581   6.467  18.092  1.00  0.00    -0.248 NA
ATOM     54  C   UNL     1       1.742   7.294  20.109  1.00  0.00     0.031 C 
ATOM     55  C   UNL     1       6.738   7.095  16.667  1.00  0.00     0.029 A 
ATOM     56  C   UNL     1       5.448   6.912  17.137  1.00  0.00     0.049 A 
ATOM     57  H   UNL     1       3.862   5.813  16.281  1.00  0.00     0.167 HD
ATOM     58  C   UNL     1       3.572   7.200  18.731  1.00  0.00     0.074 A 
ATOM     59  C   UNL     1       2.987   7.718  19.951  1.00  0.00     0.031 C 
ATOM     60  C   UNL     1       4.852   7.423  18.345  1.00  0.00     0.037 A 
BRANCH  47  61
ATOM     61  C   UNL     1       6.349   4.739  12.980  1.00  0.00     0.057 A 
ATOM     62  C   UNL     1       7.456   3.927  13.261  1.00  0.00     0.134 A 
ATOM     63  C   UNL     1       6.275   5.307  11.701  1.00  0.00     0.134 A 
ATOM     64  F   UNL     1       7.594   3.357  14.468  1.00  0.00    -0.206 F 
ATOM     65  C   UNL     1       8.447   3.686  12.308  1.00  0.00     0.040 A 
ATOM     66  C   UNL     1       7.246   5.052  10.730  1.00  0.00     0.040 A 
ATOM     67  F   UNL     1       5.235   6.084  11.361  1.00  0.00    -0.206 F 
ATOM     68  C   UNL     1       8.339   4.243  11.035  1.00  0.00     0.006 A 
ENDBRANCH  47  61
BRANCH  48  69
ATOM     69  C   UNL     1      -0.917   6.190  19.663  1.00  0.00     0.057 A 
ATOM     70  C   UNL     1      -1.412   5.160  20.471  1.00  0.00     0.134 A 
ATOM     71  C   UNL     1      -1.457   7.469  19.846  1.00  0.00     0.134 A 
ATOM     72  F   UNL     1      -0.940   3.911  20.342  1.00  0.00    -0.206 F 
ATOM     73  C   UNL     1      -2.406   5.390  21.422  1.00  0.00     0.040 A 
ATOM     74  C   UNL     1      -2.431   7.719  20.813  1.00  0.00     0.040 A 
ATOM     75  F   UNL     1      -1.010   8.501  19.115  1.00  0.00    -0.206 F 
ATOM     76  C   UNL     1      -2.911   6.676  21.602  1.00  0.00     0.006 A 
ENDBRANCH  48  69
BRANCH  60  77
ATOM     77  C   UNL     1       5.685   8.298  19.236  1.00  0.00     0.057 A 
ATOM     78  C   UNL     1       6.038   9.592  18.833  1.00  0.00     0.134 A 
ATOM     79  C   UNL     1       6.133   7.866  20.491  1.00  0.00     0.134 A 
ATOM     80  F   UNL     1       5.648  10.065  17.639  1.00  0.00    -0.206 F 
ATOM     81  C   UNL     1       6.801  10.428  19.649  1.00  0.00     0.040 A 
ATOM     82  C   UNL     1       6.872   8.703  21.329  1.00  0.00     0.040 A 
ATOM     83  F   UNL     1       5.815   6.643  20.943  1.00  0.00    -0.206 F 
ATOM     84  C   UNL     1       7.211   9.987  20.906  1.00  0.00     0.006 A 
ENDBRANCH  60  77
ENDBRANCH  34  35
ENDBRANCH  26  29
ENDBRANCH  24  25
ENDBRANCH   1  24
TORSDOF 11
