REMARK SMILES CC(=O)N[C@@H](C(=O)N(CC(=O)NCCCNC(=O)c1ccc(-c2c3nc(c(-c4c(F)cccc4F)c4ccc([nH]4)c(-c4c(F)cccc4F)c4nc(c(-c5c(F)cccc5F)c5ccc2[nH]5)C=C4)C=C3)cc1)C(C)(C)C)C(C)C
REMARK SMILES IDX 13 1 12 2 10 3 11 4 9 6 8 7 6 8 7 9 5 10 4 11 1 12 2 13 3 14
REMARK SMILES IDX 77 16 78 17 79 18 73 19 74 20 75 21 76 22 14 23 15 24 16 25
REMARK SMILES IDX 17 26 18 28 19 29 20 30 72 31 21 32 71 33 22 34 23 35 24 36
REMARK SMILES IDX 65 37 25 38 70 39 64 40 66 41 26 42 69 43 63 44 62 45 27 47
REMARK SMILES IDX 53 48 36 49 52 50 37 51 40 52 51 53 67 54 38 55 39 56 50 58
REMARK SMILES IDX 68 59 41 60 28 61 29 62 34 63 30 64 31 65 33 66 35 67 32 68
REMARK SMILES IDX 54 69 55 70 60 71 56 72 57 73 59 74 61 75 58 76 42 77 43 78
REMARK SMILES IDX 48 79 44 80 45 81 47 82 49 83 46 84
REMARK H PARENT 12 5 4 15 16 27 66 46 40 57
REMARK Flexibility Score: inf
ROOT
ATOM      1  C   UNL     1       1.493  -4.308  -0.268  1.00  0.00     0.117 C 
ENDROOT
BRANCH   1   2
ATOM      2  N   UNL     1       2.566  -4.221   0.690  1.00  0.00    -0.354 N 
ATOM      3  C   UNL     1       3.412  -3.166   0.892  1.00  0.00     0.239 C 
ATOM      4  O   UNL     1       3.978  -3.092   1.987  1.00  0.00    -0.273 OA
ATOM      5  H   UNL     1       2.706  -5.009   1.263  1.00  0.00     0.163 HD
BRANCH   3   6
ATOM      6  C   UNL     1       3.568  -2.032  -0.147  1.00  0.00     0.220 C 
BRANCH   6   7
ATOM      7  N   UNL     1       3.823  -2.420  -1.544  1.00  0.00    -0.327 N 
BRANCH   7   8
ATOM      8  C   UNL     1       2.898  -2.182  -2.585  1.00  0.00     0.246 C 
ATOM      9  O   UNL     1       3.021  -2.780  -3.660  1.00  0.00    -0.272 OA
BRANCH   8  10
ATOM     10  C   UNL     1       1.719  -1.104  -2.450  1.00  0.00     0.174 C 
BRANCH  10  11
ATOM     11  N   UNL     1       0.687  -1.490  -1.476  1.00  0.00    -0.344 N 
ATOM     12  C   UNL     1       0.705   0.515  -0.029  1.00  0.00     0.114 C 
ATOM     13  C   UNL     1       0.205  -0.859  -0.373  1.00  0.00     0.217 C 
ATOM     14  O   UNL     1      -0.637  -1.436   0.311  1.00  0.00    -0.275 OA
ATOM     15  H   UNL     1       0.270  -2.364  -1.655  1.00  0.00     0.164 HD
ENDBRANCH  10  11
BRANCH  10  16
ATOM     16  C   UNL     1       0.990  -0.931  -3.829  1.00  0.00     0.015 C 
ATOM     17  C   UNL     1      -0.351  -0.185  -3.724  1.00  0.00     0.010 C 
ATOM     18  C   UNL     1       1.861  -0.213  -4.864  1.00  0.00     0.010 C 
ENDBRANCH  10  16
ENDBRANCH   8  10
ENDBRANCH   7   8
BRANCH   7  19
ATOM     19  C   UNL     1       5.141  -3.128  -1.853  1.00  0.00     0.035 C 
ATOM     20  C   UNL     1       4.935  -4.583  -2.323  1.00  0.00     0.034 C 
ATOM     21  C   UNL     1       5.918  -2.342  -2.933  1.00  0.00     0.034 C 
ATOM     22  C   UNL     1       6.115  -3.228  -0.643  1.00  0.00     0.034 C 
ENDBRANCH   7  19
ENDBRANCH   6   7
ENDBRANCH   3   6
ENDBRANCH   1   2
BRANCH   1  23
ATOM     23  C   UNL     1       1.504  -5.519  -1.174  1.00  0.00     0.042 C 
BRANCH  23  24
ATOM     24  C   UNL     1       1.283  -6.817  -0.433  1.00  0.00     0.118 C 
BRANCH  24  25
ATOM     25  N   UNL     1      -0.095  -6.953   0.023  1.00  0.00    -0.352 N 
ATOM     26  C   UNL     1      -1.086  -7.792  -0.424  1.00  0.00     0.251 C 
ATOM     27  H   UNL     1      -0.353  -6.354   0.760  1.00  0.00     0.163 HD
ATOM     28  O   UNL     1      -2.251  -7.610  -0.079  1.00  0.00    -0.269 OA
BRANCH  26  29
ATOM     29  C   UNL     1      -0.756  -8.896  -1.350  1.00  0.00     0.039 A 
ATOM     30  C   UNL     1      -1.591  -9.141  -2.443  1.00  0.00     0.014 A 
ATOM     31  C   UNL     1       0.391  -9.670  -1.157  1.00  0.00     0.014 A 
ATOM     32  C   UNL     1      -1.222 -10.094  -3.393  1.00  0.00     0.010 A 
ATOM     33  C   UNL     1       0.809 -10.542  -2.154  1.00  0.00     0.010 A 
ATOM     34  C   UNL     1       0.011 -10.758  -3.286  1.00  0.00    -0.014 A 
BRANCH  34  35
ATOM     35  C   UNL     1       0.506 -11.661  -4.355  1.00  0.00     0.031 A 
ATOM     36  C   UNL     1       0.780 -13.107  -4.054  1.00  0.00     0.074 A 
ATOM     37  C   UNL     1       0.799 -11.153  -5.568  1.00  0.00     0.049 A 
ATOM     38  N   UNL     1       1.329 -14.020  -4.814  1.00  0.00    -0.248 NA
ATOM     39  C   UNL     1       0.414 -13.583  -2.711  1.00  0.00     0.031 C 
ATOM     40  C   UNL     1       0.621  -9.756  -5.967  1.00  0.00     0.029 A 
ATOM     41  N   UNL     1       1.330 -11.751  -6.684  1.00  0.00    -0.354 N 
ATOM     42  C   UNL     1       1.382 -15.172  -4.040  1.00  0.00     0.074 A 
ATOM     43  C   UNL     1       0.865 -14.829  -2.734  1.00  0.00     0.031 C 
ATOM     44  C   UNL     1       1.022  -9.607  -7.239  1.00  0.00     0.029 A 
ATOM     45  C   UNL     1       1.534 -10.882  -7.729  1.00  0.00     0.049 A 
ATOM     46  H   UNL     1       1.545 -12.710  -6.731  1.00  0.00     0.167 HD
ATOM     47  C   UNL     1       1.801 -16.409  -4.396  1.00  0.00     0.037 A 
ATOM     48  C   UNL     1       2.095 -11.082  -8.936  1.00  0.00     0.037 A 
ATOM     49  C   UNL     1       2.307 -16.745  -5.701  1.00  0.00     0.049 A 
ATOM     50  C   UNL     1       2.598 -12.454  -9.291  1.00  0.00     0.074 A 
ATOM     51  C   UNL     1       2.705 -17.981  -6.178  1.00  0.00     0.029 A 
ATOM     52  N   UNL     1       2.497 -15.837  -6.732  1.00  0.00    -0.354 N 
ATOM     53  N   UNL     1       2.575 -13.552  -8.576  1.00  0.00    -0.248 NA
ATOM     54  C   UNL     1       3.212 -12.613 -10.617  1.00  0.00     0.031 C 
ATOM     55  C   UNL     1       3.189 -17.811  -7.479  1.00  0.00     0.029 A 
ATOM     56  C   UNL     1       3.042 -16.479  -7.832  1.00  0.00     0.049 A 
ATOM     57  H   UNL     1       2.276 -14.879  -6.689  1.00  0.00     0.167 HD
ATOM     58  C   UNL     1       3.154 -14.535  -9.368  1.00  0.00     0.074 A 
ATOM     59  C   UNL     1       3.498 -13.908 -10.627  1.00  0.00     0.031 C 
ATOM     60  C   UNL     1       3.385 -15.838  -9.076  1.00  0.00     0.037 A 
BRANCH  47  61
ATOM     61  C   UNL     1       1.728 -17.490  -3.356  1.00  0.00     0.057 A 
ATOM     62  C   UNL     1       0.503 -17.994  -2.897  1.00  0.00     0.134 A 
ATOM     63  C   UNL     1       2.896 -18.055  -2.827  1.00  0.00     0.134 A 
ATOM     64  F   UNL     1      -0.653 -17.489  -3.354  1.00  0.00    -0.206 F 
ATOM     65  C   UNL     1       0.442 -18.999  -1.931  1.00  0.00     0.040 A 
ATOM     66  C   UNL     1       2.847 -19.081  -1.882  1.00  0.00     0.040 A 
ATOM     67  F   UNL     1       4.103 -17.626  -3.225  1.00  0.00    -0.206 F 
ATOM     68  C   UNL     1       1.617 -19.550  -1.425  1.00  0.00     0.006 A 
ENDBRANCH  47  61
BRANCH  48  69
ATOM     69  C   UNL     1       2.221  -9.952  -9.892  1.00  0.00     0.057 A 
ATOM     70  C   UNL     1       1.472  -9.917 -11.074  1.00  0.00     0.134 A 
ATOM     71  C   UNL     1       3.091  -8.882  -9.648  1.00  0.00     0.134 A 
ATOM     72  F   UNL     1       0.637 -10.922 -11.374  1.00  0.00    -0.206 F 
ATOM     73  C   UNL     1       1.595  -8.867 -11.986  1.00  0.00     0.040 A 
ATOM     74  C   UNL     1       3.202  -7.812 -10.537  1.00  0.00     0.040 A 
ATOM     75  F   UNL     1       3.832  -8.852  -8.531  1.00  0.00    -0.206 F 
ATOM     76  C   UNL     1       2.457  -7.807 -11.715  1.00  0.00     0.006 A 
ENDBRANCH  48  69
BRANCH  60  77
ATOM     77  C   UNL     1       4.035 -16.677 -10.138  1.00  0.00     0.057 A 
ATOM     78  C   UNL     1       5.390 -16.531 -10.462  1.00  0.00     0.134 A 
ATOM     79  C   UNL     1       3.315 -17.679 -10.800  1.00  0.00     0.134 A 
ATOM     80  F   UNL     1       6.132 -15.580  -9.874  1.00  0.00    -0.206 F 
ATOM     81  C   UNL     1       6.002 -17.344 -11.417  1.00  0.00     0.040 A 
ATOM     82  C   UNL     1       3.923 -18.516 -11.737  1.00  0.00     0.040 A 
ATOM     83  F   UNL     1       2.016 -17.876 -10.531  1.00  0.00    -0.206 F 
ATOM     84  C   UNL     1       5.270 -18.347 -12.050  1.00  0.00     0.006 A 
ENDBRANCH  60  77
ENDBRANCH  34  35
ENDBRANCH  26  29
ENDBRANCH  24  25
ENDBRANCH  23  24
ENDBRANCH   1  23
TORSDOF 16
