REMARK SMILES O=C(COc1ccc(Br)cc1/C=C1\C(=O)Nc2ccc(Br)cc21)NCCCNC(=O)c1ccc(-c2c3nc(c(-c4c(F)cccc4F)c4ccc([nH]4)c(-c4c(F)cccc4F)c4nc(c(-c5c(F)cccc5F)c5ccc2[nH]5)C=C4)C=C3)cc1
REMARK SMILES IDX 25 1 24 2 1 3 2 4 3 6 4 7 5 8 6 9 11 10 7 11 10 12 8 13 9 14
REMARK SMILES IDX 12 15 13 16 14 17 23 18 15 19 16 20 17 21 22 22 18 24 20 25
REMARK SMILES IDX 19 26 21 27 26 28 27 29 28 30 29 31 30 33 31 34 32 35 84 36
REMARK SMILES IDX 33 37 83 38 34 39 35 40 36 41 77 42 37 43 82 44 76 45 78 46
REMARK SMILES IDX 38 47 81 48 75 49 74 50 39 52 65 53 48 54 64 55 49 56 52 57
REMARK SMILES IDX 63 58 79 59 50 60 51 61 62 63 80 64 53 65 40 66 41 67 46 68
REMARK SMILES IDX 42 69 43 70 45 71 47 72 44 73 66 74 67 75 72 76 68 77 69 78
REMARK SMILES IDX 71 79 73 80 70 81 54 82 55 83 60 84 56 85 57 86 59 87 61 88
REMARK SMILES IDX 58 89
REMARK H PARENT 24 5 16 23 28 32 78 51 52 62
REMARK Flexibility Score: inf
ROOT
ATOM      1  C   UNL     1       2.330   1.271  -1.565  1.00  0.00     0.117 C 
ENDROOT
BRANCH   1   2
ATOM      2  N   UNL     1       3.171   0.438  -0.714  1.00  0.00    -0.353 N 
ATOM      3  O   UNL     1       1.507  -0.148   0.753  1.00  0.00    -0.271 OA
ATOM      4  C   UNL     1       2.614  -0.367   0.267  1.00  0.00     0.257 C 
ATOM      5  H   UNL     1       4.147   0.448  -0.838  1.00  0.00     0.163 HD
BRANCH   4   6
ATOM      6  C   UNL     1       3.452  -1.615   0.659  1.00  0.00     0.329 C 
BRANCH   6   7
ATOM      7  O   UNL     1       4.098  -2.433  -0.331  1.00  0.00    -0.483 OA
BRANCH   7   8
ATOM      8  C   UNL     1       3.251  -3.151  -1.151  1.00  0.00     0.127 A 
ATOM      9  C   UNL     1       2.262  -2.454  -1.877  1.00  0.00     0.048 A 
ATOM     10  C   UNL     1       3.422  -4.544  -1.365  1.00  0.00     0.018 A 
ATOM     11  C   UNL     1       1.357  -3.085  -2.717  1.00  0.00     0.019 A 
ATOM     12  C   UNL     1       2.509  -5.131  -2.264  1.00  0.00     0.027 A 
ATOM     13  C   UNL     1       1.476  -4.438  -2.896  1.00  0.00     0.018 A 
ATOM     14  Br  UNL     1       0.259  -5.354  -4.012  1.00  0.00    -0.051 Br
BRANCH  10  15
ATOM     15  C   UNL     1       4.468  -5.387  -0.671  1.00  0.00     0.026 C 
ATOM     16  C   UNL     1       4.555  -6.739  -0.551  1.00  0.00     0.050 C 
ATOM     17  C   UNL     1       3.564  -7.765  -1.048  1.00  0.00     0.256 C 
ATOM     18  C   UNL     1       5.265  -7.462   0.529  1.00  0.00     0.012 A 
ATOM     19  O   UNL     1       3.240  -8.033  -2.185  1.00  0.00    -0.269 OA
ATOM     20  N   UNL     1       3.289  -8.538   0.063  1.00  0.00    -0.321 N 
ATOM     21  C   UNL     1       4.333  -8.420   0.974  1.00  0.00     0.049 A 
ATOM     22  C   UNL     1       6.568  -7.543   0.982  1.00  0.00     0.026 A 
ATOM     23  H   UNL     1       2.482  -9.086   0.190  1.00  0.00     0.170 HD
ATOM     24  C   UNL     1       4.563  -9.306   2.003  1.00  0.00     0.028 A 
ATOM     25  C   UNL     1       6.858  -8.525   1.949  1.00  0.00     0.018 A 
ATOM     26  C   UNL     1       5.858  -9.353   2.501  1.00  0.00     0.018 A 
ATOM     27  Br  UNL     1       8.657  -8.854   2.446  1.00  0.00    -0.051 Br
ENDBRANCH  10  15
ENDBRANCH   7   8
ENDBRANCH   6   7
ENDBRANCH   4   6
ENDBRANCH   1   2
BRANCH   1  28
ATOM     28  C   UNL     1       2.491   2.768  -1.380  1.00  0.00     0.042 C 
BRANCH  28  29
ATOM     29  C   UNL     1       3.890   3.297  -1.648  1.00  0.00     0.118 C 
BRANCH  29  30
ATOM     30  N   UNL     1       4.345   3.153  -3.027  1.00  0.00    -0.352 N 
ATOM     31  C   UNL     1       5.044   4.043  -3.816  1.00  0.00     0.251 C 
ATOM     32  H   UNL     1       4.120   2.296  -3.457  1.00  0.00     0.163 HD
ATOM     33  O   UNL     1       5.294   3.758  -4.984  1.00  0.00    -0.269 OA
BRANCH  31  34
ATOM     34  C   UNL     1       5.444   5.364  -3.276  1.00  0.00     0.039 A 
ATOM     35  C   UNL     1       5.941   5.489  -1.980  1.00  0.00     0.014 A 
ATOM     36  C   UNL     1       5.269   6.505  -4.066  1.00  0.00     0.014 A 
ATOM     37  C   UNL     1       6.045   6.748  -1.402  1.00  0.00     0.010 A 
ATOM     38  C   UNL     1       5.482   7.775  -3.514  1.00  0.00     0.010 A 
ATOM     39  C   UNL     1       5.804   7.909  -2.156  1.00  0.00    -0.014 A 
BRANCH  39  40
ATOM     40  C   UNL     1       5.870   9.235  -1.482  1.00  0.00     0.031 A 
ATOM     41  C   UNL     1       4.647  10.111  -1.371  1.00  0.00     0.074 A 
ATOM     42  C   UNL     1       7.018   9.616  -0.888  1.00  0.00     0.049 A 
ATOM     43  N   UNL     1       4.508  11.263  -0.762  1.00  0.00    -0.248 NA
ATOM     44  C   UNL     1       3.421   9.636  -2.033  1.00  0.00     0.031 C 
ATOM     45  C   UNL     1       8.272   8.859  -0.912  1.00  0.00     0.029 A 
ATOM     46  N   UNL     1       7.310  10.715  -0.120  1.00  0.00    -0.354 N 
ATOM     47  C   UNL     1       3.192  11.655  -0.977  1.00  0.00     0.074 A 
ATOM     48  C   UNL     1       2.583  10.637  -1.806  1.00  0.00     0.031 C 
ATOM     49  C   UNL     1       9.176   9.482  -0.143  1.00  0.00     0.029 A 
ATOM     50  C   UNL     1       8.591  10.713   0.375  1.00  0.00     0.049 A 
ATOM     51  H   UNL     1       6.663  11.435   0.059  1.00  0.00     0.167 HD
ATOM     52  C   UNL     1       2.542  12.752  -0.515  1.00  0.00     0.037 A 
ATOM     53  C   UNL     1       9.231  11.609   1.148  1.00  0.00     0.037 A 
ATOM     54  C   UNL     1       3.140  13.760   0.322  1.00  0.00     0.049 A 
ATOM     55  C   UNL     1       8.504  12.843   1.598  1.00  0.00     0.074 A 
ATOM     56  C   UNL     1       2.557  14.896   0.858  1.00  0.00     0.029 A 
ATOM     57  N   UNL     1       4.462  13.757   0.742  1.00  0.00    -0.354 N 
ATOM     58  N   UNL     1       7.254  13.186   1.402  1.00  0.00    -0.248 NA
ATOM     59  C   UNL     1       9.283  13.821   2.369  1.00  0.00     0.031 C 
ATOM     60  C   UNL     1       3.538  15.604   1.562  1.00  0.00     0.029 A 
ATOM     61  C   UNL     1       4.720  14.883   1.507  1.00  0.00     0.049 A 
ATOM     62  H   UNL     1       5.120  13.057   0.528  1.00  0.00     0.167 HD
ATOM     63  C   UNL     1       7.093  14.410   2.037  1.00  0.00     0.074 A 
ATOM     64  C   UNL     1       8.366  14.735   2.648  1.00  0.00     0.031 C 
ATOM     65  C   UNL     1       5.992  15.199   2.103  1.00  0.00     0.037 A 
BRANCH  52  66
ATOM     66  C   UNL     1       1.106  12.927  -0.922  1.00  0.00     0.057 A 
ATOM     67  C   UNL     1       0.735  13.943  -1.814  1.00  0.00     0.134 A 
ATOM     68  C   UNL     1       0.085  12.112  -0.415  1.00  0.00     0.134 A 
ATOM     69  F   UNL     1       1.659  14.766  -2.331  1.00  0.00    -0.206 F 
ATOM     70  C   UNL     1      -0.596  14.139  -2.187  1.00  0.00     0.040 A 
ATOM     71  C   UNL     1      -1.246  12.281  -0.801  1.00  0.00     0.040 A 
ATOM     72  F   UNL     1       0.372  11.114   0.434  1.00  0.00    -0.206 F 
ATOM     73  C   UNL     1      -1.591  13.301  -1.686  1.00  0.00     0.006 A 
ENDBRANCH  52  66
BRANCH  53  74
ATOM     74  C   UNL     1      10.646  11.383   1.536  1.00  0.00     0.057 A 
ATOM     75  C   UNL     1      11.677  11.429   0.589  1.00  0.00     0.134 A 
ATOM     76  C   UNL     1      11.004  11.144   2.867  1.00  0.00     0.134 A 
ATOM     77  F   UNL     1      11.399  11.650  -0.705  1.00  0.00    -0.206 F 
ATOM     78  C   UNL     1      13.010  11.236   0.949  1.00  0.00     0.040 A 
ATOM     79  C   UNL     1      12.337  10.979   3.247  1.00  0.00     0.040 A 
ATOM     80  F   UNL     1      10.064  11.109   3.824  1.00  0.00    -0.206 F 
ATOM     81  C   UNL     1      13.344  11.021   2.284  1.00  0.00     0.006 A 
ENDBRANCH  53  74
BRANCH  65  82
ATOM     82  C   UNL     1       6.121  16.476   2.881  1.00  0.00     0.057 A 
ATOM     83  C   UNL     1       5.483  16.627   4.118  1.00  0.00     0.134 A 
ATOM     84  C   UNL     1       6.876  17.557   2.406  1.00  0.00     0.134 A 
ATOM     85  F   UNL     1       4.739  15.634   4.628  1.00  0.00    -0.206 F 
ATOM     86  C   UNL     1       5.595  17.805   4.858  1.00  0.00     0.040 A 
ATOM     87  C   UNL     1       7.019  18.729   3.150  1.00  0.00     0.040 A 
ATOM     88  F   UNL     1       7.526  17.470   1.236  1.00  0.00    -0.206 F 
ATOM     89  C   UNL     1       6.373  18.857   4.378  1.00  0.00     0.006 A 
ENDBRANCH  65  82
ENDBRANCH  39  40
ENDBRANCH  31  34
ENDBRANCH  29  30
ENDBRANCH  28  29
ENDBRANCH   1  28
TORSDOF 13
