REMARK SMILES O=C(NCCCNC(=O)[C@H]1CCCN1S(=O)(=O)c1ccccc1Cl)c1ccc(-c2c3nc(c(-c4c(F)cccc4F)c4ccc([nH]4)c(-c4c(F)cccc4F)c4nc(c(-c5c(F)cccc5F)c5ccc2[nH]5)C=C4)C=C3)cc1
REMARK SMILES IDX 5 1 4 2 3 3 1 4 2 5 25 7 26 8 78 9 27 10 77 11 28 12 29 13
REMARK SMILES IDX 30 14 71 15 31 16 76 17 70 18 72 19 32 20 75 21 69 22 68 23
REMARK SMILES IDX 33 25 59 26 42 27 58 28 43 29 46 30 57 31 73 32 44 33 45 34
REMARK SMILES IDX 56 36 74 37 47 38 34 39 35 40 40 41 36 42 37 43 39 44 41 45
REMARK SMILES IDX 38 46 60 47 61 48 66 49 62 50 63 51 65 52 67 53 64 54 48 55
REMARK SMILES IDX 49 56 54 57 50 58 51 59 53 60 55 61 52 62 6 63 7 64 8 65
REMARK SMILES IDX 9 67 10 68 11 69 14 70 12 71 13 72 15 73 16 74 17 75 18 76
REMARK SMILES IDX 19 77 23 78 20 79 22 80 24 81 21 82
REMARK H PARENT 3 6 72 24 46 35 7 66
REMARK Flexibility Score: inf
ROOT
ATOM      1  C   UNL     1       6.307  -3.977   3.035  1.00  0.00     0.042 C 
ENDROOT
BRANCH   1   2
ATOM      2  C   UNL     1       7.525  -3.718   3.922  1.00  0.00     0.118 C 
BRANCH   2   3
ATOM      3  N   UNL     1       7.879  -2.308   4.003  1.00  0.00    -0.352 N 
ATOM      4  O   UNL     1       8.147  -0.281   4.941  1.00  0.00    -0.269 OA
ATOM      5  C   UNL     1       8.004  -1.490   5.099  1.00  0.00     0.251 C 
ATOM      6  H   UNL     1       8.057  -1.874   3.137  1.00  0.00     0.163 HD
BRANCH   5   7
ATOM      7  C   UNL     1       7.946  -2.049   6.468  1.00  0.00     0.039 A 
ATOM      8  C   UNL     1       8.637  -3.216   6.801  1.00  0.00     0.014 A 
ATOM      9  C   UNL     1       7.217  -1.365   7.446  1.00  0.00     0.014 A 
ATOM     10  C   UNL     1       8.490  -3.769   8.071  1.00  0.00     0.010 A 
ATOM     11  C   UNL     1       7.129  -1.883   8.741  1.00  0.00     0.010 A 
ATOM     12  C   UNL     1       7.737  -3.107   9.055  1.00  0.00    -0.014 A 
BRANCH  12  13
ATOM     13  C   UNL     1       7.624  -3.698  10.414  1.00  0.00     0.031 A 
ATOM     14  C   UNL     1       6.305  -4.195  10.934  1.00  0.00     0.074 A 
ATOM     15  C   UNL     1       8.731  -3.808  11.173  1.00  0.00     0.049 A 
ATOM     16  N   UNL     1       6.034  -4.771  12.079  1.00  0.00    -0.248 NA
ATOM     17  C   UNL     1       5.135  -4.018  10.061  1.00  0.00     0.031 C 
ATOM     18  C   UNL     1      10.066  -3.350  10.785  1.00  0.00     0.029 A 
ATOM     19  N   UNL     1       8.914  -4.354  12.417  1.00  0.00    -0.354 N 
ATOM     20  C   UNL     1       4.664  -5.004  12.074  1.00  0.00     0.074 A 
ATOM     21  C   UNL     1       4.155  -4.485  10.822  1.00  0.00     0.031 C 
ATOM     22  C   UNL     1      10.939  -3.678  11.749  1.00  0.00     0.029 A 
ATOM     23  C   UNL     1      10.219  -4.323  12.842  1.00  0.00     0.049 A 
ATOM     24  H   UNL     1       8.180  -4.732  12.954  1.00  0.00     0.167 HD
ATOM     25  C   UNL     1       3.903  -5.604  13.021  1.00  0.00     0.037 A 
ATOM     26  C   UNL     1      10.776  -4.762  13.986  1.00  0.00     0.037 A 
ATOM     27  C   UNL     1       4.414  -6.137  14.258  1.00  0.00     0.049 A 
ATOM     28  C   UNL     1       9.909  -5.411  15.024  1.00  0.00     0.074 A 
ATOM     29  C   UNL     1       3.728  -6.803  15.260  1.00  0.00     0.029 A 
ATOM     30  N   UNL     1       5.738  -6.060  14.665  1.00  0.00    -0.354 N 
ATOM     31  N   UNL     1       8.623  -5.661  14.987  1.00  0.00    -0.248 NA
ATOM     32  C   UNL     1      10.571  -5.836  16.265  1.00  0.00     0.031 C 
ATOM     33  C   UNL     1       4.630  -7.093  16.291  1.00  0.00     0.029 A 
ATOM     34  C   UNL     1       5.886  -6.646  15.912  1.00  0.00     0.049 A 
ATOM     35  H   UNL     1       6.465  -5.649  14.145  1.00  0.00     0.167 HD
ATOM     36  C   UNL     1       8.325  -6.292  16.187  1.00  0.00     0.074 A 
ATOM     37  C   UNL     1       9.567  -6.396  16.925  1.00  0.00     0.031 C 
ATOM     38  C   UNL     1       7.128  -6.744  16.635  1.00  0.00     0.037 A 
BRANCH  25  39
ATOM     39  C   UNL     1       2.427  -5.697  12.763  1.00  0.00     0.057 A 
ATOM     40  C   UNL     1       1.893  -6.572  11.809  1.00  0.00     0.134 A 
ATOM     41  C   UNL     1       1.525  -4.916  13.498  1.00  0.00     0.134 A 
ATOM     42  F   UNL     1       2.703  -7.339  11.062  1.00  0.00    -0.206 F 
ATOM     43  C   UNL     1       0.519  -6.648  11.574  1.00  0.00     0.040 A 
ATOM     44  C   UNL     1       0.147  -5.000  13.290  1.00  0.00     0.040 A 
ATOM     45  F   UNL     1       1.968  -4.062  14.433  1.00  0.00    -0.206 F 
ATOM     46  C   UNL     1      -0.359  -5.863  12.320  1.00  0.00     0.006 A 
ENDBRANCH  25  39
BRANCH  26  47
ATOM     47  C   UNL     1      12.238  -4.619  14.191  1.00  0.00     0.057 A 
ATOM     48  C   UNL     1      13.082  -5.733  14.151  1.00  0.00     0.134 A 
ATOM     49  C   UNL     1      12.826  -3.367  14.403  1.00  0.00     0.134 A 
ATOM     50  F   UNL     1      12.572  -6.960  13.967  1.00  0.00    -0.206 F 
ATOM     51  C   UNL     1      14.461  -5.609  14.322  1.00  0.00     0.040 A 
ATOM     52  C   UNL     1      14.206  -3.225  14.552  1.00  0.00     0.040 A 
ATOM     53  F   UNL     1      12.069  -2.260  14.444  1.00  0.00    -0.206 F 
ATOM     54  C   UNL     1      15.028  -4.351  14.515  1.00  0.00     0.006 A 
ENDBRANCH  26  47
BRANCH  38  55
ATOM     55  C   UNL     1       7.115  -7.422  17.973  1.00  0.00     0.057 A 
ATOM     56  C   UNL     1       7.245  -6.702  19.167  1.00  0.00     0.134 A 
ATOM     57  C   UNL     1       6.950  -8.809  18.066  1.00  0.00     0.134 A 
ATOM     58  F   UNL     1       7.422  -5.372  19.143  1.00  0.00    -0.206 F 
ATOM     59  C   UNL     1       7.233  -7.342  20.407  1.00  0.00     0.040 A 
ATOM     60  C   UNL     1       6.913  -9.457  19.301  1.00  0.00     0.040 A 
ATOM     61  F   UNL     1       6.815  -9.556  16.960  1.00  0.00    -0.206 F 
ATOM     62  C   UNL     1       7.061  -8.723  20.477  1.00  0.00     0.006 A 
ENDBRANCH  38  55
ENDBRANCH  12  13
ENDBRANCH   5   7
ENDBRANCH   2   3
ENDBRANCH   1   2
BRANCH   1  63
ATOM     63  C   UNL     1       6.531  -3.659   1.558  1.00  0.00     0.117 C 
BRANCH  63  64
ATOM     64  N   UNL     1       7.588  -4.475   0.998  1.00  0.00    -0.355 N 
ATOM     65  C   UNL     1       7.547  -5.643   0.303  1.00  0.00     0.238 C 
ATOM     66  H   UNL     1       8.495  -4.122   1.147  1.00  0.00     0.163 HD
ATOM     67  O   UNL     1       8.638  -6.202   0.142  1.00  0.00    -0.273 OA
BRANCH  65  68
ATOM     68  C   UNL     1       6.266  -6.170  -0.364  1.00  0.00     0.162 C 
ATOM     69  C   UNL     1       6.401  -7.667  -0.650  1.00  0.00     0.032 C 
ATOM     70  N   UNL     1       5.011  -6.084   0.446  1.00  0.00    -0.185 NA
ATOM     71  C   UNL     1       6.008  -8.293   0.675  1.00  0.00     0.019 C 
ATOM     72  C   UNL     1       4.965  -7.349   1.264  1.00  0.00     0.103 C 
BRANCH  70  73
ATOM     73  S   UNL     1       3.538  -5.858  -0.430  1.00  0.00     0.245 S 
ATOM     74  O   UNL     1       3.436  -6.897  -1.432  1.00  0.00    -0.207 OA
ATOM     75  O   UNL     1       2.501  -5.746   0.576  1.00  0.00    -0.207 OA
BRANCH  73  76
ATOM     76  C   UNL     1       3.657  -4.271  -1.220  1.00  0.00     0.101 A 
ATOM     77  C   UNL     1       3.077  -3.180  -0.542  1.00  0.00     0.023 A 
ATOM     78  C   UNL     1       4.163  -4.079  -2.510  1.00  0.00     0.061 A 
ATOM     79  C   UNL     1       3.049  -1.911  -1.120  1.00  0.00     0.002 A 
ATOM     80  C   UNL     1       4.160  -2.790  -3.067  1.00  0.00     0.022 A 
ATOM     81  Cl  UNL     1       4.805  -5.316  -3.530  1.00  0.00    -0.083 Cl
ATOM     82  C   UNL     1       3.606  -1.712  -2.377  1.00  0.00     0.002 A 
ENDBRANCH  73  76
ENDBRANCH  70  73
ENDBRANCH  65  68
ENDBRANCH  63  64
ENDBRANCH   1  63
TORSDOF 12
