REMARK SMILES C=C(C)COc1cc(/C=C/c2cc(C(=O)NCCCNC(=O)c3ccc(-c4c5nc(c(-c6c(F)cccc6F)c6ccc([nH]6)c(-c6c(F)cccc6F)c6nc(c(-c7c(F)cccc7F)c7ccc4[nH]7)C=C6)C=C5)cc3)ncn2)ccc1OC
REMARK SMILES IDX 14 1 15 2 16 3 13 5 11 6 12 7 79 8 78 9 77 10 10 11 9 12
REMARK SMILES IDX 8 13 6 14 7 15 82 16 81 17 80 18 5 19 4 20 2 21 1 22 3 23
REMARK SMILES IDX 83 24 84 25 17 26 18 27 19 28 20 29 21 30 22 32 23 33 24 34
REMARK SMILES IDX 76 35 25 36 75 37 26 38 27 39 28 40 69 41 29 42 74 43 68 44
REMARK SMILES IDX 70 45 30 46 73 47 67 48 66 49 31 51 57 52 40 53 56 54 41 55
REMARK SMILES IDX 44 56 55 57 71 58 42 59 43 60 54 62 72 63 45 64 32 65 33 66
REMARK SMILES IDX 38 67 34 68 35 69 37 70 39 71 36 72 58 73 59 74 64 75 60 76
REMARK SMILES IDX 61 77 63 78 65 79 62 80 46 81 47 82 52 83 48 84 49 85 51 86
REMARK SMILES IDX 53 87 50 88
REMARK H PARENT 16 4 20 31 70 50 44 61
REMARK Flexibility Score: inf
ROOT
ATOM      1  C   UNL     1       5.355  -7.915   7.272  1.00  0.00     0.270 C 
ATOM      2  O   UNL     1       6.218  -8.492   7.937  1.00  0.00    -0.268 OA
ATOM      3  N   UNL     1       4.813  -8.631   6.227  1.00  0.00    -0.351 N 
ATOM      4  H   UNL     1       5.215  -9.523   6.117  1.00  0.00     0.163 HD
ENDROOT
BRANCH   1   5
ATOM      5  C   UNL     1       4.932  -6.521   7.647  1.00  0.00     0.132 A 
ATOM      6  C   UNL     1       3.979  -4.412   7.265  1.00  0.00     0.067 A 
ATOM      7  C   UNL     1       4.423  -5.617   6.748  1.00  0.00     0.062 A 
ATOM      8  N   UNL     1       4.146  -4.060   8.547  1.00  0.00    -0.237 NA
ATOM      9  C   UNL     1       4.723  -4.984   9.329  1.00  0.00     0.223 A 
ATOM     10  N   UNL     1       5.104  -6.210   8.951  1.00  0.00    -0.231 NA
BRANCH   6  11
ATOM     11  C   UNL     1       3.248  -3.472   6.400  1.00  0.00     0.029 C 
ATOM     12  C   UNL     1       2.160  -3.915   5.747  1.00  0.00     0.010 C 
BRANCH  12  13
ATOM     13  C   UNL     1       1.389  -3.288   4.659  1.00  0.00    -0.022 A 
ATOM     14  C   UNL     1       1.074  -1.723   2.806  1.00  0.00     0.162 A 
ATOM     15  C   UNL     1       1.722  -2.093   4.005  1.00  0.00     0.058 A 
ATOM     16  C   UNL     1       0.105  -2.564   2.241  1.00  0.00     0.160 A 
ATOM     17  C   UNL     1      -0.289  -3.700   2.952  1.00  0.00     0.051 A 
ATOM     18  C   UNL     1       0.337  -4.056   4.143  1.00  0.00     0.012 A 
BRANCH  14  19
ATOM     19  O   UNL     1       1.544  -0.615   2.149  1.00  0.00    -0.485 OA
BRANCH  19  20
ATOM     20  C   UNL     1       0.960   0.614   2.613  1.00  0.00     0.260 C 
BRANCH  20  21
ATOM     21  C   UNL     1       0.461   1.399   1.415  1.00  0.00    -0.043 C 
ATOM     22  C   UNL     1       1.238   1.653   0.345  1.00  0.00     0.011 C 
ATOM     23  C   UNL     1      -0.989   1.797   1.419  1.00  0.00     0.042 C 
ENDBRANCH  20  21
ENDBRANCH  19  20
ENDBRANCH  14  19
BRANCH  16  24
ATOM     24  O   UNL     1      -0.545  -2.484   1.045  1.00  0.00    -0.493 OA
ATOM     25  C   UNL     1      -0.087  -1.591   0.049  1.00  0.00     0.278 C 
ENDBRANCH  16  24
ENDBRANCH  12  13
ENDBRANCH   6  11
ENDBRANCH   1   5
BRANCH   3  26
ATOM     26  C   UNL     1       3.773  -8.346   5.253  1.00  0.00     0.118 C 
BRANCH  26  27
ATOM     27  C   UNL     1       4.375  -7.981   3.895  1.00  0.00     0.042 C 
BRANCH  27  28
ATOM     28  C   UNL     1       4.929  -9.186   3.134  1.00  0.00     0.118 C 
BRANCH  28  29
ATOM     29  N   UNL     1       3.870 -10.079   2.679  1.00  0.00    -0.352 N 
ATOM     30  C   UNL     1       3.532 -10.474   1.411  1.00  0.00     0.251 C 
ATOM     31  H   UNL     1       3.311 -10.458   3.394  1.00  0.00     0.163 HD
ATOM     32  O   UNL     1       2.458 -11.053   1.225  1.00  0.00    -0.269 OA
BRANCH  30  33
ATOM     33  C   UNL     1       4.427 -10.211   0.266  1.00  0.00     0.039 A 
ATOM     34  C   UNL     1       3.868  -9.820  -0.955  1.00  0.00     0.014 A 
ATOM     35  C   UNL     1       5.808 -10.394   0.373  1.00  0.00     0.014 A 
ATOM     36  C   UNL     1       4.697  -9.557  -2.048  1.00  0.00     0.010 A 
ATOM     37  C   UNL     1       6.639 -10.063  -0.695  1.00  0.00     0.010 A 
ATOM     38  C   UNL     1       6.092  -9.644  -1.918  1.00  0.00    -0.014 A 
BRANCH  38  39
ATOM     39  C   UNL     1       6.997  -9.297  -3.043  1.00  0.00     0.031 A 
ATOM     40  C   UNL     1       7.893 -10.343  -3.647  1.00  0.00     0.074 A 
ATOM     41  C   UNL     1       7.066  -8.021  -3.470  1.00  0.00     0.049 A 
ATOM     42  N   UNL     1       8.815 -10.212  -4.567  1.00  0.00    -0.248 NA
ATOM     43  C   UNL     1       7.753 -11.713  -3.129  1.00  0.00     0.031 C 
ATOM     44  C   UNL     1       6.279  -6.907  -2.938  1.00  0.00     0.029 A 
ATOM     45  N   UNL     1       7.846  -7.442  -4.440  1.00  0.00    -0.354 N 
ATOM     46  C   UNL     1       9.375 -11.474  -4.724  1.00  0.00     0.074 A 
ATOM     47  C   UNL     1       8.723 -12.346  -3.771  1.00  0.00     0.031 C 
ATOM     48  C   UNL     1       6.605  -5.784  -3.597  1.00  0.00     0.029 A 
ATOM     49  C   UNL     1       7.652  -6.088  -4.566  1.00  0.00     0.049 A 
ATOM     50  H   UNL     1       8.484  -7.949  -4.992  1.00  0.00     0.167 HD
ATOM     51  C   UNL     1      10.331 -11.873  -5.596  1.00  0.00     0.037 A 
ATOM     52  C   UNL     1       8.261  -5.189  -5.363  1.00  0.00     0.037 A 
ATOM     53  C   UNL     1      10.960 -11.005  -6.558  1.00  0.00     0.049 A 
ATOM     54  C   UNL     1       9.328  -5.654  -6.314  1.00  0.00     0.074 A 
ATOM     55  C   UNL     1      11.895 -11.327  -7.527  1.00  0.00     0.029 A 
ATOM     56  N   UNL     1      10.723  -9.643  -6.667  1.00  0.00    -0.354 N 
ATOM     57  N   UNL     1       9.800  -6.863  -6.499  1.00  0.00    -0.248 NA
ATOM     58  C   UNL     1       9.944  -4.632  -7.171  1.00  0.00     0.031 C 
ATOM     59  C   UNL     1      12.261 -10.151  -8.189  1.00  0.00     0.029 A 
ATOM     60  C   UNL     1      11.513  -9.105  -7.671  1.00  0.00     0.049 A 
ATOM     61  H   UNL     1      10.088  -9.134  -6.114  1.00  0.00     0.167 HD
ATOM     62  C   UNL     1      10.745  -6.753  -7.511  1.00  0.00     0.074 A 
ATOM     63  C   UNL     1      10.770  -5.361  -7.909  1.00  0.00     0.031 C 
ATOM     64  C   UNL     1      11.521  -7.718  -8.062  1.00  0.00     0.037 A 
BRANCH  51  65
ATOM     65  C   UNL     1      10.759 -13.312  -5.550  1.00  0.00     0.057 A 
ATOM     66  C   UNL     1       9.915 -14.351  -5.965  1.00  0.00     0.134 A 
ATOM     67  C   UNL     1      12.046 -13.662  -5.121  1.00  0.00     0.134 A 
ATOM     68  F   UNL     1       8.666 -14.087  -6.379  1.00  0.00    -0.206 F 
ATOM     69  C   UNL     1      10.324 -15.685  -5.930  1.00  0.00     0.040 A 
ATOM     70  C   UNL     1      12.477 -14.990  -5.109  1.00  0.00     0.040 A 
ATOM     71  F   UNL     1      12.910 -12.718  -4.717  1.00  0.00    -0.206 F 
ATOM     72  C   UNL     1      11.612 -16.007  -5.507  1.00  0.00     0.006 A 
ENDBRANCH  51  65
BRANCH  52  73
ATOM     73  C   UNL     1       7.865  -3.758  -5.305  1.00  0.00     0.057 A 
ATOM     74  C   UNL     1       7.186  -3.153  -6.368  1.00  0.00     0.134 A 
ATOM     75  C   UNL     1       8.159  -2.962  -4.191  1.00  0.00     0.134 A 
ATOM     76  F   UNL     1       6.892  -3.859  -7.470  1.00  0.00    -0.206 F 
ATOM     77  C   UNL     1       6.829  -1.804  -6.336  1.00  0.00     0.040 A 
ATOM     78  C   UNL     1       7.784  -1.619  -4.133  1.00  0.00     0.040 A 
ATOM     79  F   UNL     1       8.800  -3.484  -3.135  1.00  0.00    -0.206 F 
ATOM     80  C   UNL     1       7.124  -1.034  -5.212  1.00  0.00     0.006 A 
ENDBRANCH  52  73
BRANCH  64  81
ATOM     81  C   UNL     1      12.435  -7.313  -9.181  1.00  0.00     0.057 A 
ATOM     82  C   UNL     1      13.583  -6.543  -8.960  1.00  0.00     0.134 A 
ATOM     83  C   UNL     1      12.185  -7.741 -10.492  1.00  0.00     0.134 A 
ATOM     84  F   UNL     1      13.872  -6.090  -7.731  1.00  0.00    -0.206 F 
ATOM     85  C   UNL     1      14.440  -6.196 -10.006  1.00  0.00     0.040 A 
ATOM     86  C   UNL     1      13.049  -7.425 -11.541  1.00  0.00     0.040 A 
ATOM     87  F   UNL     1      11.107  -8.489 -10.771  1.00  0.00    -0.206 F 
ATOM     88  C   UNL     1      14.178  -6.645 -11.300  1.00  0.00     0.006 A 
ENDBRANCH  64  81
ENDBRANCH  38  39
ENDBRANCH  30  33
ENDBRANCH  28  29
ENDBRANCH  27  28
ENDBRANCH  26  27
ENDBRANCH   3  26
TORSDOF 16
