REMARK SMILES Cc1ccccc1[C@@H](Cc1ncnn1C(C)C)C(=O)NCCCNC(=O)c1ccc(-c2c3nc(c(-c4c(F)cccc4F)c4ccc([nH]4)c(-c4c(F)cccc4F)c4nc(c(-c5c(F)cccc5F)c5ccc2[nH]5)C=C4)C=C3)cc1
REMARK SMILES IDX 21 1 20 2 18 3 19 4 8 6 7 7 1 8 2 9 3 10 4 11 6 12 5 13 9 14
REMARK SMILES IDX 10 15 11 16 14 17 12 18 13 19 15 20 16 21 17 22 22 23 23 24
REMARK SMILES IDX 24 25 25 26 26 28 27 29 28 30 80 31 29 32 79 33 30 34 31 35
REMARK SMILES IDX 32 36 73 37 33 38 78 39 72 40 74 41 34 42 77 43 71 44 70 45
REMARK SMILES IDX 35 47 61 48 44 49 60 50 45 51 48 52 59 53 75 54 46 55 47 56
REMARK SMILES IDX 58 58 76 59 49 60 36 61 37 62 42 63 38 64 39 65 41 66 43 67
REMARK SMILES IDX 40 68 62 69 63 70 68 71 64 72 65 73 67 74 69 75 66 76 50 77
REMARK SMILES IDX 51 78 56 79 52 80 53 81 55 82 57 83 54 84
REMARK H PARENT 20 5 24 27 74 46 48 57
REMARK Flexibility Score: inf
ROOT
ATOM      1  C   UNL     1      -1.665   3.661   1.055  1.00  0.00     0.117 C 
ENDROOT
BRANCH   1   2
ATOM      2  N   UNL     1      -0.281   3.503   1.458  1.00  0.00    -0.355 N 
ATOM      3  C   UNL     1       0.839   3.058   0.837  1.00  0.00     0.228 C 
ATOM      4  O   UNL     1       1.894   3.253   1.458  1.00  0.00    -0.274 OA
ATOM      5  H   UNL     1      -0.118   3.781   2.389  1.00  0.00     0.163 HD
BRANCH   3   6
ATOM      6  C   UNL     1       0.891   2.351  -0.526  1.00  0.00     0.116 C 
BRANCH   6   7
ATOM      7  C   UNL     1       0.391   0.901  -0.458  1.00  0.00    -0.032 A 
ATOM      8  C   UNL     1       2.698  -0.034   0.247  1.00  0.00     0.044 C 
ATOM      9  C   UNL     1       1.217  -0.168  -0.013  1.00  0.00    -0.047 A 
ATOM     10  C   UNL     1       0.677  -1.465   0.127  1.00  0.00     0.004 A 
ATOM     11  C   UNL     1      -0.663  -1.722  -0.137  1.00  0.00     0.000 A 
ATOM     12  C   UNL     1      -0.941   0.590  -0.759  1.00  0.00     0.005 A 
ATOM     13  C   UNL     1      -1.470  -0.692  -0.587  1.00  0.00     0.000 A 
ENDBRANCH   6   7
BRANCH   6  14
ATOM     14  C   UNL     1       0.699   3.257  -1.769  1.00  0.00     0.095 C 
BRANCH  14  15
ATOM     15  C   UNL     1      -0.661   3.741  -2.144  1.00  0.00     0.128 A 
ATOM     16  N   UNL     1      -1.619   2.996  -2.666  1.00  0.00    -0.220 NA
ATOM     17  N   UNL     1      -1.126   5.041  -2.081  1.00  0.00    -0.248 N 
ATOM     18  C   UNL     1      -2.678   3.838  -2.786  1.00  0.00     0.246 A 
ATOM     19  N   UNL     1      -2.443   5.085  -2.388  1.00  0.00    -0.159 NA
BRANCH  17  20
ATOM     20  C   UNL     1      -0.440   6.284  -1.745  1.00  0.00     0.103 C 
ATOM     21  C   UNL     1      -0.684   7.349  -2.818  1.00  0.00     0.033 C 
ATOM     22  C   UNL     1      -0.850   6.816  -0.370  1.00  0.00     0.033 C 
ENDBRANCH  17  20
ENDBRANCH  14  15
ENDBRANCH   6  14
ENDBRANCH   3   6
ENDBRANCH   1   2
BRANCH   1  23
ATOM     23  C   UNL     1      -2.563   2.496   1.411  1.00  0.00     0.042 C 
BRANCH  23  24
ATOM     24  C   UNL     1      -3.869   2.942   2.039  1.00  0.00     0.118 C 
BRANCH  24  25
ATOM     25  N   UNL     1      -4.899   3.416   1.112  1.00  0.00    -0.352 N 
ATOM     26  C   UNL     1      -6.177   3.873   1.425  1.00  0.00     0.251 C 
ATOM     27  H   UNL     1      -4.660   3.412   0.157  1.00  0.00     0.163 HD
ATOM     28  O   UNL     1      -6.939   4.281   0.563  1.00  0.00    -0.269 OA
BRANCH  26  29
ATOM     29  C   UNL     1      -6.536   3.990   2.862  1.00  0.00     0.039 A 
ATOM     30  C   UNL     1      -6.750   5.280   3.352  1.00  0.00     0.014 A 
ATOM     31  C   UNL     1      -6.212   2.947   3.721  1.00  0.00     0.014 A 
ATOM     32  C   UNL     1      -6.310   5.585   4.635  1.00  0.00     0.010 A 
ATOM     33  C   UNL     1      -5.637   3.280   4.933  1.00  0.00     0.010 A 
ATOM     34  C   UNL     1      -5.604   4.618   5.350  1.00  0.00    -0.014 A 
BRANCH  34  35
ATOM     35  C   UNL     1      -4.661   4.971   6.415  1.00  0.00     0.031 A 
ATOM     36  C   UNL     1      -4.860   4.472   7.794  1.00  0.00     0.074 A 
ATOM     37  C   UNL     1      -3.575   5.735   6.143  1.00  0.00     0.049 A 
ATOM     38  N   UNL     1      -4.373   5.036   8.849  1.00  0.00    -0.248 NA
ATOM     39  C   UNL     1      -5.708   3.330   8.103  1.00  0.00     0.031 C 
ATOM     40  C   UNL     1      -2.418   5.964   7.006  1.00  0.00     0.029 A 
ATOM     41  N   UNL     1      -3.405   6.647   5.090  1.00  0.00    -0.354 N 
ATOM     42  C   UNL     1      -4.596   4.202   9.922  1.00  0.00     0.074 A 
ATOM     43  C   UNL     1      -5.519   3.216   9.419  1.00  0.00     0.031 C 
ATOM     44  C   UNL     1      -1.817   7.104   6.636  1.00  0.00     0.029 A 
ATOM     45  C   UNL     1      -2.636   7.713   5.604  1.00  0.00     0.049 A 
ATOM     46  H   UNL     1      -3.753   6.560   4.173  1.00  0.00     0.167 HD
ATOM     47  C   UNL     1      -3.866   4.380  11.062  1.00  0.00     0.037 A 
ATOM     48  C   UNL     1      -3.101   8.995   5.630  1.00  0.00     0.037 A 
ATOM     49  C   UNL     1      -3.103   5.632  11.002  1.00  0.00     0.049 A 
ATOM     50  C   UNL     1      -3.175   9.602   7.012  1.00  0.00     0.074 A 
ATOM     51  C   UNL     1      -1.768   5.919  10.765  1.00  0.00     0.029 A 
ATOM     52  N   UNL     1      -3.780   6.848  10.940  1.00  0.00    -0.354 N 
ATOM     53  N   UNL     1      -3.095   8.911   8.114  1.00  0.00    -0.248 NA
ATOM     54  C   UNL     1      -3.398  11.024   7.263  1.00  0.00     0.031 C 
ATOM     55  C   UNL     1      -1.653   7.310  10.514  1.00  0.00     0.029 A 
ATOM     56  C   UNL     1      -2.914   7.872  10.612  1.00  0.00     0.049 A 
ATOM     57  H   UNL     1      -4.743   6.961  11.108  1.00  0.00     0.167 HD
ATOM     58  C   UNL     1      -3.317   9.733   9.189  1.00  0.00     0.074 A 
ATOM     59  C   UNL     1      -3.462  11.053   8.606  1.00  0.00     0.031 C 
ATOM     60  C   UNL     1      -3.394   9.240  10.461  1.00  0.00     0.037 A 
BRANCH  47  61
ATOM     61  C   UNL     1      -3.607   3.305  12.115  1.00  0.00     0.057 A 
ATOM     62  C   UNL     1      -2.519   3.429  13.008  1.00  0.00     0.134 A 
ATOM     63  C   UNL     1      -4.302   2.090  12.255  1.00  0.00     0.134 A 
ATOM     64  F   UNL     1      -1.806   4.559  13.100  1.00  0.00    -0.206 F 
ATOM     65  C   UNL     1      -2.098   2.398  13.863  1.00  0.00     0.040 A 
ATOM     66  C   UNL     1      -3.879   1.040  13.086  1.00  0.00     0.040 A 
ATOM     67  F   UNL     1      -5.460   1.848  11.643  1.00  0.00    -0.206 F 
ATOM     68  C   UNL     1      -2.759   1.182  13.881  1.00  0.00     0.006 A 
ENDBRANCH  47  61
BRANCH  48  69
ATOM     69  C   UNL     1      -4.020   9.317   4.511  1.00  0.00     0.057 A 
ATOM     70  C   UNL     1      -3.509   9.335   3.202  1.00  0.00     0.134 A 
ATOM     71  C   UNL     1      -5.408   9.246   4.654  1.00  0.00     0.134 A 
ATOM     72  F   UNL     1      -2.184   9.401   2.996  1.00  0.00    -0.206 F 
ATOM     73  C   UNL     1      -4.334   9.178   2.086  1.00  0.00     0.040 A 
ATOM     74  C   UNL     1      -6.245   9.095   3.542  1.00  0.00     0.040 A 
ATOM     75  F   UNL     1      -5.966   9.196   5.872  1.00  0.00    -0.206 F 
ATOM     76  C   UNL     1      -5.706   9.024   2.258  1.00  0.00     0.006 A 
ENDBRANCH  48  69
BRANCH  60  77
ATOM     77  C   UNL     1      -3.854   9.998  11.685  1.00  0.00     0.057 A 
ATOM     78  C   UNL     1      -4.759  11.070  11.665  1.00  0.00     0.134 A 
ATOM     79  C   UNL     1      -3.489   9.553  12.977  1.00  0.00     0.134 A 
ATOM     80  F   UNL     1      -5.280  11.528  10.520  1.00  0.00    -0.206 F 
ATOM     81  C   UNL     1      -5.220  11.690  12.836  1.00  0.00     0.040 A 
ATOM     82  C   UNL     1      -3.985  10.129  14.152  1.00  0.00     0.040 A 
ATOM     83  F   UNL     1      -2.651   8.521  13.155  1.00  0.00    -0.206 F 
ATOM     84  C   UNL     1      -4.844  11.213  14.085  1.00  0.00     0.006 A 
ENDBRANCH  60  77
ENDBRANCH  34  35
ENDBRANCH  26  29
ENDBRANCH  24  25
ENDBRANCH  23  24
ENDBRANCH   1  23
TORSDOF 14
