REMARK SMILES O=C(NCCCNC(=O)c1ccc(O)c(Br)n1)c1ccc(-c2c3nc(c(-c4c(F)cccc4F)c4ccc([nH]4)c(-c4c(F)cccc4F)c4nc(c(-c5c(F)cccc5F)c5ccc2[nH]5)C=C4)C=C3)cc1
REMARK SMILES IDX 4 1 3 2 1 3 2 4 18 6 19 7 71 8 20 9 70 10 21 11 22 12 23 13
REMARK SMILES IDX 64 14 24 15 69 16 63 17 65 18 25 19 68 20 62 21 61 22 26 24
REMARK SMILES IDX 52 25 35 26 51 27 36 28 39 29 50 30 66 31 37 32 38 33 49 35
REMARK SMILES IDX 67 36 40 37 27 38 28 39 33 40 29 41 30 42 32 43 34 44 31 45
REMARK SMILES IDX 53 46 54 47 59 48 55 49 56 50 58 51 60 52 57 53 41 54 42 55
REMARK SMILES IDX 47 56 43 57 44 58 46 59 48 60 45 61 5 62 6 63 7 64 8 65 9 67
REMARK SMILES IDX 10 68 11 69 17 70 12 71 15 72 13 73 16 74 14 75
REMARK H PARENT 3 5 65 23 39 34 7 66 14 76
REMARK Flexibility Score: inf
ROOT
ATOM      1  C   UNL     1       4.454   0.399  -1.333  1.00  0.00     0.118 C 
ENDROOT
BRANCH   1   2
ATOM      2  N   UNL     1       3.018   0.440  -1.101  1.00  0.00    -0.352 N 
ATOM      3  O   UNL     1       1.056  -0.064  -0.125  1.00  0.00    -0.269 OA
ATOM      4  C   UNL     1       2.279   0.008  -0.029  1.00  0.00     0.251 C 
ATOM      5  H   UNL     1       2.492   0.843  -1.830  1.00  0.00     0.163 HD
BRANCH   4   6
ATOM      6  C   UNL     1       2.933  -0.379   1.239  1.00  0.00     0.039 A 
ATOM      7  C   UNL     1       3.935   0.412   1.808  1.00  0.00     0.014 A 
ATOM      8  C   UNL     1       2.476  -1.518   1.911  1.00  0.00     0.014 A 
ATOM      9  C   UNL     1       4.546   0.011   2.995  1.00  0.00     0.010 A 
ATOM     10  C   UNL     1       3.057  -1.895   3.125  1.00  0.00     0.010 A 
ATOM     11  C   UNL     1       4.114  -1.145   3.663  1.00  0.00    -0.014 A 
BRANCH  11  12
ATOM     12  C   UNL     1       4.763  -1.542   4.936  1.00  0.00     0.031 A 
ATOM     13  C   UNL     1       5.699  -2.716   4.982  1.00  0.00     0.074 A 
ATOM     14  C   UNL     1       4.536  -0.815   6.045  1.00  0.00     0.049 A 
ATOM     15  N   UNL     1       6.418  -3.158   5.984  1.00  0.00    -0.248 NA
ATOM     16  C   UNL     1       5.851  -3.493   3.743  1.00  0.00     0.031 C 
ATOM     17  C   UNL     1       3.643   0.342   6.128  1.00  0.00     0.029 A 
ATOM     18  N   UNL     1       5.050  -0.933   7.311  1.00  0.00    -0.354 N 
ATOM     19  C   UNL     1       7.124  -4.247   5.491  1.00  0.00     0.074 A 
ATOM     20  C   UNL     1       6.708  -4.432   4.117  1.00  0.00     0.031 C 
ATOM     21  C   UNL     1       3.692   0.844   7.373  1.00  0.00     0.029 A 
ATOM     22  C   UNL     1       4.599   0.031   8.178  1.00  0.00     0.049 A 
ATOM     23  H   UNL     1       5.682  -1.641   7.572  1.00  0.00     0.167 HD
ATOM     24  C   UNL     1       8.051  -5.010   6.119  1.00  0.00     0.037 A 
ATOM     25  C   UNL     1       4.887   0.235   9.476  1.00  0.00     0.037 A 
ATOM     26  C   UNL     1       8.450  -4.844   7.493  1.00  0.00     0.049 A 
ATOM     27  C   UNL     1       5.864  -0.673  10.167  1.00  0.00     0.074 A 
ATOM     28  C   UNL     1       9.379  -5.571   8.218  1.00  0.00     0.029 A 
ATOM     29  N   UNL     1       7.934  -3.887   8.353  1.00  0.00    -0.354 N 
ATOM     30  N   UNL     1       6.556  -1.671   9.676  1.00  0.00    -0.248 NA
ATOM     31  C   UNL     1       6.099  -0.420  11.596  1.00  0.00     0.031 C 
ATOM     32  C   UNL     1       9.403  -5.072   9.526  1.00  0.00     0.029 A 
ATOM     33  C   UNL     1       8.514  -4.014   9.605  1.00  0.00     0.049 A 
ATOM     34  H   UNL     1       7.256  -3.216   8.110  1.00  0.00     0.167 HD
ATOM     35  C   UNL     1       7.328  -2.149  10.727  1.00  0.00     0.074 A 
ATOM     36  C   UNL     1       7.029  -1.322  11.877  1.00  0.00     0.031 C 
ATOM     37  C   UNL     1       8.207  -3.180  10.738  1.00  0.00     0.037 A 
BRANCH  24  38
ATOM     38  C   UNL     1       8.705  -6.092   5.315  1.00  0.00     0.057 A 
ATOM     39  C   UNL     1       8.399  -7.441   5.532  1.00  0.00     0.134 A 
ATOM     40  C   UNL     1       9.668  -5.795   4.341  1.00  0.00     0.134 A 
ATOM     41  F   UNL     1       7.488  -7.793   6.452  1.00  0.00    -0.206 F 
ATOM     42  C   UNL     1       9.028  -8.456   4.809  1.00  0.00     0.040 A 
ATOM     43  C   UNL     1      10.290  -6.800   3.599  1.00  0.00     0.040 A 
ATOM     44  F   UNL     1       9.995  -4.521   4.076  1.00  0.00    -0.206 F 
ATOM     45  C   UNL     1       9.974  -8.136   3.836  1.00  0.00     0.006 A 
ENDBRANCH  24  38
BRANCH  25  46
ATOM     46  C   UNL     1       4.258   1.357  10.213  1.00  0.00     0.057 A 
ATOM     47  C   UNL     1       2.906   1.326  10.572  1.00  0.00     0.134 A 
ATOM     48  C   UNL     1       5.008   2.471  10.608  1.00  0.00     0.134 A 
ATOM     49  F   UNL     1       2.137   0.285  10.221  1.00  0.00    -0.206 F 
ATOM     50  C   UNL     1       2.321   2.362  11.300  1.00  0.00     0.040 A 
ATOM     51  C   UNL     1       4.442   3.504  11.354  1.00  0.00     0.040 A 
ATOM     52  F   UNL     1       6.314   2.545  10.310  1.00  0.00    -0.206 F 
ATOM     53  C   UNL     1       3.093   3.452  11.701  1.00  0.00     0.006 A 
ENDBRANCH  25  46
BRANCH  37  54
ATOM     54  C   UNL     1       8.922  -3.443  12.029  1.00  0.00     0.057 A 
ATOM     55  C   UNL     1      10.270  -3.097  12.182  1.00  0.00     0.134 A 
ATOM     56  C   UNL     1       8.275  -4.036  13.121  1.00  0.00     0.134 A 
ATOM     57  F   UNL     1      10.947  -2.529  11.173  1.00  0.00    -0.206 F 
ATOM     58  C   UNL     1      10.949  -3.326  13.380  1.00  0.00     0.040 A 
ATOM     59  C   UNL     1       8.938  -4.250  14.330  1.00  0.00     0.040 A 
ATOM     60  F   UNL     1       6.979  -4.374  13.042  1.00  0.00    -0.206 F 
ATOM     61  C   UNL     1      10.280  -3.898  14.460  1.00  0.00     0.006 A 
ENDBRANCH  37  54
ENDBRANCH  11  12
ENDBRANCH   4   6
ENDBRANCH   1   2
BRANCH   1  62
ATOM     62  C   UNL     1       4.825  -0.511  -2.500  1.00  0.00     0.042 C 
BRANCH  62  63
ATOM     63  C   UNL     1       4.303  -0.040  -3.856  1.00  0.00     0.118 C 
BRANCH  63  64
ATOM     64  N   UNL     1       4.930   1.205  -4.273  1.00  0.00    -0.351 N 
ATOM     65  C   UNL     1       5.841   1.427  -5.280  1.00  0.00     0.269 C 
ATOM     66  H   UNL     1       4.663   2.003  -3.761  1.00  0.00     0.163 HD
ATOM     67  O   UNL     1       6.423   2.510  -5.336  1.00  0.00    -0.268 OA
BRANCH  65  68
ATOM     68  C   UNL     1       6.151   0.366  -6.281  1.00  0.00     0.129 A 
ATOM     69  C   UNL     1       7.468   0.205  -6.700  1.00  0.00     0.038 A 
ATOM     70  N   UNL     1       5.112  -0.371  -6.752  1.00  0.00    -0.232 NA
ATOM     71  C   UNL     1       7.748  -0.797  -7.624  1.00  0.00     0.051 A 
ATOM     72  C   UNL     1       5.414  -1.327  -7.654  1.00  0.00     0.148 A 
ATOM     73  C   UNL     1       6.708  -1.580  -8.106  1.00  0.00     0.148 A 
ATOM     74  Br  UNL     1       3.968  -2.378  -8.301  1.00  0.00    -0.025 Br
BRANCH  73  75
ATOM     75  O   UNL     1       7.023  -2.563  -9.000  1.00  0.00    -0.505 OA
ATOM     76  H   UNL     1       7.913  -2.686  -9.267  1.00  0.00     0.293 HD
ENDBRANCH  73  75
ENDBRANCH  65  68
ENDBRANCH  63  64
ENDBRANCH  62  63
ENDBRANCH   1  62
TORSDOF 11
