REMARK SMILES C[C@@H]1[C@H](C(=O)NCCCNC(=O)c2ccc(-c3c4nc(c(-c5c(F)cccc5F)c5ccc([nH]5)c(-c5c(F)cccc5F)c5nc(c(-c6c(F)cccc6F)c6ccc3[nH]6)C=C5)C=C4)cc2)CC[N@@H+]1Cc1ccc2c(c1)CCN2C
REMARK SMILES IDX 8 1 7 2 6 3 4 4 5 5 3 7 1 8 2 9 69 10 67 11 68 12 70 14
REMARK SMILES IDX 71 15 72 16 76 17 73 18 75 19 74 20 77 21 79 22 78 23 80 24
REMARK SMILES IDX 9 25 10 26 11 27 12 29 13 30 14 31 66 32 15 33 65 34 16 35
REMARK SMILES IDX 17 36 18 37 59 38 19 39 64 40 58 41 60 42 20 43 63 44 57 45
REMARK SMILES IDX 56 46 21 48 47 49 30 50 46 51 31 52 34 53 45 54 61 55 32 56
REMARK SMILES IDX 33 57 44 59 62 60 35 61 22 62 23 63 28 64 24 65 25 66 27 67
REMARK SMILES IDX 29 68 26 69 48 70 49 71 54 72 50 73 51 74 53 75 55 76 52 77
REMARK SMILES IDX 36 78 37 79 42 80 38 81 39 82 41 83 43 84 40 85
REMARK H PARENT 6 6 69 13 10 28 60 47 34 58
REMARK Flexibility Score: inf
ROOT
ATOM      1  C   UNL     1       2.702   1.609   2.546  1.00  0.00     0.042 C 
ENDROOT
BRANCH   1   2
ATOM      2  C   UNL     1       1.260   1.878   2.119  1.00  0.00     0.117 C 
BRANCH   2   3
ATOM      3  N   UNL     1       1.205   2.666   0.903  1.00  0.00    -0.356 N 
ATOM      4  C   UNL     1       0.791   2.372  -0.351  1.00  0.00     0.229 C 
ATOM      5  O   UNL     1       0.998   3.245  -1.203  1.00  0.00    -0.275 OA
ATOM      6  H   UNL     1       1.531   3.589   1.010  1.00  0.00     0.163 HD
BRANCH   4   7
ATOM      7  C   UNL     1       0.075   1.093  -0.755  1.00  0.00     0.142 C 
ATOM      8  C   UNL     1       2.250  -0.340  -0.353  1.00  0.00     0.076 C 
ATOM      9  C   UNL     1       0.813  -0.258  -0.831  1.00  0.00     0.193 C 
ATOM     10  N   UNL     1      -0.149  -1.258  -0.340  1.00  0.00    -0.328 N 
ATOM     11  C   UNL     1      -1.242   0.800  -0.047  1.00  0.00     0.081 C 
ATOM     12  C   UNL     1      -1.476  -0.663  -0.390  1.00  0.00     0.263 C 
ATOM     13  H   UNL     1      -0.065  -2.041  -0.988  1.00  0.00     0.348 HD
BRANCH  10  14
ATOM     14  C   UNL     1       0.158  -2.189   0.744  1.00  0.00     0.299 C 
BRANCH  14  15
ATOM     15  C   UNL     1       0.139  -1.705   2.185  1.00  0.00     0.007 A 
ATOM     16  C   UNL     1       1.310  -1.775   2.978  1.00  0.00     0.012 A 
ATOM     17  C   UNL     1      -1.046  -1.273   2.800  1.00  0.00     0.015 A 
ATOM     18  C   UNL     1       1.317  -1.377   4.326  1.00  0.00     0.026 A 
ATOM     19  C   UNL     1      -1.020  -0.880   4.129  1.00  0.00    -0.022 A 
ATOM     20  C   UNL     1       0.144  -0.922   4.894  1.00  0.00     0.040 A 
ATOM     21  C   UNL     1      -2.121  -0.281   4.940  1.00  0.00     0.059 C 
ATOM     22  N   UNL     1      -0.068  -0.485   6.207  1.00  0.00    -0.374 N 
ATOM     23  C   UNL     1      -1.531  -0.426   6.352  1.00  0.00     0.121 C 
ATOM     24  C   UNL     1       0.755   0.596   6.716  1.00  0.00     0.143 C 
ENDBRANCH  14  15
ENDBRANCH  10  14
ENDBRANCH   4   7
ENDBRANCH   2   3
ENDBRANCH   1   2
BRANCH   1  25
ATOM     25  C   UNL     1       3.466   2.840   3.006  1.00  0.00     0.118 C 
BRANCH  25  26
ATOM     26  N   UNL     1       3.164   3.201   4.381  1.00  0.00    -0.352 N 
ATOM     27  C   UNL     1       3.842   2.958   5.551  1.00  0.00     0.251 C 
ATOM     28  H   UNL     1       2.327   3.708   4.493  1.00  0.00     0.163 HD
ATOM     29  O   UNL     1       3.263   3.158   6.617  1.00  0.00    -0.269 OA
BRANCH  27  30
ATOM     30  C   UNL     1       5.234   2.436   5.566  1.00  0.00     0.039 A 
ATOM     31  C   UNL     1       5.615   1.586   6.612  1.00  0.00     0.014 A 
ATOM     32  C   UNL     1       6.191   2.813   4.622  1.00  0.00     0.014 A 
ATOM     33  C   UNL     1       6.918   1.077   6.674  1.00  0.00     0.010 A 
ATOM     34  C   UNL     1       7.458   2.226   4.624  1.00  0.00     0.010 A 
ATOM     35  C   UNL     1       7.845   1.364   5.660  1.00  0.00    -0.014 A 
BRANCH  35  36
ATOM     36  C   UNL     1       9.224   0.802   5.679  1.00  0.00     0.031 A 
ATOM     37  C   UNL     1      10.419   1.720   5.734  1.00  0.00     0.074 A 
ATOM     38  C   UNL     1       9.413  -0.529   5.588  1.00  0.00     0.049 A 
ATOM     39  N   UNL     1      11.694   1.427   5.663  1.00  0.00    -0.248 NA
ATOM     40  C   UNL     1      10.144   3.160   5.855  1.00  0.00     0.031 C 
ATOM     41  C   UNL     1       8.352  -1.532   5.486  1.00  0.00     0.029 A 
ATOM     42  N   UNL     1      10.570  -1.269   5.557  1.00  0.00    -0.354 N 
ATOM     43  C   UNL     1      12.366   2.643   5.700  1.00  0.00     0.074 A 
ATOM     44  C   UNL     1      11.358   3.680   5.753  1.00  0.00     0.031 C 
ATOM     45  C   UNL     1       8.905  -2.755   5.431  1.00  0.00     0.029 A 
ATOM     46  C   UNL     1      10.358  -2.622   5.454  1.00  0.00     0.049 A 
ATOM     47  H   UNL     1      11.468  -0.866   5.604  1.00  0.00     0.167 HD
ATOM     48  C   UNL     1      13.700   2.879   5.715  1.00  0.00     0.037 A 
ATOM     49  C   UNL     1      11.234  -3.643   5.379  1.00  0.00     0.037 A 
ATOM     50  C   UNL     1      14.708   1.851   5.711  1.00  0.00     0.049 A 
ATOM     51  C   UNL     1      12.709  -3.358   5.412  1.00  0.00     0.074 A 
ATOM     52  C   UNL     1      16.083   1.990   5.790  1.00  0.00     0.029 A 
ATOM     53  N   UNL     1      14.447   0.492   5.633  1.00  0.00    -0.354 N 
ATOM     54  N   UNL     1      13.326  -2.205   5.497  1.00  0.00    -0.248 NA
ATOM     55  C   UNL     1      13.610  -4.518   5.341  1.00  0.00     0.031 C 
ATOM     56  C   UNL     1      16.657   0.716   5.727  1.00  0.00     0.029 A 
ATOM     57  C   UNL     1      15.637  -0.218   5.648  1.00  0.00     0.049 A 
ATOM     58  H   UNL     1      13.550   0.090   5.575  1.00  0.00     0.167 HD
ATOM     59  C   UNL     1      14.683  -2.501   5.518  1.00  0.00     0.074 A 
ATOM     60  C   UNL     1      14.799  -3.942   5.447  1.00  0.00     0.031 C 
ATOM     61  C   UNL     1      15.738  -1.653   5.589  1.00  0.00     0.037 A 
BRANCH  48  62
ATOM     62  C   UNL     1      14.149   4.311   5.748  1.00  0.00     0.057 A 
ATOM     63  C   UNL     1      13.998   5.106   6.891  1.00  0.00     0.134 A 
ATOM     64  C   UNL     1      14.769   4.893   4.635  1.00  0.00     0.134 A 
ATOM     65  F   UNL     1      13.402   4.612   7.988  1.00  0.00    -0.206 F 
ATOM     66  C   UNL     1      14.422   6.436   6.918  1.00  0.00     0.040 A 
ATOM     67  C   UNL     1      15.221   6.213   4.658  1.00  0.00     0.040 A 
ATOM     68  F   UNL     1      14.953   4.186   3.509  1.00  0.00    -0.206 F 
ATOM     69  C   UNL     1      15.041   6.991   5.800  1.00  0.00     0.006 A 
ENDBRANCH  48  62
BRANCH  49  70
ATOM     70  C   UNL     1      10.739  -5.039   5.293  1.00  0.00     0.057 A 
ATOM     71  C   UNL     1      10.865  -5.914   6.379  1.00  0.00     0.134 A 
ATOM     72  C   UNL     1      10.137  -5.535   4.131  1.00  0.00     0.134 A 
ATOM     73  F   UNL     1      11.451  -5.502   7.512  1.00  0.00    -0.206 F 
ATOM     74  C   UNL     1      10.425  -7.237   6.307  1.00  0.00     0.040 A 
ATOM     75  C   UNL     1       9.672  -6.848   4.053  1.00  0.00     0.040 A 
ATOM     76  F   UNL     1       9.982  -4.744   3.058  1.00  0.00    -0.206 F 
ATOM     77  C   UNL     1       9.822  -7.705   5.141  1.00  0.00     0.006 A 
ENDBRANCH  49  70
BRANCH  61  78
ATOM     78  C   UNL     1      17.107  -2.263   5.630  1.00  0.00     0.057 A 
ATOM     79  C   UNL     1      17.701  -2.822   4.492  1.00  0.00     0.134 A 
ATOM     80  C   UNL     1      17.855  -2.253   6.814  1.00  0.00     0.134 A 
ATOM     81  F   UNL     1      17.031  -2.873   3.331  1.00  0.00    -0.206 F 
ATOM     82  C   UNL     1      18.984  -3.369   4.535  1.00  0.00     0.040 A 
ATOM     83  C   UNL     1      19.147  -2.777   6.864  1.00  0.00     0.040 A 
ATOM     84  F   UNL     1      17.346  -1.725   7.938  1.00  0.00    -0.206 F 
ATOM     85  C   UNL     1      19.713  -3.341   5.723  1.00  0.00     0.006 A 
ENDBRANCH  61  78
ENDBRANCH  35  36
ENDBRANCH  27  30
ENDBRANCH  25  26
ENDBRANCH   1  25
TORSDOF 12
