REMARK SMILES O=C(NCCCNC(=O)c1ccc(-c2c3nc(c(-c4c(F)cccc4F)c4ccc([nH]4)c(-c4c(F)cccc4F)c4nc(c(-c5c(F)cccc5F)c5ccc2[nH]5)C=C4)C=C3)cc1)C1=Cc2ccc(Cl)c(Cl)c2O[C@@H]1C(F)(F)F
REMARK SMILES IDX 5 1 4 2 3 3 1 4 2 5 64 7 65 8 75 9 66 10 74 11 67 12 73 13
REMARK SMILES IDX 68 14 71 15 69 16 72 17 70 18 76 19 77 20 78 21 79 22 6 23
REMARK SMILES IDX 7 24 8 25 9 27 10 28 11 29 63 30 12 31 62 32 13 33 14 34
REMARK SMILES IDX 15 35 56 36 16 37 61 38 55 39 57 40 17 41 60 42 54 43 53 44
REMARK SMILES IDX 18 46 44 47 27 48 43 49 28 50 31 51 42 52 58 53 29 54 30 55
REMARK SMILES IDX 41 57 59 58 32 59 19 60 20 61 25 62 21 63 22 64 24 65 26 66
REMARK SMILES IDX 23 67 45 68 46 69 51 70 47 71 48 72 50 73 52 74 49 75 33 76
REMARK SMILES IDX 34 77 39 78 35 79 36 80 38 81 40 82 37 83
REMARK H PARENT 3 6 7 26 57 45 31 56
REMARK Flexibility Score: inf
ROOT
ATOM      1  C   UNL     1       4.213  -0.101   2.619  1.00  0.00     0.042 C 
ENDROOT
BRANCH   1   2
ATOM      2  C   UNL     1       3.373  -0.585   1.443  1.00  0.00     0.118 C 
BRANCH   2   3
ATOM      3  N   UNL     1       2.384   0.398   0.998  1.00  0.00    -0.352 N 
ATOM      4  O   UNL     1       1.225   1.662  -0.485  1.00  0.00    -0.270 OA
ATOM      5  C   UNL     1       2.227   1.014  -0.220  1.00  0.00     0.251 C 
ATOM      6  H   UNL     1       1.725   0.659   1.682  1.00  0.00     0.163 HD
BRANCH   5   7
ATOM      7  C   UNL     1       3.295   0.809  -1.214  1.00  0.00     0.067 C 
ATOM      8  C   UNL     1       4.481   1.373  -0.959  1.00  0.00     0.025 C 
ATOM      9  C   UNL     1       3.118  -0.311  -2.188  1.00  0.00     0.314 C 
ATOM     10  C   UNL     1       5.604   0.438  -1.105  1.00  0.00     0.019 A 
ATOM     11  O   UNL     1       4.179  -1.289  -2.091  1.00  0.00    -0.474 OA
ATOM     12  C   UNL     1       6.782   0.759  -0.424  1.00  0.00     0.013 A 
ATOM     13  C   UNL     1       5.365  -0.894  -1.508  1.00  0.00     0.148 A 
ATOM     14  C   UNL     1       7.656  -0.255  -0.036  1.00  0.00     0.023 A 
ATOM     15  C   UNL     1       6.258  -1.912  -1.129  1.00  0.00     0.102 A 
ATOM     16  C   UNL     1       7.383  -1.587  -0.360  1.00  0.00     0.063 A 
ATOM     17  Cl  UNL     1       5.851  -3.566  -1.464  1.00  0.00    -0.079 Cl
ATOM     18  Cl  UNL     1       8.429  -2.790   0.311  1.00  0.00    -0.083 Cl
BRANCH   9  19
ATOM     19  C   UNL     1       2.989   0.217  -3.626  1.00  0.00     0.429 C 
ATOM     20  F   UNL     1       2.673  -0.780  -4.486  1.00  0.00    -0.167 F 
ATOM     21  F   UNL     1       2.015   1.151  -3.734  1.00  0.00    -0.167 F 
ATOM     22  F   UNL     1       4.139   0.780  -4.067  1.00  0.00    -0.167 F 
ENDBRANCH   9  19
ENDBRANCH   5   7
ENDBRANCH   2   3
ENDBRANCH   1   2
BRANCH   1  23
ATOM     23  C   UNL     1       4.144  -1.046   3.810  1.00  0.00     0.118 C 
BRANCH  23  24
ATOM     24  N   UNL     1       4.733  -2.358   3.571  1.00  0.00    -0.352 N 
ATOM     25  C   UNL     1       5.532  -3.129   4.387  1.00  0.00     0.251 C 
ATOM     26  H   UNL     1       4.529  -2.754   2.693  1.00  0.00     0.163 HD
ATOM     27  O   UNL     1       5.965  -4.203   3.975  1.00  0.00    -0.269 OA
BRANCH  25  28
ATOM     28  C   UNL     1       5.909  -2.658   5.739  1.00  0.00     0.039 A 
ATOM     29  C   UNL     1       7.205  -2.897   6.208  1.00  0.00     0.014 A 
ATOM     30  C   UNL     1       5.001  -1.970   6.543  1.00  0.00     0.014 A 
ATOM     31  C   UNL     1       7.603  -2.384   7.446  1.00  0.00     0.010 A 
ATOM     32  C   UNL     1       5.436  -1.347   7.704  1.00  0.00     0.010 A 
ATOM     33  C   UNL     1       6.732  -1.571   8.188  1.00  0.00    -0.014 A 
BRANCH  33  34
ATOM     34  C   UNL     1       7.121  -0.994   9.500  1.00  0.00     0.031 A 
ATOM     35  C   UNL     1       6.309  -1.321  10.727  1.00  0.00     0.074 A 
ATOM     36  C   UNL     1       8.144  -0.121   9.578  1.00  0.00     0.049 A 
ATOM     37  N   UNL     1       6.414  -0.849  11.943  1.00  0.00    -0.248 NA
ATOM     38  C   UNL     1       5.191  -2.264  10.551  1.00  0.00     0.031 C 
ATOM     39  C   UNL     1       8.958   0.340   8.450  1.00  0.00     0.029 A 
ATOM     40  N   UNL     1       8.671   0.542  10.657  1.00  0.00    -0.354 N 
ATOM     41  C   UNL     1       5.357  -1.404  12.655  1.00  0.00     0.074 A 
ATOM     42  C   UNL     1       4.579  -2.184  11.721  1.00  0.00     0.031 C 
ATOM     43  C   UNL     1       9.905   1.178   8.904  1.00  0.00     0.029 A 
ATOM     44  C   UNL     1       9.746   1.339  10.345  1.00  0.00     0.049 A 
ATOM     45  H   UNL     1       8.313   0.454  11.570  1.00  0.00     0.167 HD
ATOM     46  C   UNL     1       5.080  -1.308  13.976  1.00  0.00     0.037 A 
ATOM     47  C   UNL     1      10.520   2.104  11.137  1.00  0.00     0.037 A 
ATOM     48  C   UNL     1       5.899  -0.590  14.913  1.00  0.00     0.049 A 
ATOM     49  C   UNL     1      10.240   2.136  12.614  1.00  0.00     0.074 A 
ATOM     50  C   UNL     1       5.765  -0.497  16.286  1.00  0.00     0.029 A 
ATOM     51  N   UNL     1       7.021   0.150  14.567  1.00  0.00    -0.354 N 
ATOM     52  N   UNL     1       9.281   1.546  13.287  1.00  0.00    -0.248 NA
ATOM     53  C   UNL     1      11.160   2.925  13.444  1.00  0.00     0.031 C 
ATOM     54  C   UNL     1       6.789   0.326  16.769  1.00  0.00     0.029 A 
ATOM     55  C   UNL     1       7.585   0.709  15.700  1.00  0.00     0.049 A 
ATOM     56  H   UNL     1       7.364   0.260  13.651  1.00  0.00     0.167 HD
ATOM     57  C   UNL     1       9.497   1.869  14.621  1.00  0.00     0.074 A 
ATOM     58  C   UNL     1      10.689   2.693  14.661  1.00  0.00     0.031 C 
ATOM     59  C   UNL     1       8.776   1.519  15.714  1.00  0.00     0.037 A 
BRANCH  46  60
ATOM     60  C   UNL     1       3.852  -2.016  14.478  1.00  0.00     0.057 A 
ATOM     61  C   UNL     1       3.760  -3.415  14.503  1.00  0.00     0.134 A 
ATOM     62  C   UNL     1       2.748  -1.290  14.941  1.00  0.00     0.134 A 
ATOM     63  F   UNL     1       4.775  -4.171  14.058  1.00  0.00    -0.206 F 
ATOM     64  C   UNL     1       2.601  -4.064  14.931  1.00  0.00     0.040 A 
ATOM     65  C   UNL     1       1.595  -1.929  15.402  1.00  0.00     0.040 A 
ATOM     66  F   UNL     1       2.768   0.051  14.950  1.00  0.00    -0.206 F 
ATOM     67  C   UNL     1       1.515  -3.321  15.388  1.00  0.00     0.006 A 
ENDBRANCH  46  60
BRANCH  47  68
ATOM     68  C   UNL     1      11.664   2.852  10.560  1.00  0.00     0.057 A 
ATOM     69  C   UNL     1      12.984   2.456  10.810  1.00  0.00     0.134 A 
ATOM     70  C   UNL     1      11.473   3.972   9.742  1.00  0.00     0.134 A 
ATOM     71  F   UNL     1      13.232   1.399  11.598  1.00  0.00    -0.206 F 
ATOM     72  C   UNL     1      14.071   3.157  10.287  1.00  0.00     0.040 A 
ATOM     73  C   UNL     1      12.551   4.669   9.192  1.00  0.00     0.040 A 
ATOM     74  F   UNL     1      10.233   4.396   9.453  1.00  0.00    -0.206 F 
ATOM     75  C   UNL     1      13.855   4.265   9.470  1.00  0.00     0.006 A 
ENDBRANCH  47  68
BRANCH  59  76
ATOM     76  C   UNL     1       9.280   1.995  17.044  1.00  0.00     0.057 A 
ATOM     77  C   UNL     1       9.188   3.338  17.431  1.00  0.00     0.134 A 
ATOM     78  C   UNL     1       9.837   1.092  17.957  1.00  0.00     0.134 A 
ATOM     79  F   UNL     1       8.674   4.253  16.596  1.00  0.00    -0.206 F 
ATOM     80  C   UNL     1       9.661   3.771  18.671  1.00  0.00     0.040 A 
ATOM     81  C   UNL     1      10.287   1.508  19.210  1.00  0.00     0.040 A 
ATOM     82  F   UNL     1       9.944  -0.210  17.651  1.00  0.00    -0.206 F 
ATOM     83  C   UNL     1      10.207   2.853  19.567  1.00  0.00     0.006 A 
ENDBRANCH  59  76
ENDBRANCH  33  34
ENDBRANCH  25  28
ENDBRANCH  23  24
ENDBRANCH   1  23
TORSDOF 11
