REMARK SMILES C[C@](Nc1ccc(S(N)(=O)=O)cc1)(C(=O)NCCCNC(=O)c1ccc(-c2c3nc(c(-c4c(F)cccc4F)c4ccc([nH]4)c(-c4c(F)cccc4F)c4nc(c(-c5c(F)cccc5F)c5ccc2[nH]5)C=C4)C=C3)cc1)C(F)(F)F
REMARK SMILES IDX 17 1 16 2 14 3 15 4 2 6 1 7 77 8 78 9 79 10 80 11 3 12 4 14
REMARK SMILES IDX 5 15 13 16 6 17 12 18 7 19 8 20 10 21 11 22 9 23 18 26 19 27
REMARK SMILES IDX 20 28 21 29 22 31 23 32 24 33 76 34 25 35 75 36 26 37 27 38
REMARK SMILES IDX 28 39 69 40 29 41 74 42 68 43 70 44 30 45 73 46 67 47 66 48
REMARK SMILES IDX 31 50 57 51 40 52 56 53 41 54 44 55 55 56 71 57 42 58 43 59
REMARK SMILES IDX 54 61 72 62 45 63 32 64 33 65 38 66 34 67 35 68 37 69 39 70
REMARK SMILES IDX 36 71 58 72 59 73 64 74 60 75 61 76 63 77 65 78 62 79 46 80
REMARK SMILES IDX 47 81 52 82 48 83 49 84 51 85 53 86 50 87
REMARK H PARENT 16 5 3 13 9 24 9 25 20 30 70 49 44 60
REMARK Flexibility Score: inf
ROOT
ATOM      1  C   UNL     1      -0.986   1.781   1.497  1.00  0.00     0.117 C 
ENDROOT
BRANCH   1   2
ATOM      2  N   UNL     1      -1.570   0.454   1.429  1.00  0.00    -0.354 N 
ATOM      3  C   UNL     1      -1.020  -0.785   1.274  1.00  0.00     0.254 C 
ATOM      4  O   UNL     1      -1.843  -1.688   1.102  1.00  0.00    -0.272 OA
ATOM      5  H   UNL     1      -2.551   0.446   1.511  1.00  0.00     0.163 HD
BRANCH   3   6
ATOM      6  C   UNL     1       0.519  -1.020   1.298  1.00  0.00     0.210 C 
ATOM      7  C   UNL     1       1.062  -0.586   2.671  1.00  0.00     0.055 C 
BRANCH   6   8
ATOM      8  C   UNL     1       0.667  -2.561   1.154  1.00  0.00     0.420 C 
ATOM      9  F   UNL     1       0.263  -3.014  -0.056  1.00  0.00    -0.168 F 
ATOM     10  F   UNL     1       1.951  -2.971   1.305  1.00  0.00    -0.168 F 
ATOM     11  F   UNL     1      -0.024  -3.231   2.111  1.00  0.00    -0.168 F 
ENDBRANCH   6   8
BRANCH   6  12
ATOM     12  N   UNL     1       1.123  -0.200   0.191  1.00  0.00    -0.364 N 
ATOM     13  H   UNL     1       0.489   0.132  -0.486  1.00  0.00     0.161 HD
BRANCH  12  14
ATOM     14  C   UNL     1       2.441   0.151  -0.007  1.00  0.00     0.035 A 
ATOM     15  C   UNL     1       2.725   1.393  -0.602  1.00  0.00     0.027 A 
ATOM     16  C   UNL     1       3.529  -0.615   0.414  1.00  0.00     0.027 A 
ATOM     17  C   UNL     1       4.041   1.846  -0.773  1.00  0.00     0.024 A 
ATOM     18  C   UNL     1       4.849  -0.194   0.225  1.00  0.00     0.024 A 
ATOM     19  C   UNL     1       5.101   1.039  -0.366  1.00  0.00     0.082 A 
BRANCH  19  20
ATOM     20  S   UNL     1       6.769   1.584  -0.565  1.00  0.00     0.238 S 
ATOM     21  O   UNL     1       6.870   2.945  -0.087  1.00  0.00    -0.207 OA
ATOM     22  O   UNL     1       7.670   0.542  -0.141  1.00  0.00    -0.207 OA
BRANCH  20  23
ATOM     23  N   UNL     1       6.929   1.658  -2.235  1.00  0.00    -0.225 NA
ATOM     24  H   UNL     1       6.313   2.382  -2.604  1.00  0.00     0.137 HD
ATOM     25  H   UNL     1       6.677   0.757  -2.641  1.00  0.00     0.137 HD
ENDBRANCH  20  23
ENDBRANCH  19  20
ENDBRANCH  12  14
ENDBRANCH   6  12
ENDBRANCH   3   6
ENDBRANCH   1   2
BRANCH   1  26
ATOM     26  C   UNL     1      -1.399   2.632   0.301  1.00  0.00     0.042 C 
BRANCH  26  27
ATOM     27  C   UNL     1      -2.904   2.852   0.176  1.00  0.00     0.118 C 
BRANCH  27  28
ATOM     28  N   UNL     1      -3.466   3.596   1.294  1.00  0.00    -0.352 N 
ATOM     29  C   UNL     1      -4.054   4.838   1.325  1.00  0.00     0.251 C 
ATOM     30  H   UNL     1      -3.417   3.138   2.165  1.00  0.00     0.163 HD
ATOM     31  O   UNL     1      -4.308   5.367   2.402  1.00  0.00    -0.269 OA
BRANCH  29  32
ATOM     32  C   UNL     1      -4.351   5.552   0.066  1.00  0.00     0.039 A 
ATOM     33  C   UNL     1      -4.021   6.905  -0.037  1.00  0.00     0.014 A 
ATOM     34  C   UNL     1      -4.943   4.891  -1.013  1.00  0.00     0.014 A 
ATOM     35  C   UNL     1      -4.198   7.571  -1.252  1.00  0.00     0.010 A 
ATOM     36  C   UNL     1      -5.041   5.530  -2.245  1.00  0.00     0.010 A 
ATOM     37  C   UNL     1      -4.659   6.874  -2.381  1.00  0.00    -0.014 A 
BRANCH  37  38
ATOM     38  C   UNL     1      -4.718   7.518  -3.718  1.00  0.00     0.031 A 
ATOM     39  C   UNL     1      -6.033   7.670  -4.431  1.00  0.00     0.074 A 
ATOM     40  C   UNL     1      -3.575   7.892  -4.326  1.00  0.00     0.049 A 
ATOM     41  N   UNL     1      -6.271   8.115  -5.639  1.00  0.00    -0.248 NA
ATOM     42  C   UNL     1      -7.236   7.242  -3.700  1.00  0.00     0.031 C 
ATOM     43  C   UNL     1      -2.231   7.761  -3.758  1.00  0.00     0.029 A 
ATOM     44  N   UNL     1      -3.357   8.445  -5.564  1.00  0.00    -0.354 N 
ATOM     45  C   UNL     1      -7.644   8.010  -5.817  1.00  0.00     0.074 A 
ATOM     46  C   UNL     1      -8.181   7.410  -4.614  1.00  0.00     0.031 C 
ATOM     47  C   UNL     1      -1.334   8.238  -4.634  1.00  0.00     0.029 A 
ATOM     48  C   UNL     1      -2.029   8.662  -5.845  1.00  0.00     0.049 A 
ATOM     49  H   UNL     1      -4.083   8.666  -6.191  1.00  0.00     0.167 HD
ATOM     50  C   UNL     1      -8.393   8.397  -6.877  1.00  0.00     0.037 A 
ATOM     51  C   UNL     1      -1.436   9.133  -6.958  1.00  0.00     0.037 A 
ATOM     52  C   UNL     1      -7.858   9.007  -8.066  1.00  0.00     0.049 A 
ATOM     53  C   UNL     1      -2.287   9.522  -8.135  1.00  0.00     0.074 A 
ATOM     54  C   UNL     1      -8.541   9.487  -9.170  1.00  0.00     0.029 A 
ATOM     55  N   UNL     1      -6.508   9.211  -8.312  1.00  0.00    -0.354 N 
ATOM     56  N   UNL     1      -3.591   9.482  -8.262  1.00  0.00    -0.248 NA
ATOM     57  C   UNL     1      -1.584  10.022  -9.325  1.00  0.00     0.031 C 
ATOM     58  C   UNL     1      -7.602   9.929 -10.108  1.00  0.00     0.029 A 
ATOM     59  C   UNL     1      -6.337   9.779  -9.564  1.00  0.00     0.049 A 
ATOM     60  H   UNL     1      -5.780   8.986  -7.689  1.00  0.00     0.167 HD
ATOM     61  C   UNL     1      -3.866   9.975  -9.531  1.00  0.00     0.074 A 
ATOM     62  C   UNL     1      -2.594  10.324 -10.128  1.00  0.00     0.031 C 
ATOM     63  C   UNL     1      -5.064  10.124 -10.147  1.00  0.00     0.037 A 
BRANCH  50  64
ATOM     64  C   UNL     1      -9.876   8.170  -6.800  1.00  0.00     0.057 A 
ATOM     65  C   UNL     1     -10.692   8.896  -5.921  1.00  0.00     0.134 A 
ATOM     66  C   UNL     1     -10.502   7.242  -7.641  1.00  0.00     0.134 A 
ATOM     67  F   UNL     1     -10.156   9.794  -5.080  1.00  0.00    -0.206 F 
ATOM     68  C   UNL     1     -12.071   8.687  -5.863  1.00  0.00     0.040 A 
ATOM     69  C   UNL     1     -11.884   7.045  -7.613  1.00  0.00     0.040 A 
ATOM     70  F   UNL     1      -9.783   6.517  -8.512  1.00  0.00    -0.206 F 
ATOM     71  C   UNL     1     -12.671   7.764  -6.717  1.00  0.00     0.006 A 
ENDBRANCH  50  64
BRANCH  51  72
ATOM     72  C   UNL     1       0.043   9.268  -7.015  1.00  0.00     0.057 A 
ATOM     73  C   UNL     1       0.651  10.527  -7.063  1.00  0.00     0.134 A 
ATOM     74  C   UNL     1       0.881   8.147  -7.038  1.00  0.00     0.134 A 
ATOM     75  F   UNL     1      -0.098  11.640  -7.064  1.00  0.00    -0.206 F 
ATOM     76  C   UNL     1       2.037  10.668  -7.154  1.00  0.00     0.040 A 
ATOM     77  C   UNL     1       2.270   8.272  -7.100  1.00  0.00     0.040 A 
ATOM     78  F   UNL     1       0.362   6.911  -6.986  1.00  0.00    -0.206 F 
ATOM     79  C   UNL     1       2.851   9.537  -7.167  1.00  0.00     0.006 A 
ENDBRANCH  51  72
BRANCH  63  80
ATOM     80  C   UNL     1      -5.062  10.716 -11.527  1.00  0.00     0.057 A 
ATOM     81  C   UNL     1      -4.588  10.005 -12.637  1.00  0.00     0.134 A 
ATOM     82  C   UNL     1      -5.582  11.997 -11.754  1.00  0.00     0.134 A 
ATOM     83  F   UNL     1      -4.064   8.779 -12.486  1.00  0.00    -0.206 F 
ATOM     84  C   UNL     1      -4.612  10.555 -13.920  1.00  0.00     0.040 A 
ATOM     85  C   UNL     1      -5.639  12.545 -13.036  1.00  0.00     0.040 A 
ATOM     86  F   UNL     1      -6.060  12.729 -10.737  1.00  0.00    -0.206 F 
ATOM     87  C   UNL     1      -5.147  11.825 -14.123  1.00  0.00     0.006 A 
ENDBRANCH  63  80
ENDBRANCH  37  38
ENDBRANCH  29  32
ENDBRANCH  27  28
ENDBRANCH  26  27
ENDBRANCH   1  26
TORSDOF 15
