REMARK SMILES C[NH2+][C@]1(C(=O)NCCCNC(=O)c2ccc(-c3c4nc(c(-c5c(F)cccc5F)c5ccc([nH]5)c(-c5c(F)cccc5F)c5nc(c(-c6c(F)cccc6F)c6ccc3[nH]6)C=C5)C=C4)cc2)CCC[C@H]1CC[NH+]1C[C@@H](C)O[C@H](C)C1
REMARK SMILES IDX 7 1 6 2 4 3 5 4 3 6 67 7 70 8 68 9 69 10 2 11 1 12 71 15
REMARK SMILES IDX 72 16 73 17 74 18 80 19 75 21 78 22 76 23 77 24 79 25 8 26
REMARK SMILES IDX 9 27 10 28 11 29 12 31 13 32 14 33 66 34 15 35 65 36 16 37
REMARK SMILES IDX 17 38 18 39 59 40 19 41 64 42 58 43 60 44 20 45 63 46 57 47
REMARK SMILES IDX 56 48 21 50 47 51 30 52 46 53 31 54 34 55 45 56 61 57 32 58
REMARK SMILES IDX 33 59 44 61 62 62 35 63 22 64 23 65 28 66 24 67 25 68 27 69
REMARK SMILES IDX 29 70 26 71 48 72 49 73 54 74 50 75 51 76 53 77 55 78 52 79
REMARK SMILES IDX 36 80 37 81 42 82 38 83 39 84 41 85 43 86 40 87
REMARK H PARENT 6 5 2 13 2 14 73 20 10 30 60 49 34 60
REMARK Flexibility Score: inf
ROOT
ATOM      1  C   UNL     1       0.757   2.594  -2.029  1.00  0.00     0.118 C 
ENDROOT
BRANCH   1   2
ATOM      2  N   UNL     1       1.104   2.288  -0.656  1.00  0.00    -0.351 N 
ATOM      3  C   UNL     1       0.372   1.979   0.444  1.00  0.00     0.281 C 
ATOM      4  O   UNL     1       1.036   1.785   1.473  1.00  0.00    -0.268 OA
ATOM      5  H   UNL     1       2.073   2.310  -0.485  1.00  0.00     0.163 HD
BRANCH   3   6
ATOM      6  C   UNL     1      -1.177   1.793   0.450  1.00  0.00     0.178 C 
ATOM      7  C   UNL     1      -1.994   2.901  -0.239  1.00  0.00     0.079 C 
ATOM      8  C   UNL     1      -1.672   0.469  -0.222  1.00  0.00     0.066 C 
ATOM      9  C   UNL     1      -3.362   2.292  -0.483  1.00  0.00     0.008 C 
ATOM     10  C   UNL     1      -3.135   0.792  -0.640  1.00  0.00     0.011 C 
BRANCH   6  11
ATOM     11  N   UNL     1      -1.619   1.642   1.886  1.00  0.00    -0.336 N 
ATOM     12  C   UNL     1      -1.702   2.874   2.659  1.00  0.00     0.331 C 
ATOM     13  H   UNL     1      -2.543   1.210   1.885  1.00  0.00     0.346 HD
ATOM     14  H   UNL     1      -0.898   1.079   2.339  1.00  0.00     0.346 HD
ENDBRANCH   6  11
BRANCH   8  15
ATOM     15  C   UNL     1      -0.944  -0.118  -1.442  1.00  0.00     0.072 C 
BRANCH  15  16
ATOM     16  C   UNL     1       0.348  -0.932  -1.226  1.00  0.00     0.262 C 
BRANCH  16  17
ATOM     17  N   UNL     1       0.219  -2.309  -0.732  1.00  0.00    -0.331 N 
ATOM     18  C   UNL     1      -1.009  -3.043  -1.084  1.00  0.00     0.294 C 
ATOM     19  C   UNL     1       1.376  -3.153  -1.135  1.00  0.00     0.294 C 
ATOM     20  H   UNL     1       0.182  -2.158   0.276  1.00  0.00     0.348 HD
ATOM     21  C   UNL     1      -1.098  -3.593  -2.528  1.00  0.00     0.170 C 
ATOM     22  C   UNL     1       1.297  -3.662  -2.599  1.00  0.00     0.170 C 
ATOM     23  C   UNL     1      -1.376  -2.585  -3.640  1.00  0.00     0.045 C 
ATOM     24  O   UNL     1       0.069  -4.362  -2.855  1.00  0.00    -0.364 OA
ATOM     25  C   UNL     1       2.418  -4.642  -2.924  1.00  0.00     0.045 C 
ENDBRANCH  16  17
ENDBRANCH  15  16
ENDBRANCH   8  15
ENDBRANCH   3   6
ENDBRANCH   1   2
BRANCH   1  26
ATOM     26  C   UNL     1       1.046   4.037  -2.372  1.00  0.00     0.042 C 
BRANCH  26  27
ATOM     27  C   UNL     1       2.534   4.287  -2.508  1.00  0.00     0.118 C 
BRANCH  27  28
ATOM     28  N   UNL     1       3.092   3.619  -3.681  1.00  0.00    -0.352 N 
ATOM     29  C   UNL     1       3.668   4.173  -4.796  1.00  0.00     0.251 C 
ATOM     30  H   UNL     1       3.049   2.635  -3.670  1.00  0.00     0.163 HD
ATOM     31  O   UNL     1       3.873   3.491  -5.796  1.00  0.00    -0.269 OA
BRANCH  29  32
ATOM     32  C   UNL     1       4.017   5.604  -4.779  1.00  0.00     0.039 A 
ATOM     33  C   UNL     1       3.710   6.400  -5.882  1.00  0.00     0.014 A 
ATOM     34  C   UNL     1       4.604   6.161  -3.639  1.00  0.00     0.014 A 
ATOM     35  C   UNL     1       3.930   7.775  -5.811  1.00  0.00     0.010 A 
ATOM     36  C   UNL     1       4.705   7.538  -3.526  1.00  0.00     0.010 A 
ATOM     37  C   UNL     1       4.389   8.357  -4.617  1.00  0.00    -0.014 A 
BRANCH  37  38
ATOM     38  C   UNL     1       4.576   9.821  -4.491  1.00  0.00     0.031 A 
ATOM     39  C   UNL     1       5.942  10.373  -4.193  1.00  0.00     0.074 A 
ATOM     40  C   UNL     1       3.510  10.640  -4.575  1.00  0.00     0.049 A 
ATOM     41  N   UNL     1       6.305  11.611  -3.976  1.00  0.00    -0.248 NA
ATOM     42  C   UNL     1       7.043   9.400  -4.087  1.00  0.00     0.031 C 
ATOM     43  C   UNL     1       2.127  10.213  -4.803  1.00  0.00     0.029 A 
ATOM     44  N   UNL     1       3.423  12.004  -4.471  1.00  0.00    -0.354 N 
ATOM     45  C   UNL     1       7.664  11.560  -3.695  1.00  0.00     0.074 A 
ATOM     46  C   UNL     1       8.048  10.167  -3.695  1.00  0.00     0.031 C 
ATOM     47  C   UNL     1       1.336  11.296  -4.856  1.00  0.00     0.029 A 
ATOM     48  C   UNL     1       2.146  12.487  -4.622  1.00  0.00     0.049 A 
ATOM     49  H   UNL     1       4.202  12.582  -4.304  1.00  0.00     0.167 HD
ATOM     50  C   UNL     1       8.522  12.585  -3.486  1.00  0.00     0.037 A 
ATOM     51  C   UNL     1       1.683  13.750  -4.572  1.00  0.00     0.037 A 
ATOM     52  C   UNL     1       8.136  13.970  -3.512  1.00  0.00     0.049 A 
ATOM     53  C   UNL     1       2.655  14.872  -4.330  1.00  0.00     0.074 A 
ATOM     54  C   UNL     1       8.935  15.090  -3.376  1.00  0.00     0.029 A 
ATOM     55  N   UNL     1       6.835  14.421  -3.683  1.00  0.00    -0.354 N 
ATOM     56  N   UNL     1       3.952  14.817  -4.142  1.00  0.00    -0.248 NA
ATOM     57  C   UNL     1       2.100  16.231  -4.296  1.00  0.00     0.031 C 
ATOM     58  C   UNL     1       8.110  16.218  -3.409  1.00  0.00     0.029 A 
ATOM     59  C   UNL     1       6.805  15.804  -3.627  1.00  0.00     0.049 A 
ATOM     60  H   UNL     1       6.050  13.844  -3.823  1.00  0.00     0.167 HD
ATOM     61  C   UNL     1       4.372  16.133  -3.998  1.00  0.00     0.074 A 
ATOM     62  C   UNL     1       3.193  16.963  -4.137  1.00  0.00     0.031 C 
ATOM     63  C   UNL     1       5.620  16.612  -3.772  1.00  0.00     0.037 A 
BRANCH  50  64
ATOM     64  C   UNL     1       9.959  12.240  -3.215  1.00  0.00     0.057 A 
ATOM     65  C   UNL     1      10.786  11.680  -4.199  1.00  0.00     0.134 A 
ATOM     66  C   UNL     1      10.529  12.489  -1.960  1.00  0.00     0.134 A 
ATOM     67  F   UNL     1      10.300  11.401  -5.418  1.00  0.00    -0.206 F 
ATOM     68  C   UNL     1      12.117  11.351  -3.935  1.00  0.00     0.040 A 
ATOM     69  C   UNL     1      11.867  12.194  -1.694  1.00  0.00     0.040 A 
ATOM     70  F   UNL     1       9.797  13.027  -0.973  1.00  0.00    -0.206 F 
ATOM     71  C   UNL     1      12.663  11.615  -2.681  1.00  0.00     0.006 A 
ENDBRANCH  50  64
BRANCH  51  72
ATOM     72  C   UNL     1       0.238  14.023  -4.780  1.00  0.00     0.057 A 
ATOM     73  C   UNL     1      -0.213  14.687  -5.927  1.00  0.00     0.134 A 
ATOM     74  C   UNL     1      -0.725  13.634  -3.841  1.00  0.00     0.134 A 
ATOM     75  F   UNL     1       0.661  15.099  -6.857  1.00  0.00    -0.206 F 
ATOM     76  C   UNL     1      -1.565  14.975  -6.122  1.00  0.00     0.040 A 
ATOM     77  C   UNL     1      -2.083  13.890  -4.036  1.00  0.00     0.040 A 
ATOM     78  F   UNL     1      -0.360  12.983  -2.727  1.00  0.00    -0.206 F 
ATOM     79  C   UNL     1      -2.505  14.572  -5.176  1.00  0.00     0.006 A 
ENDBRANCH  51  72
BRANCH  63  80
ATOM     80  C   UNL     1       5.779  18.103  -3.695  1.00  0.00     0.057 A 
ATOM     81  C   UNL     1       5.297  18.845  -2.610  1.00  0.00     0.134 A 
ATOM     82  C   UNL     1       6.462  18.797  -4.702  1.00  0.00     0.134 A 
ATOM     83  F   UNL     1       4.623  18.242  -1.619  1.00  0.00    -0.206 F 
ATOM     84  C   UNL     1       5.465  20.229  -2.543  1.00  0.00     0.040 A 
ATOM     85  C   UNL     1       6.663  20.175  -4.630  1.00  0.00     0.040 A 
ATOM     86  F   UNL     1       6.959  18.144  -5.764  1.00  0.00    -0.206 F 
ATOM     87  C   UNL     1       6.157  20.896  -3.551  1.00  0.00     0.006 A 
ENDBRANCH  63  80
ENDBRANCH  37  38
ENDBRANCH  29  32
ENDBRANCH  27  28
ENDBRANCH  26  27
ENDBRANCH   1  26
TORSDOF 14
