REMARK SMILES O=C(NCCCNC(=O)c1ccc(-c2c3nc(c(-c4c(F)cccc4F)c4ccc([nH]4)c(-c4c(F)cccc4F)c4nc(c(-c5c(F)cccc5F)c5ccc2[nH]5)C=C4)C=C3)cc1)C1=Cc2cc(S(F)(F)(F)(F)F)ccc2O[C@@H]1C(F)(F)F
REMARK SMILES IDX 5 1 4 2 3 3 1 4 2 5 64 7 65 8 79 9 66 10 78 11 67 12 77 13
REMARK SMILES IDX 68 14 76 15 75 16 80 17 81 18 82 19 83 20 69 21 70 22 71 23
REMARK SMILES IDX 72 24 73 25 74 26 6 27 7 28 8 29 9 31 10 32 11 33 63 34
REMARK SMILES IDX 12 35 62 36 13 37 14 38 15 39 56 40 16 41 61 42 55 43 57 44
REMARK SMILES IDX 17 45 60 46 54 47 53 48 18 50 44 51 27 52 43 53 28 54 31 55
REMARK SMILES IDX 42 56 58 57 29 58 30 59 41 61 59 62 32 63 19 64 20 65 25 66
REMARK SMILES IDX 21 67 22 68 24 69 26 70 23 71 45 72 46 73 51 74 47 75 48 76
REMARK SMILES IDX 50 77 52 78 49 79 33 80 34 81 39 82 35 83 36 84 38 85 40 86
REMARK SMILES IDX 37 87
REMARK H PARENT 3 6 7 30 57 49 31 60
REMARK Flexibility Score: inf
ROOT
ATOM      1  C   UNL     1       4.923   1.852   1.318  1.00  0.00     0.042 C 
ENDROOT
BRANCH   1   2
ATOM      2  C   UNL     1       4.417   0.428   1.156  1.00  0.00     0.118 C 
BRANCH   2   3
ATOM      3  N   UNL     1       2.946   0.428   1.156  1.00  0.00    -0.352 N 
ATOM      4  O   UNL     1       0.941  -0.080  -0.012  1.00  0.00    -0.270 OA
ATOM      5  C   UNL     1       2.212  -0.080  -0.012  1.00  0.00     0.251 C 
ATOM      6  H   UNL     1       2.454   0.768   1.938  1.00  0.00     0.163 HD
BRANCH   5   7
ATOM      7  C   UNL     1       2.971  -0.604  -1.219  1.00  0.00     0.067 C 
ATOM      8  C   UNL     1       4.332  -0.604  -1.219  1.00  0.00     0.025 C 
ATOM      9  C   UNL     1       2.212  -1.129  -2.426  1.00  0.00     0.314 C 
ATOM     10  C   UNL     1       5.092  -0.080  -0.012  1.00  0.00     0.019 A 
ATOM     11  O   UNL     1       3.439  -1.115   1.347  1.00  0.00    -0.475 OA
ATOM     12  C   UNL     1       6.226   0.698  -0.180  1.00  0.00     0.036 A 
ATOM     13  C   UNL     1       4.689  -0.457   1.196  1.00  0.00     0.128 A 
ATOM     14  C   UNL     1       7.037   0.786   0.976  1.00  0.00     0.107 A 
ATOM     15  C   UNL     1       5.469  -0.217   2.301  1.00  0.00     0.048 A 
ATOM     16  C   UNL     1       6.633   0.494   2.199  1.00  0.00     0.028 A 
BRANCH   9  17
ATOM     17  C   UNL     1       2.579  -2.585  -2.662  1.00  0.00     0.429 C 
ATOM     18  F   UNL     1       2.257  -3.303  -1.589  1.00  0.00    -0.167 F 
ATOM     19  F   UNL     1       1.914  -3.045  -3.718  1.00  0.00    -0.167 F 
ATOM     20  F   UNL     1       3.886  -2.682  -2.885  1.00  0.00    -0.167 F 
ENDBRANCH   9  17
BRANCH  14  21
ATOM     21  S   UNL     1       8.747   1.340   0.764  1.00  0.00     0.310 S 
ATOM     22  F   UNL     1       9.005   1.347   2.329  1.00  0.00    -0.094 F 
ATOM     23  F   UNL     1       8.251   2.828   0.908  1.00  0.00    -0.094 F 
ATOM     24  F   UNL     1      10.216   1.818   0.582  1.00  0.00    -0.094 F 
ATOM     25  F   UNL     1       9.244  -0.160   0.763  1.00  0.00    -0.094 F 
ATOM     26  F   UNL     1       7.278   0.838   1.062  1.00  0.00    -0.094 F 
ENDBRANCH  14  21
ENDBRANCH   5   7
ENDBRANCH   2   3
ENDBRANCH   1   2
BRANCH   1  27
ATOM     27  C   UNL     1       4.417   2.423   2.632  1.00  0.00     0.118 C 
BRANCH  27  28
ATOM     28  N   UNL     1       4.907   1.599   3.747  1.00  0.00    -0.352 N 
ATOM     29  C   UNL     1       5.752   2.199   4.789  1.00  0.00     0.251 C 
ATOM     30  H   UNL     1       4.669   0.645   3.795  1.00  0.00     0.163 HD
ATOM     31  O   UNL     1       6.175   1.486   5.752  1.00  0.00    -0.269 OA
BRANCH  29  32
ATOM     32  C   UNL     1       6.119   3.672   4.715  1.00  0.00     0.039 A 
ATOM     33  C   UNL     1       7.434   4.036   4.952  1.00  0.00     0.014 A 
ATOM     34  C   UNL     1       5.195   4.581   4.425  1.00  0.00     0.014 A 
ATOM     35  C   UNL     1       7.619   5.425   5.145  1.00  0.00     0.010 A 
ATOM     36  C   UNL     1       5.484   5.922   4.503  1.00  0.00     0.010 A 
ATOM     37  C   UNL     1       6.749   6.353   4.790  1.00  0.00    -0.014 A 
BRANCH  37  38
ATOM     38  C   UNL     1       7.133   7.821   4.707  1.00  0.00     0.031 A 
ATOM     39  C   UNL     1       6.443   8.719   5.523  1.00  0.00     0.074 A 
ATOM     40  C   UNL     1       8.140   8.188   3.831  1.00  0.00     0.049 A 
ATOM     41  N   UNL     1       6.638  10.034   5.633  1.00  0.00    -0.248 NA
ATOM     42  C   UNL     1       5.349   8.338   6.428  1.00  0.00     0.031 C 
ATOM     43  C   UNL     1       8.847   7.286   3.011  1.00  0.00     0.029 A 
ATOM     44  N   UNL     1       8.635   9.451   3.593  1.00  0.00    -0.354 N 
ATOM     45  C   UNL     1       5.796  10.552   6.530  1.00  0.00     0.074 A 
ATOM     46  C   UNL     1       4.951   9.469   7.050  1.00  0.00     0.031 C 
ATOM     47  C   UNL     1       9.746   7.997   2.281  1.00  0.00     0.029 A 
ATOM     48  C   UNL     1       9.618   9.354   2.633  1.00  0.00     0.049 A 
ATOM     49  H   UNL     1       8.338  10.280   4.033  1.00  0.00     0.167 HD
ATOM     50  C   UNL     1       5.702  11.884   6.935  1.00  0.00     0.037 A 
ATOM     51  C   UNL     1      10.369  10.380   2.080  1.00  0.00     0.037 A 
ATOM     52  C   UNL     1       6.484  12.904   6.414  1.00  0.00     0.049 A 
ATOM     53  C   UNL     1      10.234  11.722   2.444  1.00  0.00     0.074 A 
ATOM     54  C   UNL     1       6.407  14.251   6.818  1.00  0.00     0.029 A 
ATOM     55  N   UNL     1       7.449  12.810   5.436  1.00  0.00    -0.354 N 
ATOM     56  N   UNL     1       9.420  12.233   3.369  1.00  0.00    -0.248 NA
ATOM     57  C   UNL     1      11.001  12.820   1.843  1.00  0.00     0.031 C 
ATOM     58  C   UNL     1       7.307  14.961   6.087  1.00  0.00     0.029 A 
ATOM     59  C   UNL     1       7.960  14.070   5.214  1.00  0.00     0.049 A 
ATOM     60  H   UNL     1       7.726  11.986   4.976  1.00  0.00     0.167 HD
ATOM     61  C   UNL     1       9.588  13.555   3.449  1.00  0.00     0.074 A 
ATOM     62  C   UNL     1      10.602  13.953   2.463  1.00  0.00     0.031 C 
ATOM     63  C   UNL     1       8.938  14.444   4.306  1.00  0.00     0.037 A 
BRANCH  50  64
ATOM     64  C   UNL     1       4.686  12.237   8.009  1.00  0.00     0.057 A 
ATOM     65  C   UNL     1       4.768  11.614   9.243  1.00  0.00     0.134 A 
ATOM     66  C   UNL     1       3.721  13.109   7.741  1.00  0.00     0.134 A 
ATOM     67  F   UNL     1       5.841  10.938   9.645  1.00  0.00    -0.206 F 
ATOM     68  C   UNL     1       3.607  11.761  10.038  1.00  0.00     0.040 A 
ATOM     69  C   UNL     1       2.687  13.302   8.625  1.00  0.00     0.040 A 
ATOM     70  F   UNL     1       3.756  13.801   6.605  1.00  0.00    -0.206 F 
ATOM     71  C   UNL     1       2.674  12.674   9.839  1.00  0.00     0.006 A 
ENDBRANCH  50  64
BRANCH  51  72
ATOM     72  C   UNL     1      11.396  10.024   1.019  1.00  0.00     0.057 A 
ATOM     73  C   UNL     1      12.733  10.294   1.265  1.00  0.00     0.134 A 
ATOM     74  C   UNL     1      11.008   9.437  -0.108  1.00  0.00     0.134 A 
ATOM     75  F   UNL     1      13.194  10.642   2.463  1.00  0.00    -0.206 F 
ATOM     76  C   UNL     1      13.562  10.167   0.126  1.00  0.00     0.040 A 
ATOM     77  C   UNL     1      11.903   9.221  -1.128  1.00  0.00     0.040 A 
ATOM     78  F   UNL     1       9.742   9.056  -0.249  1.00  0.00    -0.206 F 
ATOM     79  C   UNL     1      13.229   9.519  -0.975  1.00  0.00     0.006 A 
ENDBRANCH  51  72
BRANCH  63  80
ATOM     80  C   UNL     1       9.328  15.912   4.241  1.00  0.00     0.057 A 
ATOM     81  C   UNL     1       9.155  16.586   3.043  1.00  0.00     0.134 A 
ATOM     82  C   UNL     1       9.818  16.525   5.312  1.00  0.00     0.134 A 
ATOM     83  F   UNL     1       8.443  16.096   2.031  1.00  0.00    -0.206 F 
ATOM     84  C   UNL     1       9.803  17.843   2.994  1.00  0.00     0.040 A 
ATOM     85  C   UNL     1      10.310  17.805   5.221  1.00  0.00     0.040 A 
ATOM     86  F   UNL     1       9.831  15.895   6.483  1.00  0.00    -0.206 F 
ATOM     87  C   UNL     1      10.226  18.509   4.053  1.00  0.00     0.006 A 
ENDBRANCH  63  80
ENDBRANCH  37  38
ENDBRANCH  29  32
ENDBRANCH  27  28
ENDBRANCH   1  27
TORSDOF 12
