REMARK SMILES O=C(COCC(=O)Nc1cccc([N+](=O)[O-])c1)NCCCNC(=O)c1ccc(-c2c3nc(c(-c4c(F)cccc4F)c4ccc([nH]4)c(-c4c(F)cccc4F)c4nc(c(-c5c(F)cccc5F)c5ccc2[nH]5)C=C4)C=C3)cc1
REMARK SMILES IDX 1 1 2 2 18 3 3 5 4 6 5 7 6 8 7 9 8 10 9 12 10 13 17 14 11 15
REMARK SMILES IDX 13 16 12 17 14 18 15 19 16 20 19 21 20 22 21 23 22 24 23 25
REMARK SMILES IDX 24 27 25 28 26 29 78 30 27 31 77 32 28 33 29 34 30 35 71 36
REMARK SMILES IDX 31 37 76 38 70 39 72 40 32 41 75 42 69 43 68 44 33 46 59 47
REMARK SMILES IDX 42 48 58 49 43 50 46 51 57 52 73 53 44 54 45 55 56 57 74 58
REMARK SMILES IDX 47 59 34 60 35 61 40 62 36 63 37 64 39 65 41 66 38 67 60 68
REMARK SMILES IDX 61 69 66 70 62 71 63 72 65 73 67 74 64 75 48 76 49 77 54 78
REMARK SMILES IDX 50 79 51 80 53 81 55 82 52 83
REMARK H PARENT 18 4 8 11 22 26 72 45 46 56
REMARK Flexibility Score: inf
ROOT
ATOM      1  O   UNL     1       0.908  -0.841   0.430  1.00  0.00    -0.272 OA
ATOM      2  C   UNL     1       1.985  -0.266   0.305  1.00  0.00     0.246 C 
ATOM      3  N   UNL     1       2.634   0.388   1.330  1.00  0.00    -0.354 N 
ATOM      4  H   UNL     1       3.516   0.789   1.151  1.00  0.00     0.163 HD
ENDROOT
BRANCH   2   5
ATOM      5  C   UNL     1       2.781  -0.271  -0.998  1.00  0.00     0.260 C 
BRANCH   5   6
ATOM      6  O   UNL     1       3.626   0.866  -1.155  1.00  0.00    -0.362 OA
BRANCH   6   7
ATOM      7  C   UNL     1       2.961   2.010  -1.655  1.00  0.00     0.261 C 
BRANCH   7   8
ATOM      8  C   UNL     1       2.208   1.954  -2.998  1.00  0.00     0.250 C 
ATOM      9  O   UNL     1       0.974   1.984  -3.021  1.00  0.00    -0.272 OA
ATOM     10  N   UNL     1       2.877   1.998  -4.191  1.00  0.00    -0.324 N 
ATOM     11  H   UNL     1       2.305   2.201  -4.966  1.00  0.00     0.170 HD
BRANCH  10  12
ATOM     12  C   UNL     1       4.229   1.807  -4.510  1.00  0.00     0.048 A 
ATOM     13  C   UNL     1       4.720   2.449  -5.652  1.00  0.00     0.026 A 
ATOM     14  C   UNL     1       5.076   0.961  -3.798  1.00  0.00     0.111 A 
ATOM     15  C   UNL     1       6.062   2.320  -6.025  1.00  0.00     0.009 A 
ATOM     16  C   UNL     1       6.420   0.827  -4.172  1.00  0.00     0.271 A 
ATOM     17  C   UNL     1       6.923   1.518  -5.277  1.00  0.00     0.086 A 
BRANCH  16  18
ATOM     18  N   UNL     1       7.298  -0.063  -3.400  1.00  0.00     0.062 N 
ATOM     19  O   UNL     1       8.494  -0.109  -3.720  1.00  0.00    -0.258 OA
ATOM     20  O   UNL     1       6.793  -0.716  -2.475  1.00  0.00    -0.258 OA
ENDBRANCH  16  18
ENDBRANCH  10  12
ENDBRANCH   7   8
ENDBRANCH   6   7
ENDBRANCH   5   6
ENDBRANCH   2   5
BRANCH   3  21
ATOM     21  C   UNL     1       2.073   0.508   2.655  1.00  0.00     0.117 C 
BRANCH  21  22
ATOM     22  C   UNL     1       2.464  -0.650   3.566  1.00  0.00     0.042 C 
BRANCH  22  23
ATOM     23  C   UNL     1       3.966  -0.799   3.796  1.00  0.00     0.118 C 
BRANCH  23  24
ATOM     24  N   UNL     1       4.570   0.370   4.419  1.00  0.00    -0.352 N 
ATOM     25  C   UNL     1       5.318   0.495   5.561  1.00  0.00     0.251 C 
ATOM     26  H   UNL     1       4.415   1.215   3.938  1.00  0.00     0.163 HD
ATOM     27  O   UNL     1       5.607   1.623   5.965  1.00  0.00    -0.269 OA
BRANCH  25  28
ATOM     28  C   UNL     1       5.762  -0.688   6.332  1.00  0.00     0.039 A 
ATOM     29  C   UNL     1       5.745  -0.612   7.729  1.00  0.00     0.014 A 
ATOM     30  C   UNL     1       6.233  -1.847   5.710  1.00  0.00     0.014 A 
ATOM     31  C   UNL     1       6.137  -1.712   8.495  1.00  0.00     0.010 A 
ATOM     32  C   UNL     1       6.554  -2.971   6.474  1.00  0.00     0.010 A 
ATOM     33  C   UNL     1       6.510  -2.916   7.875  1.00  0.00    -0.014 A 
BRANCH  33  34
ATOM     34  C   UNL     1       6.826  -4.117   8.691  1.00  0.00     0.031 A 
ATOM     35  C   UNL     1       8.206  -4.716   8.690  1.00  0.00     0.074 A 
ATOM     36  C   UNL     1       5.848  -4.694   9.418  1.00  0.00     0.049 A 
ATOM     37  N   UNL     1       8.659  -5.747   9.360  1.00  0.00    -0.248 NA
ATOM     38  C   UNL     1       9.201  -4.093   7.805  1.00  0.00     0.031 C 
ATOM     39  C   UNL     1       4.452  -4.254   9.456  1.00  0.00     0.029 A 
ATOM     40  N   UNL     1       5.879  -5.773  10.266  1.00  0.00    -0.354 N 
ATOM     41  C   UNL     1       9.985  -5.899   8.972  1.00  0.00     0.074 A 
ATOM     42  C   UNL     1      10.248  -4.889   7.970  1.00  0.00     0.031 C 
ATOM     43  C   UNL     1       3.770  -5.031  10.312  1.00  0.00     0.029 A 
ATOM     44  C   UNL     1       4.670  -6.040  10.861  1.00  0.00     0.049 A 
ATOM     45  H   UNL     1       6.691  -6.305  10.432  1.00  0.00     0.167 HD
ATOM     46  C   UNL     1      10.906  -6.784   9.426  1.00  0.00     0.037 A 
ATOM     47  C   UNL     1       4.325  -6.985  11.755  1.00  0.00     0.037 A 
ATOM     48  C   UNL     1      10.651  -7.779  10.436  1.00  0.00     0.049 A 
ATOM     49  C   UNL     1       5.372  -7.936  12.262  1.00  0.00     0.074 A 
ATOM     50  C   UNL     1      11.535  -8.683  11.001  1.00  0.00     0.029 A 
ATOM     51  N   UNL     1       9.419  -8.002  11.032  1.00  0.00    -0.354 N 
ATOM     52  N   UNL     1       6.641  -8.017  11.944  1.00  0.00    -0.248 NA
ATOM     53  C   UNL     1       4.939  -8.918  13.266  1.00  0.00     0.031 C 
ATOM     54  C   UNL     1      10.829  -9.479  11.910  1.00  0.00     0.029 A 
ATOM     55  C   UNL     1       9.516  -9.039  11.947  1.00  0.00     0.049 A 
ATOM     56  H   UNL     1       8.596  -7.499  10.835  1.00  0.00     0.167 HD
ATOM     57  C   UNL     1       7.164  -9.038  12.726  1.00  0.00     0.074 A 
ATOM     58  C   UNL     1       6.079  -9.533  13.548  1.00  0.00     0.031 C 
ATOM     59  C   UNL     1       8.429  -9.523  12.760  1.00  0.00     0.037 A 
BRANCH  46  60
ATOM     60  C   UNL     1      12.285  -6.709   8.836  1.00  0.00     0.057 A 
ATOM     61  C   UNL     1      13.150  -5.642   9.116  1.00  0.00     0.134 A 
ATOM     62  C   UNL     1      12.769  -7.730   8.008  1.00  0.00     0.134 A 
ATOM     63  F   UNL     1      12.747  -4.626   9.894  1.00  0.00    -0.206 F 
ATOM     64  C   UNL     1      14.435  -5.581   8.574  1.00  0.00     0.040 A 
ATOM     65  C   UNL     1      14.061  -7.693   7.482  1.00  0.00     0.040 A 
ATOM     66  F   UNL     1      11.997  -8.784   7.705  1.00  0.00    -0.206 F 
ATOM     67  C   UNL     1      14.896  -6.613   7.759  1.00  0.00     0.006 A 
ENDBRANCH  46  60
BRANCH  47  68
ATOM     68  C   UNL     1       2.933  -7.050  12.265  1.00  0.00     0.057 A 
ATOM     69  C   UNL     1       2.630  -6.684  13.582  1.00  0.00     0.134 A 
ATOM     70  C   UNL     1       1.877  -7.483  11.456  1.00  0.00     0.134 A 
ATOM     71  F   UNL     1       3.603  -6.278  14.411  1.00  0.00    -0.206 F 
ATOM     72  C   UNL     1       1.330  -6.767  14.083  1.00  0.00     0.040 A 
ATOM     73  C   UNL     1       0.568  -7.546  11.936  1.00  0.00     0.040 A 
ATOM     74  F   UNL     1       2.102  -7.839  10.182  1.00  0.00    -0.206 F 
ATOM     75  C   UNL     1       0.293  -7.195  13.256  1.00  0.00     0.006 A 
ENDBRANCH  47  68
BRANCH  59  76
ATOM     76  C   UNL     1       8.710 -10.622  13.743  1.00  0.00     0.057 A 
ATOM     77  C   UNL     1       8.211 -11.920  13.568  1.00  0.00     0.134 A 
ATOM     78  C   UNL     1       9.491 -10.379  14.879  1.00  0.00     0.134 A 
ATOM     79  F   UNL     1       7.444 -12.215  12.507  1.00  0.00    -0.206 F 
ATOM     80  C   UNL     1       8.448 -12.925  14.505  1.00  0.00     0.040 A 
ATOM     81  C   UNL     1       9.759 -11.385  15.810  1.00  0.00     0.040 A 
ATOM     82  F   UNL     1      10.008  -9.162  15.104  1.00  0.00    -0.206 F 
ATOM     83  C   UNL     1       9.228 -12.659  15.630  1.00  0.00     0.006 A 
ENDBRANCH  59  76
ENDBRANCH  33  34
ENDBRANCH  25  28
ENDBRANCH  23  24
ENDBRANCH  22  23
ENDBRANCH  21  22
ENDBRANCH   3  21
TORSDOF 15
