REMARK SMILES [NH3+][C@H]([C@@H](C(=O)NCCCNC(=O)c1ccc(-c2c3nc(c(-c4c(F)cccc4F)c4ccc([nH]4)c(-c4c(F)cccc4F)c4nc(c(-c5c(F)cccc5F)c5ccc2[nH]5)C=C4)C=C3)cc1)C(=O)OCC1c2ccccc2-c2ccccc21)C(F)(F)F
REMARK SMILES IDX 7 1 6 2 4 3 5 4 3 6 2 7 1 8 84 12 85 13 86 14 87 15 67 16
REMARK SMILES IDX 68 17 69 18 70 19 71 20 72 21 83 22 73 23 77 24 78 25 82 26
REMARK SMILES IDX 74 27 76 28 79 29 81 30 75 31 80 32 8 33 9 34 10 35 11 36
REMARK SMILES IDX 12 38 13 39 14 40 66 41 15 42 65 43 16 44 17 45 18 46 59 47
REMARK SMILES IDX 19 48 64 49 58 50 60 51 20 52 63 53 57 54 56 55 21 57 47 58
REMARK SMILES IDX 30 59 46 60 31 61 34 62 45 63 61 64 32 65 33 66 44 68 62 69
REMARK SMILES IDX 35 70 22 71 23 72 28 73 24 74 25 75 27 76 29 77 26 78 48 79
REMARK SMILES IDX 49 80 54 81 50 82 51 83 53 84 55 85 52 86 36 87 37 88 42 89
REMARK SMILES IDX 38 90 39 91 41 92 43 93 40 94
REMARK H PARENT 6 5 1 9 1 10 1 11 10 37 60 56 34 67
REMARK Flexibility Score: inf
ROOT
ATOM      1  C   UNL     1       0.536  -0.032  -2.888  1.00  0.00     0.117 C 
ENDROOT
BRANCH   1   2
ATOM      2  N   UNL     1       1.788   0.317  -2.228  1.00  0.00    -0.355 N 
ATOM      3  C   UNL     1       2.110   0.462  -0.906  1.00  0.00     0.240 C 
ATOM      4  O   UNL     1       3.296   0.656  -0.634  1.00  0.00    -0.274 OA
ATOM      5  H   UNL     1       2.538   0.479  -2.845  1.00  0.00     0.163 HD
BRANCH   3   6
ATOM      6  C   UNL     1       1.035   0.465   0.158  1.00  0.00     0.255 C 
BRANCH   6   7
ATOM      7  C   UNL     1       0.314   1.832   0.331  1.00  0.00     0.311 C 
BRANCH   7   8
ATOM      8  N   UNL     1       0.819   2.950  -0.522  1.00  0.00    -0.346 N 
ATOM      9  H   UNL     1       0.281   3.794  -0.331  1.00  0.00     0.345 HD
ATOM     10  H   UNL     1       0.719   2.699  -1.506  1.00  0.00     0.345 HD
ATOM     11  H   UNL     1       1.803   3.119  -0.314  1.00  0.00     0.345 HD
ENDBRANCH   7   8
BRANCH   7  12
ATOM     12  C   UNL     1      -1.214   1.562   0.298  1.00  0.00     0.442 C 
ATOM     13  F   UNL     1      -1.554   0.711   1.295  1.00  0.00    -0.165 F 
ATOM     14  F   UNL     1      -1.932   2.691   0.467  1.00  0.00    -0.165 F 
ATOM     15  F   UNL     1      -1.600   0.991  -0.863  1.00  0.00    -0.165 F 
ENDBRANCH   7  12
ENDBRANCH   6   7
BRANCH   6  16
ATOM     16  C   UNL     1       1.573  -0.031   1.487  1.00  0.00     0.325 C 
ATOM     17  O   UNL     1       1.531  -1.204   1.836  1.00  0.00    -0.251 OA
BRANCH  16  18
ATOM     18  O   UNL     1       2.108   0.977   2.226  1.00  0.00    -0.464 OA
BRANCH  18  19
ATOM     19  C   UNL     1       2.713   0.613   3.481  1.00  0.00     0.246 C 
BRANCH  19  20
ATOM     20  C   UNL     1       1.697   0.617   4.637  1.00  0.00     0.088 C 
ATOM     21  C   UNL     1       2.332   0.004   5.879  1.00  0.00    -0.029 A 
ATOM     22  C   UNL     1       1.403   2.037   5.124  1.00  0.00    -0.029 A 
ATOM     23  C   UNL     1       2.693  -1.318   6.090  1.00  0.00     0.005 A 
ATOM     24  C   UNL     1       2.536   0.992   6.866  1.00  0.00    -0.014 A 
ATOM     25  C   UNL     1       1.980   2.242   6.398  1.00  0.00    -0.014 A 
ATOM     26  C   UNL     1       0.679   3.038   4.497  1.00  0.00     0.005 A 
ATOM     27  C   UNL     1       3.288  -1.648   7.309  1.00  0.00     0.000 A 
ATOM     28  C   UNL     1       3.135   0.664   8.071  1.00  0.00     0.009 A 
ATOM     29  C   UNL     1       1.908   3.482   7.013  1.00  0.00     0.009 A 
ATOM     30  C   UNL     1       0.583   4.280   5.131  1.00  0.00     0.000 A 
ATOM     31  C   UNL     1       3.514  -0.665   8.287  1.00  0.00     0.001 A 
ATOM     32  C   UNL     1       1.211   4.506   6.367  1.00  0.00     0.001 A 
ENDBRANCH  19  20
ENDBRANCH  18  19
ENDBRANCH  16  18
ENDBRANCH   6  16
ENDBRANCH   3   6
ENDBRANCH   1   2
BRANCH   1  33
ATOM     33  C   UNL     1      -0.213   1.162  -3.480  1.00  0.00     0.042 C 
BRANCH  33  34
ATOM     34  C   UNL     1       0.581   2.009  -4.469  1.00  0.00     0.118 C 
BRANCH  34  35
ATOM     35  N   UNL     1       0.771   1.347  -5.746  1.00  0.00    -0.352 N 
ATOM     36  C   UNL     1       0.399   1.742  -7.008  1.00  0.00     0.251 C 
ATOM     37  H   UNL     1       1.240   0.482  -5.701  1.00  0.00     0.163 HD
ATOM     38  O   UNL     1       0.488   0.941  -7.935  1.00  0.00    -0.269 OA
BRANCH  36  39
ATOM     39  C   UNL     1      -0.120   3.107  -7.271  1.00  0.00     0.039 A 
ATOM     40  C   UNL     1      -1.173   3.256  -8.180  1.00  0.00     0.014 A 
ATOM     41  C   UNL     1       0.459   4.241  -6.695  1.00  0.00     0.014 A 
ATOM     42  C   UNL     1      -1.669   4.529  -8.479  1.00  0.00     0.010 A 
ATOM     43  C   UNL     1      -0.078   5.506  -6.944  1.00  0.00     0.010 A 
ATOM     44  C   UNL     1      -1.139   5.666  -7.850  1.00  0.00    -0.014 A 
BRANCH  44  45
ATOM     45  C   UNL     1      -1.662   7.026  -8.149  1.00  0.00     0.031 A 
ATOM     46  C   UNL     1      -0.783   8.046  -8.824  1.00  0.00     0.074 A 
ATOM     47  C   UNL     1      -2.911   7.366  -7.775  1.00  0.00     0.049 A 
ATOM     48  N   UNL     1      -1.033   9.301  -9.104  1.00  0.00    -0.248 NA
ATOM     49  C   UNL     1       0.564   7.602  -9.216  1.00  0.00     0.031 C 
ATOM     50  C   UNL     1      -3.857   6.487  -7.086  1.00  0.00     0.029 A 
ATOM     51  N   UNL     1      -3.595   8.549  -7.912  1.00  0.00    -0.354 N 
ATOM     52  C   UNL     1       0.126   9.799  -9.686  1.00  0.00     0.074 A 
ATOM     53  C   UNL     1       1.095   8.724  -9.679  1.00  0.00     0.031 C 
ATOM     54  C   UNL     1      -5.002   7.155  -6.874  1.00  0.00     0.029 A 
ATOM     55  C   UNL     1      -4.862   8.518  -7.379  1.00  0.00     0.049 A 
ATOM     56  H   UNL     1      -3.215   9.344  -8.350  1.00  0.00     0.167 HD
ATOM     57  C   UNL     1       0.358  11.031 -10.198  1.00  0.00     0.037 A 
ATOM     58  C   UNL     1      -5.801   9.480  -7.299  1.00  0.00     0.037 A 
ATOM     59  C   UNL     1      -0.613  12.094 -10.234  1.00  0.00     0.049 A 
ATOM     60  C   UNL     1      -5.518  10.841  -7.872  1.00  0.00     0.074 A 
ATOM     61  C   UNL     1      -0.486  13.360 -10.779  1.00  0.00     0.029 A 
ATOM     62  N   UNL     1      -1.891  12.014  -9.704  1.00  0.00    -0.354 N 
ATOM     63  N   UNL     1      -4.436  11.280  -8.468  1.00  0.00    -0.248 NA
ATOM     64  C   UNL     1      -6.592  11.840  -7.769  1.00  0.00     0.031 C 
ATOM     65  C   UNL     1      -1.675  14.059 -10.546  1.00  0.00     0.029 A 
ATOM     66  C   UNL     1      -2.558  13.213  -9.896  1.00  0.00     0.049 A 
ATOM     67  H   UNL     1      -2.269  11.223  -9.257  1.00  0.00     0.167 HD
ATOM     68  C   UNL     1      -4.710  12.590  -8.838  1.00  0.00     0.074 A 
ATOM     69  C   UNL     1      -6.063  12.873  -8.409  1.00  0.00     0.031 C 
ATOM     70  C   UNL     1      -3.911  13.478  -9.479  1.00  0.00     0.037 A 
BRANCH  57  71
ATOM     71  C   UNL     1       1.722  11.300 -10.768  1.00  0.00     0.057 A 
ATOM     72  C   UNL     1       2.146  10.721 -11.971  1.00  0.00     0.134 A 
ATOM     73  C   UNL     1       2.605  12.177 -10.126  1.00  0.00     0.134 A 
ATOM     74  F   UNL     1       1.352   9.864 -12.630  1.00  0.00    -0.206 F 
ATOM     75  C   UNL     1       3.410  10.984 -12.502  1.00  0.00     0.040 A 
ATOM     76  C   UNL     1       3.861  12.469 -10.661  1.00  0.00     0.040 A 
ATOM     77  F   UNL     1       2.260  12.772  -8.975  1.00  0.00    -0.206 F 
ATOM     78  C   UNL     1       4.269  11.866 -11.850  1.00  0.00     0.006 A 
ENDBRANCH  57  71
BRANCH  58  79
ATOM     79  C   UNL     1      -7.112   9.188  -6.667  1.00  0.00     0.057 A 
ATOM     80  C   UNL     1      -8.279   9.103  -7.434  1.00  0.00     0.134 A 
ATOM     81  C   UNL     1      -7.232   9.002  -5.285  1.00  0.00     0.134 A 
ATOM     82  F   UNL     1      -8.230   9.293  -8.761  1.00  0.00    -0.206 F 
ATOM     83  C   UNL     1      -9.523   8.863  -6.848  1.00  0.00     0.040 A 
ATOM     84  C   UNL     1      -8.466   8.737  -4.689  1.00  0.00     0.040 A 
ATOM     85  F   UNL     1      -6.150   9.066  -4.496  1.00  0.00    -0.206 F 
ATOM     86  C   UNL     1      -9.618   8.675  -5.471  1.00  0.00     0.006 A 
ENDBRANCH  58  79
BRANCH  70  87
ATOM     87  C   UNL     1      -4.493  14.824  -9.798  1.00  0.00     0.057 A 
ATOM     88  C   UNL     1      -4.713  15.790  -8.809  1.00  0.00     0.134 A 
ATOM     89  C   UNL     1      -4.802  15.169 -11.120  1.00  0.00     0.134 A 
ATOM     90  F   UNL     1      -4.451  15.518  -7.522  1.00  0.00    -0.206 F 
ATOM     91  C   UNL     1      -5.241  17.045  -9.121  1.00  0.00     0.040 A 
ATOM     92  C   UNL     1      -5.306  16.428 -11.447  1.00  0.00     0.040 A 
ATOM     93  F   UNL     1      -4.607  14.291 -12.116  1.00  0.00    -0.206 F 
ATOM     94  C   UNL     1      -5.532  17.369 -10.445  1.00  0.00     0.006 A 
ENDBRANCH  70  87
ENDBRANCH  44  45
ENDBRANCH  36  39
ENDBRANCH  34  35
ENDBRANCH  33  34
ENDBRANCH   1  33
TORSDOF 17
