REMARK SMILES Cc1nc(-c2ccccc2Cl)sc1C(=O)NC[C@H]1CC[C@@H](C(=O)NCCCNC(=O)c2ccc(-c3c4nc(c(-c5c(F)cccc5F)c5ccc([nH]5)c(-c5c(F)cccc5F)c5nc(c(-c6c(F)cccc6F)c6ccc3[nH]6)C=C5)C=C4)cc2)CC1
REMARK SMILES IDX 25 1 24 2 22 3 23 4 21 6 18 7 19 8 86 9 20 10 85 11 17 12
REMARK SMILES IDX 16 13 14 14 15 15 13 17 1 18 2 19 3 20 4 21 12 22 5 23 6 24
REMARK SMILES IDX 10 25 7 26 9 27 11 28 8 29 26 30 27 31 28 32 29 33 30 35
REMARK SMILES IDX 31 36 32 37 84 38 33 39 83 40 34 41 35 42 36 43 77 44 37 45
REMARK SMILES IDX 82 46 76 47 78 48 38 49 81 50 75 51 74 52 39 54 65 55 48 56
REMARK SMILES IDX 64 57 49 58 52 59 63 60 79 61 50 62 51 63 62 65 80 66 53 67
REMARK SMILES IDX 40 68 41 69 46 70 42 71 43 72 45 73 47 74 44 75 66 76 67 77
REMARK SMILES IDX 72 78 68 79 69 80 71 81 73 82 70 83 54 84 55 85 60 86 56 87
REMARK SMILES IDX 57 88 59 89 61 90 58 91
REMARK H PARENT 24 5 16 16 28 34 78 53 52 64
REMARK Flexibility Score: inf
ROOT
ATOM      1  C   UNL     1      -6.007  -3.179   0.776  1.00  0.00     0.117 C 
ENDROOT
BRANCH   1   2
ATOM      2  N   UNL     1      -7.204  -3.278  -0.018  1.00  0.00    -0.356 N 
ATOM      3  C   UNL     1      -7.408  -3.442  -1.348  1.00  0.00     0.223 C 
ATOM      4  O   UNL     1      -8.583  -3.654  -1.674  1.00  0.00    -0.275 OA
ATOM      5  H   UNL     1      -8.035  -3.214   0.506  1.00  0.00     0.163 HD
BRANCH   3   6
ATOM      6  C   UNL     1      -6.332  -3.361  -2.446  1.00  0.00     0.078 C 
ATOM      7  C   UNL     1      -3.423  -2.952  -1.658  1.00  0.00     0.008 C 
ATOM      8  C   UNL     1      -4.027  -4.370  -1.795  1.00  0.00     0.006 C 
ATOM      9  C   UNL     1      -4.414  -1.783  -1.836  1.00  0.00     0.006 C 
ATOM     10  C   UNL     1      -5.329  -4.501  -2.575  1.00  0.00     0.014 C 
ATOM     11  C   UNL     1      -5.673  -2.010  -2.645  1.00  0.00     0.014 C 
BRANCH   7  12
ATOM     12  C   UNL     1      -2.651  -2.835  -0.303  1.00  0.00     0.119 C 
BRANCH  12  13
ATOM     13  N   UNL     1      -1.234  -3.021  -0.437  1.00  0.00    -0.351 N 
ATOM     14  C   UNL     1      -0.129  -2.234  -0.257  1.00  0.00     0.263 C 
ATOM     15  O   UNL     1       0.905  -2.918  -0.255  1.00  0.00    -0.268 OA
ATOM     16  H   UNL     1      -1.002  -3.932  -0.728  1.00  0.00     0.163 HD
BRANCH  14  17
ATOM     17  C   UNL     1      -0.094  -0.777  -0.106  1.00  0.00     0.115 A 
ATOM     18  C   UNL     1      -2.420   0.494  -0.093  1.00  0.00     0.068 C 
ATOM     19  C   UNL     1      -0.955   0.322  -0.048  1.00  0.00     0.062 A 
ATOM     20  N   UNL     1      -0.338   1.558   0.058  1.00  0.00    -0.240 NA
ATOM     21  C   UNL     1       0.962   1.454   0.004  1.00  0.00     0.125 A 
ATOM     22  S   UNL     1       1.547  -0.136   0.024  1.00  0.00    -0.108 S 
BRANCH  21  23
ATOM     23  C   UNL     1       1.826   2.626   0.022  1.00  0.00     0.029 A 
ATOM     24  C   UNL     1       1.653   3.532   1.085  1.00  0.00     0.013 A 
ATOM     25  C   UNL     1       2.693   2.968  -1.025  1.00  0.00     0.051 A 
ATOM     26  C   UNL     1       2.334   4.747   1.109  1.00  0.00     0.001 A 
ATOM     27  C   UNL     1       3.377   4.188  -0.996  1.00  0.00     0.021 A 
ATOM     28  Cl  UNL     1       2.910   1.978  -2.428  1.00  0.00    -0.084 Cl
ATOM     29  C   UNL     1       3.195   5.075   0.067  1.00  0.00     0.002 A 
ENDBRANCH  21  23
ENDBRANCH  14  17
ENDBRANCH  12  13
ENDBRANCH   7  12
ENDBRANCH   3   6
ENDBRANCH   1   2
BRANCH   1  30
ATOM     30  C   UNL     1      -5.800  -1.807   1.400  1.00  0.00     0.042 C 
BRANCH  30  31
ATOM     31  C   UNL     1      -6.194  -1.745   2.863  1.00  0.00     0.118 C 
BRANCH  31  32
ATOM     32  N   UNL     1      -5.323  -2.562   3.705  1.00  0.00    -0.352 N 
ATOM     33  C   UNL     1      -4.466  -2.224   4.726  1.00  0.00     0.251 C 
ATOM     34  H   UNL     1      -5.355  -3.525   3.506  1.00  0.00     0.163 HD
ATOM     35  O   UNL     1      -3.696  -3.073   5.162  1.00  0.00    -0.269 OA
BRANCH  33  36
ATOM     36  C   UNL     1      -4.445  -0.853   5.285  1.00  0.00     0.039 A 
ATOM     37  C   UNL     1      -3.238  -0.327   5.757  1.00  0.00     0.014 A 
ATOM     38  C   UNL     1      -5.608  -0.089   5.373  1.00  0.00     0.014 A 
ATOM     39  C   UNL     1      -3.193   0.982   6.244  1.00  0.00     0.010 A 
ATOM     40  C   UNL     1      -5.536   1.251   5.723  1.00  0.00     0.010 A 
ATOM     41  C   UNL     1      -4.334   1.798   6.189  1.00  0.00    -0.014 A 
BRANCH  41  42
ATOM     42  C   UNL     1      -4.313   3.210   6.646  1.00  0.00     0.031 A 
ATOM     43  C   UNL     1      -5.242   3.659   7.745  1.00  0.00     0.074 A 
ATOM     44  C   UNL     1      -3.518   4.103   6.024  1.00  0.00     0.049 A 
ATOM     45  N   UNL     1      -5.440   4.861   8.223  1.00  0.00    -0.248 NA
ATOM     46  C   UNL     1      -6.095   2.627   8.358  1.00  0.00     0.031 C 
ATOM     47  C   UNL     1      -2.623   3.805   4.903  1.00  0.00     0.029 A 
ATOM     48  N   UNL     1      -3.342   5.446   6.240  1.00  0.00    -0.354 N 
ATOM     49  C   UNL     1      -6.452   4.730   9.168  1.00  0.00     0.074 A 
ATOM     50  C   UNL     1      -6.879   3.350   9.143  1.00  0.00     0.031 C 
ATOM     51  C   UNL     1      -1.967   4.923   4.555  1.00  0.00     0.029 A 
ATOM     52  C   UNL     1      -2.426   6.024   5.395  1.00  0.00     0.049 A 
ATOM     53  H   UNL     1      -3.827   5.948   6.934  1.00  0.00     0.167 HD
ATOM     54  C   UNL     1      -6.957   5.665  10.006  1.00  0.00     0.037 A 
ATOM     55  C   UNL     1      -2.006   7.300   5.307  1.00  0.00     0.037 A 
ATOM     56  C   UNL     1      -6.500   7.028  10.052  1.00  0.00     0.049 A 
ATOM     57  C   UNL     1      -2.574   8.321   6.255  1.00  0.00     0.074 A 
ATOM     58  C   UNL     1      -6.891   8.040  10.909  1.00  0.00     0.029 A 
ATOM     59  N   UNL     1      -5.548   7.568   9.200  1.00  0.00    -0.354 N 
ATOM     60  N   UNL     1      -3.474   8.165   7.197  1.00  0.00    -0.248 NA
ATOM     61  C   UNL     1      -2.063   9.693   6.133  1.00  0.00     0.031 C 
ATOM     62  C   UNL     1      -6.214   9.207  10.542  1.00  0.00     0.029 A 
ATOM     63  C   UNL     1      -5.357   8.907   9.495  1.00  0.00     0.049 A 
ATOM     64  H   UNL     1      -5.078   7.073   8.491  1.00  0.00     0.167 HD
ATOM     65  C   UNL     1      -3.615   9.409   7.798  1.00  0.00     0.074 A 
ATOM     66  C   UNL     1      -2.697  10.304   7.124  1.00  0.00     0.031 C 
ATOM     67  C   UNL     1      -4.431   9.779   8.816  1.00  0.00     0.037 A 
BRANCH  54  68
ATOM     68  C   UNL     1      -8.054   5.240  10.941  1.00  0.00     0.057 A 
ATOM     69  C   UNL     1      -7.828   4.338  11.991  1.00  0.00     0.134 A 
ATOM     70  C   UNL     1      -9.351   5.752  10.804  1.00  0.00     0.134 A 
ATOM     71  F   UNL     1      -6.613   3.798  12.174  1.00  0.00    -0.206 F 
ATOM     72  C   UNL     1      -8.856   3.935  12.845  1.00  0.00     0.040 A 
ATOM     73  C   UNL     1     -10.380   5.382  11.672  1.00  0.00     0.040 A 
ATOM     74  F   UNL     1      -9.639   6.624   9.826  1.00  0.00    -0.206 F 
ATOM     75  C   UNL     1     -10.136   4.463  12.690  1.00  0.00     0.006 A 
ENDBRANCH  54  68
BRANCH  55  76
ATOM     76  C   UNL     1      -0.975   7.676   4.306  1.00  0.00     0.057 A 
ATOM     77  C   UNL     1       0.316   8.046   4.702  1.00  0.00     0.134 A 
ATOM     78  C   UNL     1      -1.249   7.672   2.933  1.00  0.00     0.134 A 
ATOM     79  F   UNL     1       0.637   8.082   6.004  1.00  0.00    -0.206 F 
ATOM     80  C   UNL     1       1.289   8.420   3.774  1.00  0.00     0.040 A 
ATOM     81  C   UNL     1      -0.277   8.015   1.991  1.00  0.00     0.040 A 
ATOM     82  F   UNL     1      -2.462   7.317   2.485  1.00  0.00    -0.206 F 
ATOM     83  C   UNL     1       0.994   8.401   2.412  1.00  0.00     0.006 A 
ENDBRANCH  55  76
BRANCH  67  84
ATOM     84  C   UNL     1      -4.340  11.201   9.289  1.00  0.00     0.057 A 
ATOM     85  C   UNL     1      -4.819  12.271   8.522  1.00  0.00     0.134 A 
ATOM     86  C   UNL     1      -3.806  11.497  10.550  1.00  0.00     0.134 A 
ATOM     87  F   UNL     1      -5.332  12.056   7.301  1.00  0.00    -0.206 F 
ATOM     88  C   UNL     1      -4.747  13.586   8.983  1.00  0.00     0.040 A 
ATOM     89  C   UNL     1      -3.757  12.804  11.034  1.00  0.00     0.040 A 
ATOM     90  F   UNL     1      -3.340  10.518  11.340  1.00  0.00    -0.206 F 
ATOM     91  C   UNL     1      -4.222  13.855  10.246  1.00  0.00     0.006 A 
ENDBRANCH  67  84
ENDBRANCH  41  42
ENDBRANCH  33  36
ENDBRANCH  31  32
ENDBRANCH  30  31
ENDBRANCH   1  30
TORSDOF 14
