REMARK SMILES O=C(NCCCNC(=O)c1cccnc1C(=O)Nc1ccc(Cl)cn1)c1ccc(-c2c3nc(c(-c4c(F)cccc4F)c4ccc([nH]4)c(-c4c(F)cccc4F)c4nc(c(-c5c(F)cccc5F)c5ccc2[nH]5)C=C4)C=C3)cc1
REMARK SMILES IDX 5 1 4 2 3 3 1 4 2 5 26 7 27 8 79 9 28 10 78 11 29 12 30 13
REMARK SMILES IDX 31 14 72 15 32 16 77 17 71 18 73 19 33 20 76 21 70 22 69 23
REMARK SMILES IDX 34 25 60 26 43 27 59 28 44 29 47 30 58 31 74 32 45 33 46 34
REMARK SMILES IDX 57 36 75 37 48 38 35 39 36 40 41 41 37 42 38 43 40 44 42 45
REMARK SMILES IDX 39 46 61 47 62 48 67 49 63 50 64 51 66 52 68 53 65 54 49 55
REMARK SMILES IDX 50 56 55 57 51 58 52 59 54 60 56 61 53 62 6 63 7 64 8 65
REMARK SMILES IDX 9 67 10 68 11 69 15 70 12 71 14 72 13 73 16 74 17 75 18 76
REMARK SMILES IDX 19 78 20 79 25 80 21 81 24 82 22 83 23 84
REMARK H PARENT 3 6 73 24 47 35 7 66 18 77
REMARK Flexibility Score: inf
ROOT
ATOM      1  C   UNL     1       4.905   0.122  -2.825  1.00  0.00     0.042 C 
ENDROOT
BRANCH   1   2
ATOM      2  C   UNL     1       4.550   0.573  -1.416  1.00  0.00     0.118 C 
BRANCH   2   3
ATOM      3  N   UNL     1       3.127   0.559  -1.107  1.00  0.00    -0.352 N 
ATOM      4  O   UNL     1       1.218  -0.020  -0.051  1.00  0.00    -0.269 OA
ATOM      5  C   UNL     1       2.447  -0.093  -0.108  1.00  0.00     0.251 C 
ATOM      6  H   UNL     1       2.566   1.101  -1.708  1.00  0.00     0.163 HD
BRANCH   5   7
ATOM      7  C   UNL     1       3.181  -0.919   0.870  1.00  0.00     0.039 A 
ATOM      8  C   UNL     1       4.334  -0.433   1.485  1.00  0.00     0.014 A 
ATOM      9  C   UNL     1       2.726  -2.211   1.149  1.00  0.00     0.014 A 
ATOM     10  C   UNL     1       5.131  -1.299   2.221  1.00  0.00     0.010 A 
ATOM     11  C   UNL     1       3.478  -3.050   1.977  1.00  0.00     0.010 A 
ATOM     12  C   UNL     1       4.712  -2.616   2.483  1.00  0.00    -0.014 A 
BRANCH  12  13
ATOM     13  C   UNL     1       5.569  -3.482   3.332  1.00  0.00     0.031 A 
ATOM     14  C   UNL     1       6.212  -4.731   2.791  1.00  0.00     0.074 A 
ATOM     15  C   UNL     1       5.821  -3.087   4.595  1.00  0.00     0.049 A 
ATOM     16  N   UNL     1       7.047  -5.547   3.384  1.00  0.00    -0.248 NA
ATOM     17  C   UNL     1       5.871  -5.121   1.414  1.00  0.00     0.031 C 
ATOM     18  C   UNL     1       5.234  -1.908   5.239  1.00  0.00     0.029 A 
ATOM     19  N   UNL     1       6.653  -3.607   5.551  1.00  0.00    -0.354 N 
ATOM     20  C   UNL     1       7.327  -6.547   2.461  1.00  0.00     0.074 A 
ATOM     21  C   UNL     1       6.546  -6.256   1.278  1.00  0.00     0.031 C 
ATOM     22  C   UNL     1       5.770  -1.760   6.458  1.00  0.00     0.029 A 
ATOM     23  C   UNL     1       6.688  -2.864   6.707  1.00  0.00     0.049 A 
ATOM     24  H   UNL     1       7.176  -4.431   5.423  1.00  0.00     0.167 HD
ATOM     25  C   UNL     1       8.168  -7.603   2.586  1.00  0.00     0.037 A 
ATOM     26  C   UNL     1       7.375  -3.054   7.848  1.00  0.00     0.037 A 
ATOM     27  C   UNL     1       8.950  -7.886   3.764  1.00  0.00     0.049 A 
ATOM     28  C   UNL     1       8.295  -4.232   7.956  1.00  0.00     0.074 A 
ATOM     29  C   UNL     1       9.837  -8.927   3.982  1.00  0.00     0.029 A 
ATOM     30  N   UNL     1       8.939  -7.125   4.923  1.00  0.00    -0.354 N 
ATOM     31  N   UNL     1       8.564  -5.154   7.064  1.00  0.00    -0.248 NA
ATOM     32  C   UNL     1       9.007  -4.397   9.229  1.00  0.00     0.031 C 
ATOM     33  C   UNL     1      10.335  -8.816   5.285  1.00  0.00     0.029 A 
ATOM     34  C   UNL     1       9.793  -7.681   5.864  1.00  0.00     0.049 A 
ATOM     35  H   UNL     1       8.403  -6.310   5.059  1.00  0.00     0.167 HD
ATOM     36  C   UNL     1       9.478  -6.007   7.665  1.00  0.00     0.074 A 
ATOM     37  C   UNL     1       9.745  -5.470   8.984  1.00  0.00     0.031 C 
ATOM     38  C   UNL     1      10.038  -7.140   7.176  1.00  0.00     0.037 A 
BRANCH  25  39
ATOM     39  C   UNL     1       8.293  -8.540   1.418  1.00  0.00     0.057 A 
ATOM     40  C   UNL     1       8.980  -8.178   0.253  1.00  0.00     0.134 A 
ATOM     41  C   UNL     1       7.782  -9.843   1.486  1.00  0.00     0.134 A 
ATOM     42  F   UNL     1       9.485  -6.942   0.117  1.00  0.00    -0.206 F 
ATOM     43  C   UNL     1       9.144  -9.073  -0.807  1.00  0.00     0.040 A 
ATOM     44  C   UNL     1       7.958 -10.754   0.443  1.00  0.00     0.040 A 
ATOM     45  F   UNL     1       7.119 -10.258   2.576  1.00  0.00    -0.206 F 
ATOM     46  C   UNL     1       8.640 -10.368  -0.710  1.00  0.00     0.006 A 
ENDBRANCH  25  39
BRANCH  26  47
ATOM     47  C   UNL     1       7.201  -2.109   8.978  1.00  0.00     0.057 A 
ATOM     48  C   UNL     1       8.235  -1.259   9.385  1.00  0.00     0.134 A 
ATOM     49  C   UNL     1       5.989  -2.032   9.676  1.00  0.00     0.134 A 
ATOM     50  F   UNL     1       9.424  -1.297   8.765  1.00  0.00    -0.206 F 
ATOM     51  C   UNL     1       8.078  -0.381  10.458  1.00  0.00     0.040 A 
ATOM     52  C   UNL     1       5.807  -1.138  10.730  1.00  0.00     0.040 A 
ATOM     53  F   UNL     1       4.955  -2.813   9.327  1.00  0.00    -0.206 F 
ATOM     54  C   UNL     1       6.858  -0.314  11.129  1.00  0.00     0.006 A 
ENDBRANCH  26  47
BRANCH  38  55
ATOM     55  C   UNL     1      10.998  -7.859   8.076  1.00  0.00     0.057 A 
ATOM     56  C   UNL     1      10.561  -8.557   9.209  1.00  0.00     0.134 A 
ATOM     57  C   UNL     1      12.373  -7.849   7.811  1.00  0.00     0.134 A 
ATOM     58  F   UNL     1       9.257  -8.591   9.526  1.00  0.00    -0.206 F 
ATOM     59  C   UNL     1      11.461  -9.190  10.067  1.00  0.00     0.040 A 
ATOM     60  C   UNL     1      13.280  -8.501   8.647  1.00  0.00     0.040 A 
ATOM     61  F   UNL     1      12.855  -7.205   6.738  1.00  0.00    -0.206 F 
ATOM     62  C   UNL     1      12.825  -9.166   9.784  1.00  0.00     0.006 A 
ENDBRANCH  38  55
ENDBRANCH  12  13
ENDBRANCH   5   7
ENDBRANCH   2   3
ENDBRANCH   1   2
BRANCH   1  63
ATOM     63  C   UNL     1       4.174   0.830  -3.953  1.00  0.00     0.118 C 
BRANCH  63  64
ATOM     64  N   UNL     1       4.217   2.283  -3.883  1.00  0.00    -0.352 N 
ATOM     65  C   UNL     1       4.890   3.179  -4.672  1.00  0.00     0.253 C 
ATOM     66  H   UNL     1       3.682   2.683  -3.160  1.00  0.00     0.163 HD
ATOM     67  O   UNL     1       4.571   4.370  -4.663  1.00  0.00    -0.269 OA
BRANCH  65  68
ATOM     68  C   UNL     1       5.896   2.722  -5.620  1.00  0.00     0.071 A 
ATOM     69  C   UNL     1       5.380   2.153  -6.796  1.00  0.00     0.018 A 
ATOM     70  C   UNL     1       7.277   2.820  -5.463  1.00  0.00     0.141 A 
ATOM     71  C   UNL     1       6.241   1.645  -7.755  1.00  0.00     0.021 A 
ATOM     72  N   UNL     1       8.125   2.308  -6.407  1.00  0.00    -0.250 NA
ATOM     73  C   UNL     1       7.597   1.739  -7.514  1.00  0.00     0.112 A 
BRANCH  70  74
ATOM     74  C   UNL     1       8.028   3.432  -4.297  1.00  0.00     0.276 C 
ATOM     75  O   UNL     1       9.050   2.895  -3.870  1.00  0.00    -0.267 OA
ATOM     76  N   UNL     1       7.695   4.705  -3.911  1.00  0.00    -0.305 N 
ATOM     77  H   UNL     1       8.136   5.441  -4.393  1.00  0.00     0.171 HD
BRANCH  76  78
ATOM     78  C   UNL     1       6.797   5.064  -2.911  1.00  0.00     0.132 A 
ATOM     79  C   UNL     1       6.238   4.129  -2.046  1.00  0.00     0.049 A 
ATOM     80  N   UNL     1       6.438   6.363  -2.920  1.00  0.00    -0.238 NA
ATOM     81  C   UNL     1       5.157   4.516  -1.254  1.00  0.00     0.026 A 
ATOM     82  C   UNL     1       5.361   6.702  -2.168  1.00  0.00     0.134 A 
ATOM     83  C   UNL     1       4.681   5.816  -1.350  1.00  0.00     0.059 A 
ATOM     84  Cl  UNL     1       3.275   6.293  -0.492  1.00  0.00    -0.083 Cl
ENDBRANCH  76  78
ENDBRANCH  70  74
ENDBRANCH  65  68
ENDBRANCH  63  64
ENDBRANCH   1  63
TORSDOF 12
