REMARK SMILES O=C(C[C@@H]([NH2+]Cc1ccccc1)C(=O)/N=c1/[nH]c(-c2ccccc2)cs1)NCCCNC(=O)c1ccc(-c2c3nc(c(-c4c(F)cccc4F)c4ccc([nH]4)c(-c4c(F)cccc4F)c4nc(c(-c5c(F)cccc5F)c5ccc2[nH]5)C=C4)C=C3)cc1
REMARK SMILES IDX 28 1 27 2 1 3 2 4 3 6 4 7 5 8 6 11 7 12 8 13 12 14 9 15
REMARK SMILES IDX 11 16 10 17 13 18 14 19 15 20 16 21 17 22 26 23 18 24 25 26
REMARK SMILES IDX 19 27 20 28 24 29 21 30 23 31 22 32 29 33 30 34 31 35 32 36
REMARK SMILES IDX 33 38 34 39 35 40 87 41 36 42 86 43 37 44 38 45 39 46 80 47
REMARK SMILES IDX 40 48 85 49 79 50 81 51 41 52 84 53 78 54 77 55 42 57 68 58
REMARK SMILES IDX 51 59 67 60 52 61 55 62 66 63 82 64 53 65 54 66 65 68 83 69
REMARK SMILES IDX 56 70 43 71 44 72 49 73 45 74 46 75 48 76 50 77 47 78 69 79
REMARK SMILES IDX 70 80 75 81 71 82 72 83 74 84 76 85 73 86 57 87 58 88 63 89
REMARK SMILES IDX 59 90 60 91 62 92 64 93 61 94
REMARK H PARENT 27 5 5 9 5 10 17 25 31 37 81 56 55 67
REMARK Flexibility Score: inf
ROOT
ATOM      1  C   UNL     1       2.032   2.216   1.669  1.00  0.00     0.117 C 
ENDROOT
BRANCH   1   2
ATOM      2  N   UNL     1       2.685   1.203   0.873  1.00  0.00    -0.356 N 
ATOM      3  O   UNL     1       0.816   0.475  -0.253  1.00  0.00    -0.275 OA
ATOM      4  C   UNL     1       2.002   0.373   0.017  1.00  0.00     0.226 C 
ATOM      5  H   UNL     1       3.661   1.103   0.948  1.00  0.00     0.163 HD
BRANCH   4   6
ATOM      6  C   UNL     1       2.869  -0.738  -0.503  1.00  0.00     0.175 C 
BRANCH   6   7
ATOM      7  C   UNL     1       3.776  -0.337  -1.662  1.00  0.00     0.284 C 
BRANCH   7   8
ATOM      8  N   UNL     1       4.821   0.652  -1.254  1.00  0.00    -0.332 N 
ATOM      9  H   UNL     1       5.432   0.215  -0.565  1.00  0.00     0.347 HD
ATOM     10  H   UNL     1       4.340   1.466  -0.871  1.00  0.00     0.347 HD
BRANCH   8  11
ATOM     11  C   UNL     1       5.644   1.115  -2.390  1.00  0.00     0.297 C 
BRANCH  11  12
ATOM     12  C   UNL     1       4.912   2.123  -3.248  1.00  0.00     0.006 A 
ATOM     13  C   UNL     1       5.024   3.497  -2.989  1.00  0.00     0.009 A 
ATOM     14  C   UNL     1       4.041   1.697  -4.263  1.00  0.00     0.009 A 
ATOM     15  C   UNL     1       4.256   4.417  -3.705  1.00  0.00     0.001 A 
ATOM     16  C   UNL     1       3.249   2.615  -4.952  1.00  0.00     0.001 A 
ATOM     17  C   UNL     1       3.354   3.974  -4.671  1.00  0.00     0.000 A 
ENDBRANCH  11  12
ENDBRANCH   8  11
ENDBRANCH   7   8
BRANCH   7  18
ATOM     18  C   UNL     1       4.380  -1.636  -2.268  1.00  0.00     0.307 C 
ATOM     19  O   UNL     1       3.936  -2.102  -3.314  1.00  0.00    -0.265 OA
BRANCH  18  20
ATOM     20  N   UNL     1       5.450  -2.195  -1.603  1.00  0.00    -0.180 NA
ATOM     21  C   UNL     1       5.225  -3.180  -0.803  1.00  0.00     0.190 A 
ATOM     22  N   UNL     1       6.172  -3.848  -0.067  1.00  0.00    -0.330 N 
ATOM     23  S   UNL     1       3.642  -3.888  -0.374  1.00  0.00    -0.105 S 
ATOM     24  C   UNL     1       5.706  -4.746   0.875  1.00  0.00     0.058 A 
ATOM     25  H   UNL     1       7.135  -3.695  -0.204  1.00  0.00     0.169 HD
ATOM     26  C   UNL     1       4.363  -4.825   0.904  1.00  0.00     0.095 A 
BRANCH  24  27
ATOM     27  C   UNL     1       6.605  -5.565   1.704  1.00  0.00    -0.001 A 
ATOM     28  C   UNL     1       7.913  -5.165   2.008  1.00  0.00     0.010 A 
ATOM     29  C   UNL     1       6.181  -6.831   2.145  1.00  0.00     0.010 A 
ATOM     30  C   UNL     1       8.774  -6.018   2.710  1.00  0.00     0.001 A 
ATOM     31  C   UNL     1       7.035  -7.678   2.851  1.00  0.00     0.001 A 
ATOM     32  C   UNL     1       8.336  -7.274   3.124  1.00  0.00     0.000 A 
ENDBRANCH  24  27
ENDBRANCH  18  20
ENDBRANCH   7  18
ENDBRANCH   6   7
ENDBRANCH   4   6
ENDBRANCH   1   2
BRANCH   1  33
ATOM     33  C   UNL     1       2.369   2.042   3.145  1.00  0.00     0.042 C 
BRANCH  33  34
ATOM     34  C   UNL     1       3.861   2.113   3.462  1.00  0.00     0.118 C 
BRANCH  34  35
ATOM     35  N   UNL     1       4.467   3.373   3.062  1.00  0.00    -0.352 N 
ATOM     36  C   UNL     1       5.191   4.275   3.799  1.00  0.00     0.251 C 
ATOM     37  H   UNL     1       4.337   3.617   2.117  1.00  0.00     0.163 HD
ATOM     38  O   UNL     1       5.473   5.367   3.315  1.00  0.00    -0.269 OA
BRANCH  36  39
ATOM     39  C   UNL     1       5.615   3.950   5.178  1.00  0.00     0.039 A 
ATOM     40  C   UNL     1       5.519   4.943   6.155  1.00  0.00     0.014 A 
ATOM     41  C   UNL     1       6.126   2.692   5.507  1.00  0.00     0.014 A 
ATOM     42  C   UNL     1       5.885   4.657   7.472  1.00  0.00     0.010 A 
ATOM     43  C   UNL     1       6.411   2.383   6.836  1.00  0.00     0.010 A 
ATOM     44  C   UNL     1       6.302   3.364   7.831  1.00  0.00    -0.014 A 
BRANCH  44  45
ATOM     45  C   UNL     1       6.621   3.037   9.245  1.00  0.00     0.031 A 
ATOM     46  C   UNL     1       8.012   2.621   9.640  1.00  0.00     0.074 A 
ATOM     47  C   UNL     1       5.645   3.084  10.173  1.00  0.00     0.049 A 
ATOM     48  N   UNL     1       8.473   2.297  10.823  1.00  0.00    -0.248 NA
ATOM     49  C   UNL     1       9.012   2.533   8.565  1.00  0.00     0.031 C 
ATOM     50  C   UNL     1       4.245   3.422   9.911  1.00  0.00     0.029 A 
ATOM     51  N   UNL     1       5.682   2.849  11.525  1.00  0.00    -0.354 N 
ATOM     52  C   UNL     1       9.808   1.964  10.632  1.00  0.00     0.074 A 
ATOM     53  C   UNL     1      10.068   2.064   9.212  1.00  0.00     0.031 C 
ATOM     54  C   UNL     1       3.565   3.408  11.068  1.00  0.00     0.029 A 
ATOM     55  C   UNL     1       4.469   3.022  12.147  1.00  0.00     0.049 A 
ATOM     56  H   UNL     1       6.499   2.582  12.004  1.00  0.00     0.167 HD
ATOM     57  C   UNL     1      10.741   1.631  11.556  1.00  0.00     0.037 A 
ATOM     58  C   UNL     1       4.122   2.884  13.441  1.00  0.00     0.037 A 
ATOM     59  C   UNL     1      10.484   1.546  12.971  1.00  0.00     0.049 A 
ATOM     60  C   UNL     1       5.173   2.501  14.446  1.00  0.00     0.074 A 
ATOM     61  C   UNL     1      11.375   1.269  13.993  1.00  0.00     0.029 A 
ATOM     62  N   UNL     1       9.243   1.730  13.562  1.00  0.00    -0.354 N 
ATOM     63  N   UNL     1       6.449   2.263  14.260  1.00  0.00    -0.248 NA
ATOM     64  C   UNL     1       4.737   2.377  15.843  1.00  0.00     0.031 C 
ATOM     65  C   UNL     1      10.663   1.231  15.197  1.00  0.00     0.029 A 
ATOM     66  C   UNL     1       9.340   1.546  14.933  1.00  0.00     0.049 A 
ATOM     67  H   UNL     1       8.415   1.958  13.080  1.00  0.00     0.167 HD
ATOM     68  C   UNL     1       6.973   1.993  15.518  1.00  0.00     0.074 A 
ATOM     69  C   UNL     1       5.880   2.115  16.460  1.00  0.00     0.031 C 
ATOM     70  C   UNL     1       8.245   1.673  15.862  1.00  0.00     0.037 A 
BRANCH  57  71
ATOM     71  C   UNL     1      12.130   1.335  11.066  1.00  0.00     0.057 A 
ATOM     72  C   UNL     1      12.958   2.335  10.536  1.00  0.00     0.134 A 
ATOM     73  C   UNL     1      12.662   0.042  11.159  1.00  0.00     0.134 A 
ATOM     74  F   UNL     1      12.509   3.592  10.408  1.00  0.00    -0.206 F 
ATOM     75  C   UNL     1      14.251   2.054  10.092  1.00  0.00     0.040 A 
ATOM     76  C   UNL     1      13.965  -0.244  10.746  1.00  0.00     0.040 A 
ATOM     77  F   UNL     1      11.929  -0.962  11.662  1.00  0.00    -0.206 F 
ATOM     78  C   UNL     1      14.761   0.763  10.204  1.00  0.00     0.006 A 
ENDBRANCH  57  71
BRANCH  58  79
ATOM     79  C   UNL     1       2.721   3.133  13.868  1.00  0.00     0.057 A 
ATOM     80  C   UNL     1       2.393   4.230  14.674  1.00  0.00     0.134 A 
ATOM     81  C   UNL     1       1.680   2.275  13.494  1.00  0.00     0.134 A 
ATOM     82  F   UNL     1       3.349   5.079  15.080  1.00  0.00    -0.206 F 
ATOM     83  C   UNL     1       1.087   4.451  15.114  1.00  0.00     0.040 A 
ATOM     84  C   UNL     1       0.364   2.500  13.903  1.00  0.00     0.040 A 
ATOM     85  F   UNL     1       1.925   1.211  12.715  1.00  0.00    -0.206 F 
ATOM     86  C   UNL     1       0.067   3.586  14.724  1.00  0.00     0.006 A 
ENDBRANCH  58  79
BRANCH  70  87
ATOM     87  C   UNL     1       8.531   1.471  17.323  1.00  0.00     0.057 A 
ATOM     88  C   UNL     1       8.041   0.366  18.032  1.00  0.00     0.134 A 
ATOM     89  C   UNL     1       9.328   2.385  18.025  1.00  0.00     0.134 A 
ATOM     90  F   UNL     1       7.262  -0.542  17.423  1.00  0.00    -0.206 F 
ATOM     91  C   UNL     1       8.305   0.196  19.392  1.00  0.00     0.040 A 
ATOM     92  C   UNL     1       9.625   2.209  19.377  1.00  0.00     0.040 A 
ATOM     93  F   UNL     1       9.839   3.460  17.405  1.00  0.00    -0.206 F 
ATOM     94  C   UNL     1       9.105   1.116  20.067  1.00  0.00     0.006 A 
ENDBRANCH  70  87
ENDBRANCH  44  45
ENDBRANCH  36  39
ENDBRANCH  34  35
ENDBRANCH  33  34
ENDBRANCH   1  33
TORSDOF 17
