REMARK SMILES CC1=C(C(=O)Nc2ccccc2)[C@@H](c2ccc(C(=O)NCCCNC(=O)c3ccc(-c4c5nc(c(-c6c(F)cccc6F)c6ccc([nH]6)c(-c6c(F)cccc6F)c6nc(c(-c7c(F)cccc7F)c7ccc4[nH]7)C=C6)C=C5)cc3)cc2)n2ncnc2N1
REMARK SMILES IDX 21 1 20 2 18 3 19 4 17 6 14 7 15 8 82 9 16 10 81 11 13 12
REMARK SMILES IDX 1 13 2 14 3 15 88 16 87 17 83 19 86 20 84 21 85 22 4 23 5 24
REMARK SMILES IDX 6 25 7 27 8 28 12 29 9 30 11 31 10 32 22 33 23 34 24 35
REMARK SMILES IDX 25 36 26 38 27 39 28 40 80 41 29 42 79 43 30 44 31 45 32 46
REMARK SMILES IDX 73 47 33 48 78 49 72 50 74 51 34 52 77 53 71 54 70 55 35 57
REMARK SMILES IDX 61 58 44 59 60 60 45 61 48 62 59 63 75 64 46 65 47 66 58 68
REMARK SMILES IDX 76 69 49 70 36 71 37 72 42 73 38 74 39 75 41 76 43 77 40 78
REMARK SMILES IDX 62 79 63 80 68 81 64 82 65 83 67 84 69 85 66 86 50 87 51 88
REMARK SMILES IDX 56 89 52 90 53 91 55 92 57 93 54 94
REMARK H PARENT 20 5 88 18 6 26 24 37 74 56 48 67
REMARK Flexibility Score: inf
ROOT
ATOM      1  C   UNL     1       3.112   9.180   0.962  1.00  0.00     0.118 C 
ENDROOT
BRANCH   1   2
ATOM      2  N   UNL     1       4.362   8.427   1.006  1.00  0.00    -0.352 N 
ATOM      3  C   UNL     1       4.656   7.128   0.645  1.00  0.00     0.251 C 
ATOM      4  O   UNL     1       5.834   6.773   0.645  1.00  0.00    -0.269 OA
ATOM      5  H   UNL     1       5.130   8.935   1.353  1.00  0.00     0.163 HD
BRANCH   3   6
ATOM      6  C   UNL     1       3.606   6.160   0.228  1.00  0.00     0.039 A 
ATOM      7  C   UNL     1       1.629   4.365  -0.671  1.00  0.00    -0.019 A 
ATOM      8  C   UNL     1       2.954   4.223  -1.101  1.00  0.00     0.007 A 
ATOM      9  C   UNL     1       1.324   5.374   0.247  1.00  0.00     0.007 A 
ATOM     10  C   UNL     1       3.935   5.126  -0.661  1.00  0.00     0.014 A 
ATOM     11  C   UNL     1       2.308   6.221   0.717  1.00  0.00     0.014 A 
BRANCH   7  12
ATOM     12  C   UNL     1       0.479   3.486  -1.117  1.00  0.00     0.179 C 
ATOM     13  C   UNL     1      -0.680  -0.201  -0.678  1.00  0.00     0.065 C 
ATOM     14  C   UNL     1      -0.113   1.078  -1.232  1.00  0.00     0.026 C 
ATOM     15  C   UNL     1       0.410   2.089  -0.489  1.00  0.00     0.065 C 
ATOM     16  N   UNL     1      -0.294   1.229  -2.604  1.00  0.00    -0.328 N 
ATOM     17  C   UNL     1      -0.067   2.372  -3.272  1.00  0.00     0.226 A 
ATOM     18  H   UNL     1      -0.609   0.449  -3.117  1.00  0.00     0.169 HD
ATOM     19  N   UNL     1       0.349   3.470  -2.577  1.00  0.00    -0.219 N 
ATOM     20  N   UNL     1      -0.226   2.685  -4.532  1.00  0.00    -0.200 NA
ATOM     21  N   UNL     1       0.380   4.566  -3.368  1.00  0.00    -0.157 NA
ATOM     22  C   UNL     1       0.055   4.027  -4.548  1.00  0.00     0.248 A 
BRANCH  15  23
ATOM     23  C   UNL     1       0.650   2.094   0.986  1.00  0.00     0.255 C 
ATOM     24  O   UNL     1       0.173   3.014   1.658  1.00  0.00    -0.269 OA
ATOM     25  N   UNL     1       1.361   1.140   1.658  1.00  0.00    -0.322 N 
ATOM     26  H   UNL     1       1.646   1.397   2.565  1.00  0.00     0.170 HD
BRANCH  25  27
ATOM     27  C   UNL     1       1.745  -0.143   1.260  1.00  0.00     0.041 A 
ATOM     28  C   UNL     1       1.221  -1.198   2.019  1.00  0.00     0.026 A 
ATOM     29  C   UNL     1       2.512  -0.409   0.129  1.00  0.00     0.026 A 
ATOM     30  C   UNL     1       1.332  -2.509   1.564  1.00  0.00     0.002 A 
ATOM     31  C   UNL     1       2.671  -1.734  -0.294  1.00  0.00     0.002 A 
ATOM     32  C   UNL     1       2.048  -2.776   0.400  1.00  0.00     0.000 A 
ENDBRANCH  25  27
ENDBRANCH  15  23
ENDBRANCH   7  12
ENDBRANCH   3   6
ENDBRANCH   1   2
BRANCH   1  33
ATOM     33  C   UNL     1       2.364   9.189   2.308  1.00  0.00     0.042 C 
BRANCH  33  34
ATOM     34  C   UNL     1       2.897  10.203   3.293  1.00  0.00     0.118 C 
BRANCH  34  35
ATOM     35  N   UNL     1       2.644  11.584   2.880  1.00  0.00    -0.352 N 
ATOM     36  C   UNL     1       3.170  12.759   3.394  1.00  0.00     0.251 C 
ATOM     37  H   UNL     1       2.012  11.694   2.132  1.00  0.00     0.163 HD
ATOM     38  O   UNL     1       2.611  13.825   3.222  1.00  0.00    -0.269 OA
BRANCH  36  39
ATOM     39  C   UNL     1       4.427  12.682   4.162  1.00  0.00     0.039 A 
ATOM     40  C   UNL     1       4.687  13.504   5.260  1.00  0.00     0.014 A 
ATOM     41  C   UNL     1       5.336  11.708   3.779  1.00  0.00     0.014 A 
ATOM     42  C   UNL     1       5.853  13.276   5.987  1.00  0.00     0.010 A 
ATOM     43  C   UNL     1       6.277  11.287   4.667  1.00  0.00     0.010 A 
ATOM     44  C   UNL     1       6.633  12.148   5.683  1.00  0.00    -0.014 A 
BRANCH  44  45
ATOM     45  C   UNL     1       7.833  11.803   6.419  1.00  0.00     0.031 A 
ATOM     46  C   UNL     1       7.627  11.652   7.871  1.00  0.00     0.074 A 
ATOM     47  C   UNL     1       8.992  11.446   5.825  1.00  0.00     0.049 A 
ATOM     48  N   UNL     1       7.921  12.512   8.785  1.00  0.00    -0.248 NA
ATOM     49  C   UNL     1       6.848  10.503   8.352  1.00  0.00     0.031 C 
ATOM     50  C   UNL     1       9.283  11.192   4.407  1.00  0.00     0.029 A 
ATOM     51  N   UNL     1      10.178  11.162   6.421  1.00  0.00    -0.354 N 
ATOM     52  C   UNL     1       7.577  11.913   9.989  1.00  0.00     0.074 A 
ATOM     53  C   UNL     1       6.732  10.797   9.649  1.00  0.00     0.031 C 
ATOM     54  C   UNL     1      10.489  10.591   4.288  1.00  0.00     0.029 A 
ATOM     55  C   UNL     1      11.129  10.587   5.589  1.00  0.00     0.049 A 
ATOM     56  H   UNL     1      10.350  11.350   7.372  1.00  0.00     0.167 HD
ATOM     57  C   UNL     1       8.240  12.238  11.133  1.00  0.00     0.037 A 
ATOM     58  C   UNL     1      12.347  10.130   5.970  1.00  0.00     0.037 A 
ATOM     59  C   UNL     1       9.031  13.436  10.944  1.00  0.00     0.049 A 
ATOM     60  C   UNL     1      12.671  10.786   7.264  1.00  0.00     0.074 A 
ATOM     61  C   UNL     1       8.750  14.735  10.563  1.00  0.00     0.029 A 
ATOM     62  N   UNL     1      10.383  13.279  10.747  1.00  0.00    -0.354 N 
ATOM     63  N   UNL     1      12.912  12.062   7.389  1.00  0.00    -0.248 NA
ATOM     64  C   UNL     1      12.255  10.108   8.484  1.00  0.00     0.031 C 
ATOM     65  C   UNL     1       9.826  15.108   9.702  1.00  0.00     0.029 A 
ATOM     66  C   UNL     1      10.737  14.051   9.669  1.00  0.00     0.049 A 
ATOM     67  H   UNL     1      10.988  12.716  11.282  1.00  0.00     0.167 HD
ATOM     68  C   UNL     1      12.266  12.431   8.561  1.00  0.00     0.074 A 
ATOM     69  C   UNL     1      11.954  11.171   9.235  1.00  0.00     0.031 C 
ATOM     70  C   UNL     1      11.781  13.697   8.734  1.00  0.00     0.037 A 
BRANCH  57  71
ATOM     71  C   UNL     1       8.501  11.287  12.275  1.00  0.00     0.057 A 
ATOM     72  C   UNL     1       9.117  11.786  13.438  1.00  0.00     0.134 A 
ATOM     73  C   UNL     1       8.450   9.882  12.184  1.00  0.00     0.134 A 
ATOM     74  F   UNL     1       9.224  13.107  13.649  1.00  0.00    -0.206 F 
ATOM     75  C   UNL     1       9.725  10.953  14.383  1.00  0.00     0.040 A 
ATOM     76  C   UNL     1       9.008   9.040  13.149  1.00  0.00     0.040 A 
ATOM     77  F   UNL     1       7.954   9.241  11.121  1.00  0.00    -0.206 F 
ATOM     78  C   UNL     1       9.682   9.573  14.234  1.00  0.00     0.006 A 
ENDBRANCH  57  71
BRANCH  58  79
ATOM     79  C   UNL     1      13.096   8.954   5.473  1.00  0.00     0.057 A 
ATOM     80  C   UNL     1      14.445   8.768   5.806  1.00  0.00     0.134 A 
ATOM     81  C   UNL     1      12.437   7.842   4.920  1.00  0.00     0.134 A 
ATOM     82  F   UNL     1      15.151   9.760   6.367  1.00  0.00    -0.206 F 
ATOM     83  C   UNL     1      15.090   7.534   5.643  1.00  0.00     0.040 A 
ATOM     84  C   UNL     1      13.071   6.607   4.748  1.00  0.00     0.040 A 
ATOM     85  F   UNL     1      11.131   7.889   4.620  1.00  0.00    -0.206 F 
ATOM     86  C   UNL     1      14.397   6.444   5.128  1.00  0.00     0.006 A 
ENDBRANCH  58  79
BRANCH  70  87
ATOM     87  C   UNL     1      12.185  14.750   7.736  1.00  0.00     0.057 A 
ATOM     88  C   UNL     1      11.865  14.714   6.369  1.00  0.00     0.134 A 
ATOM     89  C   UNL     1      12.797  15.917   8.206  1.00  0.00     0.134 A 
ATOM     90  F   UNL     1      11.192  13.686   5.840  1.00  0.00    -0.206 F 
ATOM     91  C   UNL     1      12.179  15.770   5.507  1.00  0.00     0.040 A 
ATOM     92  C   UNL     1      13.086  16.993   7.362  1.00  0.00     0.040 A 
ATOM     93  F   UNL     1      13.085  16.051   9.510  1.00  0.00    -0.206 F 
ATOM     94  C   UNL     1      12.787  16.917   6.005  1.00  0.00     0.006 A 
ENDBRANCH  70  87
ENDBRANCH  44  45
ENDBRANCH  36  39
ENDBRANCH  34  35
ENDBRANCH  33  34
ENDBRANCH   1  33
TORSDOF 13
