REMARK SMILES O=C(NCCCNC(=O)c1cc([N+](=O)[O-])cc([N+](=O)[O-])c1N1CCCCCC1)c1ccc(-c2c3nc(c(-c4c(F)cccc4F)c4ccc([nH]4)c(-c4c(F)cccc4F)c4nc(c(-c5c(F)cccc5F)c5ccc2[nH]5)C=C4)C=C3)cc1
REMARK SMILES IDX 6 1 5 2 4 3 3 4 1 5 2 6 29 8 30 9 82 10 31 11 81 12 32 13
REMARK SMILES IDX 33 14 34 15 75 16 35 17 80 18 74 19 76 20 36 21 79 22 73 23
REMARK SMILES IDX 72 24 37 26 63 27 46 28 62 29 47 30 50 31 61 32 77 33 48 34
REMARK SMILES IDX 49 35 60 37 78 38 51 39 38 40 39 41 44 42 40 43 41 44 43 45
REMARK SMILES IDX 45 46 42 47 64 48 65 49 70 50 66 51 67 52 69 53 71 54 68 55
REMARK SMILES IDX 52 56 53 57 58 58 54 59 55 60 57 61 59 62 56 63 7 64 8 65
REMARK SMILES IDX 9 67 10 68 11 69 21 70 12 71 17 72 16 73 22 74 23 75 24 76
REMARK SMILES IDX 25 77 28 79 27 80 26 81 13 83 14 84 15 85 18 86 19 87 20 88
REMARK H PARENT 3 7 76 25 50 36 7 66
REMARK Flexibility Score: 90.00
ROOT
ATOM      1  C   UNL     1       4.976   2.207   2.527  1.00  0.00     0.118 C 
ENDROOT
BRANCH   1   2
ATOM      2  C   UNL     1       5.357   1.427   1.289  1.00  0.00     0.042 C 
BRANCH   2   3
ATOM      3  C   UNL     1       4.712   0.052   1.230  1.00  0.00     0.118 C 
BRANCH   3   4
ATOM      4  N   UNL     1       3.261   0.099   1.074  1.00  0.00    -0.352 N 
ATOM      5  O   UNL     1       1.269   0.112   0.022  1.00  0.00    -0.269 OA
ATOM      6  C   UNL     1       2.464  -0.144  -0.023  1.00  0.00     0.251 C 
ATOM      7  H   UNL     1       2.769   0.347   1.890  1.00  0.00     0.163 HD
BRANCH   6   8
ATOM      8  C   UNL     1       3.059  -0.686  -1.264  1.00  0.00     0.039 A 
ATOM      9  C   UNL     1       4.040  -1.674  -1.203  1.00  0.00     0.014 A 
ATOM     10  C   UNL     1       2.629  -0.208  -2.505  1.00  0.00     0.014 A 
ATOM     11  C   UNL     1       4.741  -2.022  -2.345  1.00  0.00     0.010 A 
ATOM     12  C   UNL     1       3.240  -0.669  -3.675  1.00  0.00     0.010 A 
ATOM     13  C   UNL     1       4.326  -1.554  -3.601  1.00  0.00    -0.014 A 
BRANCH  13  14
ATOM     14  C   UNL     1       4.986  -2.096  -4.813  1.00  0.00     0.031 A 
ATOM     15  C   UNL     1       5.725  -1.206  -5.769  1.00  0.00     0.074 A 
ATOM     16  C   UNL     1       4.930  -3.427  -5.022  1.00  0.00     0.049 A 
ATOM     17  N   UNL     1       6.338  -1.528  -6.880  1.00  0.00    -0.248 NA
ATOM     18  C   UNL     1       5.778   0.229  -5.450  1.00  0.00     0.031 C 
ATOM     19  C   UNL     1       4.229  -4.386  -4.160  1.00  0.00     0.029 A 
ATOM     20  N   UNL     1       5.478  -4.210  -6.003  1.00  0.00    -0.354 N 
ATOM     21  C   UNL     1       6.821  -0.338  -7.409  1.00  0.00     0.074 A 
ATOM     22  C   UNL     1       6.423   0.718  -6.502  1.00  0.00     0.031 C 
ATOM     23  C   UNL     1       4.431  -5.626  -4.620  1.00  0.00     0.029 A 
ATOM     24  C   UNL     1       5.196  -5.546  -5.856  1.00  0.00     0.049 A 
ATOM     25  H   UNL     1       6.020  -3.850  -6.742  1.00  0.00     0.167 HD
ATOM     26  C   UNL     1       7.529  -0.152  -8.548  1.00  0.00     0.037 A 
ATOM     27  C   UNL     1       5.485  -6.594  -6.648  1.00  0.00     0.037 A 
ATOM     28  C   UNL     1       7.945  -1.218  -9.424  1.00  0.00     0.049 A 
ATOM     29  C   UNL     1       6.247  -6.350  -7.914  1.00  0.00     0.074 A 
ATOM     30  C   UNL     1       8.726  -1.139 -10.564  1.00  0.00     0.029 A 
ATOM     31  N   UNL     1       7.608  -2.553  -9.261  1.00  0.00    -0.354 N 
ATOM     32  N   UNL     1       6.732  -5.224  -8.378  1.00  0.00    -0.248 NA
ATOM     33  C   UNL     1       6.489  -7.514  -8.775  1.00  0.00     0.031 C 
ATOM     34  C   UNL     1       8.818  -2.419 -11.120  1.00  0.00     0.029 A 
ATOM     35  C   UNL     1       8.133  -3.303 -10.301  1.00  0.00     0.049 A 
ATOM     36  H   UNL     1       7.075  -2.915  -8.516  1.00  0.00     0.167 HD
ATOM     37  C   UNL     1       7.339  -5.542  -9.583  1.00  0.00     0.074 A 
ATOM     38  C   UNL     1       7.185  -6.972  -9.764  1.00  0.00     0.031 C 
ATOM     39  C   UNL     1       7.961  -4.723 -10.465  1.00  0.00     0.037 A 
BRANCH  26  40
ATOM     40  C   UNL     1       7.884   1.254  -8.937  1.00  0.00     0.057 A 
ATOM     41  C   UNL     1       8.881   1.981  -8.277  1.00  0.00     0.134 A 
ATOM     42  C   UNL     1       7.266   1.859 -10.040  1.00  0.00     0.134 A 
ATOM     43  F   UNL     1       9.506   1.464  -7.208  1.00  0.00    -0.206 F 
ATOM     44  C   UNL     1       9.245   3.264  -8.693  1.00  0.00     0.040 A 
ATOM     45  C   UNL     1       7.634   3.132 -10.478  1.00  0.00     0.040 A 
ATOM     46  F   UNL     1       6.306   1.215 -10.721  1.00  0.00    -0.206 F 
ATOM     47  C   UNL     1       8.626   3.840  -9.802  1.00  0.00     0.006 A 
ENDBRANCH  26  40
BRANCH  27  48
ATOM     48  C   UNL     1       5.004  -7.949  -6.282  1.00  0.00     0.057 A 
ATOM     49  C   UNL     1       5.894  -8.958  -5.902  1.00  0.00     0.134 A 
ATOM     50  C   UNL     1       3.638  -8.258  -6.286  1.00  0.00     0.134 A 
ATOM     51  F   UNL     1       7.214  -8.726  -5.893  1.00  0.00    -0.206 F 
ATOM     52  C   UNL     1       5.443 -10.232  -5.551  1.00  0.00     0.040 A 
ATOM     53  C   UNL     1       3.171  -9.517  -5.908  1.00  0.00     0.040 A 
ATOM     54  F   UNL     1       2.733  -7.329  -6.630  1.00  0.00    -0.206 F 
ATOM     55  C   UNL     1       4.077 -10.511  -5.546  1.00  0.00     0.006 A 
ENDBRANCH  27  48
BRANCH  39  56
ATOM     56  C   UNL     1       8.525  -5.362 -11.697  1.00  0.00     0.057 A 
ATOM     57  C   UNL     1       7.699  -5.795 -12.741  1.00  0.00     0.134 A 
ATOM     58  C   UNL     1       9.908  -5.517 -11.852  1.00  0.00     0.134 A 
ATOM     59  F   UNL     1       6.365  -5.689 -12.642  1.00  0.00    -0.206 F 
ATOM     60  C   UNL     1       8.229  -6.377 -13.893  1.00  0.00     0.040 A 
ATOM     61  C   UNL     1      10.451  -6.075 -13.009  1.00  0.00     0.040 A 
ATOM     62  F   UNL     1      10.751  -5.118 -10.889  1.00  0.00    -0.206 F 
ATOM     63  C   UNL     1       9.610  -6.511 -14.032  1.00  0.00     0.006 A 
ENDBRANCH  39  56
ENDBRANCH  13  14
ENDBRANCH   6   8
ENDBRANCH   3   4
ENDBRANCH   2   3
ENDBRANCH   1   2
BRANCH   1  64
ATOM     64  N   UNL     1       5.397   1.597   3.766  1.00  0.00    -0.352 N 
ATOM     65  C   UNL     1       5.704   2.221   4.943  1.00  0.00     0.253 C 
ATOM     66  H   UNL     1       5.471   0.615   3.763  1.00  0.00     0.163 HD
ATOM     67  O   UNL     1       5.885   1.552   5.958  1.00  0.00    -0.269 OA
BRANCH  65  68
ATOM     68  C   UNL     1       5.946   3.679   4.998  1.00  0.00     0.077 A 
ATOM     69  C   UNL     1       7.287   3.969   5.349  1.00  0.00     0.102 A 
ATOM     70  C   UNL     1       4.980   4.701   4.780  1.00  0.00     0.129 A 
ATOM     71  C   UNL     1       7.713   5.287   5.489  1.00  0.00     0.277 A 
ATOM     72  C   UNL     1       5.478   6.014   4.970  1.00  0.00     0.300 A 
ATOM     73  C   UNL     1       6.810   6.325   5.304  1.00  0.00     0.173 A 
BRANCH  70  74
ATOM     74  N   UNL     1       3.643   4.468   4.420  1.00  0.00    -0.365 N 
BRANCH  74  75
ATOM     75  C   UNL     1       3.182   4.848   3.072  1.00  0.00     0.117 C 
BRANCH  75  76
ATOM     76  C   UNL     1       2.113   5.935   3.051  1.00  0.00     0.021 C 
BRANCH  76  77
ATOM     77  C   UNL     1       0.732   5.497   3.522  1.00  0.00     0.002 CG0
ATOM     78  G   UNL     1       0.708   4.895   4.922  1.00  0.00     0.000 G0
ENDBRANCH  76  77
ENDBRANCH  75  76
ENDBRANCH  74  75
BRANCH  74  79
ATOM     79  C   UNL     1       2.863   3.548   5.258  1.00  0.00     0.117 C 
BRANCH  79  80
ATOM     80  C   UNL     1       1.365   3.521   4.969  1.00  0.00     0.021 C 
BRANCH  80  81
ATOM     81  C   UNL     1       0.708   4.895   4.922  1.00  0.00     0.002 CG0
ATOM     82  G   UNL     1       0.732   5.497   3.522  1.00  0.00     0.000 G0
ENDBRANCH  80  81
ENDBRANCH  79  80
ENDBRANCH  74  79
ENDBRANCH  70  74
BRANCH  71  83
ATOM     83  N   UNL     1       9.105   5.577   5.850  1.00  0.00     0.062 N 
ATOM     84  O   UNL     1       9.889   4.622   5.932  1.00  0.00    -0.258 OA
ATOM     85  O   UNL     1       9.410   6.762   6.038  1.00  0.00    -0.258 OA
ENDBRANCH  71  83
BRANCH  72  86
ATOM     86  N   UNL     1       4.588   7.153   4.928  1.00  0.00     0.065 N 
ATOM     87  O   UNL     1       4.744   7.938   3.982  1.00  0.00    -0.258 OA
ATOM     88  O   UNL     1       3.804   7.298   5.875  1.00  0.00    -0.258 OA
ENDBRANCH  72  86
ENDBRANCH  65  68
ENDBRANCH   1  64
TORSDOF 13
