REMARK SMILES CN(C)c1ccc(-c2nnc([C@H]3CC[N@@H+](Cc4ccc(C(=O)NCCCNC(=O)c5ccc(-c6c7nc(c(-c8c(F)cccc8F)c8ccc([nH]8)c(-c8c(F)cccc8F)c8nc(c(-c9c(F)cccc9F)c9ccc6[nH]9)C=C8)C=C7)cc5)cc4)C3)o2)cc1
REMARK SMILES IDX 21 1 22 2 23 3 20 5 17 6 18 7 85 8 19 9 84 10 16 11 15 12
REMARK SMILES IDX 12 13 13 14 86 15 14 16 11 18 8 19 9 20 87 21 10 22 7 23
REMARK SMILES IDX 4 24 5 25 89 26 6 27 88 28 2 29 1 30 3 31 24 32 25 33 26 34
REMARK SMILES IDX 27 35 28 36 29 38 30 39 31 40 83 41 32 42 82 43 33 44 34 45
REMARK SMILES IDX 35 46 76 47 36 48 81 49 75 50 77 51 37 52 80 53 74 54 73 55
REMARK SMILES IDX 38 57 64 58 47 59 63 60 48 61 51 62 62 63 78 64 49 65 50 66
REMARK SMILES IDX 61 68 79 69 52 70 39 71 40 72 45 73 41 74 42 75 44 76 46 77
REMARK SMILES IDX 43 78 65 79 66 80 71 81 67 82 68 83 70 84 72 85 69 86 53 87
REMARK SMILES IDX 54 88 59 89 55 90 56 91 58 92 60 93 57 94
REMARK H PARENT 23 4 15 17 27 37 77 56 51 67
REMARK Flexibility Score: inf
ROOT
ATOM      1  C   UNL     1       4.759 -11.353  10.391  1.00  0.00     0.251 C 
ATOM      2  O   UNL     1       4.850 -11.495  11.610  1.00  0.00    -0.269 OA
ATOM      3  N   UNL     1       4.210 -12.373   9.647  1.00  0.00    -0.352 N 
ATOM      4  H   UNL     1       4.100 -13.221  10.134  1.00  0.00     0.163 HD
ENDROOT
BRANCH   1   5
ATOM      5  C   UNL     1       5.227 -10.082   9.782  1.00  0.00     0.039 A 
ATOM      6  C   UNL     1       6.094  -7.623   8.688  1.00  0.00     0.006 A 
ATOM      7  C   UNL     1       5.427  -7.659   9.919  1.00  0.00     0.010 A 
ATOM      8  C   UNL     1       6.406  -8.838   8.077  1.00  0.00     0.010 A 
ATOM      9  C   UNL     1       5.007  -8.880  10.467  1.00  0.00     0.014 A 
ATOM     10  C   UNL     1       5.969 -10.056   8.605  1.00  0.00     0.014 A 
BRANCH   6  11
ATOM     11  C   UNL     1       6.449  -6.312   8.016  1.00  0.00     0.299 C 
BRANCH  11  12
ATOM     12  N   UNL     1       5.580  -5.865   6.913  1.00  0.00    -0.330 N 
ATOM     13  C   UNL     1       4.437  -7.342   5.353  1.00  0.00     0.138 C 
ATOM     14  C   UNL     1       3.588  -7.127   6.604  1.00  0.00     0.081 C 
ATOM     15  C   UNL     1       5.742  -6.588   5.642  1.00  0.00     0.276 C 
ATOM     16  C   UNL     1       4.148  -5.850   7.213  1.00  0.00     0.263 C 
ATOM     17  H   UNL     1       5.920  -4.910   6.804  1.00  0.00     0.348 HD
BRANCH  13  18
ATOM     18  C   UNL     1       4.584  -8.781   4.993  1.00  0.00     0.225 A 
ATOM     19  C   UNL     1       5.555 -10.664   4.697  1.00  0.00     0.247 A 
ATOM     20  N   UNL     1       4.278 -10.848   4.426  1.00  0.00    -0.108 NA
ATOM     21  O   UNL     1       5.828  -9.361   5.034  1.00  0.00    -0.420 OA
ATOM     22  N   UNL     1       3.650  -9.633   4.624  1.00  0.00    -0.112 NA
BRANCH  19  23
ATOM     23  C   UNL     1       6.626 -11.646   4.851  1.00  0.00     0.039 A 
ATOM     24  C   UNL     1       8.445 -13.727   5.546  1.00  0.00     0.036 A 
ATOM     25  C   UNL     1       7.410 -13.943   4.628  1.00  0.00     0.027 A 
ATOM     26  C   UNL     1       8.605 -12.431   6.041  1.00  0.00     0.027 A 
ATOM     27  C   UNL     1       6.501 -12.925   4.297  1.00  0.00     0.016 A 
ATOM     28  C   UNL     1       7.732 -11.400   5.672  1.00  0.00     0.016 A 
BRANCH  24  29
ATOM     29  N   UNL     1       9.263 -14.777   5.945  1.00  0.00    -0.378 N 
ATOM     30  C   UNL     1       9.668 -14.880   7.339  1.00  0.00     0.143 C 
ATOM     31  C   UNL     1      10.161 -15.315   4.931  1.00  0.00     0.143 C 
ENDBRANCH  24  29
ENDBRANCH  19  23
ENDBRANCH  13  18
ENDBRANCH  11  12
ENDBRANCH   6  11
ENDBRANCH   1   5
BRANCH   3  32
ATOM     32  C   UNL     1       3.766 -12.411   8.259  1.00  0.00     0.118 C 
BRANCH  32  33
ATOM     33  C   UNL     1       4.665 -13.275   7.377  1.00  0.00     0.042 C 
BRANCH  33  34
ATOM     34  C   UNL     1       4.471 -14.786   7.505  1.00  0.00     0.118 C 
BRANCH  34  35
ATOM     35  N   UNL     1       3.302 -15.259   6.775  1.00  0.00    -0.352 N 
ATOM     36  C   UNL     1       3.170 -16.170   5.754  1.00  0.00     0.251 C 
ATOM     37  H   UNL     1       2.454 -14.854   7.067  1.00  0.00     0.163 HD
ATOM     38  O   UNL     1       2.081 -16.258   5.189  1.00  0.00    -0.269 OA
BRANCH  36  39
ATOM     39  C   UNL     1       4.283 -17.047   5.300  1.00  0.00     0.039 A 
ATOM     40  C   UNL     1       4.324 -17.411   3.945  1.00  0.00     0.014 A 
ATOM     41  C   UNL     1       5.221 -17.598   6.174  1.00  0.00     0.014 A 
ATOM     42  C   UNL     1       5.313 -18.280   3.467  1.00  0.00     0.010 A 
ATOM     43  C   UNL     1       6.249 -18.414   5.686  1.00  0.00     0.010 A 
ATOM     44  C   UNL     1       6.304 -18.771   4.329  1.00  0.00    -0.014 A 
BRANCH  44  45
ATOM     45  C   UNL     1       7.401 -19.646   3.830  1.00  0.00     0.031 A 
ATOM     46  C   UNL     1       7.538 -21.065   4.314  1.00  0.00     0.074 A 
ATOM     47  C   UNL     1       8.330 -19.145   2.993  1.00  0.00     0.049 A 
ATOM     48  N   UNL     1       8.483 -21.938   4.066  1.00  0.00    -0.248 NA
ATOM     49  C   UNL     1       6.484 -21.561   5.211  1.00  0.00     0.031 C 
ATOM     50  C   UNL     1       8.342 -17.781   2.467  1.00  0.00     0.029 A 
ATOM     51  N   UNL     1       9.457 -19.719   2.457  1.00  0.00    -0.354 N 
ATOM     52  C   UNL     1       8.153 -23.075   4.793  1.00  0.00     0.074 A 
ATOM     53  C   UNL     1       6.938 -22.769   5.518  1.00  0.00     0.031 C 
ATOM     54  C   UNL     1       9.429 -17.617   1.696  1.00  0.00     0.029 A 
ATOM     55  C   UNL     1      10.204 -18.854   1.694  1.00  0.00     0.049 A 
ATOM     56  H   UNL     1       9.707 -20.659   2.606  1.00  0.00     0.167 HD
ATOM     57  C   UNL     1       8.793 -24.269   4.842  1.00  0.00     0.037 A 
ATOM     58  C   UNL     1      11.387 -19.025   1.075  1.00  0.00     0.037 A 
ATOM     59  C   UNL     1       9.981 -24.593   4.094  1.00  0.00     0.049 A 
ATOM     60  C   UNL     1      12.073 -20.359   1.131  1.00  0.00     0.074 A 
ATOM     61  C   UNL     1      10.641 -25.808   4.007  1.00  0.00     0.029 A 
ATOM     62  N   UNL     1      10.690 -23.698   3.309  1.00  0.00    -0.354 N 
ATOM     63  N   UNL     1      11.709 -21.446   1.764  1.00  0.00    -0.248 NA
ATOM     64  C   UNL     1      13.329 -20.492   0.378  1.00  0.00     0.031 C 
ATOM     65  C   UNL     1      11.774 -25.636   3.203  1.00  0.00     0.029 A 
ATOM     66  C   UNL     1      11.797 -24.324   2.758  1.00  0.00     0.049 A 
ATOM     67  H   UNL     1      10.443 -22.756   3.163  1.00  0.00     0.167 HD
ATOM     68  C   UNL     1      12.678 -22.398   1.475  1.00  0.00     0.074 A 
ATOM     69  C   UNL     1      13.641 -21.763   0.599  1.00  0.00     0.031 C 
ATOM     70  C   UNL     1      12.759 -23.683   1.898  1.00  0.00     0.037 A 
BRANCH  57  71
ATOM     71  C   UNL     1       8.221 -25.320   5.749  1.00  0.00     0.057 A 
ATOM     72  C   UNL     1       7.027 -25.988   5.449  1.00  0.00     0.134 A 
ATOM     73  C   UNL     1       8.888 -25.685   6.925  1.00  0.00     0.134 A 
ATOM     74  F   UNL     1       6.336 -25.681   4.341  1.00  0.00    -0.206 F 
ATOM     75  C   UNL     1       6.499 -26.959   6.303  1.00  0.00     0.040 A 
ATOM     76  C   UNL     1       8.383 -26.671   7.775  1.00  0.00     0.040 A 
ATOM     77  F   UNL     1      10.042 -25.092   7.267  1.00  0.00    -0.206 F 
ATOM     78  C   UNL     1       7.180 -27.305   7.468  1.00  0.00     0.006 A 
ENDBRANCH  57  71
BRANCH  58  79
ATOM     79  C   UNL     1      11.988 -17.889   0.336  1.00  0.00     0.057 A 
ATOM     80  C   UNL     1      11.980 -17.853  -1.062  1.00  0.00     0.134 A 
ATOM     81  C   UNL     1      12.553 -16.800   1.011  1.00  0.00     0.134 A 
ATOM     82  F   UNL     1      11.466 -18.876  -1.760  1.00  0.00    -0.206 F 
ATOM     83  C   UNL     1      12.519 -16.776  -1.766  1.00  0.00     0.040 A 
ATOM     84  C   UNL     1      13.079 -15.708   0.320  1.00  0.00     0.040 A 
ATOM     85  F   UNL     1      12.576 -16.772   2.352  1.00  0.00    -0.206 F 
ATOM     86  C   UNL     1      13.065 -15.696  -1.074  1.00  0.00     0.006 A 
ENDBRANCH  58  79
BRANCH  70  87
ATOM     87  C   UNL     1      13.926 -24.492   1.414  1.00  0.00     0.057 A 
ATOM     88  C   UNL     1      15.215 -24.299   1.926  1.00  0.00     0.134 A 
ATOM     89  C   UNL     1      13.753 -25.496   0.453  1.00  0.00     0.134 A 
ATOM     90  F   UNL     1      15.449 -23.344   2.838  1.00  0.00    -0.206 F 
ATOM     91  C   UNL     1      16.296 -25.067   1.486  1.00  0.00     0.040 A 
ATOM     92  C   UNL     1      14.822 -26.283   0.021  1.00  0.00     0.040 A 
ATOM     93  F   UNL     1      12.543 -25.734  -0.073  1.00  0.00    -0.206 F 
ATOM     94  C   UNL     1      16.098 -26.067   0.536  1.00  0.00     0.006 A 
ENDBRANCH  70  87
ENDBRANCH  44  45
ENDBRANCH  36  39
ENDBRANCH  34  35
ENDBRANCH  33  34
ENDBRANCH  32  33
ENDBRANCH   3  32
TORSDOF 15
