REMARK SMILES CC(C)c1cccc2c1N[C@H](c1ccc(C(=O)NCCCNC(=O)c3ccc(-c4c5nc(c(-c6c(F)cccc6F)c6ccc([nH]6)c(-c6c(F)cccc6F)c6nc(c(-c7c(F)cccc7F)c7ccc4[nH]7)C=C6)C=C5)cc3)cc1)[C@H]1CC=C[C@H]21
REMARK SMILES IDX 20 1 19 2 18 3 16 4 17 5 15 7 12 8 13 9 80 10 14 11 79 12
REMARK SMILES IDX 11 13 4 14 5 15 9 16 6 17 8 18 10 19 7 20 85 21 81 23 84 24
REMARK SMILES IDX 82 25 83 26 2 27 1 28 3 29 21 30 22 31 23 32 24 34 25 35
REMARK SMILES IDX 26 36 78 37 27 38 77 39 28 40 29 41 30 42 71 43 31 44 76 45
REMARK SMILES IDX 70 46 72 47 32 48 75 49 69 50 68 51 33 53 59 54 42 55 58 56
REMARK SMILES IDX 43 57 46 58 57 59 73 60 44 61 45 62 56 64 74 65 47 66 34 67
REMARK SMILES IDX 35 68 40 69 36 70 37 71 39 72 41 73 38 74 60 75 61 76 66 77
REMARK SMILES IDX 62 78 63 79 65 80 67 81 64 82 48 83 49 84 54 85 50 86 51 87
REMARK SMILES IDX 53 88 55 89 52 90
REMARK H PARENT 18 6 10 22 22 33 72 52 46 63
REMARK Flexibility Score: inf
ROOT
ATOM      1  C   UNL     1      -1.348   6.925   7.065  1.00  0.00     0.042 C 
ENDROOT
BRANCH   1   2
ATOM      2  C   UNL     1      -1.262   7.506   5.662  1.00  0.00     0.118 C 
BRANCH   2   3
ATOM      3  N   UNL     1       0.087   7.891   5.261  1.00  0.00    -0.352 N 
ATOM      4  C   UNL     1       0.791   7.588   4.115  1.00  0.00     0.251 C 
ATOM      5  O   UNL     1       1.954   7.964   3.996  1.00  0.00    -0.269 OA
ATOM      6  H   UNL     1       0.569   8.455   5.908  1.00  0.00     0.163 HD
BRANCH   4   7
ATOM      7  C   UNL     1       0.171   6.755   3.061  1.00  0.00     0.039 A 
ATOM      8  C   UNL     1      -1.139   4.810   1.475  1.00  0.00    -0.025 A 
ATOM      9  C   UNL     1       0.248   4.754   1.712  1.00  0.00     0.006 A 
ATOM     10  C   UNL     1      -1.775   6.004   1.851  1.00  0.00     0.006 A 
ATOM     11  C   UNL     1       0.898   5.704   2.511  1.00  0.00     0.014 A 
ATOM     12  C   UNL     1      -1.132   6.969   2.631  1.00  0.00     0.014 A 
BRANCH   8  13
ATOM     13  C   UNL     1      -1.917   3.652   0.811  1.00  0.00     0.114 C 
ATOM     14  C   UNL     1      -0.882  -0.020   1.377  1.00  0.00    -0.022 A 
ATOM     15  C   UNL     1      -1.512  -1.268   1.603  1.00  0.00     0.006 A 
ATOM     16  C   UNL     1      -1.687   1.117   1.118  1.00  0.00     0.042 A 
ATOM     17  C   UNL     1      -2.894  -1.407   1.587  1.00  0.00     0.001 A 
ATOM     18  C   UNL     1      -3.097   0.955   1.125  1.00  0.00    -0.017 A 
ATOM     19  N   UNL     1      -1.144   2.387   0.919  1.00  0.00    -0.377 N 
ATOM     20  C   UNL     1      -3.686  -0.298   1.341  1.00  0.00     0.006 A 
ATOM     21  C   UNL     1      -3.910   2.151   0.733  1.00  0.00     0.049 C 
ATOM     22  H   UNL     1      -0.164   2.450   0.844  1.00  0.00     0.161 HD
ATOM     23  C   UNL     1      -3.321   3.398   1.408  1.00  0.00     0.031 C 
ATOM     24  C   UNL     1      -5.355   2.262   1.117  1.00  0.00    -0.023 C 
ATOM     25  C   UNL     1      -4.458   4.417   1.246  1.00  0.00     0.034 C 
ATOM     26  C   UNL     1      -5.670   3.541   1.353  1.00  0.00    -0.030 C 
BRANCH  14  27
ATOM     27  C   UNL     1       0.644  -0.052   1.392  1.00  0.00     0.015 C 
ATOM     28  C   UNL     1       1.222   0.074  -0.019  1.00  0.00     0.012 C 
ATOM     29  C   UNL     1       1.298   0.913   2.379  1.00  0.00     0.012 C 
ENDBRANCH  14  27
ENDBRANCH   8  13
ENDBRANCH   4   7
ENDBRANCH   2   3
ENDBRANCH   1   2
BRANCH   1  30
ATOM     30  C   UNL     1      -0.989   7.899   8.175  1.00  0.00     0.118 C 
BRANCH  30  31
ATOM     31  N   UNL     1      -1.969   8.963   8.362  1.00  0.00    -0.352 N 
ATOM     32  C   UNL     1      -2.950   9.163   9.310  1.00  0.00     0.251 C 
ATOM     33  H   UNL     1      -1.922   9.674   7.683  1.00  0.00     0.163 HD
ATOM     34  O   UNL     1      -3.736  10.092   9.170  1.00  0.00    -0.269 OA
BRANCH  32  35
ATOM     35  C   UNL     1      -3.108   8.244  10.464  1.00  0.00     0.039 A 
ATOM     36  C   UNL     1      -2.009   7.695  11.117  1.00  0.00     0.014 A 
ATOM     37  C   UNL     1      -4.396   7.922  10.908  1.00  0.00     0.014 A 
ATOM     38  C   UNL     1      -2.188   6.646  12.012  1.00  0.00     0.010 A 
ATOM     39  C   UNL     1      -4.575   6.959  11.909  1.00  0.00     0.010 A 
ATOM     40  C   UNL     1      -3.474   6.253  12.414  1.00  0.00    -0.014 A 
BRANCH  40  41
ATOM     41  C   UNL     1      -3.630   5.085  13.326  1.00  0.00     0.031 A 
ATOM     42  C   UNL     1      -4.396   3.861  12.886  1.00  0.00     0.074 A 
ATOM     43  C   UNL     1      -3.010   5.085  14.523  1.00  0.00     0.049 A 
ATOM     44  N   UNL     1      -4.613   2.743  13.535  1.00  0.00    -0.248 NA
ATOM     45  C   UNL     1      -5.005   3.897  11.547  1.00  0.00     0.031 C 
ATOM     46  C   UNL     1      -2.225   6.195  15.068  1.00  0.00     0.029 A 
ATOM     47  N   UNL     1      -2.909   4.108  15.481  1.00  0.00    -0.354 N 
ATOM     48  C   UNL     1      -5.403   1.961  12.699  1.00  0.00     0.074 A 
ATOM     49  C   UNL     1      -5.654   2.743  11.508  1.00  0.00     0.031 C 
ATOM     50  C   UNL     1      -1.665   5.813  16.225  1.00  0.00     0.029 A 
ATOM     51  C   UNL     1      -2.110   4.461  16.542  1.00  0.00     0.049 A 
ATOM     52  H   UNL     1      -3.365   3.239  15.415  1.00  0.00     0.167 HD
ATOM     53  C   UNL     1      -5.867   0.703  12.895  1.00  0.00     0.037 A 
ATOM     54  C   UNL     1      -1.780   3.779  17.654  1.00  0.00     0.037 A 
ATOM     55  C   UNL     1      -5.592  -0.093  14.063  1.00  0.00     0.049 A 
ATOM     56  C   UNL     1      -2.335   2.401  17.863  1.00  0.00     0.074 A 
ATOM     57  C   UNL     1      -6.005  -1.384  14.346  1.00  0.00     0.029 A 
ATOM     58  N   UNL     1      -4.826   0.325  15.140  1.00  0.00    -0.354 N 
ATOM     59  N   UNL     1      -3.088   1.683  17.065  1.00  0.00    -0.248 NA
ATOM     60  C   UNL     1      -2.005   1.744  19.135  1.00  0.00     0.031 C 
ATOM     61  C   UNL     1      -5.516  -1.734  15.610  1.00  0.00     0.029 A 
ATOM     62  C   UNL     1      -4.767  -0.676  16.097  1.00  0.00     0.049 A 
ATOM     63  H   UNL     1      -4.389   1.204  15.215  1.00  0.00     0.167 HD
ATOM     64  C   UNL     1      -3.312   0.487  17.732  1.00  0.00     0.074 A 
ATOM     65  C   UNL     1      -2.595   0.567  18.988  1.00  0.00     0.031 C 
ATOM     66  C   UNL     1      -4.050  -0.580  17.342  1.00  0.00     0.037 A 
BRANCH  53  67
ATOM     67  C   UNL     1      -6.740   0.115  11.823  1.00  0.00     0.057 A 
ATOM     68  C   UNL     1      -8.113  -0.060  12.039  1.00  0.00     0.134 A 
ATOM     69  C   UNL     1      -6.224  -0.293  10.587  1.00  0.00     0.134 A 
ATOM     70  F   UNL     1      -8.672   0.303  13.203  1.00  0.00    -0.206 F 
ATOM     71  C   UNL     1      -8.941  -0.618  11.063  1.00  0.00     0.040 A 
ATOM     72  C   UNL     1      -7.046  -0.829   9.593  1.00  0.00     0.040 A 
ATOM     73  F   UNL     1      -4.920  -0.140  10.310  1.00  0.00    -0.206 F 
ATOM     74  C   UNL     1      -8.409  -0.997   9.832  1.00  0.00     0.006 A 
ENDBRANCH  53  67
BRANCH  54  75
ATOM     75  C   UNL     1      -0.888   4.397  18.667  1.00  0.00     0.057 A 
ATOM     76  C   UNL     1      -1.309   5.481  19.445  1.00  0.00     0.134 A 
ATOM     77  C   UNL     1       0.405   3.908  18.886  1.00  0.00     0.134 A 
ATOM     78  F   UNL     1      -2.536   5.998  19.280  1.00  0.00    -0.206 F 
ATOM     79  C   UNL     1      -0.474   6.066  20.397  1.00  0.00     0.040 A 
ATOM     80  C   UNL     1       1.242   4.466  19.854  1.00  0.00     0.040 A 
ATOM     81  F   UNL     1       0.858   2.857  18.186  1.00  0.00    -0.206 F 
ATOM     82  C   UNL     1       0.804   5.553  20.608  1.00  0.00     0.006 A 
ENDBRANCH  54  75
BRANCH  66  83
ATOM     83  C   UNL     1      -4.093  -1.751  18.278  1.00  0.00     0.057 A 
ATOM     84  C   UNL     1      -3.396  -2.928  17.981  1.00  0.00     0.134 A 
ATOM     85  C   UNL     1      -4.826  -1.713  19.471  1.00  0.00     0.134 A 
ATOM     86  F   UNL     1      -2.679  -3.030  16.852  1.00  0.00    -0.206 F 
ATOM     87  C   UNL     1      -3.423  -4.027  18.841  1.00  0.00     0.040 A 
ATOM     88  C   UNL     1      -4.840  -2.797  20.351  1.00  0.00     0.040 A 
ATOM     89  F   UNL     1      -5.500  -0.608  19.820  1.00  0.00    -0.206 F 
ATOM     90  C   UNL     1      -4.140  -3.960  20.034  1.00  0.00     0.006 A 
ENDBRANCH  66  83
ENDBRANCH  40  41
ENDBRANCH  32  35
ENDBRANCH  30  31
ENDBRANCH   1  30
TORSDOF 12
