REMARK SMILES Cc1cc(=O)c(Oc2ccc(C(=O)NCCCNC(=O)c3ccc(-c4c5nc(c(-c6c(F)cccc6F)c6ccc([nH]6)c(-c6c(F)cccc6F)c6nc(c(-c7c(F)cccc7F)c7ccc4[nH]7)C=C6)C=C5)cc3)cc2)c(-c2ccc(S(C)(=O)=O)cc2)o1
REMARK SMILES IDX 15 1 14 2 12 3 13 4 11 6 8 7 9 8 76 9 10 10 75 11 7 12 6 13
REMARK SMILES IDX 1 14 2 15 3 16 88 17 4 18 77 19 5 20 78 21 79 22 87 23 80 24
REMARK SMILES IDX 86 25 81 26 82 27 83 28 84 29 85 30 16 31 17 32 18 33 19 34
REMARK SMILES IDX 20 36 21 37 22 38 74 39 23 40 73 41 24 42 25 43 26 44 67 45
REMARK SMILES IDX 27 46 72 47 66 48 68 49 28 50 71 51 65 52 64 53 29 55 55 56
REMARK SMILES IDX 38 57 54 58 39 59 42 60 53 61 69 62 40 63 41 64 52 66 70 67
REMARK SMILES IDX 43 68 30 69 31 70 36 71 32 72 33 73 35 74 37 75 34 76 56 77
REMARK SMILES IDX 57 78 62 79 58 80 59 81 61 82 63 83 60 84 44 85 45 86 50 87
REMARK SMILES IDX 46 88 47 89 49 90 51 91 48 92
REMARK H PARENT 14 5 18 35 68 54 42 65
REMARK Flexibility Score: inf
ROOT
ATOM      1  C   UNL     1      -5.072  -4.304  -7.489  1.00  0.00     0.118 C 
ENDROOT
BRANCH   1   2
ATOM      2  N   UNL     1      -4.213  -3.577  -8.409  1.00  0.00    -0.352 N 
ATOM      3  C   UNL     1      -2.845  -3.450  -8.491  1.00  0.00     0.251 C 
ATOM      4  O   UNL     1      -2.370  -2.897  -9.482  1.00  0.00    -0.269 OA
ATOM      5  H   UNL     1      -4.702  -3.082  -9.105  1.00  0.00     0.163 HD
BRANCH   3   6
ATOM      6  C   UNL     1      -1.940  -3.840  -7.379  1.00  0.00     0.040 A 
ATOM      7  C   UNL     1      -0.540  -4.012  -4.984  1.00  0.00     0.127 A 
ATOM      8  C   UNL     1      -0.071  -3.167  -5.981  1.00  0.00     0.048 A 
ATOM      9  C   UNL     1      -1.534  -4.944  -5.277  1.00  0.00     0.048 A 
ATOM     10  C   UNL     1      -0.803  -3.046  -7.165  1.00  0.00     0.017 A 
ATOM     11  C   UNL     1      -2.200  -4.888  -6.499  1.00  0.00     0.017 A 
BRANCH   7  12
ATOM     12  O   UNL     1      -0.025  -4.050  -3.724  1.00  0.00    -0.449 OA
BRANCH  12  13
ATOM     13  C   UNL     1       0.044  -2.955  -2.874  1.00  0.00     0.217 A 
ATOM     14  C   UNL     1       0.822   0.176   0.001  1.00  0.00     0.088 C 
ATOM     15  C   UNL     1       0.557  -0.987  -0.900  1.00  0.00     0.105 A 
ATOM     16  C   UNL     1       1.019  -2.210  -0.636  1.00  0.00     0.098 A 
ATOM     17  O   UNL     1      -0.201  -0.703  -2.015  1.00  0.00    -0.457 OA
ATOM     18  C   UNL     1       0.749  -3.289  -1.594  1.00  0.00     0.228 A 
ATOM     19  C   UNL     1      -0.442  -1.687  -2.973  1.00  0.00     0.180 A 
ATOM     20  O   UNL     1       1.108  -4.432  -1.322  1.00  0.00    -0.285 OA
BRANCH  19  21
ATOM     21  C   UNL     1      -1.260  -1.118  -4.063  1.00  0.00     0.021 A 
ATOM     22  C   UNL     1      -0.705  -0.146  -4.915  1.00  0.00     0.013 A 
ATOM     23  C   UNL     1      -2.591  -1.514  -4.260  1.00  0.00     0.013 A 
ATOM     24  C   UNL     1      -1.435   0.355  -5.998  1.00  0.00     0.021 A 
ATOM     25  C   UNL     1      -3.331  -1.007  -5.334  1.00  0.00     0.021 A 
ATOM     26  C   UNL     1      -2.744  -0.086  -6.206  1.00  0.00     0.067 A 
BRANCH  26  27
ATOM     27  S   UNL     1      -3.625   0.463  -7.652  1.00  0.00     0.175 S 
ATOM     28  C   UNL     1      -4.111   2.116  -7.245  1.00  0.00     0.163 C 
ATOM     29  O   UNL     1      -2.668   0.541  -8.736  1.00  0.00    -0.224 OA
ATOM     30  O   UNL     1      -4.834  -0.335  -7.768  1.00  0.00    -0.224 OA
ENDBRANCH  26  27
ENDBRANCH  19  21
ENDBRANCH  12  13
ENDBRANCH   7  12
ENDBRANCH   3   6
ENDBRANCH   1   2
BRANCH   1  31
ATOM     31  C   UNL     1      -6.375  -3.612  -7.125  1.00  0.00     0.042 C 
BRANCH  31  32
ATOM     32  C   UNL     1      -7.262  -3.221  -8.293  1.00  0.00     0.118 C 
BRANCH  32  33
ATOM     33  N   UNL     1      -7.763  -4.359  -9.057  1.00  0.00    -0.352 N 
ATOM     34  C   UNL     1      -8.982  -4.996  -9.077  1.00  0.00     0.251 C 
ATOM     35  H   UNL     1      -7.103  -4.743  -9.678  1.00  0.00     0.163 HD
ATOM     36  O   UNL     1      -9.109  -6.029  -9.731  1.00  0.00    -0.269 OA
BRANCH  34  37
ATOM     37  C   UNL     1     -10.130  -4.495  -8.285  1.00  0.00     0.039 A 
ATOM     38  C   UNL     1     -10.374  -3.134  -8.138  1.00  0.00     0.014 A 
ATOM     39  C   UNL     1     -10.998  -5.413  -7.680  1.00  0.00     0.014 A 
ATOM     40  C   UNL     1     -11.298  -2.693  -7.199  1.00  0.00     0.010 A 
ATOM     41  C   UNL     1     -12.026  -4.962  -6.843  1.00  0.00     0.010 A 
ATOM     42  C   UNL     1     -12.139  -3.599  -6.536  1.00  0.00    -0.014 A 
BRANCH  42  43
ATOM     43  C   UNL     1     -13.113  -3.083  -5.534  1.00  0.00     0.031 A 
ATOM     44  C   UNL     1     -13.048  -3.514  -4.091  1.00  0.00     0.074 A 
ATOM     45  C   UNL     1     -14.012  -2.151  -5.909  1.00  0.00     0.049 A 
ATOM     46  N   UNL     1     -13.761  -3.102  -3.070  1.00  0.00    -0.248 NA
ATOM     47  C   UNL     1     -12.059  -4.546  -3.748  1.00  0.00     0.031 C 
ATOM     48  C   UNL     1     -14.174  -1.636  -7.271  1.00  0.00     0.029 A 
ATOM     49  N   UNL     1     -14.926  -1.439  -5.176  1.00  0.00    -0.354 N 
ATOM     50  C   UNL     1     -13.320  -3.835  -1.974  1.00  0.00     0.074 A 
ATOM     51  C   UNL     1     -12.312  -4.750  -2.464  1.00  0.00     0.031 C 
ATOM     52  C   UNL     1     -15.063  -0.633  -7.259  1.00  0.00     0.029 A 
ATOM     53  C   UNL     1     -15.594  -0.489  -5.909  1.00  0.00     0.049 A 
ATOM     54  H   UNL     1     -15.088  -1.594  -4.217  1.00  0.00     0.167 HD
ATOM     55  C   UNL     1     -13.704  -3.747  -0.675  1.00  0.00     0.037 A 
ATOM     56  C   UNL     1     -16.535   0.399  -5.540  1.00  0.00     0.037 A 
ATOM     57  C   UNL     1     -14.714  -2.841  -0.187  1.00  0.00     0.049 A 
ATOM     58  C   UNL     1     -17.003   0.416  -4.115  1.00  0.00     0.074 A 
ATOM     59  C   UNL     1     -15.168  -2.665   1.109  1.00  0.00     0.029 A 
ATOM     60  N   UNL     1     -15.441  -1.965  -0.982  1.00  0.00    -0.354 N 
ATOM     61  N   UNL     1     -16.561  -0.266  -3.087  1.00  0.00    -0.248 NA
ATOM     62  C   UNL     1     -18.113   1.326  -3.805  1.00  0.00     0.031 C 
ATOM     63  C   UNL     1     -16.208  -1.728   1.089  1.00  0.00     0.029 A 
ATOM     64  C   UNL     1     -16.362  -1.272  -0.210  1.00  0.00     0.049 A 
ATOM     65  H   UNL     1     -15.320  -1.852  -1.953  1.00  0.00     0.167 HD
ATOM     66  C   UNL     1     -17.326   0.144  -2.003  1.00  0.00     0.074 A 
ATOM     67  C   UNL     1     -18.238   1.156  -2.498  1.00  0.00     0.031 C 
ATOM     68  C   UNL     1     -17.279  -0.279  -0.715  1.00  0.00     0.037 A 
BRANCH  55  69
ATOM     69  C   UNL     1     -13.049  -4.694   0.295  1.00  0.00     0.057 A 
ATOM     70  C   UNL     1     -13.782  -5.729   0.888  1.00  0.00     0.134 A 
ATOM     71  C   UNL     1     -11.688  -4.603   0.623  1.00  0.00     0.134 A 
ATOM     72  F   UNL     1     -15.091  -5.871   0.632  1.00  0.00    -0.206 F 
ATOM     73  C   UNL     1     -13.185  -6.649   1.753  1.00  0.00     0.040 A 
ATOM     74  C   UNL     1     -11.072  -5.537   1.459  1.00  0.00     0.040 A 
ATOM     75  F   UNL     1     -10.921  -3.643   0.085  1.00  0.00    -0.206 F 
ATOM     76  C   UNL     1     -11.822  -6.564   2.027  1.00  0.00     0.006 A 
ENDBRANCH  55  69
BRANCH  56  77
ATOM     77  C   UNL     1     -17.095   1.348  -6.534  1.00  0.00     0.057 A 
ATOM     78  C   UNL     1     -17.889   0.912  -7.601  1.00  0.00     0.134 A 
ATOM     79  C   UNL     1     -16.853   2.723  -6.430  1.00  0.00     0.134 A 
ATOM     80  F   UNL     1     -18.154  -0.393  -7.760  1.00  0.00    -0.206 F 
ATOM     81  C   UNL     1     -18.411   1.806  -8.537  1.00  0.00     0.040 A 
ATOM     82  C   UNL     1     -17.393   3.631  -7.341  1.00  0.00     0.040 A 
ATOM     83  F   UNL     1     -16.115   3.204  -5.418  1.00  0.00    -0.206 F 
ATOM     84  C   UNL     1     -18.170   3.171  -8.402  1.00  0.00     0.006 A 
ENDBRANCH  56  77
BRANCH  68  85
ATOM     85  C   UNL     1     -18.230   0.380   0.244  1.00  0.00     0.057 A 
ATOM     86  C   UNL     1     -17.756   1.249   1.235  1.00  0.00     0.134 A 
ATOM     87  C   UNL     1     -19.616   0.178   0.174  1.00  0.00     0.134 A 
ATOM     88  F   UNL     1     -16.441   1.483   1.366  1.00  0.00    -0.206 F 
ATOM     89  C   UNL     1     -18.624   1.902   2.111  1.00  0.00     0.040 A 
ATOM     90  C   UNL     1     -20.496   0.853   1.022  1.00  0.00     0.040 A 
ATOM     91  F   UNL     1     -20.139  -0.628  -0.763  1.00  0.00    -0.206 F 
ATOM     92  C   UNL     1     -20.000   1.716   1.996  1.00  0.00     0.006 A 
ENDBRANCH  68  85
ENDBRANCH  42  43
ENDBRANCH  34  37
ENDBRANCH  32  33
ENDBRANCH  31  32
ENDBRANCH   1  31
TORSDOF 14
