REMARK SMILES CCOC(=O)C1CCN(c2cc(NCC(=O)NCCCNC(=O)c3ccc(-c4c5nc(c(-c6c(F)cccc6F)c6ccc([nH]6)c(-c6c(F)cccc6F)c6nc(c(-c7c(F)cccc7F)c7ccc4[nH]7)C=C6)C=C5)cc3)c3c4c(onc24)-c2ccccc2C3=O)CC1
REMARK SMILES IDX 15 1 16 2 17 3 14 5 13 6 12 8 10 9 11 10 83 11 79 12 82 13
REMARK SMILES IDX 78 14 80 15 81 16 90 17 84 18 89 19 91 20 85 21 88 22 86 23
REMARK SMILES IDX 87 24 9 25 6 26 7 27 93 28 8 29 92 30 4 31 5 32 3 33 2 34
REMARK SMILES IDX 1 35 18 36 19 37 20 38 21 39 22 40 23 42 24 43 25 44 77 45
REMARK SMILES IDX 26 46 76 47 27 48 28 49 29 50 70 51 30 52 75 53 69 54 71 55
REMARK SMILES IDX 31 56 74 57 68 58 67 59 32 61 58 62 41 63 57 64 42 65 45 66
REMARK SMILES IDX 56 67 72 68 43 69 44 70 55 72 73 73 46 74 33 75 34 76 39 77
REMARK SMILES IDX 35 78 36 79 38 80 40 81 37 82 59 83 60 84 65 85 61 86 62 87
REMARK SMILES IDX 64 88 66 89 63 90 47 91 48 92 53 93 49 94 50 95 52 96 54 97
REMARK SMILES IDX 51 98
REMARK H PARENT 17 4 13 7 21 41 71 60 45 71
REMARK Flexibility Score: inf
ROOT
ATOM      1  C   UNL     1      -0.457   9.743   6.202  1.00  0.00     0.239 C 
ATOM      2  O   UNL     1      -1.153  10.675   6.614  1.00  0.00    -0.273 OA
ATOM      3  N   UNL     1      -0.428   8.598   6.946  1.00  0.00    -0.355 N 
ATOM      4  H   UNL     1      -1.077   8.563   7.686  1.00  0.00     0.163 HD
ENDROOT
BRANCH   1   5
ATOM      5  C   UNL     1       0.287   9.828   4.866  1.00  0.00     0.213 C 
BRANCH   5   6
ATOM      6  N   UNL     1       1.730   9.910   5.035  1.00  0.00    -0.375 N 
ATOM      7  H   UNL     1       2.055  10.668   5.572  1.00  0.00     0.161 HD
BRANCH   6   8
ATOM      8  C   UNL     1       2.706   9.059   4.537  1.00  0.00     0.049 A 
ATOM      9  C   UNL     1       3.267   6.827   3.338  1.00  0.00     0.069 A 
ATOM     10  C   UNL     1       2.372   7.874   3.761  1.00  0.00     0.054 A 
ATOM     11  C   UNL     1       4.609   7.138   3.692  1.00  0.00     0.138 A 
ATOM     12  C   UNL     1       4.890   8.337   4.385  1.00  0.00     0.065 A 
ATOM     13  N   UNL     1       5.791   6.504   3.486  1.00  0.00    -0.077 NA
ATOM     14  C   UNL     1       4.058   9.328   4.845  1.00  0.00     0.059 A 
ATOM     15  C   UNL     1       6.231   8.441   4.519  1.00  0.00     0.176 A 
ATOM     16  O   UNL     1       6.803   7.336   3.990  1.00  0.00    -0.355 OA
ATOM     17  C   UNL     1       4.652  10.490   5.566  1.00  0.00     0.196 C 
ATOM     18  C   UNL     1       6.958   9.557   5.061  1.00  0.00     0.032 A 
ATOM     19  C   UNL     1       6.162  10.601   5.593  1.00  0.00     0.034 A 
ATOM     20  O   UNL     1       3.938  11.325   6.094  1.00  0.00    -0.288 OA
ATOM     21  C   UNL     1       8.346   9.677   5.028  1.00  0.00     0.013 A 
ATOM     22  C   UNL     1       6.767  11.753   6.095  1.00  0.00     0.013 A 
ATOM     23  C   UNL     1       8.942  10.838   5.524  1.00  0.00     0.001 A 
ATOM     24  C   UNL     1       8.158  11.871   6.046  1.00  0.00     0.001 A 
BRANCH   9  25
ATOM     25  N   UNL     1       2.809   5.662   2.751  1.00  0.00    -0.370 N 
ATOM     26  C   UNL     1       3.266   3.692   0.698  1.00  0.00     0.103 C 
ATOM     27  C   UNL     1       4.216   3.896   1.888  1.00  0.00     0.037 C 
ATOM     28  C   UNL     1       2.439   4.964   0.422  1.00  0.00     0.037 C 
ATOM     29  C   UNL     1       3.442   4.397   3.098  1.00  0.00     0.117 C 
ATOM     30  C   UNL     1       1.835   5.635   1.666  1.00  0.00     0.117 C 
BRANCH  26  31
ATOM     31  C   UNL     1       2.496   2.400   0.924  1.00  0.00     0.309 C 
ATOM     32  O   UNL     1       3.047   1.363   1.280  1.00  0.00    -0.252 OA
BRANCH  31  33
ATOM     33  O   UNL     1       1.163   2.507   0.691  1.00  0.00    -0.466 OA
BRANCH  33  34
ATOM     34  C   UNL     1       0.404   1.322   0.994  1.00  0.00     0.229 C 
ATOM     35  C   UNL     1       0.515   0.283  -0.110  1.00  0.00     0.049 C 
ENDBRANCH  33  34
ENDBRANCH  31  33
ENDBRANCH  26  31
ENDBRANCH   9  25
ENDBRANCH   6   8
ENDBRANCH   5   6
ENDBRANCH   1   5
BRANCH   3  36
ATOM     36  C   UNL     1       0.416   7.422   6.809  1.00  0.00     0.117 C 
BRANCH  36  37
ATOM     37  C   UNL     1       1.591   7.465   7.782  1.00  0.00     0.042 C 
BRANCH  37  38
ATOM     38  C   UNL     1       1.129   7.369   9.236  1.00  0.00     0.118 C 
BRANCH  38  39
ATOM     39  N   UNL     1       0.833   6.002   9.650  1.00  0.00    -0.352 N 
ATOM     40  C   UNL     1       1.668   5.048  10.183  1.00  0.00     0.251 C 
ATOM     41  H   UNL     1      -0.103   5.721   9.532  1.00  0.00     0.163 HD
ATOM     42  O   UNL     1       1.278   3.897  10.348  1.00  0.00    -0.269 OA
BRANCH  40  43
ATOM     43  C   UNL     1       3.057   5.412  10.514  1.00  0.00     0.039 A 
ATOM     44  C   UNL     1       3.319   6.516  11.328  1.00  0.00     0.014 A 
ATOM     45  C   UNL     1       4.103   4.656   9.978  1.00  0.00     0.014 A 
ATOM     46  C   UNL     1       4.622   6.968  11.471  1.00  0.00     0.010 A 
ATOM     47  C   UNL     1       5.417   5.076  10.172  1.00  0.00     0.010 A 
ATOM     48  C   UNL     1       5.672   6.260  10.878  1.00  0.00    -0.014 A 
BRANCH  48  49
ATOM     49  C   UNL     1       7.020   6.817  11.070  1.00  0.00     0.031 A 
ATOM     50  C   UNL     1       7.954   5.906  11.796  1.00  0.00     0.074 A 
ATOM     51  C   UNL     1       7.569   7.575  10.098  1.00  0.00     0.049 A 
ATOM     52  N   UNL     1       8.588   4.915  11.244  1.00  0.00    -0.248 NA
ATOM     53  C   UNL     1       8.030   5.926  13.257  1.00  0.00     0.031 C 
ATOM     54  C   UNL     1       7.497   7.240   8.672  1.00  0.00     0.029 A 
ATOM     55  N   UNL     1       8.533   8.556  10.182  1.00  0.00    -0.354 N 
ATOM     56  C   UNL     1       9.102   4.146  12.271  1.00  0.00     0.074 A 
ATOM     57  C   UNL     1       8.742   4.816  13.501  1.00  0.00     0.031 C 
ATOM     58  C   UNL     1       8.494   7.880   8.038  1.00  0.00     0.029 A 
ATOM     59  C   UNL     1       9.181   8.765   8.973  1.00  0.00     0.049 A 
ATOM     60  H   UNL     1       8.739   9.052  11.007  1.00  0.00     0.167 HD
ATOM     61  C   UNL     1       9.789   2.995  12.063  1.00  0.00     0.037 A 
ATOM     62  C   UNL     1      10.453   9.218   8.838  1.00  0.00     0.037 A 
ATOM     63  C   UNL     1      10.002   2.637  10.695  1.00  0.00     0.049 A 
ATOM     64  C   UNL     1      11.226   7.930   8.916  1.00  0.00     0.074 A 
ATOM     65  C   UNL     1       9.373   1.869   9.742  1.00  0.00     0.029 A 
ATOM     66  N   UNL     1      11.067   3.215  10.047  1.00  0.00    -0.354 N 
ATOM     67  N   UNL     1      11.337   7.044   7.963  1.00  0.00    -0.248 NA
ATOM     68  C   UNL     1      11.558   7.433  10.254  1.00  0.00     0.031 C 
ATOM     69  C   UNL     1       9.839   2.364   8.485  1.00  0.00     0.029 A 
ATOM     70  C   UNL     1      10.672   3.449   8.756  1.00  0.00     0.049 A 
ATOM     71  H   UNL     1      11.947   3.421  10.436  1.00  0.00     0.167 HD
ATOM     72  C   UNL     1      11.404   5.813   8.622  1.00  0.00     0.074 A 
ATOM     73  C   UNL     1      11.614   6.126  10.023  1.00  0.00     0.031 C 
ATOM     74  C   UNL     1      11.048   4.637   8.025  1.00  0.00     0.037 A 
BRANCH  61  75
ATOM     75  C   UNL     1      10.441   2.203  13.120  1.00  0.00     0.057 A 
ATOM     76  C   UNL     1       9.769   1.216  13.840  1.00  0.00     0.134 A 
ATOM     77  C   UNL     1      11.833   2.282  13.250  1.00  0.00     0.134 A 
ATOM     78  F   UNL     1       8.437   1.089  13.748  1.00  0.00    -0.206 F 
ATOM     79  C   UNL     1      10.471   0.303  14.631  1.00  0.00     0.040 A 
ATOM     80  C   UNL     1      12.546   1.373  14.027  1.00  0.00     0.040 A 
ATOM     81  F   UNL     1      12.521   3.217  12.573  1.00  0.00    -0.206 F 
ATOM     82  C   UNL     1      11.864   0.369  14.709  1.00  0.00     0.006 A 
ENDBRANCH  61  75
BRANCH  62  83
ATOM     83  C   UNL     1      10.830  10.480   9.537  1.00  0.00     0.057 A 
ATOM     84  C   UNL     1      12.046  10.715  10.187  1.00  0.00     0.134 A 
ATOM     85  C   UNL     1       9.948  11.579   9.480  1.00  0.00     0.134 A 
ATOM     86  F   UNL     1      12.992   9.770  10.250  1.00  0.00    -0.206 F 
ATOM     87  C   UNL     1      12.335  11.941  10.804  1.00  0.00     0.040 A 
ATOM     88  C   UNL     1      10.232  12.815  10.067  1.00  0.00     0.040 A 
ATOM     89  F   UNL     1       8.772  11.480   8.845  1.00  0.00    -0.206 F 
ATOM     90  C   UNL     1      11.428  12.995  10.745  1.00  0.00     0.006 A 
ENDBRANCH  62  83
BRANCH  74  91
ATOM     91  C   UNL     1      10.747   4.729   6.566  1.00  0.00     0.057 A 
ATOM     92  C   UNL     1       9.438   4.610   6.075  1.00  0.00     0.134 A 
ATOM     93  C   UNL     1      11.770   4.928   5.636  1.00  0.00     0.134 A 
ATOM     94  F   UNL     1       8.399   4.446   6.909  1.00  0.00    -0.206 F 
ATOM     95  C   UNL     1       9.164   4.647   4.707  1.00  0.00     0.040 A 
ATOM     96  C   UNL     1      11.505   4.991   4.267  1.00  0.00     0.040 A 
ATOM     97  F   UNL     1      13.045   5.047   6.040  1.00  0.00    -0.206 F 
ATOM     98  C   UNL     1      10.201   4.838   3.799  1.00  0.00     0.006 A 
ENDBRANCH  74  91
ENDBRANCH  48  49
ENDBRANCH  40  43
ENDBRANCH  38  39
ENDBRANCH  37  38
ENDBRANCH  36  37
ENDBRANCH   3  36
TORSDOF 16
