REMARK SMILES NC(=O)C[C@H](NC(=O)[C@@H]1CCC[NH2+]1)C(=O)NCCCNC(=O)c1ccc(-c2c3nc(c(-c4c(F)cccc4F)c4ccc([nH]4)c(-c4c(F)cccc4F)c4nc(c(-c5c(F)cccc5F)c5ccc2[nH]5)C=C4)C=C3)cc1
REMARK SMILES IDX 18 1 17 2 16 3 14 4 15 5 5 7 4 8 2 9 1 10 3 13 6 14 7 15
REMARK SMILES IDX 8 17 9 18 10 19 13 20 11 21 12 22 19 25 20 26 21 27 22 29
REMARK SMILES IDX 23 30 24 31 76 32 25 33 75 34 26 35 27 36 28 37 69 38 29 39
REMARK SMILES IDX 74 40 68 41 70 42 30 43 73 44 67 45 66 46 31 48 57 49 40 50
REMARK SMILES IDX 56 51 41 52 44 53 55 54 71 55 42 56 43 57 54 59 72 60 45 61
REMARK SMILES IDX 32 62 33 63 38 64 34 65 35 66 37 67 39 68 36 69 58 70 59 71
REMARK SMILES IDX 64 72 60 73 61 74 63 75 65 76 62 77 46 78 47 79 52 80 48 81
REMARK SMILES IDX 49 82 51 83 53 84 50 85
REMARK H PARENT 16 6 1 11 1 12 6 16 13 23 13 24 20 28 70 47 44 58
REMARK Flexibility Score: inf
ROOT
ATOM      1  C   UNL     1       3.449  -2.870   3.389  1.00  0.00     0.042 C 
ENDROOT
BRANCH   1   2
ATOM      2  C   UNL     1       3.853  -2.972   1.927  1.00  0.00     0.117 C 
BRANCH   2   3
ATOM      3  N   UNL     1       3.264  -4.111   1.249  1.00  0.00    -0.354 N 
ATOM      4  C   UNL     1       2.401  -4.137   0.186  1.00  0.00     0.243 C 
ATOM      5  O   UNL     1       2.194  -5.227  -0.355  1.00  0.00    -0.273 OA
ATOM      6  H   UNL     1       3.522  -4.992   1.603  1.00  0.00     0.163 HD
BRANCH   4   7
ATOM      7  C   UNL     1       1.866  -2.828  -0.456  1.00  0.00     0.180 C 
BRANCH   7   8
ATOM      8  C   UNL     1       2.957  -2.336  -1.392  1.00  0.00     0.134 C 
BRANCH   8   9
ATOM      9  C   UNL     1       2.454  -2.070  -2.788  1.00  0.00     0.220 C 
ATOM     10  N   UNL     1       2.115  -3.163  -3.524  1.00  0.00    -0.370 N 
ATOM     11  H   UNL     1       1.780  -3.053  -4.443  1.00  0.00     0.159 HD
ATOM     12  H   UNL     1       2.205  -4.064  -3.137  1.00  0.00     0.159 HD
ATOM     13  O   UNL     1       2.383  -0.948  -3.274  1.00  0.00    -0.275 OA
ENDBRANCH   8   9
ENDBRANCH   7   8
BRANCH   7  14
ATOM     14  N   UNL     1       1.305  -1.975   0.614  1.00  0.00    -0.339 N 
ATOM     15  C   UNL     1       1.336  -0.730   1.133  1.00  0.00     0.278 C 
ATOM     16  H   UNL     1       0.677  -2.516   1.145  1.00  0.00     0.164 HD
ATOM     17  O   UNL     1       0.714  -0.637   2.204  1.00  0.00    -0.268 OA
BRANCH  15  18
ATOM     18  C   UNL     1       2.010   0.529   0.570  1.00  0.00     0.272 C 
ATOM     19  C   UNL     1       1.544   0.975  -0.795  1.00  0.00     0.081 C 
ATOM     20  N   UNL     1       3.486   0.535   0.573  1.00  0.00    -0.336 N 
ATOM     21  C   UNL     1       2.724   1.765  -1.328  1.00  0.00     0.068 C 
ATOM     22  C   UNL     1       3.941   1.127  -0.689  1.00  0.00     0.261 C 
ATOM     23  H   UNL     1       3.836  -0.420   0.653  1.00  0.00     0.346 HD
ATOM     24  H   UNL     1       3.836   1.076   1.364  1.00  0.00     0.346 HD
ENDBRANCH  15  18
ENDBRANCH   7  14
ENDBRANCH   4   7
ENDBRANCH   2   3
ENDBRANCH   1   2
BRANCH   1  25
ATOM     25  C   UNL     1       4.198  -3.851   4.279  1.00  0.00     0.118 C 
BRANCH  25  26
ATOM     26  N   UNL     1       5.628  -3.570   4.344  1.00  0.00    -0.352 N 
ATOM     27  C   UNL     1       6.440  -3.358   5.429  1.00  0.00     0.251 C 
ATOM     28  H   UNL     1       6.082  -3.525   3.472  1.00  0.00     0.163 HD
ATOM     29  O   UNL     1       7.594  -2.968   5.257  1.00  0.00    -0.269 OA
BRANCH  27  30
ATOM     30  C   UNL     1       5.933  -3.576   6.799  1.00  0.00     0.039 A 
ATOM     31  C   UNL     1       6.291  -2.674   7.804  1.00  0.00     0.014 A 
ATOM     32  C   UNL     1       5.116  -4.669   7.098  1.00  0.00     0.014 A 
ATOM     33  C   UNL     1       5.774  -2.832   9.091  1.00  0.00     0.010 A 
ATOM     34  C   UNL     1       4.526  -4.769   8.353  1.00  0.00     0.010 A 
ATOM     35  C   UNL     1       4.855  -3.857   9.366  1.00  0.00    -0.014 A 
BRANCH  35  36
ATOM     36  C   UNL     1       4.231  -3.996  10.705  1.00  0.00     0.031 A 
ATOM     37  C   UNL     1       4.453  -5.242  11.518  1.00  0.00     0.074 A 
ATOM     38  C   UNL     1       3.411  -3.029  11.161  1.00  0.00     0.049 A 
ATOM     39  N   UNL     1       3.942  -5.577  12.676  1.00  0.00    -0.248 NA
ATOM     40  C   UNL     1       5.344  -6.262  10.940  1.00  0.00     0.031 C 
ATOM     41  C   UNL     1       3.073  -1.798  10.445  1.00  0.00     0.029 A 
ATOM     42  N   UNL     1       2.705  -2.935  12.334  1.00  0.00    -0.354 N 
ATOM     43  C   UNL     1       4.437  -6.845  12.955  1.00  0.00     0.074 A 
ATOM     44  C   UNL     1       5.238  -7.246  11.820  1.00  0.00     0.031 C 
ATOM     45  C   UNL     1       2.248  -1.059  11.205  1.00  0.00     0.029 A 
ATOM     46  C   UNL     1       1.965  -1.782  12.440  1.00  0.00     0.049 A 
ATOM     47  H   UNL     1       2.726  -3.628  13.033  1.00  0.00     0.167 HD
ATOM     48  C   UNL     1       4.262  -7.596  14.068  1.00  0.00     0.037 A 
ATOM     49  C   UNL     1       1.143  -1.360  13.420  1.00  0.00     0.037 A 
ATOM     50  C   UNL     1       3.482  -7.184  15.205  1.00  0.00     0.049 A 
ATOM     51  C   UNL     1       0.957  -2.218  14.640  1.00  0.00     0.074 A 
ATOM     52  C   UNL     1       3.290  -7.847  16.405  1.00  0.00     0.029 A 
ATOM     53  N   UNL     1       2.759  -6.002  15.281  1.00  0.00    -0.354 N 
ATOM     54  N   UNL     1       1.488  -3.382  14.923  1.00  0.00    -0.248 NA
ATOM     55  C   UNL     1       0.061  -1.698  15.683  1.00  0.00     0.031 C 
ATOM     56  C   UNL     1       2.409  -7.091  17.185  1.00  0.00     0.029 A 
ATOM     57  C   UNL     1       2.100  -5.929  16.497  1.00  0.00     0.049 A 
ATOM     58  H   UNL     1       2.720  -5.317  14.575  1.00  0.00     0.167 HD
ATOM     59  C   UNL     1       1.017  -3.720  16.185  1.00  0.00     0.074 A 
ATOM     60  C   UNL     1       0.170  -2.629  16.620  1.00  0.00     0.031 C 
ATOM     61  C   UNL     1       1.265  -4.833  16.919  1.00  0.00     0.037 A 
BRANCH  48  62
ATOM     62  C   UNL     1       4.930  -8.941  14.109  1.00  0.00     0.057 A 
ATOM     63  C   UNL     1       6.323  -9.074  14.192  1.00  0.00     0.134 A 
ATOM     64  C   UNL     1       4.171 -10.118  14.099  1.00  0.00     0.134 A 
ATOM     65  F   UNL     1       7.112  -7.988  14.194  1.00  0.00    -0.206 F 
ATOM     66  C   UNL     1       6.937 -10.327  14.234  1.00  0.00     0.040 A 
ATOM     67  C   UNL     1       4.772 -11.376  14.171  1.00  0.00     0.040 A 
ATOM     68  F   UNL     1       2.832 -10.065  14.027  1.00  0.00    -0.206 F 
ATOM     69  C   UNL     1       6.160 -11.483  14.231  1.00  0.00     0.006 A 
ENDBRANCH  48  62
BRANCH  49  70
ATOM     70  C   UNL     1       0.450  -0.052  13.298  1.00  0.00     0.057 A 
ATOM     71  C   UNL     1       0.785   1.024  14.129  1.00  0.00     0.134 A 
ATOM     72  C   UNL     1      -0.569   0.153  12.360  1.00  0.00     0.134 A 
ATOM     73  F   UNL     1       1.741   0.885  15.060  1.00  0.00    -0.206 F 
ATOM     74  C   UNL     1       0.118   2.247  14.048  1.00  0.00     0.040 A 
ATOM     75  C   UNL     1      -1.225   1.379  12.248  1.00  0.00     0.040 A 
ATOM     76  F   UNL     1      -0.933  -0.835  11.529  1.00  0.00    -0.206 F 
ATOM     77  C   UNL     1      -0.888   2.429  13.101  1.00  0.00     0.006 A 
ENDBRANCH  49  70
BRANCH  61  78
ATOM     78  C   UNL     1       0.646  -4.907  18.285  1.00  0.00     0.057 A 
ATOM     79  C   UNL     1      -0.731  -5.091  18.468  1.00  0.00     0.134 A 
ATOM     80  C   UNL     1       1.445  -4.829  19.433  1.00  0.00     0.134 A 
ATOM     81  F   UNL     1      -1.554  -5.161  17.412  1.00  0.00    -0.206 F 
ATOM     82  C   UNL     1      -1.293  -5.165  19.744  1.00  0.00     0.040 A 
ATOM     83  C   UNL     1       0.899  -4.934  20.712  1.00  0.00     0.040 A 
ATOM     84  F   UNL     1       2.773  -4.665  19.329  1.00  0.00    -0.206 F 
ATOM     85  C   UNL     1      -0.475  -5.095  20.870  1.00  0.00     0.006 A 
ENDBRANCH  61  78
ENDBRANCH  35  36
ENDBRANCH  27  30
ENDBRANCH  25  26
ENDBRANCH   1  25
TORSDOF 14
