REMARK SMILES N#Cc1cc2c(nc1N1CC[NH+]([C@H](C(=O)NCCCNC(=O)c3ccc(-c4c5nc(c(-c6c(F)cccc6F)c6ccc([nH]6)c(-c6c(F)cccc6F)c6nc(c(-c7c(F)cccc7F)c7ccc4[nH]7)C=C6)C=C5)cc3)c3c[nH]c4cc(Cl)ccc34)CC1)CCCC2
REMARK SMILES IDX 17 1 16 2 14 3 15 4 13 6 12 7 9 8 10 9 88 10 11 11 87 12
REMARK SMILES IDX 8 14 3 15 4 16 5 17 7 18 6 19 92 20 89 21 91 22 90 23 2 24
REMARK SMILES IDX 1 25 77 26 78 27 86 28 79 29 80 30 85 31 81 33 84 34 82 35
REMARK SMILES IDX 83 36 18 37 19 38 20 39 21 40 22 42 23 43 24 44 76 45 25 46
REMARK SMILES IDX 75 47 26 48 27 49 28 50 69 51 29 52 74 53 68 54 70 55 30 56
REMARK SMILES IDX 73 57 67 58 66 59 31 61 57 62 40 63 56 64 41 65 44 66 55 67
REMARK SMILES IDX 71 68 42 69 43 70 54 72 72 73 45 74 32 75 33 76 38 77 34 78
REMARK SMILES IDX 35 79 37 80 39 81 36 82 58 83 59 84 64 85 60 86 61 87 63 88
REMARK SMILES IDX 65 89 62 90 46 91 47 92 52 93 48 94 49 95 51 96 53 97 50 98
REMARK H PARENT 16 5 12 13 79 32 20 41 70 60 44 71
REMARK Flexibility Score: inf
ROOT
ATOM      1  C   UNL     1       0.076  -6.413   1.441  1.00  0.00     0.118 C 
ENDROOT
BRANCH   1   2
ATOM      2  N   UNL     1       0.757  -5.163   1.094  1.00  0.00    -0.351 N 
ATOM      3  C   UNL     1       1.973  -4.856   0.517  1.00  0.00     0.283 C 
ATOM      4  O   UNL     1       2.080  -3.662   0.204  1.00  0.00    -0.268 OA
ATOM      5  H   UNL     1       0.229  -4.364   1.323  1.00  0.00     0.163 HD
BRANCH   3   6
ATOM      6  C   UNL     1       3.145  -5.911   0.304  1.00  0.00     0.307 C 
BRANCH   6   7
ATOM      7  N   UNL     1       4.123  -5.378  -0.687  1.00  0.00    -0.318 N 
ATOM      8  N   UNL     1       6.819  -5.317  -1.638  1.00  0.00    -0.344 N 
ATOM      9  C   UNL     1       5.861  -5.988  -2.488  1.00  0.00     0.179 C 
ATOM     10  C   UNL     1       6.344  -4.087  -1.026  1.00  0.00     0.179 C 
ATOM     11  C   UNL     1       4.615  -6.374  -1.651  1.00  0.00     0.284 C 
ATOM     12  C   UNL     1       5.073  -4.369  -0.194  1.00  0.00     0.284 C 
ATOM     13  H   UNL     1       3.559  -4.773  -1.285  1.00  0.00     0.349 HD
BRANCH   8  14
ATOM     14  C   UNL     1       8.039  -5.838  -1.322  1.00  0.00     0.147 A 
ATOM     15  C   UNL     1       8.277  -6.633  -0.200  1.00  0.00     0.095 A 
ATOM     16  C   UNL     1       9.592  -6.892   0.199  1.00  0.00     0.029 A 
ATOM     17  C   UNL     1      10.638  -6.551  -0.647  1.00  0.00    -0.025 A 
ATOM     18  N   UNL     1       9.052  -5.513  -2.149  1.00  0.00    -0.234 NA
ATOM     19  C   UNL     1      10.311  -5.915  -1.844  1.00  0.00     0.046 A 
ATOM     20  C   UNL     1      12.053  -6.893  -0.281  1.00  0.00     0.037 C 
ATOM     21  C   UNL     1      11.323  -5.794  -2.952  1.00  0.00     0.056 C 
ATOM     22  C   UNL     1      12.940  -7.061  -1.511  1.00  0.00     0.005 C 
ATOM     23  C   UNL     1      12.764  -5.878  -2.460  1.00  0.00     0.007 C 
BRANCH  15  24
ATOM     24  C   UNL     1       7.253  -7.404   0.408  1.00  0.00     0.103 C 
ATOM     25  N   UNL     1       6.516  -8.201   0.845  1.00  0.00    -0.192 NA
ENDBRANCH  15  24
ENDBRANCH   8  14
ENDBRANCH   6   7
BRANCH   6  26
ATOM     26  C   UNL     1       3.772  -6.473   1.650  1.00  0.00     0.044 A 
ATOM     27  C   UNL     1       2.877  -6.839   2.657  1.00  0.00     0.094 A 
ATOM     28  C   UNL     1       4.735  -5.925   2.605  1.00  0.00     0.009 A 
ATOM     29  N   UNL     1       2.713  -5.520   3.168  1.00  0.00    -0.361 N 
ATOM     30  C   UNL     1       3.974  -4.992   3.305  1.00  0.00     0.047 A 
ATOM     31  C   UNL     1       5.869  -6.363   3.328  1.00  0.00     0.012 A 
ATOM     32  H   UNL     1       1.862  -5.073   3.382  1.00  0.00     0.166 HD
ATOM     33  C   UNL     1       4.442  -4.065   4.223  1.00  0.00     0.047 A 
ATOM     34  C   UNL     1       6.316  -5.606   4.429  1.00  0.00     0.021 A 
ATOM     35  C   UNL     1       5.648  -4.440   4.813  1.00  0.00     0.043 A 
ATOM     36  Cl  UNL     1       6.190  -3.561   6.192  1.00  0.00    -0.084 Cl
ENDBRANCH   6  26
ENDBRANCH   3   6
ENDBRANCH   1   2
BRANCH   1  37
ATOM     37  C   UNL     1      -0.173  -6.705   2.945  1.00  0.00     0.042 C 
BRANCH  37  38
ATOM     38  C   UNL     1      -0.313  -5.504   3.887  1.00  0.00     0.118 C 
BRANCH  38  39
ATOM     39  N   UNL     1      -1.623  -5.445   4.493  1.00  0.00    -0.352 N 
ATOM     40  C   UNL     1      -2.051  -5.978   5.682  1.00  0.00     0.251 C 
ATOM     41  H   UNL     1      -2.304  -4.952   3.981  1.00  0.00     0.163 HD
ATOM     42  O   UNL     1      -3.255  -6.134   5.868  1.00  0.00    -0.269 OA
BRANCH  40  43
ATOM     43  C   UNL     1      -1.090  -6.378   6.738  1.00  0.00     0.039 A 
ATOM     44  C   UNL     1      -1.317  -7.577   7.420  1.00  0.00     0.014 A 
ATOM     45  C   UNL     1      -0.034  -5.549   7.131  1.00  0.00     0.014 A 
ATOM     46  C   UNL     1      -0.480  -7.953   8.475  1.00  0.00     0.010 A 
ATOM     47  C   UNL     1       0.843  -5.958   8.142  1.00  0.00     0.010 A 
ATOM     48  C   UNL     1       0.619  -7.156   8.838  1.00  0.00    -0.014 A 
BRANCH  48  49
ATOM     49  C   UNL     1       1.509  -7.564   9.960  1.00  0.00     0.031 A 
ATOM     50  C   UNL     1       1.582  -6.741  11.220  1.00  0.00     0.074 A 
ATOM     51  C   UNL     1       2.251  -8.684   9.853  1.00  0.00     0.049 A 
ATOM     52  N   UNL     1       2.286  -6.950  12.305  1.00  0.00    -0.248 NA
ATOM     53  C   UNL     1       0.768  -5.516  11.264  1.00  0.00     0.031 C 
ATOM     54  C   UNL     1       2.286  -9.562   8.683  1.00  0.00     0.029 A 
ATOM     55  N   UNL     1       3.111  -9.283  10.742  1.00  0.00    -0.354 N 
ATOM     56  C   UNL     1       1.996  -5.891  13.157  1.00  0.00     0.074 A 
ATOM     57  C   UNL     1       1.104  -5.007  12.440  1.00  0.00     0.031 C 
ATOM     58  C   UNL     1       3.091 -10.605   8.940  1.00  0.00     0.029 A 
ATOM     59  C   UNL     1       3.665 -10.450  10.273  1.00  0.00     0.049 A 
ATOM     60  H   UNL     1       3.312  -8.910  11.631  1.00  0.00     0.167 HD
ATOM     61  C   UNL     1       2.409  -5.689  14.431  1.00  0.00     0.037 A 
ATOM     62  C   UNL     1       4.537 -11.301  10.849  1.00  0.00     0.037 A 
ATOM     63  C   UNL     1       3.291  -6.574  15.148  1.00  0.00     0.049 A 
ATOM     64  C   UNL     1       5.029 -11.023  12.243  1.00  0.00     0.074 A 
ATOM     65  C   UNL     1       3.742  -6.467  16.452  1.00  0.00     0.029 A 
ATOM     66  N   UNL     1       3.860  -7.724  14.622  1.00  0.00    -0.354 N 
ATOM     67  N   UNL     1       4.702 -10.047  13.055  1.00  0.00    -0.248 NA
ATOM     68  C   UNL     1       6.010 -11.964  12.803  1.00  0.00     0.031 C 
ATOM     69  C   UNL     1       4.631  -7.516  16.695  1.00  0.00     0.029 A 
ATOM     70  C   UNL     1       4.683  -8.317  15.566  1.00  0.00     0.049 A 
ATOM     71  H   UNL     1       3.702  -8.068  13.713  1.00  0.00     0.167 HD
ATOM     72  C   UNL     1       5.414 -10.270  14.227  1.00  0.00     0.074 A 
ATOM     73  C   UNL     1       6.176 -11.485  14.028  1.00  0.00     0.031 C 
ATOM     74  C   UNL     1       5.435  -9.531  15.363  1.00  0.00     0.037 A 
BRANCH  61  75
ATOM     75  C   UNL     1       1.903  -4.468  15.148  1.00  0.00     0.057 A 
ATOM     76  C   UNL     1       0.562  -4.345  15.535  1.00  0.00     0.134 A 
ATOM     77  C   UNL     1       2.778  -3.438  15.520  1.00  0.00     0.134 A 
ATOM     78  F   UNL     1      -0.331  -5.290  15.206  1.00  0.00    -0.206 F 
ATOM     79  C   UNL     1       0.106  -3.235  16.250  1.00  0.00     0.040 A 
ATOM     80  C   UNL     1       2.340  -2.340  16.261  1.00  0.00     0.040 A 
ATOM     81  F   UNL     1       4.077  -3.495  15.191  1.00  0.00    -0.206 F 
ATOM     82  C   UNL     1       0.999  -2.234  16.624  1.00  0.00     0.006 A 
ENDBRANCH  61  75
BRANCH  62  83
ATOM     83  C   UNL     1       4.978 -12.517  10.114  1.00  0.00     0.057 A 
ATOM     84  C   UNL     1       4.602 -13.796  10.543  1.00  0.00     0.134 A 
ATOM     85  C   UNL     1       5.769 -12.432   8.962  1.00  0.00     0.134 A 
ATOM     86  F   UNL     1       3.862 -13.946  11.651  1.00  0.00    -0.206 F 
ATOM     87  C   UNL     1       5.003 -14.945   9.859  1.00  0.00     0.040 A 
ATOM     88  C   UNL     1       6.152 -13.571   8.251  1.00  0.00     0.040 A 
ATOM     89  F   UNL     1       6.162 -11.238   8.495  1.00  0.00    -0.206 F 
ATOM     90  C   UNL     1       5.773 -14.833   8.703  1.00  0.00     0.006 A 
ENDBRANCH  62  83
BRANCH  74  91
ATOM     91  C   UNL     1       6.293 -10.013  16.499  1.00  0.00     0.057 A 
ATOM     92  C   UNL     1       7.691  -9.961  16.442  1.00  0.00     0.134 A 
ATOM     93  C   UNL     1       5.712 -10.455  17.696  1.00  0.00     0.134 A 
ATOM     94  F   UNL     1       8.312  -9.557  15.324  1.00  0.00    -0.206 F 
ATOM     95  C   UNL     1       8.480 -10.342  17.529  1.00  0.00     0.040 A 
ATOM     96  C   UNL     1       6.490 -10.808  18.800  1.00  0.00     0.040 A 
ATOM     97  F   UNL     1       4.378 -10.518  17.824  1.00  0.00    -0.206 F 
ATOM     98  C   UNL     1       7.879 -10.755  18.716  1.00  0.00     0.006 A 
ENDBRANCH  74  91
ENDBRANCH  48  49
ENDBRANCH  40  43
ENDBRANCH  38  39
ENDBRANCH  37  38
ENDBRANCH   1  37
TORSDOF 14
