REMARK SMILES O=C(NCCCNC(=O)c1cc(S(=O)(=O)C/C(Cl)=C/Cl)ccc1Cl)c1ccc(-c2c3nc(c(-c4c(F)cccc4F)c4ccc([nH]4)c(-c4c(F)cccc4F)c4nc(c(-c5c(F)cccc5F)c5ccc2[nH]5)C=C4)C=C3)cc1
REMARK SMILES IDX 5 1 4 2 3 3 1 4 2 5 25 7 26 8 78 9 27 10 77 11 28 12 29 13
REMARK SMILES IDX 30 14 71 15 31 16 76 17 70 18 72 19 32 20 75 21 69 22 68 23
REMARK SMILES IDX 33 25 59 26 42 27 58 28 43 29 46 30 57 31 73 32 44 33 45 34
REMARK SMILES IDX 56 36 74 37 47 38 34 39 35 40 40 41 36 42 37 43 39 44 41 45
REMARK SMILES IDX 38 46 60 47 61 48 66 49 62 50 63 51 65 52 67 53 64 54 48 55
REMARK SMILES IDX 49 56 54 57 50 58 51 59 53 60 55 61 52 62 6 63 7 64 8 65
REMARK SMILES IDX 9 67 10 68 11 69 23 70 12 71 22 72 24 73 21 74 13 75 14 76
REMARK SMILES IDX 15 77 16 78 17 79 18 80 19 81 20 82
REMARK H PARENT 3 6 72 24 46 35 7 66
REMARK Flexibility Score: inf
ROOT
ATOM      1  C   UNL     1       5.039  -2.406  -0.203  1.00  0.00     0.042 C 
ENDROOT
BRANCH   1   2
ATOM      2  C   UNL     1       4.663  -1.088  -0.868  1.00  0.00     0.118 C 
BRANCH   2   3
ATOM      3  N   UNL     1       3.231  -0.816  -0.854  1.00  0.00    -0.352 N 
ATOM      4  O   UNL     1       1.269   0.082  -0.215  1.00  0.00    -0.269 OA
ATOM      5  C   UNL     1       2.496   0.128  -0.176  1.00  0.00     0.251 C 
ATOM      6  H   UNL     1       2.698  -1.411  -1.429  1.00  0.00     0.163 HD
BRANCH   5   7
ATOM      7  C   UNL     1       3.160   1.175   0.633  1.00  0.00     0.039 A 
ATOM      8  C   UNL     1       4.309   1.823   0.182  1.00  0.00     0.014 A 
ATOM      9  C   UNL     1       2.610   1.528   1.871  1.00  0.00     0.014 A 
ATOM     10  C   UNL     1       5.016   2.656   1.042  1.00  0.00     0.010 A 
ATOM     11  C   UNL     1       3.266   2.451   2.692  1.00  0.00     0.010 A 
ATOM     12  C   UNL     1       4.507   2.979   2.310  1.00  0.00    -0.014 A 
BRANCH  12  13
ATOM     13  C   UNL     1       5.295   3.872   3.202  1.00  0.00     0.031 A 
ATOM     14  C   UNL     1       5.829   3.378   4.521  1.00  0.00     0.074 A 
ATOM     15  C   UNL     1       5.585   5.121   2.788  1.00  0.00     0.049 A 
ATOM     16  N   UNL     1       6.590   4.001   5.387  1.00  0.00    -0.248 NA
ATOM     17  C   UNL     1       5.455   2.015   4.929  1.00  0.00     0.031 C 
ATOM     18  C   UNL     1       5.116   5.726   1.539  1.00  0.00     0.029 A 
ATOM     19  N   UNL     1       6.369   6.094   3.353  1.00  0.00    -0.354 N 
ATOM     20  C   UNL     1       6.759   3.122   6.450  1.00  0.00     0.074 A 
ATOM     21  C   UNL     1       6.005   1.929   6.133  1.00  0.00     0.031 C 
ATOM     22  C   UNL     1       5.676   6.936   1.399  1.00  0.00     0.029 A 
ATOM     23  C   UNL     1       6.498   7.216   2.571  1.00  0.00     0.049 A 
ATOM     24  H   UNL     1       6.799   5.998   4.234  1.00  0.00     0.167 HD
ATOM     25  C   UNL     1       7.483   3.290   7.584  1.00  0.00     0.037 A 
ATOM     26  C   UNL     1       7.200   8.346   2.770  1.00  0.00     0.037 A 
ATOM     27  C   UNL     1       8.266   4.460   7.885  1.00  0.00     0.049 A 
ATOM     28  C   UNL     1       8.010   8.497   4.024  1.00  0.00     0.074 A 
ATOM     29  C   UNL     1       9.067   4.702   8.988  1.00  0.00     0.029 A 
ATOM     30  N   UNL     1       8.353   5.582   7.075  1.00  0.00    -0.354 N 
ATOM     31  N   UNL     1       8.180   7.644   5.004  1.00  0.00    -0.248 NA
ATOM     32  C   UNL     1       8.722   9.770   4.200  1.00  0.00     0.031 C 
ATOM     33  C   UNL     1       9.613   5.985   8.862  1.00  0.00     0.029 A 
ATOM     34  C   UNL     1       9.182   6.525   7.661  1.00  0.00     0.049 A 
ATOM     35  H   UNL     1       7.893   5.693   6.212  1.00  0.00     0.167 HD
ATOM     36  C   UNL     1       9.033   8.267   5.904  1.00  0.00     0.074 A 
ATOM     37  C   UNL     1       9.358   9.563   5.345  1.00  0.00     0.031 C 
ATOM     38  C   UNL     1       9.502   7.807   7.089  1.00  0.00     0.037 A 
BRANCH  25  39
ATOM     39  C   UNL     1       7.450   2.183   8.597  1.00  0.00     0.057 A 
ATOM     40  C   UNL     1       8.134   0.977   8.401  1.00  0.00     0.134 A 
ATOM     41  C   UNL     1       6.758   2.345   9.804  1.00  0.00     0.134 A 
ATOM     42  F   UNL     1       8.805   0.753   7.261  1.00  0.00    -0.206 F 
ATOM     43  C   UNL     1       8.114  -0.037   9.361  1.00  0.00     0.040 A 
ATOM     44  C   UNL     1       6.748   1.347  10.781  1.00  0.00     0.040 A 
ATOM     45  F   UNL     1       6.088   3.479  10.058  1.00  0.00    -0.206 F 
ATOM     46  C   UNL     1       7.424   0.149  10.558  1.00  0.00     0.006 A 
ENDBRANCH  25  39
BRANCH  26  47
ATOM     47  C   UNL     1       7.183   9.415   1.742  1.00  0.00     0.057 A 
ATOM     48  C   UNL     1       8.312   9.681   0.960  1.00  0.00     0.134 A 
ATOM     49  C   UNL     1       6.038  10.185   1.510  1.00  0.00     0.134 A 
ATOM     50  F   UNL     1       9.444   8.986   1.149  1.00  0.00    -0.206 F 
ATOM     51  C   UNL     1       8.307  10.683  -0.011  1.00  0.00     0.040 A 
ATOM     52  C   UNL     1       6.011  11.174   0.526  1.00  0.00     0.040 A 
ATOM     53  F   UNL     1       4.923   9.972   2.223  1.00  0.00    -0.206 F 
ATOM     54  C   UNL     1       7.151  11.428  -0.234  1.00  0.00     0.006 A 
ENDBRANCH  26  47
BRANCH  38  55
ATOM     55  C   UNL     1      10.442   8.700   7.839  1.00  0.00     0.057 A 
ATOM     56  C   UNL     1       9.994   9.842   8.514  1.00  0.00     0.134 A 
ATOM     57  C   UNL     1      11.810   8.405   7.900  1.00  0.00     0.134 A 
ATOM     58  F   UNL     1       8.697  10.186   8.481  1.00  0.00    -0.206 F 
ATOM     59  C   UNL     1      10.877  10.674   9.203  1.00  0.00     0.040 A 
ATOM     60  C   UNL     1      12.699   9.217   8.604  1.00  0.00     0.040 A 
ATOM     61  F   UNL     1      12.301   7.322   7.279  1.00  0.00    -0.206 F 
ATOM     62  C   UNL     1      12.234  10.359   9.252  1.00  0.00     0.006 A 
ENDBRANCH  38  55
ENDBRANCH  12  13
ENDBRANCH   5   7
ENDBRANCH   2   3
ENDBRANCH   1   2
BRANCH   1  63
ATOM     63  C   UNL     1       4.511  -3.647  -0.908  1.00  0.00     0.118 C 
BRANCH  63  64
ATOM     64  N   UNL     1       4.978  -3.750  -2.281  1.00  0.00    -0.352 N 
ATOM     65  C   UNL     1       5.667  -4.752  -2.908  1.00  0.00     0.252 C 
ATOM     66  H   UNL     1       4.766  -2.975  -2.849  1.00  0.00     0.163 HD
ATOM     67  O   UNL     1       6.045  -4.600  -4.066  1.00  0.00    -0.269 OA
BRANCH  65  68
ATOM     68  C   UNL     1       6.014  -6.000  -2.205  1.00  0.00     0.059 A 
ATOM     69  C   UNL     1       7.373  -6.350  -2.176  1.00  0.00     0.035 A 
ATOM     70  C   UNL     1       5.059  -6.886  -1.697  1.00  0.00     0.053 A 
ATOM     71  C   UNL     1       7.775  -7.571  -1.617  1.00  0.00     0.068 A 
ATOM     72  C   UNL     1       5.475  -8.081  -1.098  1.00  0.00     0.022 A 
ATOM     73  Cl  UNL     1       3.357  -6.630  -1.844  1.00  0.00    -0.083 Cl
ATOM     74  C   UNL     1       6.829  -8.432  -1.066  1.00  0.00     0.022 A 
BRANCH  71  75
ATOM     75  S   UNL     1       9.501  -7.983  -1.744  1.00  0.00     0.183 S 
ATOM     76  O   UNL     1       9.682  -8.403  -3.124  1.00  0.00    -0.223 OA
ATOM     77  O   UNL     1      10.230  -6.841  -1.232  1.00  0.00    -0.223 OA
BRANCH  75  78
ATOM     78  C   UNL     1       9.873  -9.396  -0.733  1.00  0.00     0.191 C 
BRANCH  78  79
ATOM     79  C   UNL     1       9.729  -9.129   0.739  1.00  0.00     0.045 C 
ATOM     80  Cl  UNL     1       8.650 -10.223   1.559  1.00  0.00    -0.087 Cl
ATOM     81  C   UNL     1      10.450  -8.231   1.425  1.00  0.00     0.097 C 
ATOM     82  Cl  UNL     1      10.358  -7.953   3.115  1.00  0.00    -0.092 Cl
ENDBRANCH  78  79
ENDBRANCH  75  78
ENDBRANCH  71  75
ENDBRANCH  65  68
ENDBRANCH  63  64
ENDBRANCH   1  63
TORSDOF 13
