REMARK SMILES C[C@@H](C(=O)NCCCNC(=O)c1ccc(-c2c3nc(c(-c4c(F)cccc4F)c4ccc([nH]4)c(-c4c(F)cccc4F)c4nc(c(-c5c(F)cccc5F)c5ccc2[nH]5)C=C4)C=C3)cc1)N(C)C(=O)NC[C@H]1C[N@@H+]2CCC[C@@H]2CO1
REMARK SMILES IDX 6 1 5 2 3 3 4 4 2 6 1 7 66 8 67 9 68 10 69 11 70 12 71 14
REMARK SMILES IDX 72 15 73 16 80 17 74 18 79 19 75 20 78 21 76 23 77 24 7 25
REMARK SMILES IDX 8 26 9 27 10 28 11 30 12 31 13 32 65 33 14 34 64 35 15 36
REMARK SMILES IDX 16 37 17 38 58 39 18 40 63 41 57 42 59 43 19 44 62 45 56 46
REMARK SMILES IDX 55 47 20 49 46 50 29 51 45 52 30 53 33 54 44 55 60 56 31 57
REMARK SMILES IDX 32 58 43 60 61 61 34 62 21 63 22 64 27 65 23 66 24 67 26 68
REMARK SMILES IDX 28 69 25 70 47 71 48 72 53 73 49 74 50 75 52 76 54 77 51 78
REMARK SMILES IDX 35 79 36 80 41 81 37 82 38 83 40 84 42 85 39 86
REMARK H PARENT 5 5 70 13 74 22 9 29 59 48 33 59
REMARK Flexibility Score: inf
ROOT
ATOM      1  C   UNL     1       3.370  -1.880   0.880  1.00  0.00     0.117 C 
ENDROOT
BRANCH   1   2
ATOM      2  N   UNL     1       2.296  -2.023   1.840  1.00  0.00    -0.354 N 
ATOM      3  C   UNL     1       0.954  -1.803   1.704  1.00  0.00     0.242 C 
ATOM      4  O   UNL     1       0.254  -2.117   2.670  1.00  0.00    -0.273 OA
ATOM      5  H   UNL     1       2.577  -2.326   2.733  1.00  0.00     0.163 HD
BRANCH   3   6
ATOM      6  C   UNL     1       0.383  -1.252   0.369  1.00  0.00     0.172 C 
ATOM      7  C   UNL     1       0.848   0.167   0.030  1.00  0.00     0.042 C 
BRANCH   6   8
ATOM      8  N   UNL     1      -1.090  -1.410   0.329  1.00  0.00    -0.316 N 
ATOM      9  C   UNL     1      -1.573  -2.599  -0.347  1.00  0.00     0.149 C 
BRANCH   8  10
ATOM     10  C   UNL     1      -1.855  -0.533   1.047  1.00  0.00     0.317 C 
ATOM     11  O   UNL     1      -1.363   0.360   1.743  1.00  0.00    -0.249 OA
ATOM     12  N   UNL     1      -3.198  -0.535   1.022  1.00  0.00    -0.335 N 
ATOM     13  H   UNL     1      -3.564   0.164   1.611  1.00  0.00     0.165 HD
BRANCH  12  14
ATOM     14  C   UNL     1      -4.267  -1.285   0.365  1.00  0.00     0.155 C 
BRANCH  14  15
ATOM     15  C   UNL     1      -4.978  -2.229   1.358  1.00  0.00     0.192 C 
ATOM     16  C   UNL     1      -6.495  -1.909   1.469  1.00  0.00     0.296 C 
ATOM     17  O   UNL     1      -4.693  -3.599   0.989  1.00  0.00    -0.364 OA
ATOM     18  N   UNL     1      -7.287  -2.523   0.396  1.00  0.00    -0.328 N 
ATOM     19  C   UNL     1      -5.822  -4.459   1.157  1.00  0.00     0.225 C 
ATOM     20  C   UNL     1      -8.732  -2.372   0.608  1.00  0.00     0.262 C 
ATOM     21  C   UNL     1      -6.984  -3.972   0.276  1.00  0.00     0.210 C 
ATOM     22  H   UNL     1      -7.027  -2.034  -0.460  1.00  0.00     0.348 HD
ATOM     23  C   UNL     1      -9.336  -3.682   0.132  1.00  0.00     0.068 C 
ATOM     24  C   UNL     1      -8.294  -4.698   0.553  1.00  0.00     0.073 C 
ENDBRANCH  14  15
ENDBRANCH  12  14
ENDBRANCH   8  10
ENDBRANCH   6   8
ENDBRANCH   3   6
ENDBRANCH   1   2
BRANCH   1  25
ATOM     25  C   UNL     1       4.236  -0.658   1.164  1.00  0.00     0.042 C 
BRANCH  25  26
ATOM     26  C   UNL     1       4.969  -0.710   2.500  1.00  0.00     0.118 C 
BRANCH  26  27
ATOM     27  N   UNL     1       5.943  -1.790   2.567  1.00  0.00    -0.352 N 
ATOM     28  C   UNL     1       7.295  -1.747   2.791  1.00  0.00     0.251 C 
ATOM     29  H   UNL     1       5.573  -2.692   2.430  1.00  0.00     0.163 HD
ATOM     30  O   UNL     1       7.969  -2.764   2.626  1.00  0.00    -0.269 OA
BRANCH  28  31
ATOM     31  C   UNL     1       7.956  -0.494   3.215  1.00  0.00     0.039 A 
ATOM     32  C   UNL     1       9.207  -0.176   2.676  1.00  0.00     0.014 A 
ATOM     33  C   UNL     1       7.375   0.345   4.170  1.00  0.00     0.014 A 
ATOM     34  C   UNL     1       9.850   1.004   3.057  1.00  0.00     0.010 A 
ATOM     35  C   UNL     1       7.979   1.559   4.488  1.00  0.00     0.010 A 
ATOM     36  C   UNL     1       9.230   1.893   3.948  1.00  0.00    -0.014 A 
BRANCH  36  37
ATOM     37  C   UNL     1       9.887   3.160   4.356  1.00  0.00     0.031 A 
ATOM     38  C   UNL     1      10.282   3.374   5.792  1.00  0.00     0.074 A 
ATOM     39  C   UNL     1      10.075   4.141   3.452  1.00  0.00     0.049 A 
ATOM     40  N   UNL     1      10.803   4.432   6.360  1.00  0.00    -0.248 NA
ATOM     41  C   UNL     1      10.031   2.259   6.719  1.00  0.00     0.031 C 
ATOM     42  C   UNL     1       9.698   4.074   2.039  1.00  0.00     0.029 A 
ATOM     43  N   UNL     1      10.624   5.391   3.592  1.00  0.00    -0.354 N 
ATOM     44  C   UNL     1      10.916   4.120   7.709  1.00  0.00     0.074 A 
ATOM     45  C   UNL     1      10.366   2.793   7.883  1.00  0.00     0.031 C 
ATOM     46  C   UNL     1      10.050   5.222   1.437  1.00  0.00     0.029 A 
ATOM     47  C   UNL     1      10.644   6.117   2.426  1.00  0.00     0.049 A 
ATOM     48  H   UNL     1      10.970   5.734   4.447  1.00  0.00     0.167 HD
ATOM     49  C   UNL     1      11.449   4.861   8.709  1.00  0.00     0.037 A 
ATOM     50  C   UNL     1      11.089   7.364   2.184  1.00  0.00     0.037 A 
ATOM     51  C   UNL     1      12.028   6.166   8.527  1.00  0.00     0.049 A 
ATOM     52  C   UNL     1      11.687   8.163   3.308  1.00  0.00     0.074 A 
ATOM     53  C   UNL     1      12.654   6.971   9.463  1.00  0.00     0.029 A 
ATOM     54  N   UNL     1      12.052   6.857   7.325  1.00  0.00    -0.354 N 
ATOM     55  N   UNL     1      11.849   7.830   4.565  1.00  0.00    -0.248 NA
ATOM     56  C   UNL     1      12.173   9.509   2.976  1.00  0.00     0.031 C 
ATOM     57  C   UNL     1      13.022   8.166   8.835  1.00  0.00     0.029 A 
ATOM     58  C   UNL     1      12.668   8.085   7.498  1.00  0.00     0.049 A 
ATOM     59  H   UNL     1      11.686   6.523   6.474  1.00  0.00     0.167 HD
ATOM     60  C   UNL     1      12.487   8.907   5.165  1.00  0.00     0.074 A 
ATOM     61  C   UNL     1      12.688   9.902   4.132  1.00  0.00     0.031 C 
ATOM     62  C   UNL     1      12.876   9.057   6.455  1.00  0.00     0.037 A 
BRANCH  49  63
ATOM     63  C   UNL     1      11.428   4.274  10.091  1.00  0.00     0.057 A 
ATOM     64  C   UNL     1      12.230   3.180  10.444  1.00  0.00     0.134 A 
ATOM     65  C   UNL     1      10.607   4.818  11.086  1.00  0.00     0.134 A 
ATOM     66  F   UNL     1      13.031   2.603   9.535  1.00  0.00    -0.206 F 
ATOM     67  C   UNL     1      12.193   2.630  11.726  1.00  0.00     0.040 A 
ATOM     68  C   UNL     1      10.582   4.295  12.380  1.00  0.00     0.040 A 
ATOM     69  F   UNL     1       9.818   5.870  10.819  1.00  0.00    -0.206 F 
ATOM     70  C   UNL     1      11.370   3.191  12.700  1.00  0.00     0.006 A 
ENDBRANCH  49  63
BRANCH  50  71
ATOM     71  C   UNL     1      11.025   7.921   0.809  1.00  0.00     0.057 A 
ATOM     72  C   UNL     1      12.190   8.104   0.054  1.00  0.00     0.134 A 
ATOM     73  C   UNL     1       9.809   8.286   0.220  1.00  0.00     0.134 A 
ATOM     74  F   UNL     1      13.386   7.789   0.573  1.00  0.00    -0.206 F 
ATOM     75  C   UNL     1      12.150   8.648  -1.230  1.00  0.00     0.040 A 
ATOM     76  C   UNL     1       9.753   8.809  -1.073  1.00  0.00     0.040 A 
ATOM     77  F   UNL     1       8.658   8.128   0.889  1.00  0.00    -0.206 F 
ATOM     78  C   UNL     1      10.928   8.998  -1.799  1.00  0.00     0.006 A 
ENDBRANCH  50  71
BRANCH  62  79
ATOM     79  C   UNL     1      13.604  10.320   6.810  1.00  0.00     0.057 A 
ATOM     80  C   UNL     1      12.952  11.556   6.895  1.00  0.00     0.134 A 
ATOM     81  C   UNL     1      14.973  10.288   7.106  1.00  0.00     0.134 A 
ATOM     82  F   UNL     1      11.644  11.656   6.612  1.00  0.00    -0.206 F 
ATOM     83  C   UNL     1      13.641  12.721   7.237  1.00  0.00     0.040 A 
ATOM     84  C   UNL     1      15.667  11.441   7.475  1.00  0.00     0.040 A 
ATOM     85  F   UNL     1      15.656   9.135   7.052  1.00  0.00    -0.206 F 
ATOM     86  C   UNL     1      15.001  12.664   7.535  1.00  0.00     0.006 A 
ENDBRANCH  62  79
ENDBRANCH  36  37
ENDBRANCH  28  31
ENDBRANCH  26  27
ENDBRANCH  25  26
ENDBRANCH   1  25
TORSDOF 14
