REMARK SMILES O=C(Cc1ccc(-c2ccn(C(F)F)c(=O)c2)cc1)NCCCNC(=O)c1ccc(-c2c3nc(c(-c4c(F)cccc4F)c4ccc([nH]4)c(-c4c(F)cccc4F)c4nc(c(-c5c(F)cccc5F)c5ccc2[nH]5)C=C4)C=C3)cc1
REMARK SMILES IDX 21 1 20 2 1 3 2 4 3 6 4 7 5 8 19 9 6 10 18 11 7 12 8 13 9 14
REMARK SMILES IDX 17 15 10 16 15 17 11 18 16 19 12 20 13 21 14 22 22 23 23 24
REMARK SMILES IDX 24 25 25 26 26 28 27 29 28 30 80 31 29 32 79 33 30 34 31 35
REMARK SMILES IDX 32 36 73 37 33 38 78 39 72 40 74 41 34 42 77 43 71 44 70 45
REMARK SMILES IDX 35 47 61 48 44 49 60 50 45 51 48 52 59 53 75 54 46 55 47 56
REMARK SMILES IDX 58 58 76 59 49 60 36 61 37 62 42 63 38 64 39 65 41 66 43 67
REMARK SMILES IDX 40 68 62 69 63 70 68 71 64 72 65 73 67 74 69 75 66 76 50 77
REMARK SMILES IDX 51 78 56 79 52 80 53 81 55 82 57 83 54 84
REMARK H PARENT 20 5 24 27 74 46 48 57
REMARK Flexibility Score: inf
ROOT
ATOM      1  C   UNL     1       1.965   1.407  -1.890  1.00  0.00     0.117 C 
ENDROOT
BRANCH   1   2
ATOM      2  N   UNL     1       2.692   0.631  -0.907  1.00  0.00    -0.356 N 
ATOM      3  O   UNL     1       0.868  -0.020   0.327  1.00  0.00    -0.275 OA
ATOM      4  C   UNL     1       2.079  -0.051   0.125  1.00  0.00     0.224 C 
ATOM      5  H   UNL     1       3.673   0.587  -0.978  1.00  0.00     0.163 HD
BRANCH   4   6
ATOM      6  C   UNL     1       3.034  -0.788   1.056  1.00  0.00     0.135 C 
BRANCH   6   7
ATOM      7  C   UNL     1       3.863  -1.846   0.364  1.00  0.00    -0.039 A 
ATOM      8  C   UNL     1       3.372  -3.149   0.215  1.00  0.00     0.005 A 
ATOM      9  C   UNL     1       5.113  -1.526  -0.182  1.00  0.00     0.005 A 
ATOM     10  C   UNL     1       4.104  -4.108  -0.494  1.00  0.00     0.009 A 
ATOM     11  C   UNL     1       5.831  -2.476  -0.911  1.00  0.00     0.009 A 
ATOM     12  C   UNL     1       5.328  -3.772  -1.086  1.00  0.00    -0.018 A 
BRANCH  12  13
ATOM     13  C   UNL     1       6.076  -4.727  -1.928  1.00  0.00    -0.011 A 
ATOM     14  C   UNL     1       7.463  -5.076  -1.686  1.00  0.00     0.027 A 
ATOM     15  C   UNL     1       5.463  -5.223  -3.018  1.00  0.00     0.080 A 
ATOM     16  C   UNL     1       8.138  -5.832  -2.560  1.00  0.00     0.095 A 
ATOM     17  C   UNL     1       6.192  -6.089  -3.983  1.00  0.00     0.255 A 
ATOM     18  N   UNL     1       7.527  -6.322  -3.699  1.00  0.00    -0.258 N 
ATOM     19  O   UNL     1       5.583  -6.517  -4.961  1.00  0.00    -0.269 OA
BRANCH  18  20
ATOM     20  C   UNL     1       8.274  -7.090  -4.661  1.00  0.00     0.451 C 
ATOM     21  F   UNL     1       7.738  -8.322  -4.832  1.00  0.00    -0.185 F 
ATOM     22  F   UNL     1       8.294  -6.468  -5.865  1.00  0.00    -0.185 F 
ENDBRANCH  18  20
ENDBRANCH  12  13
ENDBRANCH   6   7
ENDBRANCH   4   6
ENDBRANCH   1   2
BRANCH   1  23
ATOM     23  C   UNL     1       2.198   2.909  -1.741  1.00  0.00     0.042 C 
BRANCH  23  24
ATOM     24  C   UNL     1       3.655   3.355  -1.855  1.00  0.00     0.118 C 
BRANCH  24  25
ATOM     25  N   UNL     1       4.253   3.065  -3.149  1.00  0.00    -0.352 N 
ATOM     26  C   UNL     1       4.996   3.859  -3.987  1.00  0.00     0.251 C 
ATOM     27  H   UNL     1       4.101   2.150  -3.477  1.00  0.00     0.163 HD
ATOM     28  O   UNL     1       5.316   3.424  -5.092  1.00  0.00    -0.269 OA
BRANCH  26  29
ATOM     29  C   UNL     1       5.403   5.232  -3.604  1.00  0.00     0.039 A 
ATOM     30  C   UNL     1       5.373   6.229  -4.586  1.00  0.00     0.014 A 
ATOM     31  C   UNL     1       5.868   5.541  -2.323  1.00  0.00     0.014 A 
ATOM     32  C   UNL     1       5.762   7.536  -4.276  1.00  0.00     0.010 A 
ATOM     33  C   UNL     1       6.198   6.858  -1.996  1.00  0.00     0.010 A 
ATOM     34  C   UNL     1       6.157   7.868  -2.971  1.00  0.00    -0.014 A 
BRANCH  34  35
ATOM     35  C   UNL     1       6.548   9.258  -2.620  1.00  0.00     0.031 A 
ATOM     36  C   UNL     1       7.966   9.573  -2.227  1.00  0.00     0.074 A 
ATOM     37  C   UNL     1       5.621  10.236  -2.610  1.00  0.00     0.049 A 
ATOM     38  N   UNL     1       8.484  10.710  -1.834  1.00  0.00    -0.248 NA
ATOM     39  C   UNL     1       8.923   8.456  -2.257  1.00  0.00     0.031 C 
ATOM     40  C   UNL     1       4.204  10.062  -2.934  1.00  0.00     0.029 A 
ATOM     41  N   UNL     1       5.732  11.570  -2.309  1.00  0.00    -0.354 N 
ATOM     42  C   UNL     1       9.818  10.442  -1.552  1.00  0.00     0.074 A 
ATOM     43  C   UNL     1      10.020   9.027  -1.780  1.00  0.00     0.031 C 
ATOM     44  C   UNL     1       3.582  11.248  -2.831  1.00  0.00     0.029 A 
ATOM     45  C   UNL     1       4.547  12.258  -2.408  1.00  0.00     0.049 A 
ATOM     46  H   UNL     1       6.581  11.994  -2.046  1.00  0.00     0.167 HD
ATOM     47  C   UNL     1      10.791  11.298  -1.160  1.00  0.00     0.037 A 
ATOM     48  C   UNL     1       4.269  13.557  -2.184  1.00  0.00     0.037 A 
ATOM     49  C   UNL     1      10.604  12.712  -0.967  1.00  0.00     0.049 A 
ATOM     50  C   UNL     1       5.371  14.490  -1.767  1.00  0.00     0.074 A 
ATOM     51  C   UNL     1      11.545  13.668  -0.622  1.00  0.00     0.029 A 
ATOM     52  N   UNL     1       9.396  13.375  -1.109  1.00  0.00    -0.354 N 
ATOM     53  N   UNL     1       6.638  14.232  -1.555  1.00  0.00    -0.248 NA
ATOM     54  C   UNL     1       5.004  15.900  -1.566  1.00  0.00     0.031 C 
ATOM     55  C   UNL     1      10.899  14.906  -0.527  1.00  0.00     0.029 A 
ATOM     56  C   UNL     1       9.564  14.725  -0.849  1.00  0.00     0.049 A 
ATOM     57  H   UNL     1       8.543  12.950  -1.358  1.00  0.00     0.167 HD
ATOM     58  C   UNL     1       7.224  15.447  -1.227  1.00  0.00     0.074 A 
ATOM     59  C   UNL     1       6.177  16.445  -1.275  1.00  0.00     0.031 C 
ATOM     60  C   UNL     1       8.516  15.711  -0.915  1.00  0.00     0.037 A 
BRANCH  47  61
ATOM     61  C   UNL     1      12.156  10.725  -0.917  1.00  0.00     0.057 A 
ATOM     62  C   UNL     1      12.976  10.304  -1.972  1.00  0.00     0.134 A 
ATOM     63  C   UNL     1      12.668  10.620   0.382  1.00  0.00     0.134 A 
ATOM     64  F   UNL     1      12.539  10.367  -3.239  1.00  0.00    -0.206 F 
ATOM     65  C   UNL     1      14.247   9.775  -1.742  1.00  0.00     0.040 A 
ATOM     66  C   UNL     1      13.947  10.115   0.623  1.00  0.00     0.040 A 
ATOM     67  F   UNL     1      11.937  11.010   1.436  1.00  0.00    -0.206 F 
ATOM     68  C   UNL     1      14.738   9.685  -0.442  1.00  0.00     0.006 A 
ENDBRANCH  47  61
BRANCH  48  69
ATOM     69  C   UNL     1       2.889  14.063  -2.380  1.00  0.00     0.057 A 
ATOM     70  C   UNL     1       2.571  14.880  -3.471  1.00  0.00     0.134 A 
ATOM     71  C   UNL     1       1.861  13.752  -1.482  1.00  0.00     0.134 A 
ATOM     72  F   UNL     1       3.520  15.226  -4.353  1.00  0.00    -0.206 F 
ATOM     73  C   UNL     1       1.283  15.385  -3.655  1.00  0.00     0.040 A 
ATOM     74  C   UNL     1       0.564  14.233  -1.665  1.00  0.00     0.040 A 
ATOM     75  F   UNL     1       2.103  12.970  -0.420  1.00  0.00    -0.206 F 
ATOM     76  C   UNL     1       0.274  15.058  -2.751  1.00  0.00     0.006 A 
ENDBRANCH  48  69
BRANCH  60  77
ATOM     77  C   UNL     1       8.878  17.140  -0.642  1.00  0.00     0.057 A 
ATOM     78  C   UNL     1       8.520  17.778   0.552  1.00  0.00     0.134 A 
ATOM     79  C   UNL     1       9.623  17.875  -1.573  1.00  0.00     0.134 A 
ATOM     80  F   UNL     1       7.795  17.132   1.477  1.00  0.00    -0.206 F 
ATOM     81  C   UNL     1       8.874  19.105   0.802  1.00  0.00     0.040 A 
ATOM     82  C   UNL     1      10.001  19.195  -1.325  1.00  0.00     0.040 A 
ATOM     83  F   UNL     1      10.002  17.320  -2.733  1.00  0.00    -0.206 F 
ATOM     84  C   UNL     1       9.622  19.815  -0.136  1.00  0.00     0.006 A 
ENDBRANCH  60  77
ENDBRANCH  34  35
ENDBRANCH  26  29
ENDBRANCH  24  25
ENDBRANCH  23  24
ENDBRANCH   1  23
TORSDOF 13
