REMARK SMILES Cc1cccc(OC2(C(=O)NCCCNC(=O)c3ccc(-c4c5nc(c(-c6c(F)cccc6F)c6ccc([nH]6)c(-c6c(F)cccc6F)c6nc(c(-c7c(F)cccc7F)c7ccc4[nH]7)C=C6)C=C5)cc3)CCN(C(=O)c3cnc[nH]c3=O)CC2)c1
REMARK SMILES IDX 13 1 12 2 11 3 9 4 10 5 8 7 72 8 85 9 73 10 84 11 74 12
REMARK SMILES IDX 75 13 76 14 7 15 6 16 1 17 2 18 3 19 86 20 4 21 5 22 77 23
REMARK SMILES IDX 78 24 82 25 79 26 81 27 83 28 80 29 14 31 15 32 16 33 17 35
REMARK SMILES IDX 18 36 19 37 71 38 20 39 70 40 21 41 22 42 23 43 64 44 24 45
REMARK SMILES IDX 69 46 63 47 65 48 25 49 68 50 62 51 61 52 26 54 52 55 35 56
REMARK SMILES IDX 51 57 36 58 39 59 50 60 66 61 37 62 38 63 49 65 67 66 40 67
REMARK SMILES IDX 27 68 28 69 33 70 29 71 30 72 32 73 34 74 31 75 53 76 54 77
REMARK SMILES IDX 59 78 55 79 56 80 58 81 60 82 57 83 41 84 42 85 47 86 43 87
REMARK SMILES IDX 44 88 46 89 48 90 45 91
REMARK H PARENT 11 6 81 30 15 34 65 53 39 64
REMARK Flexibility Score: inf
ROOT
ATOM      1  C   UNL     1       1.057   6.548  -1.643  1.00  0.00     0.042 C 
ENDROOT
BRANCH   1   2
ATOM      2  C   UNL     1      -0.432   6.624  -1.293  1.00  0.00     0.118 C 
BRANCH   2   3
ATOM      3  N   UNL     1      -1.194   5.451  -1.727  1.00  0.00    -0.353 N 
ATOM      4  C   UNL     1      -1.442   4.212  -1.199  1.00  0.00     0.264 C 
ATOM      5  O   UNL     1      -2.265   3.546  -1.843  1.00  0.00    -0.270 OA
ATOM      6  H   UNL     1      -1.627   5.583  -2.601  1.00  0.00     0.163 HD
BRANCH   4   7
ATOM      7  C   UNL     1      -0.803   3.646   0.120  1.00  0.00     0.190 C 
ATOM      8  C   UNL     1       0.699   3.924   0.168  1.00  0.00     0.080 C 
ATOM      9  C   UNL     1      -1.499   4.317   1.339  1.00  0.00     0.080 C 
ATOM     10  C   UNL     1       1.352   3.646   1.506  1.00  0.00     0.124 C 
ATOM     11  C   UNL     1      -0.774   3.986   2.655  1.00  0.00     0.124 C 
ATOM     12  N   UNL     1       0.627   4.372   2.526  1.00  0.00    -0.338 N 
ATOM     13  C   UNL     1       1.109   5.597   2.950  1.00  0.00     0.261 C 
ATOM     14  O   UNL     1       1.818   6.321   2.255  1.00  0.00    -0.269 OA
BRANCH   7  15
ATOM     15  O   UNL     1      -1.235   2.272   0.225  1.00  0.00    -0.477 OA
BRANCH  15  16
ATOM     16  C   UNL     1      -0.607   1.089   0.039  1.00  0.00     0.121 A 
ATOM     17  C   UNL     1       2.729  -0.738  -0.136  1.00  0.00     0.044 C 
ATOM     18  C   UNL     1       1.248  -0.489  -0.102  1.00  0.00    -0.047 A 
ATOM     19  C   UNL     1       0.359  -1.562  -0.029  1.00  0.00     0.003 A 
ATOM     20  C   UNL     1       0.748   0.826  -0.113  1.00  0.00     0.049 A 
ATOM     21  C   UNL     1      -1.007  -1.321   0.053  1.00  0.00     0.004 A 
ATOM     22  C   UNL     1      -1.479  -0.006   0.099  1.00  0.00     0.046 A 
ENDBRANCH  15  16
ENDBRANCH   7  15
BRANCH  13  23
ATOM     23  C   UNL     1       0.753   5.979   4.326  1.00  0.00     0.123 A 
ATOM     24  C   UNL     1       0.182   7.165   4.574  1.00  0.00     0.132 A 
ATOM     25  C   UNL     1       1.069   5.121   5.482  1.00  0.00     0.263 A 
ATOM     26  N   UNL     1      -0.180   7.620   5.820  1.00  0.00    -0.246 NA
ATOM     27  N   UNL     1       0.700   5.631   6.695  1.00  0.00    -0.312 N 
ATOM     28  O   UNL     1       1.633   4.037   5.390  1.00  0.00    -0.269 OA
ATOM     29  C   UNL     1       0.096   6.847   6.816  1.00  0.00     0.199 A 
ATOM     30  H   UNL     1       0.877   5.104   7.508  1.00  0.00     0.171 HD
ENDBRANCH  13  23
ENDBRANCH   4   7
ENDBRANCH   2   3
ENDBRANCH   1   2
BRANCH   1  31
ATOM     31  C   UNL     1       1.521   7.487  -2.744  1.00  0.00     0.118 C 
BRANCH  31  32
ATOM     32  N   UNL     1       2.195   8.681  -2.229  1.00  0.00    -0.352 N 
ATOM     33  C   UNL     1       3.220   9.404  -2.823  1.00  0.00     0.251 C 
ATOM     34  H   UNL     1       1.882   9.012  -1.356  1.00  0.00     0.163 HD
ATOM     35  O   UNL     1       3.590  10.480  -2.389  1.00  0.00    -0.269 OA
BRANCH  33  36
ATOM     36  C   UNL     1       3.791   8.849  -4.067  1.00  0.00     0.039 A 
ATOM     37  C   UNL     1       3.350   9.404  -5.268  1.00  0.00     0.014 A 
ATOM     38  C   UNL     1       4.387   7.587  -4.016  1.00  0.00     0.014 A 
ATOM     39  C   UNL     1       3.255   8.581  -6.384  1.00  0.00     0.010 A 
ATOM     40  C   UNL     1       4.245   6.757  -5.117  1.00  0.00     0.010 A 
ATOM     41  C   UNL     1       3.584   7.227  -6.261  1.00  0.00    -0.014 A 
BRANCH  41  42
ATOM     42  C   UNL     1       3.062   6.230  -7.195  1.00  0.00     0.031 A 
ATOM     43  C   UNL     1       3.927   5.608  -8.215  1.00  0.00     0.074 A 
ATOM     44  C   UNL     1       1.752   5.886  -7.166  1.00  0.00     0.049 A 
ATOM     45  N   UNL     1       3.501   5.227  -9.374  1.00  0.00    -0.248 NA
ATOM     46  C   UNL     1       5.354   5.391  -8.016  1.00  0.00     0.031 C 
ATOM     47  C   UNL     1       1.104   4.819  -7.926  1.00  0.00     0.029 A 
ATOM     48  N   UNL     1       0.684   6.604  -6.600  1.00  0.00    -0.354 N 
ATOM     49  C   UNL     1       4.508   4.514  -9.971  1.00  0.00     0.074 A 
ATOM     50  C   UNL     1       5.660   4.686  -9.111  1.00  0.00     0.031 C 
ATOM     51  C   UNL     1      -0.196   5.120  -8.066  1.00  0.00     0.029 A 
ATOM     52  C   UNL     1      -0.407   6.432  -7.485  1.00  0.00     0.049 A 
ATOM     53  H   UNL     1       0.694   7.120  -5.762  1.00  0.00     0.167 HD
ATOM     54  C   UNL     1       4.255   3.757 -11.074  1.00  0.00     0.037 A 
ATOM     55  C   UNL     1      -0.998   7.492  -8.104  1.00  0.00     0.037 A 
ATOM     56  C   UNL     1       2.864   3.822 -11.501  1.00  0.00     0.049 A 
ATOM     57  C   UNL     1      -0.935   7.463  -9.617  1.00  0.00     0.074 A 
ATOM     58  C   UNL     1       1.756   3.010 -11.322  1.00  0.00     0.029 A 
ATOM     59  N   UNL     1       2.382   5.014 -12.006  1.00  0.00    -0.354 N 
ATOM     60  N   UNL     1      -0.368   6.521 -10.317  1.00  0.00    -0.248 NA
ATOM     61  C   UNL     1      -1.414   8.566 -10.454  1.00  0.00     0.031 C 
ATOM     62  C   UNL     1       0.600   3.736 -11.723  1.00  0.00     0.029 A 
ATOM     63  C   UNL     1       1.008   4.986 -12.148  1.00  0.00     0.049 A 
ATOM     64  H   UNL     1       2.946   5.787 -12.237  1.00  0.00     0.167 HD
ATOM     65  C   UNL     1      -0.320   6.906 -11.632  1.00  0.00     0.074 A 
ATOM     66  C   UNL     1      -1.002   8.184 -11.674  1.00  0.00     0.031 C 
ATOM     67  C   UNL     1       0.326   6.186 -12.592  1.00  0.00     0.037 A 
BRANCH  54  68
ATOM     68  C   UNL     1       5.264   2.789 -11.619  1.00  0.00     0.057 A 
ATOM     69  C   UNL     1       4.887   1.510 -12.063  1.00  0.00     0.134 A 
ATOM     70  C   UNL     1       6.639   3.067 -11.692  1.00  0.00     0.134 A 
ATOM     71  F   UNL     1       3.603   1.134 -12.115  1.00  0.00    -0.206 F 
ATOM     72  C   UNL     1       5.821   0.543 -12.454  1.00  0.00     0.040 A 
ATOM     73  C   UNL     1       7.588   2.094 -12.031  1.00  0.00     0.040 A 
ATOM     74  F   UNL     1       7.110   4.299 -11.445  1.00  0.00    -0.206 F 
ATOM     75  C   UNL     1       7.179   0.820 -12.402  1.00  0.00     0.006 A 
ENDBRANCH  54  68
BRANCH  55  76
ATOM     76  C   UNL     1      -1.008   8.724  -7.278  1.00  0.00     0.057 A 
ATOM     77  C   UNL     1      -1.751   8.736  -6.085  1.00  0.00     0.134 A 
ATOM     78  C   UNL     1      -0.074   9.745  -7.459  1.00  0.00     0.134 A 
ATOM     79  F   UNL     1      -2.663   7.780  -5.846  1.00  0.00    -0.206 F 
ATOM     80  C   UNL     1      -1.506   9.666  -5.072  1.00  0.00     0.040 A 
ATOM     81  C   UNL     1       0.173  10.688  -6.457  1.00  0.00     0.040 A 
ATOM     82  F   UNL     1       0.685   9.789  -8.563  1.00  0.00    -0.206 F 
ATOM     83  C   UNL     1      -0.517  10.628  -5.247  1.00  0.00     0.006 A 
ENDBRANCH  55  76
BRANCH  67  84
ATOM     84  C   UNL     1       0.368   6.585 -14.037  1.00  0.00     0.057 A 
ATOM     85  C   UNL     1      -0.782   6.965 -14.742  1.00  0.00     0.134 A 
ATOM     86  C   UNL     1       1.547   6.475 -14.798  1.00  0.00     0.134 A 
ATOM     87  F   UNL     1      -1.971   7.052 -14.126  1.00  0.00    -0.206 F 
ATOM     88  C   UNL     1      -0.754   7.251 -16.112  1.00  0.00     0.040 A 
ATOM     89  C   UNL     1       1.578   6.713 -16.174  1.00  0.00     0.040 A 
ATOM     90  F   UNL     1       2.719   6.152 -14.233  1.00  0.00    -0.206 F 
ATOM     91  C   UNL     1       0.426   7.113 -16.836  1.00  0.00     0.006 A 
ENDBRANCH  67  84
ENDBRANCH  41  42
ENDBRANCH  33  36
ENDBRANCH  31  32
ENDBRANCH   1  31
TORSDOF 13
