REMARK SMILES Cc1nn(-c2cccc(C(=O)NCCCNC(=O)c3ccc(-c4c5nc(c(-c6c(F)cccc6F)c6ccc([nH]6)c(-c6c(F)cccc6F)c6nc(c(-c7c(F)cccc7F)c7ccc4[nH]7)C=C6)C=C5)cc3)c2)c(C)c1Cl
REMARK SMILES IDX 14 1 13 2 12 3 10 4 11 5 9 7 5 8 6 9 73 10 7 11 8 12 4 13
REMARK SMILES IDX 1 14 2 15 3 16 76 17 74 18 77 19 75 20 15 21 16 22 17 23
REMARK SMILES IDX 18 25 19 26 20 27 72 28 21 29 71 30 22 31 23 32 24 33 65 34
REMARK SMILES IDX 25 35 70 36 64 37 66 38 26 39 69 40 63 41 62 42 27 44 53 45
REMARK SMILES IDX 36 46 52 47 37 48 40 49 51 50 67 51 38 52 39 53 50 55 68 56
REMARK SMILES IDX 41 57 28 58 29 59 34 60 30 61 31 62 33 63 35 64 32 65 54 66
REMARK SMILES IDX 55 67 60 68 56 69 57 70 59 71 61 72 58 73 42 74 43 75 48 76
REMARK SMILES IDX 44 77 45 78 47 79 49 80 46 81
REMARK H PARENT 12 6 16 24 66 43 40 54
REMARK Flexibility Score: inf
ROOT
ATOM      1  C   UNL     1      -2.460  -5.165  -2.847  1.00  0.00     0.042 C 
ENDROOT
BRANCH   1   2
ATOM      2  C   UNL     1      -3.117  -6.129  -1.846  1.00  0.00     0.118 C 
BRANCH   2   3
ATOM      3  N   UNL     1      -2.484  -7.439  -1.820  1.00  0.00    -0.352 N 
ATOM      4  C   UNL     1      -1.404  -7.962  -1.146  1.00  0.00     0.251 C 
ATOM      5  O   UNL     1      -1.204  -9.171  -1.284  1.00  0.00    -0.269 OA
ATOM      6  H   UNL     1      -2.923  -8.092  -2.411  1.00  0.00     0.163 HD
BRANCH   4   7
ATOM      7  C   UNL     1      -0.476  -7.177  -0.272  1.00  0.00     0.041 A 
ATOM      8  C   UNL     1       0.384  -5.118   0.711  1.00  0.00     0.066 A 
ATOM      9  C   UNL     1       1.408  -5.802   1.355  1.00  0.00     0.028 A 
ATOM     10  C   UNL     1      -0.509  -5.795  -0.130  1.00  0.00     0.042 A 
ATOM     11  C   UNL     1       1.456  -7.192   1.234  1.00  0.00     0.003 A 
ATOM     12  C   UNL     1       0.515  -7.872   0.442  1.00  0.00     0.014 A 
BRANCH   8  13
ATOM     13  N   UNL     1       0.198  -3.728   0.886  1.00  0.00    -0.236 N 
ATOM     14  C   UNL     1       1.389  -0.464   0.175  1.00  0.00     0.070 C 
ATOM     15  C   UNL     1       0.619  -1.671   0.562  1.00  0.00     0.079 A 
ATOM     16  N   UNL     1       1.221  -2.862   0.700  1.00  0.00    -0.171 NA
ATOM     17  C   UNL     1      -0.765  -1.753   0.826  1.00  0.00     0.085 A 
ATOM     18  C   UNL     1      -1.008  -3.079   1.095  1.00  0.00     0.060 A 
ATOM     19  Cl  UNL     1      -1.875  -0.472   0.827  1.00  0.00    -0.080 Cl
ATOM     20  C   UNL     1      -2.245  -3.758   1.562  1.00  0.00     0.068 C 
ENDBRANCH   8  13
ENDBRANCH   4   7
ENDBRANCH   2   3
ENDBRANCH   1   2
BRANCH   1  21
ATOM     21  C   UNL     1      -3.182  -5.141  -4.183  1.00  0.00     0.118 C 
BRANCH  21  22
ATOM     22  N   UNL     1      -4.508  -4.524  -4.077  1.00  0.00    -0.352 N 
ATOM     23  C   UNL     1      -5.553  -4.540  -4.985  1.00  0.00     0.251 C 
ATOM     24  H   UNL     1      -4.680  -4.029  -3.243  1.00  0.00     0.163 HD
ATOM     25  O   UNL     1      -6.463  -3.737  -4.915  1.00  0.00    -0.269 OA
BRANCH  23  26
ATOM     26  C   UNL     1      -5.522  -5.552  -6.054  1.00  0.00     0.039 A 
ATOM     27  C   UNL     1      -5.798  -5.210  -7.378  1.00  0.00     0.014 A 
ATOM     28  C   UNL     1      -5.112  -6.835  -5.712  1.00  0.00     0.014 A 
ATOM     29  C   UNL     1      -5.549  -6.152  -8.371  1.00  0.00     0.010 A 
ATOM     30  C   UNL     1      -4.688  -7.684  -6.699  1.00  0.00     0.010 A 
ATOM     31  C   UNL     1      -4.956  -7.379  -8.027  1.00  0.00    -0.014 A 
BRANCH  31  32
ATOM     32  C   UNL     1      -4.545  -8.321  -9.060  1.00  0.00     0.031 A 
ATOM     33  C   UNL     1      -3.724  -7.744 -10.157  1.00  0.00     0.074 A 
ATOM     34  C   UNL     1      -4.731  -9.655  -8.973  1.00  0.00     0.049 A 
ATOM     35  N   UNL     1      -4.095  -7.497 -11.369  1.00  0.00    -0.248 NA
ATOM     36  C   UNL     1      -2.369  -7.268  -9.841  1.00  0.00     0.031 C 
ATOM     37  C   UNL     1      -5.214 -10.453  -7.838  1.00  0.00     0.029 A 
ATOM     38  N   UNL     1      -4.441 -10.605  -9.902  1.00  0.00    -0.354 N 
ATOM     39  C   UNL     1      -2.964  -7.031 -12.033  1.00  0.00     0.074 A 
ATOM     40  C   UNL     1      -1.991  -6.745 -11.011  1.00  0.00     0.031 C 
ATOM     41  C   UNL     1      -4.972 -11.762  -8.065  1.00  0.00     0.029 A 
ATOM     42  C   UNL     1      -4.515 -11.908  -9.432  1.00  0.00     0.049 A 
ATOM     43  H   UNL     1      -4.198 -10.386 -10.831  1.00  0.00     0.167 HD
ATOM     44  C   UNL     1      -2.845  -7.150 -13.385  1.00  0.00     0.037 A 
ATOM     45  C   UNL     1      -4.229 -13.034 -10.123  1.00  0.00     0.037 A 
ATOM     46  C   UNL     1      -4.118  -7.460 -13.991  1.00  0.00     0.049 A 
ATOM     47  C   UNL     1      -4.321 -12.700 -11.563  1.00  0.00     0.074 A 
ATOM     48  C   UNL     1      -5.349  -6.838 -14.065  1.00  0.00     0.029 A 
ATOM     49  N   UNL     1      -4.342  -8.770 -14.336  1.00  0.00    -0.354 N 
ATOM     50  N   UNL     1      -5.431 -12.384 -12.169  1.00  0.00    -0.248 NA
ATOM     51  C   UNL     1      -3.103 -12.300 -12.248  1.00  0.00     0.031 C 
ATOM     52  C   UNL     1      -6.303  -7.898 -13.978  1.00  0.00     0.029 A 
ATOM     53  C   UNL     1      -5.603  -9.104 -13.918  1.00  0.00     0.049 A 
ATOM     54  H   UNL     1      -3.709  -9.363 -14.801  1.00  0.00     0.167 HD
ATOM     55  C   UNL     1      -5.075 -11.385 -13.062  1.00  0.00     0.074 A 
ATOM     56  C   UNL     1      -3.619 -11.462 -13.149  1.00  0.00     0.031 C 
ATOM     57  C   UNL     1      -5.967 -10.416 -13.428  1.00  0.00     0.037 A 
BRANCH  44  58
ATOM     58  C   UNL     1      -1.546  -7.389 -14.120  1.00  0.00     0.057 A 
ATOM     59  C   UNL     1      -1.545  -7.382 -15.529  1.00  0.00     0.134 A 
ATOM     60  C   UNL     1      -0.382  -7.920 -13.529  1.00  0.00     0.134 A 
ATOM     61  F   UNL     1      -2.597  -6.910 -16.216  1.00  0.00    -0.206 F 
ATOM     62  C   UNL     1      -0.507  -7.942 -16.285  1.00  0.00     0.040 A 
ATOM     63  C   UNL     1       0.682  -8.434 -14.275  1.00  0.00     0.040 A 
ATOM     64  F   UNL     1      -0.252  -8.068 -12.206  1.00  0.00    -0.206 F 
ATOM     65  C   UNL     1       0.608  -8.480 -15.657  1.00  0.00     0.006 A 
ENDBRANCH  44  58
BRANCH  45  66
ATOM     66  C   UNL     1      -3.583 -14.266  -9.627  1.00  0.00     0.057 A 
ATOM     67  C   UNL     1      -3.634 -15.454 -10.366  1.00  0.00     0.134 A 
ATOM     68  C   UNL     1      -2.656 -14.228  -8.570  1.00  0.00     0.134 A 
ATOM     69  F   UNL     1      -4.464 -15.568 -11.413  1.00  0.00    -0.206 F 
ATOM     70  C   UNL     1      -2.783 -16.533 -10.095  1.00  0.00     0.040 A 
ATOM     71  C   UNL     1      -1.804 -15.299  -8.287  1.00  0.00     0.040 A 
ATOM     72  F   UNL     1      -2.483 -13.116  -7.841  1.00  0.00    -0.206 F 
ATOM     73  C   UNL     1      -1.853 -16.451  -9.063  1.00  0.00     0.006 A 
ENDBRANCH  45  66
BRANCH  57  74
ATOM     74  C   UNL     1      -7.418 -10.634 -13.087  1.00  0.00     0.057 A 
ATOM     75  C   UNL     1      -7.926 -10.712 -11.781  1.00  0.00     0.134 A 
ATOM     76  C   UNL     1      -8.355 -10.630 -14.126  1.00  0.00     0.134 A 
ATOM     77  F   UNL     1      -7.120 -10.630 -10.716  1.00  0.00    -0.206 F 
ATOM     78  C   UNL     1      -9.297 -10.824 -11.526  1.00  0.00     0.040 A 
ATOM     79  C   UNL     1      -9.729 -10.707 -13.885  1.00  0.00     0.040 A 
ATOM     80  F   UNL     1      -7.950 -10.504 -15.400  1.00  0.00    -0.206 F 
ATOM     81  C   UNL     1     -10.204 -10.816 -12.581  1.00  0.00     0.006 A 
ENDBRANCH  57  74
ENDBRANCH  31  32
ENDBRANCH  23  26
ENDBRANCH  21  22
ENDBRANCH   1  21
TORSDOF 11
