REMARK SMILES Cc1ccc2[nH]cc([C@@H](C(=O)NCCCNC(=O)c3ccc(-c4c5nc(c(-c6c(F)cccc6F)c6ccc([nH]6)c(-c6c(F)cccc6F)c6nc(c(-c7c(F)cccc7F)c7ccc4[nH]7)C=C6)C=C5)cc3)[NH+]3CCN(c4ccc(F)cc4)CC3)c2c1
REMARK SMILES IDX 14 1 13 2 12 3 10 4 11 5 9 7 8 8 1 9 2 10 3 11 87 12 4 13
REMARK SMILES IDX 86 14 5 15 6 16 7 17 73 19 74 20 85 21 75 23 84 24 76 25
REMARK SMILES IDX 77 26 78 27 83 28 79 29 82 30 80 31 81 32 15 33 16 34 17 35
REMARK SMILES IDX 18 37 19 38 20 39 72 40 21 41 71 42 22 43 23 44 24 45 65 46
REMARK SMILES IDX 25 47 70 48 64 49 66 50 26 51 69 52 63 53 62 54 27 56 53 57
REMARK SMILES IDX 36 58 52 59 37 60 40 61 51 62 67 63 38 64 39 65 50 67 68 68
REMARK SMILES IDX 41 69 28 70 29 71 34 72 30 73 31 74 33 75 35 76 32 77 54 78
REMARK SMILES IDX 55 79 60 80 56 81 57 82 59 83 61 84 58 85 42 86 43 87 48 88
REMARK SMILES IDX 44 89 45 90 47 91 49 92 46 93
REMARK H PARENT 12 6 6 18 73 22 16 36 66 55 40 66
REMARK Flexibility Score: inf
ROOT
ATOM      1  C   UNL     1      -0.601  -1.487   3.578  1.00  0.00     0.042 C 
ENDROOT
BRANCH   1   2
ATOM      2  C   UNL     1      -0.608  -2.854   2.899  1.00  0.00     0.118 C 
BRANCH   2   3
ATOM      3  N   UNL     1      -1.947  -3.311   2.580  1.00  0.00    -0.351 N 
ATOM      4  C   UNL     1      -2.656  -3.220   1.407  1.00  0.00     0.283 C 
ATOM      5  O   UNL     1      -3.809  -3.659   1.452  1.00  0.00    -0.268 OA
ATOM      6  H   UNL     1      -2.421  -3.756   3.319  1.00  0.00     0.163 HD
BRANCH   4   7
ATOM      7  C   UNL     1      -1.977  -2.629   0.127  1.00  0.00     0.307 C 
BRANCH   7   8
ATOM      8  C   UNL     1      -1.702  -1.151   0.253  1.00  0.00     0.044 A 
ATOM      9  C   UNL     1       3.379  -0.632  -0.261  1.00  0.00     0.044 C 
ATOM     10  C   UNL     1       1.981  -0.100  -0.129  1.00  0.00    -0.050 A 
ATOM     11  C   UNL     1       1.748   1.269   0.024  1.00  0.00     0.005 A 
ATOM     12  C   UNL     1       0.897  -0.994  -0.113  1.00  0.00     0.014 A 
ATOM     13  C   UNL     1       0.458   1.770   0.227  1.00  0.00     0.027 A 
ATOM     14  C   UNL     1      -0.413  -0.519   0.117  1.00  0.00     0.009 A 
ATOM     15  C   UNL     1      -0.594   0.851   0.297  1.00  0.00     0.046 A 
ATOM     16  N   UNL     1      -1.928   1.054   0.554  1.00  0.00    -0.361 N 
ATOM     17  C   UNL     1      -2.584  -0.145   0.609  1.00  0.00     0.094 A 
ATOM     18  H   UNL     1      -2.350   1.934   0.680  1.00  0.00     0.166 HD
ENDBRANCH   7   8
BRANCH   7  19
ATOM     19  N   UNL     1      -2.671  -3.008  -1.128  1.00  0.00    -0.318 N 
ATOM     20  C   UNL     1      -4.070  -2.597  -1.325  1.00  0.00     0.284 C 
ATOM     21  C   UNL     1      -1.897  -2.787  -2.362  1.00  0.00     0.284 C 
ATOM     22  H   UNL     1      -2.732  -4.010  -0.945  1.00  0.00     0.349 HD
ATOM     23  C   UNL     1      -4.332  -1.249  -2.029  1.00  0.00     0.178 C 
ATOM     24  C   UNL     1      -2.056  -1.406  -3.043  1.00  0.00     0.178 C 
ATOM     25  N   UNL     1      -3.472  -1.044  -3.200  1.00  0.00    -0.360 N 
BRANCH  25  26
ATOM     26  C   UNL     1      -3.702   0.111  -3.950  1.00  0.00     0.037 A 
ATOM     27  C   UNL     1      -3.852   1.377  -3.361  1.00  0.00     0.029 A 
ATOM     28  C   UNL     1      -3.785   0.013  -5.345  1.00  0.00     0.029 A 
ATOM     29  C   UNL     1      -4.112   2.506  -4.140  1.00  0.00     0.041 A 
ATOM     30  C   UNL     1      -4.049   1.138  -6.129  1.00  0.00     0.041 A 
ATOM     31  C   UNL     1      -4.217   2.374  -5.518  1.00  0.00     0.123 A 
ATOM     32  F   UNL     1      -4.480   3.453  -6.266  1.00  0.00    -0.207 F 
ENDBRANCH  25  26
ENDBRANCH   7  19
ENDBRANCH   4   7
ENDBRANCH   2   3
ENDBRANCH   1   2
BRANCH   1  33
ATOM     33  C   UNL     1      -1.321  -1.446   4.920  1.00  0.00     0.118 C 
BRANCH  33  34
ATOM     34  N   UNL     1      -0.655  -2.246   5.932  1.00  0.00    -0.352 N 
ATOM     35  C   UNL     1      -0.150  -1.889   7.155  1.00  0.00     0.251 C 
ATOM     36  H   UNL     1      -0.549  -3.198   5.703  1.00  0.00     0.163 HD
ATOM     37  O   UNL     1       0.561  -2.683   7.765  1.00  0.00    -0.269 OA
BRANCH  35  38
ATOM     38  C   UNL     1      -0.436  -0.561   7.747  1.00  0.00     0.039 A 
ATOM     39  C   UNL     1       0.579   0.073   8.471  1.00  0.00     0.014 A 
ATOM     40  C   UNL     1      -1.698   0.034   7.658  1.00  0.00     0.014 A 
ATOM     41  C   UNL     1       0.341   1.312   9.070  1.00  0.00     0.010 A 
ATOM     42  C   UNL     1      -1.913   1.304   8.193  1.00  0.00     0.010 A 
ATOM     43  C   UNL     1      -0.901   1.949   8.917  1.00  0.00    -0.014 A 
BRANCH  43  44
ATOM     44  C   UNL     1      -1.140   3.285   9.521  1.00  0.00     0.031 A 
ATOM     45  C   UNL     1      -2.144   3.460  10.626  1.00  0.00     0.074 A 
ATOM     46  C   UNL     1      -0.466   4.352   9.050  1.00  0.00     0.049 A 
ATOM     47  N   UNL     1      -2.460   4.544  11.291  1.00  0.00    -0.248 NA
ATOM     48  C   UNL     1      -2.914   2.271  11.021  1.00  0.00     0.031 C 
ATOM     49  C   UNL     1       0.485   4.326   7.937  1.00  0.00     0.029 A 
ATOM     50  N   UNL     1      -0.477   5.665   9.448  1.00  0.00    -0.354 N 
ATOM     51  C   UNL     1      -3.470   4.170  12.168  1.00  0.00     0.074 A 
ATOM     52  C   UNL     1      -3.750   2.773  11.917  1.00  0.00     0.031 C 
ATOM     53  C   UNL     1       0.991   5.557   7.764  1.00  0.00     0.029 A 
ATOM     54  C   UNL     1       0.386   6.462   8.737  1.00  0.00     0.049 A 
ATOM     55  H   UNL     1      -1.048   6.003  10.175  1.00  0.00     0.167 HD
ATOM     56  C   UNL     1      -4.090   4.916  13.114  1.00  0.00     0.037 A 
ATOM     57  C   UNL     1       0.668   7.772   8.863  1.00  0.00     0.037 A 
ATOM     58  C   UNL     1      -3.790   6.298  13.382  1.00  0.00     0.049 A 
ATOM     59  C   UNL     1       0.002   8.568   9.948  1.00  0.00     0.074 A 
ATOM     60  C   UNL     1      -4.313   7.121  14.365  1.00  0.00     0.029 A 
ATOM     61  N   UNL     1      -2.883   7.062  12.663  1.00  0.00    -0.354 N 
ATOM     62  N   UNL     1      -0.889   8.180  10.827  1.00  0.00    -0.248 NA
ATOM     63  C   UNL     1       0.393   9.979  10.069  1.00  0.00     0.031 C 
ATOM     64  C   UNL     1      -3.750   8.394  14.216  1.00  0.00     0.029 A 
ATOM     65  C   UNL     1      -2.844   8.351  13.169  1.00  0.00     0.049 A 
ATOM     66  H   UNL     1      -2.347   6.737  11.904  1.00  0.00     0.167 HD
ATOM     67  C   UNL     1      -1.147   9.289  11.622  1.00  0.00     0.074 A 
ATOM     68  C   UNL     1      -0.308  10.361  11.128  1.00  0.00     0.031 C 
ATOM     69  C   UNL     1      -2.001   9.407  12.668  1.00  0.00     0.037 A 
BRANCH  56  70
ATOM     70  C   UNL     1      -5.157   4.246  13.931  1.00  0.00     0.057 A 
ATOM     71  C   UNL     1      -4.850   3.271  14.889  1.00  0.00     0.134 A 
ATOM     72  C   UNL     1      -6.504   4.599  13.778  1.00  0.00     0.134 A 
ATOM     73  F   UNL     1      -3.581   2.879  15.078  1.00  0.00    -0.206 F 
ATOM     74  C   UNL     1      -5.846   2.649  15.644  1.00  0.00     0.040 A 
ATOM     75  C   UNL     1      -7.506   4.003  14.546  1.00  0.00     0.040 A 
ATOM     76  F   UNL     1      -6.867   5.530  12.884  1.00  0.00    -0.206 F 
ATOM     77  C   UNL     1      -7.179   3.019  15.477  1.00  0.00     0.006 A 
ENDBRANCH  56  70
BRANCH  57  78
ATOM     78  C   UNL     1       1.671   8.396   7.965  1.00  0.00     0.057 A 
ATOM     79  C   UNL     1       2.938   8.753   8.438  1.00  0.00     0.134 A 
ATOM     80  C   UNL     1       1.395   8.630   6.613  1.00  0.00     0.134 A 
ATOM     81  F   UNL     1       3.255   8.566   9.728  1.00  0.00    -0.206 F 
ATOM     82  C   UNL     1       3.893   9.335   7.603  1.00  0.00     0.040 A 
ATOM     83  C   UNL     1       2.347   9.192   5.761  1.00  0.00     0.040 A 
ATOM     84  F   UNL     1       0.202   8.299   6.098  1.00  0.00    -0.206 F 
ATOM     85  C   UNL     1       3.599   9.551   6.257  1.00  0.00     0.006 A 
ENDBRANCH  57  78
BRANCH  69  86
ATOM     86  C   UNL     1      -2.047  10.734  13.366  1.00  0.00     0.057 A 
ATOM     87  C   UNL     1      -2.652  11.855  12.783  1.00  0.00     0.134 A 
ATOM     88  C   UNL     1      -1.502  10.884  14.647  1.00  0.00     0.134 A 
ATOM     89  F   UNL     1      -3.181  11.779  11.553  1.00  0.00    -0.206 F 
ATOM     90  C   UNL     1      -2.691  13.085  13.441  1.00  0.00     0.040 A 
ATOM     91  C   UNL     1      -1.556  12.103  15.324  1.00  0.00     0.040 A 
ATOM     92  F   UNL     1      -0.915   9.847  15.263  1.00  0.00    -0.206 F 
ATOM     93  C   UNL     1      -2.147  13.210  14.718  1.00  0.00     0.006 A 
ENDBRANCH  69  86
ENDBRANCH  43  44
ENDBRANCH  35  38
ENDBRANCH  33  34
ENDBRANCH   1  33
TORSDOF 13
