REMARK SMILES CC(=O)Nc1cccc(N)c1C(=O)NCCCNC(=O)c1ccc(-c2c3nc(c(-c4c(F)cccc4F)c4ccc([nH]4)c(-c4c(F)cccc4F)c4nc(c(-c5c(F)cccc5F)c5ccc2[nH]5)C=C4)C=C3)cc1
REMARK SMILES IDX 16 1 15 2 14 3 12 4 13 5 11 7 5 8 6 9 7 10 9 11 8 12 4 13
REMARK SMILES IDX 1 14 2 15 3 16 10 18 17 21 18 22 19 23 20 25 21 26 22 27
REMARK SMILES IDX 74 28 23 29 73 30 24 31 25 32 26 33 67 34 27 35 72 36 66 37
REMARK SMILES IDX 68 38 28 39 71 40 65 41 64 42 29 44 55 45 38 46 54 47 39 48
REMARK SMILES IDX 42 49 53 50 69 51 40 52 41 53 52 55 70 56 43 57 30 58 31 59
REMARK SMILES IDX 36 60 32 61 33 62 35 63 37 64 34 65 56 66 57 67 62 68 58 69
REMARK SMILES IDX 59 70 61 71 63 72 60 73 44 74 45 75 50 76 46 77 47 78 49 79
REMARK SMILES IDX 51 80 48 81
REMARK H PARENT 14 6 4 17 10 19 10 20 18 24 68 43 42 54
REMARK Flexibility Score: inf
ROOT
ATOM      1  C   UNL     1       0.005   3.469   0.496  1.00  0.00     0.042 C 
ENDROOT
BRANCH   1   2
ATOM      2  C   UNL     1       0.787   2.311   1.092  1.00  0.00     0.118 C 
BRANCH   2   3
ATOM      3  N   UNL     1       1.724   1.695   0.167  1.00  0.00    -0.352 N 
ATOM      4  C   UNL     1       2.745   0.808   0.412  1.00  0.00     0.255 C 
ATOM      5  O   UNL     1       3.433   0.425  -0.534  1.00  0.00    -0.269 OA
ATOM      6  H   UNL     1       1.611   1.952  -0.777  1.00  0.00     0.163 HD
BRANCH   4   7
ATOM      7  C   UNL     1       3.071   0.361   1.791  1.00  0.00     0.086 A 
ATOM      8  C   UNL     1       2.108  -0.124   2.698  1.00  0.00     0.056 A 
ATOM      9  C   UNL     1       2.437  -0.177   4.060  1.00  0.00     0.027 A 
ATOM     10  C   UNL     1       3.730   0.106   4.494  1.00  0.00     0.004 A 
ATOM     11  C   UNL     1       4.417   0.526   2.205  1.00  0.00     0.046 A 
ATOM     12  C   UNL     1       4.718   0.427   3.568  1.00  0.00     0.026 A 
BRANCH   8  13
ATOM     13  N   UNL     1       0.800  -0.553   2.388  1.00  0.00    -0.326 N 
ATOM     14  C   UNL     1       1.148  -1.757   0.227  1.00  0.00     0.114 C 
ATOM     15  C   UNL     1       0.270  -1.100   1.255  1.00  0.00     0.221 C 
ATOM     16  O   UNL     1      -0.956  -1.099   1.125  1.00  0.00    -0.275 OA
ATOM     17  H   UNL     1       0.153  -0.436   3.121  1.00  0.00     0.169 HD
ENDBRANCH   8  13
BRANCH  11  18
ATOM     18  N   UNL     1       5.429   0.948   1.336  1.00  0.00    -0.398 N 
ATOM     19  H   UNL     1       6.351   1.049   1.666  1.00  0.00     0.156 HD
ATOM     20  H   UNL     1       5.218   1.143   0.394  1.00  0.00     0.156 HD
ENDBRANCH  11  18
ENDBRANCH   4   7
ENDBRANCH   2   3
ENDBRANCH   1   2
BRANCH   1  21
ATOM     21  C   UNL     1      -0.734   3.159  -0.801  1.00  0.00     0.118 C 
BRANCH  21  22
ATOM     22  N   UNL     1      -1.788   2.156  -0.706  1.00  0.00    -0.352 N 
ATOM     23  C   UNL     1      -3.115   2.226  -1.077  1.00  0.00     0.251 C 
ATOM     24  H   UNL     1      -1.509   1.296  -0.317  1.00  0.00     0.163 HD
ATOM     25  O   UNL     1      -3.853   1.254  -0.941  1.00  0.00    -0.269 OA
BRANCH  23  26
ATOM     26  C   UNL     1      -3.687   3.502  -1.561  1.00  0.00     0.039 A 
ATOM     27  C   UNL     1      -4.880   3.953  -0.990  1.00  0.00     0.014 A 
ATOM     28  C   UNL     1      -3.025   4.292  -2.499  1.00  0.00     0.014 A 
ATOM     29  C   UNL     1      -5.322   5.253  -1.244  1.00  0.00     0.010 A 
ATOM     30  C   UNL     1      -3.400   5.623  -2.660  1.00  0.00     0.010 A 
ATOM     31  C   UNL     1      -4.537   6.128  -2.011  1.00  0.00    -0.014 A 
BRANCH  31  32
ATOM     32  C   UNL     1      -4.849   7.581  -2.098  1.00  0.00     0.031 A 
ATOM     33  C   UNL     1      -5.061   8.238  -3.434  1.00  0.00     0.074 A 
ATOM     34  C   UNL     1      -4.838   8.334  -0.978  1.00  0.00     0.049 A 
ATOM     35  N   UNL     1      -5.205   9.508  -3.717  1.00  0.00    -0.248 NA
ATOM     36  C   UNL     1      -5.069   7.357  -4.612  1.00  0.00     0.031 C 
ATOM     37  C   UNL     1      -4.574   7.843   0.377  1.00  0.00     0.029 A 
ATOM     38  N   UNL     1      -5.043   9.681  -0.802  1.00  0.00    -0.354 N 
ATOM     39  C   UNL     1      -5.280   9.580  -5.102  1.00  0.00     0.074 A 
ATOM     40  C   UNL     1      -5.123   8.233  -5.605  1.00  0.00     0.031 C 
ATOM     41  C   UNL     1      -4.670   8.862   1.245  1.00  0.00     0.029 A 
ATOM     42  C   UNL     1      -4.957  10.088   0.508  1.00  0.00     0.049 A 
ATOM     43  H   UNL     1      -5.233  10.298  -1.546  1.00  0.00     0.167 HD
ATOM     44  C   UNL     1      -5.484  10.666  -5.885  1.00  0.00     0.037 A 
ATOM     45  C   UNL     1      -5.088  11.310   1.057  1.00  0.00     0.037 A 
ATOM     46  C   UNL     1      -5.704  11.998  -5.387  1.00  0.00     0.049 A 
ATOM     47  C   UNL     1      -5.371  12.489   0.171  1.00  0.00     0.074 A 
ATOM     48  C   UNL     1      -6.001  13.147  -6.099  1.00  0.00     0.029 A 
ATOM     49  N   UNL     1      -5.666  12.355  -4.048  1.00  0.00    -0.354 N 
ATOM     50  N   UNL     1      -5.495  12.530  -1.133  1.00  0.00    -0.248 NA
ATOM     51  C   UNL     1      -5.534  13.792   0.833  1.00  0.00     0.031 C 
ATOM     52  C   UNL     1      -6.120  14.205  -5.192  1.00  0.00     0.029 A 
ATOM     53  C   UNL     1      -5.928  13.708  -3.914  1.00  0.00     0.049 A 
ATOM     54  H   UNL     1      -5.480  11.738  -3.304  1.00  0.00     0.167 HD
ATOM     55  C   UNL     1      -5.774  13.854  -1.445  1.00  0.00     0.074 A 
ATOM     56  C   UNL     1      -5.813  14.582  -0.194  1.00  0.00     0.031 C 
ATOM     57  C   UNL     1      -5.978  14.415  -2.661  1.00  0.00     0.037 A 
BRANCH  44  58
ATOM     58  C   UNL     1      -5.497  10.453  -7.370  1.00  0.00     0.057 A 
ATOM     59  C   UNL     1      -6.559   9.803  -8.011  1.00  0.00     0.134 A 
ATOM     60  C   UNL     1      -4.449  10.927  -8.169  1.00  0.00     0.134 A 
ATOM     61  F   UNL     1      -7.586   9.314  -7.300  1.00  0.00    -0.206 F 
ATOM     62  C   UNL     1      -6.566   9.608  -9.393  1.00  0.00     0.040 A 
ATOM     63  C   UNL     1      -4.458  10.760  -9.555  1.00  0.00     0.040 A 
ATOM     64  F   UNL     1      -3.405  11.563  -7.618  1.00  0.00    -0.206 F 
ATOM     65  C   UNL     1      -5.516  10.093 -10.170  1.00  0.00     0.006 A 
ENDBRANCH  44  58
BRANCH  45  66
ATOM     66  C   UNL     1      -4.986  11.481   2.527  1.00  0.00     0.057 A 
ATOM     67  C   UNL     1      -6.124  11.747   3.298  1.00  0.00     0.134 A 
ATOM     68  C   UNL     1      -3.759  11.394   3.195  1.00  0.00     0.134 A 
ATOM     69  F   UNL     1      -7.324  11.861   2.710  1.00  0.00    -0.206 F 
ATOM     70  C   UNL     1      -6.044  11.940   4.678  1.00  0.00     0.040 A 
ATOM     71  C   UNL     1      -3.668  11.564   4.577  1.00  0.00     0.040 A 
ATOM     72  F   UNL     1      -2.634  11.134   2.513  1.00  0.00    -0.206 F 
ATOM     73  C   UNL     1      -4.812  11.845   5.322  1.00  0.00     0.006 A 
ENDBRANCH  45  66
BRANCH  57  74
ATOM     74  C   UNL     1      -6.298  15.878  -2.694  1.00  0.00     0.057 A 
ATOM     75  C   UNL     1      -5.314  16.852  -2.491  1.00  0.00     0.134 A 
ATOM     76  C   UNL     1      -7.599  16.315  -2.971  1.00  0.00     0.134 A 
ATOM     77  F   UNL     1      -4.052  16.494  -2.207  1.00  0.00    -0.206 F 
ATOM     78  C   UNL     1      -5.615  18.213  -2.547  1.00  0.00     0.040 A 
ATOM     79  C   UNL     1      -7.909  17.673  -3.050  1.00  0.00     0.040 A 
ATOM     80  F   UNL     1      -8.585  15.430  -3.181  1.00  0.00    -0.206 F 
ATOM     81  C   UNL     1      -6.915  18.626  -2.834  1.00  0.00     0.006 A 
ENDBRANCH  57  74
ENDBRANCH  31  32
ENDBRANCH  23  26
ENDBRANCH  21  22
ENDBRANCH   1  21
TORSDOF 12
