REMARK SMILES CC1CC[NH+]([C@H](c2ccc(F)cc2)c2ccc([C@@H](C)C(=O)NCCCNC(=O)c3ccc(-c4c5nc(c(-c6c(F)cccc6F)c6ccc([nH]6)c(-c6c(F)cccc6F)c6nc(c(-c7c(F)cccc7F)c7ccc4[nH]7)C=C6)C=C5)cc3)cc2-c2ccc(C(F)(F)F)cc2)CC1
REMARK SMILES IDX 23 1 22 2 20 3 21 4 18 6 19 7 17 8 14 9 15 10 84 11 16 12
REMARK SMILES IDX 83 13 6 14 5 15 1 16 2 17 3 18 96 19 4 20 95 21 7 23 8 24
REMARK SMILES IDX 13 25 9 26 12 27 10 28 11 29 85 30 86 31 94 32 87 33 93 34
REMARK SMILES IDX 88 35 89 36 90 37 91 38 92 39 24 40 25 41 26 42 27 43 28 45
REMARK SMILES IDX 29 46 30 47 82 48 31 49 81 50 32 51 33 52 34 53 75 54 35 55
REMARK SMILES IDX 80 56 74 57 76 58 36 59 79 60 73 61 72 62 37 64 63 65 46 66
REMARK SMILES IDX 62 67 47 68 50 69 61 70 77 71 48 72 49 73 60 75 78 76 51 77
REMARK SMILES IDX 38 78 39 79 44 80 40 81 41 82 43 83 45 84 42 85 64 86 65 87
REMARK SMILES IDX 70 88 66 89 67 90 69 91 71 92 68 93 52 94 53 95 58 96 54 97
REMARK SMILES IDX 55 98 57 99 59 100 56 101
REMARK H PARENT 22 5 5 22 26 44 76 63 50 74
REMARK Flexibility Score: inf
ROOT
ATOM      1  C   UNL     1       2.288   6.045  -4.665  1.00  0.00     0.117 C 
ENDROOT
BRANCH   1   2
ATOM      2  N   UNL     1       3.276   6.347  -3.645  1.00  0.00    -0.356 N 
ATOM      3  C   UNL     1       4.407   5.713  -3.226  1.00  0.00     0.227 C 
ATOM      4  O   UNL     1       4.994   6.244  -2.273  1.00  0.00    -0.274 OA
ATOM      5  H   UNL     1       3.092   7.181  -3.156  1.00  0.00     0.163 HD
BRANCH   3   6
ATOM      6  C   UNL     1       4.975   4.417  -3.839  1.00  0.00     0.105 C 
ATOM      7  C   UNL     1       5.269   4.495  -5.336  1.00  0.00     0.023 C 
BRANCH   6   8
ATOM      8  C   UNL     1       4.229   3.172  -3.394  1.00  0.00    -0.035 A 
ATOM      9  C   UNL     1       2.641   1.066  -2.268  1.00  0.00     0.022 A 
ATOM     10  C   UNL     1       2.213   1.846  -3.356  1.00  0.00     0.011 A 
ATOM     11  C   UNL     1       3.991   1.249  -1.858  1.00  0.00    -0.009 A 
ATOM     12  C   UNL     1       3.014   2.816  -3.951  1.00  0.00     0.005 A 
ATOM     13  C   UNL     1       4.726   2.348  -2.375  1.00  0.00     0.013 A 
BRANCH   9  14
ATOM     14  C   UNL     1       1.691   0.019  -1.609  1.00  0.00     0.247 C 
BRANCH  14  15
ATOM     15  N   UNL     1       0.264  -0.022  -2.071  1.00  0.00    -0.325 N 
ATOM     16  C   UNL     1      -3.042   1.332  -4.636  1.00  0.00     0.008 C 
ATOM     17  C   UNL     1      -1.742   1.071  -3.890  1.00  0.00    -0.003 C 
ATOM     18  C   UNL     1      -1.241  -0.354  -4.107  1.00  0.00     0.065 C 
ATOM     19  C   UNL     1      -1.904   1.260  -2.386  1.00  0.00     0.065 C 
ATOM     20  C   UNL     1       0.099  -0.603  -3.406  1.00  0.00     0.263 C 
ATOM     21  C   UNL     1      -0.547   1.139  -1.693  1.00  0.00     0.263 C 
ATOM     22  H   UNL     1      -0.209  -0.721  -1.498  1.00  0.00     0.348 HD
ENDBRANCH  14  15
BRANCH  14  23
ATOM     23  C   UNL     1       1.743   0.007  -0.068  1.00  0.00     0.014 A 
ATOM     24  C   UNL     1       1.620   1.186   0.695  1.00  0.00     0.013 A 
ATOM     25  C   UNL     1       1.919  -1.214   0.612  1.00  0.00     0.013 A 
ATOM     26  C   UNL     1       1.674   1.143   2.089  1.00  0.00     0.040 A 
ATOM     27  C   UNL     1       1.998  -1.251   2.006  1.00  0.00     0.040 A 
ATOM     28  C   UNL     1       1.871  -0.074   2.730  1.00  0.00     0.123 A 
ATOM     29  F   UNL     1       1.939  -0.111   4.068  1.00  0.00    -0.207 F 
ENDBRANCH  14  23
ENDBRANCH   9  14
BRANCH  11  30
ATOM     30  C   UNL     1       4.706   0.304  -0.977  1.00  0.00    -0.018 A 
ATOM     31  C   UNL     1       5.253   0.706   0.250  1.00  0.00     0.009 A 
ATOM     32  C   UNL     1       4.902  -1.027  -1.384  1.00  0.00     0.009 A 
ATOM     33  C   UNL     1       5.942  -0.203   1.060  1.00  0.00     0.014 A 
ATOM     34  C   UNL     1       5.581  -1.940  -0.574  1.00  0.00     0.014 A 
ATOM     35  C   UNL     1       6.102  -1.539   0.663  1.00  0.00     0.056 A 
BRANCH  35  36
ATOM     36  C   UNL     1       6.846  -2.513   1.542  1.00  0.00     0.416 C 
ATOM     37  F   UNL     1       8.190  -2.292   1.540  1.00  0.00    -0.166 F 
ATOM     38  F   UNL     1       6.457  -2.452   2.845  1.00  0.00    -0.166 F 
ATOM     39  F   UNL     1       6.683  -3.814   1.167  1.00  0.00    -0.166 F 
ENDBRANCH  35  36
ENDBRANCH  11  30
ENDBRANCH   6   8
ENDBRANCH   3   6
ENDBRANCH   1   2
BRANCH   1  40
ATOM     40  C   UNL     1       1.045   5.361  -4.092  1.00  0.00     0.042 C 
BRANCH  40  41
ATOM     41  C   UNL     1      -0.023   6.306  -3.562  1.00  0.00     0.118 C 
BRANCH  41  42
ATOM     42  N   UNL     1      -0.716   7.010  -4.628  1.00  0.00    -0.352 N 
ATOM     43  C   UNL     1      -2.043   7.044  -4.979  1.00  0.00     0.251 C 
ATOM     44  H   UNL     1      -0.131   7.559  -5.200  1.00  0.00     0.163 HD
ATOM     45  O   UNL     1      -2.353   7.569  -6.046  1.00  0.00    -0.269 OA
BRANCH  43  46
ATOM     46  C   UNL     1      -3.107   6.464  -4.120  1.00  0.00     0.039 A 
ATOM     47  C   UNL     1      -4.252   5.949  -4.742  1.00  0.00     0.014 A 
ATOM     48  C   UNL     1      -3.047   6.494  -2.724  1.00  0.00     0.014 A 
ATOM     49  C   UNL     1      -5.307   5.441  -3.975  1.00  0.00     0.010 A 
ATOM     50  C   UNL     1      -4.059   5.910  -1.962  1.00  0.00     0.010 A 
ATOM     51  C   UNL     1      -5.211   5.397  -2.577  1.00  0.00    -0.014 A 
BRANCH  51  52
ATOM     52  C   UNL     1      -6.312   4.854  -1.739  1.00  0.00     0.031 A 
ATOM     53  C   UNL     1      -7.047   5.749  -0.781  1.00  0.00     0.074 A 
ATOM     54  C   UNL     1      -6.622   3.545  -1.797  1.00  0.00     0.049 A 
ATOM     55  N   UNL     1      -7.985   5.444   0.080  1.00  0.00    -0.248 NA
ATOM     56  C   UNL     1      -6.665   7.170  -0.775  1.00  0.00     0.031 C 
ATOM     57  C   UNL     1      -5.975   2.571  -2.671  1.00  0.00     0.029 A 
ATOM     58  N   UNL     1      -7.545   2.805  -1.103  1.00  0.00    -0.354 N 
ATOM     59  C   UNL     1      -8.304   6.630   0.725  1.00  0.00     0.074 A 
ATOM     60  C   UNL     1      -7.414   7.647   0.208  1.00  0.00     0.031 C 
ATOM     61  C   UNL     1      -6.520   1.363  -2.471  1.00  0.00     0.029 A 
ATOM     62  C   UNL     1      -7.541   1.472  -1.434  1.00  0.00     0.049 A 
ATOM     63  H   UNL     1      -8.153   3.193  -0.433  1.00  0.00     0.167 HD
ATOM     64  C   UNL     1      -9.275   6.861   1.640  1.00  0.00     0.037 A 
ATOM     65  C   UNL     1      -8.274   0.448  -0.960  1.00  0.00     0.037 A 
ATOM     66  C   UNL     1     -10.173   5.854   2.141  1.00  0.00     0.049 A 
ATOM     67  C   UNL     1      -9.320   0.715   0.082  1.00  0.00     0.074 A 
ATOM     68  C   UNL     1     -11.216   5.998   3.038  1.00  0.00     0.029 A 
ATOM     69  N   UNL     1     -10.133   4.514   1.785  1.00  0.00    -0.354 N 
ATOM     70  N   UNL     1      -9.639   1.851   0.652  1.00  0.00    -0.248 NA
ATOM     71  C   UNL     1     -10.118  -0.433   0.533  1.00  0.00     0.031 C 
ATOM     72  C   UNL     1     -11.786   4.738   3.251  1.00  0.00     0.029 A 
ATOM     73  C   UNL     1     -11.125   3.817   2.455  1.00  0.00     0.049 A 
ATOM     74  H   UNL     1      -9.494   4.116   1.150  1.00  0.00     0.167 HD
ATOM     75  C   UNL     1     -10.693   1.564   1.508  1.00  0.00     0.074 A 
ATOM     76  C   UNL     1     -10.960   0.145   1.380  1.00  0.00     0.031 C 
ATOM     77  C   UNL     1     -11.382   2.405   2.317  1.00  0.00     0.037 A 
BRANCH  64  78
ATOM     78  C   UNL     1      -9.425   8.268   2.141  1.00  0.00     0.057 A 
ATOM     79  C   UNL     1      -9.092   8.604   3.458  1.00  0.00     0.134 A 
ATOM     80  C   UNL     1      -9.923   9.289   1.319  1.00  0.00     0.134 A 
ATOM     81  F   UNL     1      -8.615   7.675   4.300  1.00  0.00    -0.206 F 
ATOM     82  C   UNL     1      -9.247   9.906   3.940  1.00  0.00     0.040 A 
ATOM     83  C   UNL     1     -10.057  10.599   1.781  1.00  0.00     0.040 A 
ATOM     84  F   UNL     1     -10.248   9.036   0.043  1.00  0.00    -0.206 F 
ATOM     85  C   UNL     1      -9.724  10.909   3.098  1.00  0.00     0.006 A 
ENDBRANCH  64  78
BRANCH  65  86
ATOM     86  C   UNL     1      -8.070  -0.909  -1.521  1.00  0.00     0.057 A 
ATOM     87  C   UNL     1      -6.926  -1.659  -1.226  1.00  0.00     0.134 A 
ATOM     88  C   UNL     1      -8.989  -1.456  -2.423  1.00  0.00     0.134 A 
ATOM     89  F   UNL     1      -6.003  -1.182  -0.378  1.00  0.00    -0.206 F 
ATOM     90  C   UNL     1      -6.691  -2.898  -1.825  1.00  0.00     0.040 A 
ATOM     91  C   UNL     1      -8.776  -2.702  -3.016  1.00  0.00     0.040 A 
ATOM     92  F   UNL     1     -10.108  -0.787  -2.735  1.00  0.00    -0.206 F 
ATOM     93  C   UNL     1      -7.619  -3.422  -2.724  1.00  0.00     0.006 A 
ENDBRANCH  65  86
BRANCH  77  94
ATOM     94  C   UNL     1     -12.512   1.825   3.112  1.00  0.00     0.057 A 
ATOM     95  C   UNL     1     -13.841   2.121   2.780  1.00  0.00     0.134 A 
ATOM     96  C   UNL     1     -12.287   1.031   4.242  1.00  0.00     0.134 A 
ATOM     97  F   UNL     1     -14.122   2.884   1.712  1.00  0.00    -0.206 F 
ATOM     98  C   UNL     1     -14.906   1.657   3.552  1.00  0.00     0.040 A 
ATOM     99  C   UNL     1     -13.346   0.542   5.010  1.00  0.00     0.040 A 
ATOM    100  F   UNL     1     -11.038   0.702   4.605  1.00  0.00    -0.206 F 
ATOM    101  C   UNL     1     -14.659   0.863   4.670  1.00  0.00     0.006 A 
ENDBRANCH  77  94
ENDBRANCH  51  52
ENDBRANCH  43  46
ENDBRANCH  41  42
ENDBRANCH  40  41
ENDBRANCH   1  40
TORSDOF 16
