REMARK SMILES O=C(CO/N=C\c1ccccc1)Nc1ccccc1C(=O)NCCCNC(=O)c1ccc(-c2c3nc(c(-c4c(F)cccc4F)c4ccc([nH]4)c(-c4c(F)cccc4F)c4nc(c(-c5c(F)cccc5F)c5ccc2[nH]5)C=C4)C=C3)cc1
REMARK SMILES IDX 20 1 21 2 22 3 19 5 14 6 15 7 16 8 18 9 17 10 13 11 1 12
REMARK SMILES IDX 2 13 3 15 4 16 5 17 6 18 7 19 8 20 12 21 9 22 11 23 10 24
REMARK SMILES IDX 23 25 24 26 25 27 26 28 27 29 28 31 29 32 30 33 82 34 31 35
REMARK SMILES IDX 81 36 32 37 33 38 34 39 75 40 35 41 80 42 74 43 76 44 36 45
REMARK SMILES IDX 79 46 73 47 72 48 37 50 63 51 46 52 62 53 47 54 50 55 61 56
REMARK SMILES IDX 77 57 48 58 49 59 60 61 78 62 51 63 38 64 39 65 44 66 40 67
REMARK SMILES IDX 41 68 43 69 45 70 42 71 64 72 65 73 70 74 66 75 67 76 69 77
REMARK SMILES IDX 71 78 68 79 52 80 53 81 58 82 54 83 55 84 57 85 59 86 56 87
REMARK H PARENT 22 4 13 14 26 30 76 49 50 60
REMARK Flexibility Score: inf
ROOT
ATOM      1  C   UNL     1       0.282   0.584   2.191  1.00  0.00     0.253 C 
ATOM      2  O   UNL     1      -0.911   0.557   2.503  1.00  0.00    -0.269 OA
ATOM      3  N   UNL     1       0.933  -0.634   2.112  1.00  0.00    -0.352 N 
ATOM      4  H   UNL     1       0.473  -1.403   2.519  1.00  0.00     0.163 HD
ENDROOT
BRANCH   1   5
ATOM      5  C   UNL     1       0.993   1.908   2.142  1.00  0.00     0.063 A 
ATOM      6  C   UNL     1       2.004   2.376   1.273  1.00  0.00     0.054 A 
ATOM      7  C   UNL     1       2.683   3.569   1.611  1.00  0.00     0.027 A 
ATOM      8  C   UNL     1       2.307   4.350   2.705  1.00  0.00     0.002 A 
ATOM      9  C   UNL     1       0.613   2.736   3.229  1.00  0.00     0.016 A 
ATOM     10  C   UNL     1       1.249   3.947   3.501  1.00  0.00     0.001 A 
BRANCH   6  11
ATOM     11  N   UNL     1       2.455   1.805   0.057  1.00  0.00    -0.322 N 
ATOM     12  O   UNL     1       0.514   0.850  -0.763  1.00  0.00    -0.271 OA
ATOM     13  C   UNL     1       1.726   1.029  -0.825  1.00  0.00     0.265 C 
ATOM     14  H   UNL     1       3.393   1.979  -0.186  1.00  0.00     0.170 HD
BRANCH  13  15
ATOM     15  C   UNL     1       2.620   0.246  -1.800  1.00  0.00     0.363 C 
BRANCH  15  16
ATOM     16  O   UNL     1       3.687   0.994  -2.353  1.00  0.00    -0.386 OA
BRANCH  16  17
ATOM     17  N   UNL     1       3.321   1.414  -3.635  1.00  0.00    -0.094 NA
ATOM     18  C   UNL     1       4.339   1.463  -4.439  1.00  0.00     0.162 C 
BRANCH  18  19
ATOM     19  C   UNL     1       5.726   1.069  -4.149  1.00  0.00    -0.004 A 
ATOM     20  C   UNL     1       6.719   2.042  -4.266  1.00  0.00     0.010 A 
ATOM     21  C   UNL     1       6.049  -0.255  -3.838  1.00  0.00     0.010 A 
ATOM     22  C   UNL     1       8.051   1.692  -4.049  1.00  0.00     0.001 A 
ATOM     23  C   UNL     1       7.386  -0.602  -3.636  1.00  0.00     0.001 A 
ATOM     24  C   UNL     1       8.384   0.372  -3.738  1.00  0.00     0.000 A 
ENDBRANCH  18  19
ENDBRANCH  16  17
ENDBRANCH  15  16
ENDBRANCH  13  15
ENDBRANCH   6  11
ENDBRANCH   1   5
BRANCH   3  25
ATOM     25  C   UNL     1       2.204  -0.901   1.502  1.00  0.00     0.118 C 
BRANCH  25  26
ATOM     26  C   UNL     1       2.894  -2.207   1.829  1.00  0.00     0.042 C 
BRANCH  26  27
ATOM     27  C   UNL     1       2.378  -3.433   1.075  1.00  0.00     0.118 C 
BRANCH  27  28
ATOM     28  N   UNL     1       2.277  -3.290  -0.382  1.00  0.00    -0.352 N 
ATOM     29  C   UNL     1       2.969  -3.826  -1.445  1.00  0.00     0.251 C 
ATOM     30  H   UNL     1       1.558  -2.678  -0.660  1.00  0.00     0.163 HD
ATOM     31  O   UNL     1       2.719  -3.417  -2.579  1.00  0.00    -0.269 OA
BRANCH  29  32
ATOM     32  C   UNL     1       4.038  -4.838  -1.268  1.00  0.00     0.039 A 
ATOM     33  C   UNL     1       5.109  -4.873  -2.172  1.00  0.00     0.014 A 
ATOM     34  C   UNL     1       4.003  -5.763  -0.232  1.00  0.00     0.014 A 
ATOM     35  C   UNL     1       6.188  -5.738  -1.952  1.00  0.00     0.010 A 
ATOM     36  C   UNL     1       5.133  -6.511   0.072  1.00  0.00     0.010 A 
ATOM     37  C   UNL     1       6.243  -6.511  -0.783  1.00  0.00    -0.014 A 
BRANCH  37  38
ATOM     38  C   UNL     1       7.431  -7.327  -0.414  1.00  0.00     0.031 A 
ATOM     39  C   UNL     1       7.273  -8.798  -0.120  1.00  0.00     0.074 A 
ATOM     40  C   UNL     1       8.622  -6.727  -0.216  1.00  0.00     0.049 A 
ATOM     41  N   UNL     1       8.134  -9.638   0.395  1.00  0.00    -0.248 NA
ATOM     42  C   UNL     1       5.952  -9.389  -0.391  1.00  0.00     0.031 C 
ATOM     43  C   UNL     1       8.896  -5.298  -0.394  1.00  0.00     0.029 A 
ATOM     44  N   UNL     1       9.825  -7.242   0.200  1.00  0.00    -0.354 N 
ATOM     45  C   UNL     1       7.447 -10.836   0.549  1.00  0.00     0.074 A 
ATOM     46  C   UNL     1       6.082 -10.597   0.134  1.00  0.00     0.031 C 
ATOM     47  C   UNL     1      10.188  -5.059  -0.122  1.00  0.00     0.029 A 
ATOM     48  C   UNL     1      10.824  -6.302   0.298  1.00  0.00     0.049 A 
ATOM     49  H   UNL     1       9.959  -8.194   0.408  1.00  0.00     0.167 HD
ATOM     50  C   UNL     1       7.914 -12.036   0.969  1.00  0.00     0.037 A 
ATOM     51  C   UNL     1      12.105  -6.427   0.691  1.00  0.00     0.037 A 
ATOM     52  C   UNL     1       9.286 -12.285   1.323  1.00  0.00     0.049 A 
ATOM     53  C   UNL     1      12.612  -7.777   1.114  1.00  0.00     0.074 A 
ATOM     54  C   UNL     1       9.882 -13.482   1.678  1.00  0.00     0.029 A 
ATOM     55  N   UNL     1      10.278 -11.317   1.353  1.00  0.00    -0.354 N 
ATOM     56  N   UNL     1      11.965  -8.915   1.194  1.00  0.00    -0.248 NA
ATOM     57  C   UNL     1      14.028  -7.862   1.497  1.00  0.00     0.031 C 
ATOM     58  C   UNL     1      11.229 -13.232   1.958  1.00  0.00     0.029 A 
ATOM     59  C   UNL     1      11.481 -11.887   1.734  1.00  0.00     0.049 A 
ATOM     60  H   UNL     1      10.147 -10.366   1.137  1.00  0.00     0.167 HD
ATOM     61  C   UNL     1      12.898  -9.854   1.611  1.00  0.00     0.074 A 
ATOM     62  C   UNL     1      14.160  -9.156   1.750  1.00  0.00     0.031 C 
ATOM     63  C   UNL     1      12.727 -11.176   1.859  1.00  0.00     0.037 A 
BRANCH  50  64
ATOM     64  C   UNL     1       6.935 -13.173   1.046  1.00  0.00     0.057 A 
ATOM     65  C   UNL     1       6.372 -13.745  -0.104  1.00  0.00     0.134 A 
ATOM     66  C   UNL     1       6.564 -13.718   2.282  1.00  0.00     0.134 A 
ATOM     67  F   UNL     1       6.674 -13.264  -1.320  1.00  0.00    -0.206 F 
ATOM     68  C   UNL     1       5.452 -14.792  -0.026  1.00  0.00     0.040 A 
ATOM     69  C   UNL     1       5.668 -14.786   2.371  1.00  0.00     0.040 A 
ATOM     70  F   UNL     1       7.068 -13.225   3.423  1.00  0.00    -0.206 F 
ATOM     71  C   UNL     1       5.103 -15.320   1.215  1.00  0.00     0.006 A 
ENDBRANCH  50  64
BRANCH  51  72
ATOM     72  C   UNL     1      13.009  -5.249   0.670  1.00  0.00     0.057 A 
ATOM     73  C   UNL     1      14.038  -5.153  -0.275  1.00  0.00     0.134 A 
ATOM     74  C   UNL     1      12.873  -4.197   1.584  1.00  0.00     0.134 A 
ATOM     75  F   UNL     1      14.229  -6.137  -1.166  1.00  0.00    -0.206 F 
ATOM     76  C   UNL     1      14.912  -4.065  -0.298  1.00  0.00     0.040 A 
ATOM     77  C   UNL     1      13.725  -3.091   1.556  1.00  0.00     0.040 A 
ATOM     78  F   UNL     1      11.901  -4.222   2.506  1.00  0.00    -0.206 F 
ATOM     79  C   UNL     1      14.753  -3.027   0.617  1.00  0.00     0.006 A 
ENDBRANCH  51  72
BRANCH  63  80
ATOM     80  C   UNL     1      13.940 -11.956   2.271  1.00  0.00     0.057 A 
ATOM     81  C   UNL     1      14.511 -11.817   3.542  1.00  0.00     0.134 A 
ATOM     82  C   UNL     1      14.522 -12.882   1.395  1.00  0.00     0.134 A 
ATOM     83  F   UNL     1      14.008 -10.937   4.421  1.00  0.00    -0.206 F 
ATOM     84  C   UNL     1      15.633 -12.556   3.920  1.00  0.00     0.040 A 
ATOM     85  C   UNL     1      15.627 -13.645   1.772  1.00  0.00     0.040 A 
ATOM     86  F   UNL     1      14.018 -13.068   0.166  1.00  0.00    -0.206 F 
ATOM     87  C   UNL     1      16.189 -13.478   3.036  1.00  0.00     0.006 A 
ENDBRANCH  63  80
ENDBRANCH  37  38
ENDBRANCH  29  32
ENDBRANCH  27  28
ENDBRANCH  26  27
ENDBRANCH  25  26
ENDBRANCH   3  25
TORSDOF 15
