REMARK SMILES CC(C)(O)CCOc1ccc(C(=O)NCCCNC(=O)c2ccc(-c3c4nc(c(-c5c(F)cccc5F)c5ccc([nH]5)c(-c5c(F)cccc5F)c5nc(c(-c6c(F)cccc6F)c6ccc3[nH]6)C=C5)C=C4)cc2)cc1
REMARK SMILES IDX 12 1 13 2 14 3 11 5 8 6 9 7 76 8 10 9 75 10 7 11 6 12 5 13
REMARK SMILES IDX 2 14 1 15 3 16 4 17 15 19 16 20 17 21 18 22 19 23 20 25
REMARK SMILES IDX 21 26 22 27 74 28 23 29 73 30 24 31 25 32 26 33 67 34 27 35
REMARK SMILES IDX 72 36 66 37 68 38 28 39 71 40 65 41 64 42 29 44 55 45 38 46
REMARK SMILES IDX 54 47 39 48 42 49 53 50 69 51 40 52 41 53 52 55 70 56 43 57
REMARK SMILES IDX 30 58 31 59 36 60 32 61 33 62 35 63 37 64 34 65 56 66 57 67
REMARK SMILES IDX 62 68 58 69 59 70 61 71 63 72 60 73 44 74 45 75 50 76 46 77
REMARK SMILES IDX 47 78 49 79 51 80 48 81
REMARK H PARENT 14 4 4 18 18 24 68 43 42 54
REMARK Flexibility Score: inf
ROOT
ATOM      1  C   UNL     1       0.161   3.546   2.264  1.00  0.00     0.251 C 
ATOM      2  O   UNL     1       0.249   4.770   2.306  1.00  0.00    -0.269 OA
ATOM      3  N   UNL     1       0.247   2.829   3.437  1.00  0.00    -0.352 N 
ATOM      4  H   UNL     1       0.284   3.383   4.250  1.00  0.00     0.163 HD
ENDROOT
BRANCH   1   5
ATOM      5  C   UNL     1       0.032   2.869   0.951  1.00  0.00     0.040 A 
ATOM      6  C   UNL     1       0.189   1.359  -1.394  1.00  0.00     0.119 A 
ATOM      7  C   UNL     1       0.912   2.549  -1.278  1.00  0.00     0.047 A 
ATOM      8  C   UNL     1      -0.782   1.068  -0.440  1.00  0.00     0.047 A 
ATOM      9  C   UNL     1       0.833   3.308  -0.108  1.00  0.00     0.017 A 
ATOM     10  C   UNL     1      -0.851   1.810   0.743  1.00  0.00     0.017 A 
BRANCH   6  11
ATOM     11  O   UNL     1       0.594   0.532  -2.403  1.00  0.00    -0.493 OA
BRANCH  11  12
ATOM     12  C   UNL     1       0.197  -0.843  -2.385  1.00  0.00     0.232 C 
BRANCH  12  13
ATOM     13  C   UNL     1       1.129  -1.817  -1.626  1.00  0.00     0.076 C 
BRANCH  13  14
ATOM     14  C   UNL     1       1.061  -1.858  -0.081  1.00  0.00     0.062 C 
ATOM     15  C   UNL     1       1.970  -0.809   0.568  1.00  0.00     0.042 C 
ATOM     16  C   UNL     1       1.486  -3.233   0.456  1.00  0.00     0.042 C 
BRANCH  14  17
ATOM     17  O   UNL     1      -0.292  -1.688   0.339  1.00  0.00    -0.390 OA
ATOM     18  H   UNL     1      -0.336  -1.714   1.308  1.00  0.00     0.211 HD
ENDBRANCH  14  17
ENDBRANCH  13  14
ENDBRANCH  12  13
ENDBRANCH  11  12
ENDBRANCH   6  11
ENDBRANCH   1   5
BRANCH   3  19
ATOM     19  C   UNL     1       0.294   1.394   3.683  1.00  0.00     0.118 C 
BRANCH  19  20
ATOM     20  C   UNL     1       1.534   0.950   4.455  1.00  0.00     0.042 C 
BRANCH  20  21
ATOM     21  C   UNL     1       1.580   1.387   5.916  1.00  0.00     0.118 C 
BRANCH  21  22
ATOM     22  N   UNL     1       0.550   0.759   6.735  1.00  0.00    -0.352 N 
ATOM     23  C   UNL     1       0.652   0.015   7.886  1.00  0.00     0.251 C 
ATOM     24  H   UNL     1      -0.369   0.890   6.410  1.00  0.00     0.163 HD
ATOM     25  O   UNL     1      -0.350  -0.552   8.324  1.00  0.00    -0.269 OA
BRANCH  23  26
ATOM     26  C   UNL     1       1.942  -0.138   8.596  1.00  0.00     0.039 A 
ATOM     27  C   UNL     1       2.255  -1.376   9.169  1.00  0.00     0.014 A 
ATOM     28  C   UNL     1       2.831   0.931   8.737  1.00  0.00     0.014 A 
ATOM     29  C   UNL     1       3.482  -1.560   9.813  1.00  0.00     0.010 A 
ATOM     30  C   UNL     1       4.087   0.724   9.304  1.00  0.00     0.010 A 
ATOM     31  C   UNL     1       4.427  -0.522   9.850  1.00  0.00    -0.014 A 
BRANCH  31  32
ATOM     32  C   UNL     1       5.774  -0.722  10.446  1.00  0.00     0.031 A 
ATOM     33  C   UNL     1       6.207   0.080  11.643  1.00  0.00     0.074 A 
ATOM     34  C   UNL     1       6.639  -1.576   9.864  1.00  0.00     0.049 A 
ATOM     35  N   UNL     1       7.359   0.085  12.265  1.00  0.00    -0.248 NA
ATOM     36  C   UNL     1       5.222   1.021  12.196  1.00  0.00     0.031 C 
ATOM     37  C   UNL     1       6.359  -2.384   8.676  1.00  0.00     0.029 A 
ATOM     38  N   UNL     1       7.932  -1.902  10.191  1.00  0.00    -0.354 N 
ATOM     39  C   UNL     1       7.244   1.040  13.268  1.00  0.00     0.074 A 
ATOM     40  C   UNL     1       5.931   1.633  13.132  1.00  0.00     0.031 C 
ATOM     41  C   UNL     1       7.432  -3.140   8.397  1.00  0.00     0.029 A 
ATOM     42  C   UNL     1       8.491  -2.838   9.355  1.00  0.00     0.049 A 
ATOM     43  H   UNL     1       8.413  -1.503  10.951  1.00  0.00     0.167 HD
ATOM     44  C   UNL     1       8.140   1.379  14.226  1.00  0.00     0.037 A 
ATOM     45  C   UNL     1       9.718  -3.391   9.358  1.00  0.00     0.037 A 
ATOM     46  C   UNL     1       9.442   0.778  14.363  1.00  0.00     0.049 A 
ATOM     47  C   UNL     1      10.709  -2.977  10.411  1.00  0.00     0.074 A 
ATOM     48  C   UNL     1      10.398   1.002  15.338  1.00  0.00     0.029 A 
ATOM     49  N   UNL     1       9.977  -0.157  13.488  1.00  0.00    -0.354 N 
ATOM     50  N   UNL     1      10.560  -2.129  11.399  1.00  0.00    -0.248 NA
ATOM     51  C   UNL     1      12.038  -3.600  10.346  1.00  0.00     0.031 C 
ATOM     52  C   UNL     1      11.534   0.251  15.018  1.00  0.00     0.029 A 
ATOM     53  C   UNL     1      11.264  -0.491  13.879  1.00  0.00     0.049 A 
ATOM     54  H   UNL     1       9.511  -0.527  12.704  1.00  0.00     0.167 HD
ATOM     55  C   UNL     1      11.763  -2.141  12.095  1.00  0.00     0.074 A 
ATOM     56  C   UNL     1      12.626  -3.088  11.418  1.00  0.00     0.031 C 
ATOM     57  C   UNL     1      12.116  -1.434  13.197  1.00  0.00     0.037 A 
BRANCH  44  58
ATOM     58  C   UNL     1       7.741   2.466  15.187  1.00  0.00     0.057 A 
ATOM     59  C   UNL     1       6.704   2.296  16.116  1.00  0.00     0.134 A 
ATOM     60  C   UNL     1       8.399   3.702  15.181  1.00  0.00     0.134 A 
ATOM     61  F   UNL     1       6.024   1.141  16.173  1.00  0.00    -0.206 F 
ATOM     62  C   UNL     1       6.305   3.330  16.966  1.00  0.00     0.040 A 
ATOM     63  C   UNL     1       8.033   4.732  16.049  1.00  0.00     0.040 A 
ATOM     64  F   UNL     1       9.409   3.933  14.328  1.00  0.00    -0.206 F 
ATOM     65  C   UNL     1       6.973   4.552  16.936  1.00  0.00     0.006 A 
ENDBRANCH  44  58
BRANCH  45  66
ATOM     66  C   UNL     1      10.062  -4.432   8.357  1.00  0.00     0.057 A 
ATOM     67  C   UNL     1      10.222  -5.768   8.742  1.00  0.00     0.134 A 
ATOM     68  C   UNL     1      10.223  -4.128   7.000  1.00  0.00     0.134 A 
ATOM     69  F   UNL     1      10.098  -6.119  10.030  1.00  0.00    -0.206 F 
ATOM     70  C   UNL     1      10.539  -6.764   7.816  1.00  0.00     0.040 A 
ATOM     71  C   UNL     1      10.515  -5.117   6.059  1.00  0.00     0.040 A 
ATOM     72  F   UNL     1      10.075  -2.868   6.566  1.00  0.00    -0.206 F 
ATOM     73  C   UNL     1      10.679  -6.439   6.468  1.00  0.00     0.006 A 
ENDBRANCH  45  66
BRANCH  57  74
ATOM     74  C   UNL     1      13.485  -1.685  13.765  1.00  0.00     0.057 A 
ATOM     75  C   UNL     1      14.650  -1.260  13.114  1.00  0.00     0.134 A 
ATOM     76  C   UNL     1      13.635  -2.332  14.999  1.00  0.00     0.134 A 
ATOM     77  F   UNL     1      14.579  -0.647  11.923  1.00  0.00    -0.206 F 
ATOM     78  C   UNL     1      15.915  -1.492  13.658  1.00  0.00     0.040 A 
ATOM     79  C   UNL     1      14.892  -2.542  15.567  1.00  0.00     0.040 A 
ATOM     80  F   UNL     1      12.560  -2.759  15.680  1.00  0.00    -0.206 F 
ATOM     81  C   UNL     1      16.038  -2.128  14.892  1.00  0.00     0.006 A 
ENDBRANCH  57  74
ENDBRANCH  31  32
ENDBRANCH  23  26
ENDBRANCH  21  22
ENDBRANCH  20  21
ENDBRANCH  19  20
ENDBRANCH   3  19
TORSDOF 15
