REMARK SMILES O=C(NCCCNC(=O)c1cncc(OCCCc2ccccc2)n1)c1ccc(-c2c3nc(c(-c4c(F)cccc4F)c4ccc([nH]4)c(-c4c(F)cccc4F)c4nc(c(-c5c(F)cccc5F)c5ccc2[nH]5)C=C4)C=C3)cc1
REMARK SMILES IDX 7 1 8 2 9 3 6 5 5 6 4 7 3 8 1 9 2 10 26 12 27 13 79 14 28 15
REMARK SMILES IDX 78 16 29 17 30 18 31 19 72 20 32 21 77 22 71 23 73 24 33 25
REMARK SMILES IDX 76 26 70 27 69 28 34 30 60 31 43 32 59 33 44 34 47 35 58 36
REMARK SMILES IDX 74 37 45 38 46 39 57 41 75 42 48 43 35 44 36 45 41 46 37 47
REMARK SMILES IDX 38 48 40 49 42 50 39 51 61 52 62 53 67 54 63 55 64 56 66 57
REMARK SMILES IDX 68 58 65 59 49 60 50 61 55 62 51 63 52 64 54 65 56 66 53 67
REMARK SMILES IDX 10 68 11 69 25 70 12 71 14 72 13 73 15 74 16 75 17 76 18 77
REMARK SMILES IDX 19 78 20 79 24 80 21 81 23 82 22 83
REMARK H PARENT 7 4 3 11 73 29 47 40
REMARK Flexibility Score: inf
ROOT
ATOM      1  N   UNL     1       4.601  -3.813  -2.602  1.00  0.00    -0.351 N 
ATOM      2  C   UNL     1       5.160  -4.860  -3.298  1.00  0.00     0.271 C 
ATOM      3  O   UNL     1       5.345  -4.749  -4.507  1.00  0.00    -0.267 OA
ATOM      4  H   UNL     1       4.432  -3.000  -3.131  1.00  0.00     0.163 HD
ENDROOT
BRANCH   1   5
ATOM      5  C   UNL     1       4.224  -3.728  -1.202  1.00  0.00     0.118 C 
BRANCH   5   6
ATOM      6  C   UNL     1       4.870  -2.565  -0.463  1.00  0.00     0.042 C 
BRANCH   6   7
ATOM      7  C   UNL     1       4.550  -1.190  -1.035  1.00  0.00     0.118 C 
BRANCH   7   8
ATOM      8  N   UNL     1       3.135  -0.848  -0.954  1.00  0.00    -0.352 N 
ATOM      9  O   UNL     1       1.220  -0.009  -0.131  1.00  0.00    -0.269 OA
ATOM     10  C   UNL     1       2.446  -0.004  -0.113  1.00  0.00     0.251 C 
ATOM     11  H   UNL     1       2.572  -1.302  -1.622  1.00  0.00     0.163 HD
BRANCH  10  12
ATOM     12  C   UNL     1       3.159   0.882   0.836  1.00  0.00     0.039 A 
ATOM     13  C   UNL     1       4.326   1.548   0.470  1.00  0.00     0.014 A 
ATOM     14  C   UNL     1       2.627   1.078   2.116  1.00  0.00     0.014 A 
ATOM     15  C   UNL     1       5.066   2.230   1.429  1.00  0.00     0.010 A 
ATOM     16  C   UNL     1       3.316   1.863   3.049  1.00  0.00     0.010 A 
ATOM     17  C   UNL     1       4.571   2.401   2.732  1.00  0.00    -0.014 A 
BRANCH  17  18
ATOM     18  C   UNL     1       5.381   3.162   3.722  1.00  0.00     0.031 A 
ATOM     19  C   UNL     1       5.891   2.508   4.980  1.00  0.00     0.074 A 
ATOM     20  C   UNL     1       5.705   4.444   3.457  1.00  0.00     0.049 A 
ATOM     21  N   UNL     1       6.664   3.006   5.914  1.00  0.00    -0.248 NA
ATOM     22  C   UNL     1       5.474   1.120   5.230  1.00  0.00     0.031 C 
ATOM     23  C   UNL     1       5.265   5.198   2.281  1.00  0.00     0.029 A 
ATOM     24  N   UNL     1       6.500   5.330   4.139  1.00  0.00    -0.354 N 
ATOM     25  C   UNL     1       6.809   2.005   6.867  1.00  0.00     0.074 A 
ATOM     26  C   UNL     1       6.016   0.881   6.416  1.00  0.00     0.031 C 
ATOM     27  C   UNL     1       5.842   6.408   2.292  1.00  0.00     0.029 A 
ATOM     28  C   UNL     1       6.639   6.542   3.506  1.00  0.00     0.049 A 
ATOM     29  H   UNL     1       6.929   5.118   4.999  1.00  0.00     0.167 HD
ATOM     30  C   UNL     1       7.543   2.015   8.007  1.00  0.00     0.037 A 
ATOM     31  C   UNL     1       7.323   7.644   3.864  1.00  0.00     0.037 A 
ATOM     32  C   UNL     1       8.344   3.130   8.447  1.00  0.00     0.049 A 
ATOM     33  C   UNL     1       8.107   7.636   5.145  1.00  0.00     0.074 A 
ATOM     34  C   UNL     1       9.155   3.220   9.566  1.00  0.00     0.029 A 
ATOM     35  N   UNL     1       8.429   4.352   7.795  1.00  0.00    -0.354 N 
ATOM     36  N   UNL     1       8.272   6.663   6.008  1.00  0.00    -0.248 NA
ATOM     37  C   UNL     1       8.803   8.880   5.498  1.00  0.00     0.031 C 
ATOM     38  C   UNL     1       9.684   4.514   9.622  1.00  0.00     0.029 A 
ATOM     39  C   UNL     1       9.257   5.210   8.503  1.00  0.00     0.049 A 
ATOM     40  H   UNL     1       7.969   4.576   6.954  1.00  0.00     0.167 HD
ATOM     41  C   UNL     1       9.116   7.167   6.989  1.00  0.00     0.074 A 
ATOM     42  C   UNL     1       9.440   8.525   6.604  1.00  0.00     0.031 C 
ATOM     43  C   UNL     1       9.582   6.557   8.107  1.00  0.00     0.037 A 
BRANCH  30  44
ATOM     44  C   UNL     1       7.497   0.790   8.878  1.00  0.00     0.057 A 
ATOM     45  C   UNL     1       8.089  -0.421   8.496  1.00  0.00     0.134 A 
ATOM     46  C   UNL     1       6.886   0.836  10.138  1.00  0.00     0.134 A 
ATOM     47  F   UNL     1       8.684  -0.540   7.299  1.00  0.00    -0.206 F 
ATOM     48  C   UNL     1       8.052  -1.547   9.322  1.00  0.00     0.040 A 
ATOM     49  C   UNL     1       6.868  -0.273  10.986  1.00  0.00     0.040 A 
ATOM     50  F   UNL     1       6.307   1.966  10.574  1.00  0.00    -0.206 F 
ATOM     51  C   UNL     1       7.446  -1.472  10.575  1.00  0.00     0.006 A 
ENDBRANCH  30  44
BRANCH  31  52
ATOM     52  C   UNL     1       7.303   8.847   2.993  1.00  0.00     0.057 A 
ATOM     53  C   UNL     1       8.456   9.280   2.328  1.00  0.00     0.134 A 
ATOM     54  C   UNL     1       6.134   9.597   2.812  1.00  0.00     0.134 A 
ATOM     55  F   UNL     1       9.610   8.614   2.474  1.00  0.00    -0.206 F 
ATOM     56  C   UNL     1       8.454  10.428   1.534  1.00  0.00     0.040 A 
ATOM     57  C   UNL     1       6.110  10.728   1.996  1.00  0.00     0.040 A 
ATOM     58  F   UNL     1       4.994   9.229   3.414  1.00  0.00    -0.206 F 
ATOM     59  C   UNL     1       7.276  11.152   1.362  1.00  0.00     0.006 A 
ENDBRANCH  31  52
BRANCH  43  60
ATOM     60  C   UNL     1      10.538   7.337   8.964  1.00  0.00     0.057 A 
ATOM     61  C   UNL     1      10.134   8.448   9.716  1.00  0.00     0.134 A 
ATOM     62  C   UNL     1      11.885   6.959   9.047  1.00  0.00     0.134 A 
ATOM     63  F   UNL     1       8.862   8.873   9.672  1.00  0.00    -0.206 F 
ATOM     64  C   UNL     1      11.041   9.175  10.489  1.00  0.00     0.040 A 
ATOM     65  C   UNL     1      12.794   7.658   9.842  1.00  0.00     0.040 A 
ATOM     66  F   UNL     1      12.339   5.899   8.361  1.00  0.00    -0.206 F 
ATOM     67  C   UNL     1      12.374   8.777  10.558  1.00  0.00     0.006 A 
ENDBRANCH  43  60
ENDBRANCH  17  18
ENDBRANCH  10  12
ENDBRANCH   7   8
ENDBRANCH   6   7
ENDBRANCH   5   6
ENDBRANCH   1   5
BRANCH   2  68
ATOM     68  C   UNL     1       5.572  -6.094  -2.591  1.00  0.00     0.150 A 
ATOM     69  C   UNL     1       4.656  -6.904  -1.946  1.00  0.00     0.145 A 
ATOM     70  N   UNL     1       6.898  -6.374  -2.615  1.00  0.00    -0.205 NA
ATOM     71  N   UNL     1       5.037  -8.011  -1.262  1.00  0.00    -0.257 NA
ATOM     72  C   UNL     1       7.283  -7.486  -1.975  1.00  0.00     0.233 A 
ATOM     73  C   UNL     1       6.370  -8.288  -1.305  1.00  0.00     0.179 A 
BRANCH  72  74
ATOM     74  O   UNL     1       8.593  -7.887  -2.060  1.00  0.00    -0.477 OA
BRANCH  74  75
ATOM     75  C   UNL     1       9.541  -6.830  -2.284  1.00  0.00     0.232 C 
BRANCH  75  76
ATOM     76  C   UNL     1       9.878  -6.588  -3.761  1.00  0.00     0.046 C 
BRANCH  76  77
ATOM     77  C   UNL     1       9.098  -5.494  -4.508  1.00  0.00     0.039 C 
BRANCH  77  78
ATOM     78  C   UNL     1       9.251  -4.069  -4.015  1.00  0.00    -0.048 A 
ATOM     79  C   UNL     1       8.540  -3.593  -2.905  1.00  0.00     0.004 A 
ATOM     80  C   UNL     1      10.045  -3.158  -4.723  1.00  0.00     0.004 A 
ATOM     81  C   UNL     1       8.596  -2.253  -2.521  1.00  0.00     0.000 A 
ATOM     82  C   UNL     1      10.100  -1.812  -4.344  1.00  0.00     0.000 A 
ATOM     83  C   UNL     1       9.370  -1.358  -3.248  1.00  0.00     0.000 A 
ENDBRANCH  77  78
ENDBRANCH  76  77
ENDBRANCH  75  76
ENDBRANCH  74  75
ENDBRANCH  72  74
ENDBRANCH   2  68
TORSDOF 15
