REMARK SMILES C[C@H](C(=O)Nc1ccc(C(F)(F)F)cc1)n1nc(C(=O)NCCCNC(=O)c2ccc(-c3c4nc(c(-c5c(F)cccc5F)c5ccc([nH]5)c(-c5c(F)cccc5F)c5nc(c(-c6c(F)cccc6F)c6ccc3[nH]6)C=C5)C=C4)cc2)c2ccccc2c1=O
REMARK SMILES IDX 22 1 21 2 19 3 20 4 18 6 16 7 17 8 88 9 87 10 89 11 82 12
REMARK SMILES IDX 86 13 83 14 85 15 84 16 2 17 1 18 3 19 4 20 5 21 6 23 7 24
REMARK SMILES IDX 15 25 8 26 14 27 9 28 10 29 11 30 12 31 13 32 23 33 24 34
REMARK SMILES IDX 25 35 26 36 27 38 28 39 29 40 81 41 30 42 80 43 31 44 32 45
REMARK SMILES IDX 33 46 74 47 34 48 79 49 73 50 75 51 35 52 78 53 72 54 71 55
REMARK SMILES IDX 36 57 62 58 45 59 61 60 46 61 49 62 60 63 76 64 47 65 48 66
REMARK SMILES IDX 59 68 77 69 50 70 37 71 38 72 43 73 39 74 40 75 42 76 44 77
REMARK SMILES IDX 41 78 63 79 64 80 69 81 65 82 66 83 68 84 70 85 67 86 51 87
REMARK SMILES IDX 52 88 57 89 53 90 54 91 56 92 58 93 55 94
REMARK H PARENT 21 5 5 22 25 37 75 56 49 67
REMARK Flexibility Score: inf
ROOT
ATOM      1  C   UNL     1      -2.887   2.142  -2.487  1.00  0.00     0.118 C 
ENDROOT
BRANCH   1   2
ATOM      2  N   UNL     1      -3.875   1.282  -3.114  1.00  0.00    -0.351 N 
ATOM      3  C   UNL     1      -3.970  -0.091  -3.016  1.00  0.00     0.272 C 
ATOM      4  O   UNL     1      -4.732  -0.712  -3.746  1.00  0.00    -0.267 OA
ATOM      5  H   UNL     1      -4.552   1.729  -3.671  1.00  0.00     0.163 HD
BRANCH   3   6
ATOM      6  C   UNL     1      -3.125  -0.822  -1.960  1.00  0.00     0.156 A 
ATOM      7  N   UNL     1      -1.121  -0.889  -0.784  1.00  0.00    -0.216 N 
ATOM      8  N   UNL     1      -1.898  -0.416  -1.815  1.00  0.00    -0.163 NA
ATOM      9  C   UNL     1      -1.548  -1.875   0.097  1.00  0.00     0.275 A 
ATOM     10  C   UNL     1      -2.928  -2.371  -0.086  1.00  0.00     0.051 A 
ATOM     11  O   UNL     1      -0.874  -2.317   1.020  1.00  0.00    -0.267 OA
ATOM     12  C   UNL     1      -3.715  -1.884  -1.127  1.00  0.00     0.020 A 
ATOM     13  C   UNL     1      -3.437  -3.344   0.787  1.00  0.00     0.014 A 
ATOM     14  C   UNL     1      -4.995  -2.417  -1.329  1.00  0.00     0.011 A 
ATOM     15  C   UNL     1      -4.718  -3.858   0.593  1.00  0.00     0.001 A 
ATOM     16  C   UNL     1      -5.489  -3.408  -0.475  1.00  0.00     0.001 A 
BRANCH   7  17
ATOM     17  C   UNL     1       0.269  -0.397  -0.794  1.00  0.00     0.197 C 
ATOM     18  C   UNL     1       1.120  -1.206  -1.778  1.00  0.00     0.044 C 
BRANCH  17  19
ATOM     19  C   UNL     1       1.016  -0.209   0.550  1.00  0.00     0.249 C 
ATOM     20  O   UNL     1       1.822  -1.048   0.968  1.00  0.00    -0.272 OA
ATOM     21  N   UNL     1       0.948   0.983   1.230  1.00  0.00    -0.324 N 
ATOM     22  H   UNL     1       1.631   1.093   1.930  1.00  0.00     0.170 HD
BRANCH  21  23
ATOM     23  C   UNL     1       0.075   2.067   1.098  1.00  0.00     0.041 A 
ATOM     24  C   UNL     1       0.597   3.356   1.236  1.00  0.00     0.027 A 
ATOM     25  C   UNL     1      -1.296   1.908   0.923  1.00  0.00     0.027 A 
ATOM     26  C   UNL     1      -0.228   4.478   1.089  1.00  0.00     0.015 A 
ATOM     27  C   UNL     1      -2.130   3.027   0.824  1.00  0.00     0.015 A 
ATOM     28  C   UNL     1      -1.601   4.324   0.863  1.00  0.00     0.056 A 
BRANCH  28  29
ATOM     29  C   UNL     1      -2.511   5.515   0.678  1.00  0.00     0.416 C 
ATOM     30  F   UNL     1      -3.294   5.748   1.765  1.00  0.00    -0.166 F 
ATOM     31  F   UNL     1      -1.852   6.676   0.427  1.00  0.00    -0.166 F 
ATOM     32  F   UNL     1      -3.367   5.337  -0.370  1.00  0.00    -0.166 F 
ENDBRANCH  28  29
ENDBRANCH  21  23
ENDBRANCH  17  19
ENDBRANCH   7  17
ENDBRANCH   3   6
ENDBRANCH   1   2
BRANCH   1  33
ATOM     33  C   UNL     1      -1.593   2.188  -3.301  1.00  0.00     0.042 C 
BRANCH  33  34
ATOM     34  C   UNL     1      -1.458   3.484  -4.077  1.00  0.00     0.118 C 
BRANCH  34  35
ATOM     35  N   UNL     1      -1.054   4.595  -3.226  1.00  0.00    -0.352 N 
ATOM     36  C   UNL     1      -0.303   5.696  -3.565  1.00  0.00     0.251 C 
ATOM     37  H   UNL     1      -1.358   4.552  -2.290  1.00  0.00     0.163 HD
ATOM     38  O   UNL     1       0.094   6.464  -2.695  1.00  0.00    -0.269 OA
BRANCH  36  39
ATOM     39  C   UNL     1       0.067   5.909  -4.982  1.00  0.00     0.039 A 
ATOM     40  C   UNL     1       1.382   6.263  -5.296  1.00  0.00     0.014 A 
ATOM     41  C   UNL     1      -0.867   5.710  -6.002  1.00  0.00     0.014 A 
ATOM     42  C   UNL     1       1.777   6.339  -6.633  1.00  0.00     0.010 A 
ATOM     43  C   UNL     1      -0.452   5.697  -7.327  1.00  0.00     0.010 A 
ATOM     44  C   UNL     1       0.873   6.013  -7.658  1.00  0.00    -0.014 A 
BRANCH  44  45
ATOM     45  C   UNL     1       1.280   6.004  -9.085  1.00  0.00     0.031 A 
ATOM     46  C   UNL     1       0.608   6.931 -10.060  1.00  0.00     0.074 A 
ATOM     47  C   UNL     1       2.182   5.102  -9.519  1.00  0.00     0.049 A 
ATOM     48  N   UNL     1       0.726   6.991 -11.362  1.00  0.00    -0.248 NA
ATOM     49  C   UNL     1      -0.357   7.891  -9.500  1.00  0.00     0.031 C 
ATOM     50  C   UNL     1       2.856   4.104  -8.685  1.00  0.00     0.029 A 
ATOM     51  N   UNL     1       2.677   4.870 -10.777  1.00  0.00    -0.354 N 
ATOM     52  C   UNL     1      -0.176   7.963 -11.777  1.00  0.00     0.074 A 
ATOM     53  C   UNL     1      -0.866   8.433 -10.596  1.00  0.00     0.031 C 
ATOM     54  C   UNL     1       3.698   3.389  -9.448  1.00  0.00     0.029 A 
ATOM     55  C   UNL     1       3.599   3.853 -10.828  1.00  0.00     0.049 A 
ATOM     56  H   UNL     1       2.398   5.385 -11.569  1.00  0.00     0.167 HD
ATOM     57  C   UNL     1      -0.393   8.438 -13.025  1.00  0.00     0.037 A 
ATOM     58  C   UNL     1       4.285   3.352 -11.872  1.00  0.00     0.037 A 
ATOM     59  C   UNL     1       0.338   8.012 -14.188  1.00  0.00     0.049 A 
ATOM     60  C   UNL     1       4.072   3.938 -13.238  1.00  0.00     0.074 A 
ATOM     61  C   UNL     1       0.249   8.484 -15.486  1.00  0.00     0.029 A 
ATOM     62  N   UNL     1       1.307   7.020 -14.187  1.00  0.00    -0.354 N 
ATOM     63  N   UNL     1       3.255   4.894 -13.608  1.00  0.00    -0.248 NA
ATOM     64  C   UNL     1       4.880   3.381 -14.332  1.00  0.00     0.031 C 
ATOM     65  C   UNL     1       1.153   7.764 -16.274  1.00  0.00     0.029 A 
ATOM     66  C   UNL     1       1.823   6.864 -15.461  1.00  0.00     0.049 A 
ATOM     67  H   UNL     1       1.586   6.504 -13.396  1.00  0.00     0.167 HD
ATOM     68  C   UNL     1       3.466   5.070 -14.968  1.00  0.00     0.074 A 
ATOM     69  C   UNL     1       4.497   4.129 -15.357  1.00  0.00     0.031 C 
ATOM     70  C   UNL     1       2.859   5.931 -15.821  1.00  0.00     0.037 A 
BRANCH  57  71
ATOM     71  C   UNL     1      -1.454   9.486 -13.187  1.00  0.00     0.057 A 
ATOM     72  C   UNL     1      -1.277  10.793 -12.716  1.00  0.00     0.134 A 
ATOM     73  C   UNL     1      -2.662   9.188 -13.829  1.00  0.00     0.134 A 
ATOM     74  F   UNL     1      -0.148  11.138 -12.078  1.00  0.00    -0.206 F 
ATOM     75  C   UNL     1      -2.276  11.759 -12.849  1.00  0.00     0.040 A 
ATOM     76  C   UNL     1      -3.659  10.152 -13.991  1.00  0.00     0.040 A 
ATOM     77  F   UNL     1      -2.895   7.956 -14.307  1.00  0.00    -0.206 F 
ATOM     78  C   UNL     1      -3.469  11.440 -13.493  1.00  0.00     0.006 A 
ENDBRANCH  57  71
BRANCH  58  79
ATOM     79  C   UNL     1       5.270   2.263 -11.659  1.00  0.00     0.057 A 
ATOM     80  C   UNL     1       6.645   2.521 -11.719  1.00  0.00     0.134 A 
ATOM     81  C   UNL     1       4.869   0.950 -11.392  1.00  0.00     0.134 A 
ATOM     82  F   UNL     1       7.088   3.758 -11.988  1.00  0.00    -0.206 F 
ATOM     83  C   UNL     1       7.587   1.508 -11.536  1.00  0.00     0.040 A 
ATOM     84  C   UNL     1       5.801  -0.070 -11.187  1.00  0.00     0.040 A 
ATOM     85  F   UNL     1       3.566   0.642 -11.313  1.00  0.00    -0.206 F 
ATOM     86  C   UNL     1       7.165   0.208 -11.265  1.00  0.00     0.006 A 
ENDBRANCH  58  79
BRANCH  70  87
ATOM     87  C   UNL     1       3.319   5.916 -17.246  1.00  0.00     0.057 A 
ATOM     88  C   UNL     1       2.941   4.899 -18.130  1.00  0.00     0.134 A 
ATOM     89  C   UNL     1       4.112   6.955 -17.748  1.00  0.00     0.134 A 
ATOM     90  F   UNL     1       2.192   3.871 -17.703  1.00  0.00    -0.206 F 
ATOM     91  C   UNL     1       3.350   4.907 -19.464  1.00  0.00     0.040 A 
ATOM     92  C   UNL     1       4.511   6.984 -19.084  1.00  0.00     0.040 A 
ATOM     93  F   UNL     1       4.502   7.962 -16.951  1.00  0.00    -0.206 F 
ATOM     94  C   UNL     1       4.133   5.956 -19.945  1.00  0.00     0.006 A 
ENDBRANCH  70  87
ENDBRANCH  44  45
ENDBRANCH  36  39
ENDBRANCH  34  35
ENDBRANCH  33  34
ENDBRANCH   1  33
TORSDOF 14
