REMARK SMILES O=C(NCCCNC(=O)c1ccccc1/C=N\NC(=S)NCc1ccccc1)c1ccc(-c2c3nc(c(-c4c(F)cccc4F)c4ccc([nH]4)c(-c4c(F)cccc4F)c4nc(c(-c5c(F)cccc5F)c5ccc2[nH]5)C=C4)C=C3)cc1
REMARK SMILES IDX 7 1 8 2 9 3 6 5 5 6 4 7 3 8 1 9 2 10 29 12 30 13 82 14 31 15
REMARK SMILES IDX 81 16 32 17 33 18 34 19 75 20 35 21 80 22 74 23 76 24 36 25
REMARK SMILES IDX 79 26 73 27 72 28 37 30 63 31 46 32 62 33 47 34 50 35 61 36
REMARK SMILES IDX 77 37 48 38 49 39 60 41 78 42 51 43 38 44 39 45 44 46 40 47
REMARK SMILES IDX 41 48 43 49 45 50 42 51 64 52 65 53 70 54 66 55 67 56 69 57
REMARK SMILES IDX 71 58 68 59 52 60 53 61 58 62 54 63 55 64 57 65 59 66 56 67
REMARK SMILES IDX 10 68 11 69 15 70 12 71 14 72 13 73 16 74 17 75 18 76 19 78
REMARK SMILES IDX 20 79 21 80 22 82 23 83 24 84 28 85 25 86 27 87 26 88
REMARK H PARENT 7 4 3 11 76 29 50 40 18 77 21 81
REMARK Flexibility Score: inf
ROOT
ATOM      1  N   UNL     1       4.957   3.813   3.760  1.00  0.00    -0.352 N 
ATOM      2  C   UNL     1       5.870   4.870   3.812  1.00  0.00     0.251 C 
ATOM      3  O   UNL     1       6.326   4.760   4.983  1.00  0.00    -0.269 OA
ATOM      4  H   UNL     1       5.241   3.350   4.581  1.00  0.00     0.163 HD
ENDROOT
BRANCH   1   5
ATOM      5  C   UNL     1       3.813   2.831   3.345  1.00  0.00     0.118 C 
BRANCH   5   6
ATOM      6  C   UNL     1       3.624   2.123   1.975  1.00  0.00     0.042 C 
BRANCH   6   7
ATOM      7  C   UNL     1       3.759   0.589   1.906  1.00  0.00     0.118 C 
BRANCH   7   8
ATOM      8  N   UNL     1       2.521  -0.003   1.406  1.00  0.00    -0.352 N 
ATOM      9  O   UNL     1       0.966  -0.551  -0.091  1.00  0.00    -0.269 OA
ATOM     10  C   UNL     1       2.163  -0.528   0.185  1.00  0.00     0.251 C 
ATOM     11  H   UNL     1       1.799  -0.032   2.074  1.00  0.00     0.163 HD
BRANCH  10  12
ATOM     12  C   UNL     1       3.125  -1.137  -0.780  1.00  0.00     0.039 A 
ATOM     13  C   UNL     1       4.297  -1.774  -0.371  1.00  0.00     0.014 A 
ATOM     14  C   UNL     1       2.719  -1.274  -2.122  1.00  0.00     0.014 A 
ATOM     15  C   UNL     1       5.047  -2.534  -1.281  1.00  0.00     0.010 A 
ATOM     16  C   UNL     1       3.439  -2.078  -3.020  1.00  0.00     0.010 A 
ATOM     17  C   UNL     1       4.596  -2.744  -2.597  1.00  0.00    -0.014 A 
BRANCH  17  18
ATOM     18  C   UNL     1       5.219  -3.811  -3.434  1.00  0.00     0.031 A 
ATOM     19  C   UNL     1       5.982  -3.502  -4.691  1.00  0.00     0.074 A 
ATOM     20  C   UNL     1       5.055  -5.096  -3.051  1.00  0.00     0.049 A 
ATOM     21  N   UNL     1       6.573  -4.330  -5.519  1.00  0.00    -0.248 NA
ATOM     22  C   UNL     1       6.095  -2.089  -5.077  1.00  0.00     0.031 C 
ATOM     23  C   UNL     1       4.290  -5.529  -1.878  1.00  0.00     0.029 A 
ATOM     24  N   UNL     1       5.511  -6.271  -3.596  1.00  0.00    -0.354 N 
ATOM     25  C   UNL     1       7.116  -3.544  -6.527  1.00  0.00     0.074 A 
ATOM     26  C   UNL     1       6.774  -2.171  -6.216  1.00  0.00     0.031 C 
ATOM     27  C   UNL     1       4.355  -6.864  -1.774  1.00  0.00     0.029 A 
ATOM     28  C   UNL     1       5.113  -7.391  -2.903  1.00  0.00     0.049 A 
ATOM     29  H   UNL     1       6.070  -6.309  -4.405  1.00  0.00     0.167 HD
ATOM     30  C   UNL     1       7.836  -3.936  -7.607  1.00  0.00     0.037 A 
ATOM     31  C   UNL     1       5.307  -8.700  -3.156  1.00  0.00     0.037 A 
ATOM     32  C   UNL     1       8.188  -5.303  -7.902  1.00  0.00     0.049 A 
ATOM     33  C   UNL     1       6.090  -9.100  -4.372  1.00  0.00     0.074 A 
ATOM     34  C   UNL     1       8.988  -5.785  -8.925  1.00  0.00     0.029 A 
ATOM     35  N   UNL     1       7.748  -6.407  -7.189  1.00  0.00    -0.354 N 
ATOM     36  N   UNL     1       6.671  -8.335  -5.264  1.00  0.00    -0.248 NA
ATOM     37  C   UNL     1       6.235 -10.540  -4.627  1.00  0.00     0.031 C 
ATOM     38  C   UNL     1       8.988  -7.182  -8.863  1.00  0.00     0.029 A 
ATOM     39  C   UNL     1       8.224  -7.570  -7.775  1.00  0.00     0.049 A 
ATOM     40  H   UNL     1       7.181  -6.371  -6.385  1.00  0.00     0.167 HD
ATOM     41  C   UNL     1       7.250  -9.199  -6.183  1.00  0.00     0.074 A 
ATOM     42  C   UNL     1       6.979 -10.545  -5.724  1.00  0.00     0.031 C 
ATOM     43  C   UNL     1       7.935  -8.902  -7.314  1.00  0.00     0.037 A 
BRANCH  30  44
ATOM     44  C   UNL     1       8.293  -2.884  -8.576  1.00  0.00     0.057 A 
ATOM     45  C   UNL     1       9.362  -2.027  -8.287  1.00  0.00     0.134 A 
ATOM     46  C   UNL     1       7.724  -2.798  -9.854  1.00  0.00     0.134 A 
ATOM     47  F   UNL     1       9.952  -2.057  -7.082  1.00  0.00    -0.206 F 
ATOM     48  C   UNL     1       9.844  -1.117  -9.232  1.00  0.00     0.040 A 
ATOM     49  C   UNL     1       8.209  -1.906 -10.812  1.00  0.00     0.040 A 
ATOM     50  F   UNL     1       6.706  -3.600 -10.200  1.00  0.00    -0.206 F 
ATOM     51  C   UNL     1       9.273  -1.062 -10.502  1.00  0.00     0.006 A 
ENDBRANCH  30  44
BRANCH  31  52
ATOM     52  C   UNL     1       4.712  -9.729  -2.264  1.00  0.00     0.057 A 
ATOM     53  C   UNL     1       5.512 -10.560  -1.471  1.00  0.00     0.134 A 
ATOM     54  C   UNL     1       3.325  -9.915  -2.196  1.00  0.00     0.134 A 
ATOM     55  F   UNL     1       6.848 -10.447  -1.509  1.00  0.00    -0.206 F 
ATOM     56  C   UNL     1       4.956 -11.549  -0.657  1.00  0.00     0.040 A 
ATOM     57  C   UNL     1       2.755 -10.879  -1.364  1.00  0.00     0.040 A 
ATOM     58  F   UNL     1       2.503  -9.150  -2.928  1.00  0.00    -0.206 F 
ATOM     59  C   UNL     1       3.573 -11.706  -0.598  1.00  0.00     0.006 A 
ENDBRANCH  31  52
BRANCH  43  60
ATOM     60  C   UNL     1       8.432 -10.057  -8.130  1.00  0.00     0.057 A 
ATOM     61  C   UNL     1       7.559 -10.835  -8.901  1.00  0.00     0.134 A 
ATOM     62  C   UNL     1       9.794 -10.378  -8.168  1.00  0.00     0.134 A 
ATOM     63  F   UNL     1       6.240 -10.589  -8.892  1.00  0.00    -0.206 F 
ATOM     64  C   UNL     1       8.023 -11.904  -9.670  1.00  0.00     0.040 A 
ATOM     65  C   UNL     1      10.273 -11.429  -8.951  1.00  0.00     0.040 A 
ATOM     66  F   UNL     1      10.681  -9.669  -7.455  1.00  0.00    -0.206 F 
ATOM     67  C   UNL     1       9.385 -12.198  -9.702  1.00  0.00     0.006 A 
ENDBRANCH  43  60
ENDBRANCH  17  18
ENDBRANCH  10  12
ENDBRANCH   7   8
ENDBRANCH   6   7
ENDBRANCH   5   6
ENDBRANCH   1   5
BRANCH   2  68
ATOM     68  C   UNL     1       6.546   6.113   3.050  1.00  0.00     0.048 A 
ATOM     69  C   UNL     1       7.822   6.321   3.700  1.00  0.00     0.014 A 
ATOM     70  C   UNL     1       6.341   7.117   2.036  1.00  0.00     0.007 A 
ATOM     71  C   UNL     1       8.728   7.383   3.493  1.00  0.00     0.001 A 
ATOM     72  C   UNL     1       7.253   8.233   1.891  1.00  0.00     0.010 A 
ATOM     73  C   UNL     1       8.425   8.372   2.601  1.00  0.00     0.001 A 
BRANCH  70  74
ATOM     74  C   UNL     1       5.555   7.315   0.779  1.00  0.00     0.142 C 
ATOM     75  N   UNL     1       4.347   7.724   0.511  1.00  0.00    -0.181 NA
BRANCH  75  76
ATOM     76  N   UNL     1       3.441   7.606   1.479  1.00  0.00    -0.254 N 
ATOM     77  H   UNL     1       2.875   8.381   1.701  1.00  0.00     0.193 HD
BRANCH  76  78
ATOM     78  C   UNL     1       3.276   6.456   2.164  1.00  0.00     0.187 C 
ATOM     79  S   UNL     1       2.415   6.497   3.596  1.00  0.00    -0.039 S 
BRANCH  78  80
ATOM     80  N   UNL     1       3.886   5.316   1.731  1.00  0.00    -0.357 N 
ATOM     81  H   UNL     1       4.036   4.672   2.461  1.00  0.00     0.163 HD
BRANCH  80  82
ATOM     82  C   UNL     1       4.380   4.809   0.423  1.00  0.00     0.151 C 
BRANCH  82  83
ATOM     83  C   UNL     1       5.849   4.299   0.321  1.00  0.00    -0.029 A 
ATOM     84  C   UNL     1       6.484   3.346   1.149  1.00  0.00     0.005 A 
ATOM     85  C   UNL     1       6.634   4.747  -0.750  1.00  0.00     0.005 A 
ATOM     86  C   UNL     1       7.791   2.878   0.952  1.00  0.00     0.000 A 
ATOM     87  C   UNL     1       7.960   4.318  -0.938  1.00  0.00     0.000 A 
ATOM     88  C   UNL     1       8.537   3.376  -0.094  1.00  0.00     0.000 A 
ENDBRANCH  82  83
ENDBRANCH  80  82
ENDBRANCH  78  80
ENDBRANCH  76  78
ENDBRANCH  75  76
ENDBRANCH  70  74
ENDBRANCH   2  68
TORSDOF 16
