REMARK SMILES O=C(NCCCNC(=O)c1cn(C2C[NH+](CCC[C@@H]3CCCO3)C2)nn1)c1ccc(-c2c3nc(c(-c4c(F)cccc4F)c4ccc([nH]4)c(-c4c(F)cccc4F)c4nc(c(-c5c(F)cccc5F)c5ccc2[nH]5)C=C4)C=C3)cc1
REMARK SMILES IDX 7 1 8 2 9 3 6 5 5 6 4 7 3 8 1 9 2 10 27 12 28 13 80 14 29 15
REMARK SMILES IDX 79 16 30 17 31 18 32 19 73 20 33 21 78 22 72 23 74 24 34 25
REMARK SMILES IDX 77 26 71 27 70 28 35 30 61 31 44 32 60 33 45 34 48 35 59 36
REMARK SMILES IDX 75 37 46 38 47 39 58 41 76 42 49 43 36 44 37 45 42 46 38 47
REMARK SMILES IDX 39 48 41 49 43 50 40 51 62 52 63 53 68 54 64 55 65 56 67 57
REMARK SMILES IDX 69 58 66 59 50 60 51 61 56 62 52 63 53 64 55 65 57 66 54 67
REMARK SMILES IDX 10 68 11 69 26 70 12 71 25 72 13 73 14 74 24 75 15 76 16 78
REMARK SMILES IDX 17 79 18 80 19 81 20 82 23 83 21 84 22 85
REMARK H PARENT 7 4 3 11 74 29 48 40 15 77
REMARK Flexibility Score: inf
ROOT
ATOM      1  N   UNL     1       4.902  -1.818   3.494  1.00  0.00    -0.351 N 
ATOM      2  C   UNL     1       5.673  -2.374   4.483  1.00  0.00     0.273 C 
ATOM      3  O   UNL     1       6.178  -3.484   4.274  1.00  0.00    -0.267 OA
ATOM      4  H   UNL     1       4.669  -2.429   2.757  1.00  0.00     0.163 HD
ENDROOT
BRANCH   1   5
ATOM      5  C   UNL     1       4.375  -0.468   3.361  1.00  0.00     0.118 C 
BRANCH   5   6
ATOM      6  C   UNL     1       4.895   0.250   2.113  1.00  0.00     0.042 C 
BRANCH   6   7
ATOM      7  C   UNL     1       4.566  -0.443   0.793  1.00  0.00     0.118 C 
BRANCH   7   8
ATOM      8  N   UNL     1       3.153  -0.657   0.557  1.00  0.00    -0.352 N 
ATOM      9  O   UNL     1       1.089  -0.533  -0.198  1.00  0.00    -0.269 OA
ATOM     10  C   UNL     1       2.140   0.079   0.011  1.00  0.00     0.251 C 
ATOM     11  H   UNL     1       2.852  -1.542   0.863  1.00  0.00     0.163 HD
BRANCH  10  12
ATOM     12  C   UNL     1       2.178   1.541  -0.267  1.00  0.00     0.039 A 
ATOM     13  C   UNL     1       3.313   2.350  -0.303  1.00  0.00     0.014 A 
ATOM     14  C   UNL     1       0.921   2.141  -0.488  1.00  0.00     0.014 A 
ATOM     15  C   UNL     1       3.185   3.731  -0.475  1.00  0.00     0.010 A 
ATOM     16  C   UNL     1       0.787   3.514  -0.658  1.00  0.00     0.010 A 
ATOM     17  C   UNL     1       1.919   4.316  -0.621  1.00  0.00    -0.014 A 
BRANCH  17  18
ATOM     18  C   UNL     1       1.829   5.739  -0.950  1.00  0.00     0.031 A 
ATOM     19  C   UNL     1       2.366   6.067  -2.302  1.00  0.00     0.074 A 
ATOM     20  C   UNL     1       1.193   6.673  -0.209  1.00  0.00     0.049 A 
ATOM     21  N   UNL     1       3.413   6.769  -2.585  1.00  0.00    -0.248 NA
ATOM     22  C   UNL     1       1.742   5.430  -3.474  1.00  0.00     0.031 C 
ATOM     23  C   UNL     1       0.363   6.471   0.979  1.00  0.00     0.029 A 
ATOM     24  N   UNL     1       1.092   8.021  -0.420  1.00  0.00    -0.354 N 
ATOM     25  C   UNL     1       3.474   6.829  -3.976  1.00  0.00     0.074 A 
ATOM     26  C   UNL     1       2.526   5.862  -4.464  1.00  0.00     0.031 C 
ATOM     27  C   UNL     1      -0.320   7.609   1.252  1.00  0.00     0.029 A 
ATOM     28  C   UNL     1       0.119   8.659   0.347  1.00  0.00     0.049 A 
ATOM     29  H   UNL     1       1.662   8.502  -1.063  1.00  0.00     0.167 HD
ATOM     30  C   UNL     1       4.137   7.835  -4.609  1.00  0.00     0.037 A 
ATOM     31  C   UNL     1      -0.312   9.944   0.223  1.00  0.00     0.037 A 
ATOM     32  C   UNL     1       5.023   8.521  -3.705  1.00  0.00     0.049 A 
ATOM     33  C   UNL     1       0.723  10.695  -0.524  1.00  0.00     0.074 A 
ATOM     34  C   UNL     1       6.119   8.165  -2.946  1.00  0.00     0.029 A 
ATOM     35  N   UNL     1       4.598   9.727  -3.208  1.00  0.00    -0.354 N 
ATOM     36  N   UNL     1       1.896  10.991  -0.043  1.00  0.00    -0.248 NA
ATOM     37  C   UNL     1       0.607  10.744  -1.972  1.00  0.00     0.031 C 
ATOM     38  C   UNL     1       5.995   8.921  -1.744  1.00  0.00     0.029 A 
ATOM     39  C   UNL     1       4.874   9.743  -1.869  1.00  0.00     0.049 A 
ATOM     40  H   UNL     1       4.171  10.450  -3.723  1.00  0.00     0.167 HD
ATOM     41  C   UNL     1       2.761  10.802  -1.108  1.00  0.00     0.074 A 
ATOM     42  C   UNL     1       1.903  10.747  -2.291  1.00  0.00     0.031 C 
ATOM     43  C   UNL     1       4.054  10.422  -0.896  1.00  0.00     0.037 A 
BRANCH  30  44
ATOM     44  C   UNL     1       3.702   8.465  -5.912  1.00  0.00     0.057 A 
ATOM     45  C   UNL     1       4.529   9.435  -6.511  1.00  0.00     0.134 A 
ATOM     46  C   UNL     1       2.390   8.404  -6.421  1.00  0.00     0.134 A 
ATOM     47  F   UNL     1       5.799   9.601  -6.109  1.00  0.00    -0.206 F 
ATOM     48  C   UNL     1       4.057  10.336  -7.474  1.00  0.00     0.040 A 
ATOM     49  C   UNL     1       1.924   9.265  -7.419  1.00  0.00     0.040 A 
ATOM     50  F   UNL     1       1.459   7.588  -5.914  1.00  0.00    -0.206 F 
ATOM     51  C   UNL     1       2.746  10.259  -7.923  1.00  0.00     0.006 A 
ENDBRANCH  30  44
BRANCH  31  52
ATOM     52  C   UNL     1      -1.657  10.532   0.449  1.00  0.00     0.057 A 
ATOM     53  C   UNL     1      -1.843  11.923   0.533  1.00  0.00     0.134 A 
ATOM     54  C   UNL     1      -2.823   9.770   0.274  1.00  0.00     0.134 A 
ATOM     55  F   UNL     1      -0.791  12.746   0.660  1.00  0.00    -0.206 F 
ATOM     56  C   UNL     1      -3.106  12.521   0.413  1.00  0.00     0.040 A 
ATOM     57  C   UNL     1      -4.091  10.353   0.157  1.00  0.00     0.040 A 
ATOM     58  F   UNL     1      -2.760   8.441   0.112  1.00  0.00    -0.206 F 
ATOM     59  C   UNL     1      -4.235  11.735   0.210  1.00  0.00     0.006 A 
ENDBRANCH  31  52
BRANCH  43  60
ATOM     60  C   UNL     1       4.593  10.508   0.504  1.00  0.00     0.057 A 
ATOM     61  C   UNL     1       4.100   9.776   1.596  1.00  0.00     0.134 A 
ATOM     62  C   UNL     1       5.751  11.263   0.720  1.00  0.00     0.134 A 
ATOM     63  F   UNL     1       3.053   8.950   1.466  1.00  0.00    -0.206 F 
ATOM     64  C   UNL     1       4.712   9.829   2.853  1.00  0.00     0.040 A 
ATOM     65  C   UNL     1       6.392  11.295   1.959  1.00  0.00     0.040 A 
ATOM     66  F   UNL     1       6.308  11.949  -0.291  1.00  0.00    -0.206 F 
ATOM     67  C   UNL     1       5.866  10.585   3.034  1.00  0.00     0.006 A 
ENDBRANCH  43  60
ENDBRANCH  17  18
ENDBRANCH  10  12
ENDBRANCH   7   8
ENDBRANCH   6   7
ENDBRANCH   5   6
ENDBRANCH   1   5
BRANCH   2  68
ATOM     68  C   UNL     1       5.868  -1.659   5.726  1.00  0.00     0.170 A 
ATOM     69  C   UNL     1       4.928  -1.002   6.499  1.00  0.00     0.145 A 
ATOM     70  N   UNL     1       7.089  -1.572   6.345  1.00  0.00    -0.125 NA
ATOM     71  N   UNL     1       5.662  -0.449   7.505  1.00  0.00    -0.237 N 
ATOM     72  N   UNL     1       6.954  -0.817   7.424  1.00  0.00    -0.066 NA
BRANCH  71  73
ATOM     73  C   UNL     1       5.263   0.544   8.446  1.00  0.00     0.218 C 
ATOM     74  C   UNL     1       4.447   1.698   7.798  1.00  0.00     0.295 C 
ATOM     75  C   UNL     1       3.970   0.286   9.244  1.00  0.00     0.295 C 
ATOM     76  N   UNL     1       3.537   1.668   8.947  1.00  0.00    -0.331 N 
ATOM     77  H   UNL     1       2.545   1.879   8.840  1.00  0.00     0.348 HD
BRANCH  76  78
ATOM     78  C   UNL     1       3.867   2.659   9.987  1.00  0.00     0.262 C 
BRANCH  78  79
ATOM     79  C   UNL     1       5.269   2.802  10.618  1.00  0.00     0.064 C 
BRANCH  79  80
ATOM     80  C   UNL     1       6.420   3.409   9.797  1.00  0.00     0.038 C 
BRANCH  80  81
ATOM     81  C   UNL     1       6.170   4.784   9.175  1.00  0.00     0.118 C 
ATOM     82  C   UNL     1       7.436   5.633   9.109  1.00  0.00     0.034 C 
ATOM     83  O   UNL     1       5.205   5.525   9.932  1.00  0.00    -0.378 OA
ATOM     84  C   UNL     1       6.899   7.031   9.284  1.00  0.00     0.031 C 
ATOM     85  C   UNL     1       5.749   6.810  10.238  1.00  0.00     0.160 C 
ENDBRANCH  80  81
ENDBRANCH  79  80
ENDBRANCH  78  79
ENDBRANCH  76  78
ENDBRANCH  71  73
ENDBRANCH   2  68
TORSDOF 15
