REMARK SMILES Cc1ccccc1C(=O)Nc1cc(C(=O)NCCCNC(=O)c2ccc(-c3c4nc(c(-c5c(F)cccc5F)c5ccc([nH]5)c(-c5c(F)cccc5F)c5nc(c(-c6c(F)cccc6F)c6ccc3[nH]6)C=C5)C=C4)cc2)ccc1N1CC[NH+](CC(=O)Nc2ccc(F)cc2)CC1
REMARK SMILES IDX 17 1 16 2 14 3 15 4 13 6 11 7 12 8 79 9 78 10 77 11 10 12
REMARK SMILES IDX 8 13 9 14 7 16 1 17 2 18 3 19 4 20 6 21 5 22 80 23 81 24
REMARK SMILES IDX 96 25 82 26 95 27 83 28 84 30 85 31 86 32 87 33 88 35 89 36
REMARK SMILES IDX 94 37 90 38 93 39 91 40 92 41 18 42 19 43 20 44 21 45 22 47
REMARK SMILES IDX 23 48 24 49 76 50 25 51 75 52 26 53 27 54 28 55 69 56 29 57
REMARK SMILES IDX 74 58 68 59 70 60 30 61 73 62 67 63 66 64 31 66 57 67 40 68
REMARK SMILES IDX 56 69 41 70 44 71 55 72 71 73 42 74 43 75 54 77 72 78 45 79
REMARK SMILES IDX 32 80 33 81 38 82 34 83 35 84 37 85 39 86 36 87 58 88 59 89
REMARK SMILES IDX 64 90 60 91 61 92 63 93 65 94 62 95 46 96 47 97 52 98 48 99
REMARK SMILES IDX 49 100 51 101 53 102 50 103
REMARK H PARENT 16 5 10 15 83 29 87 34 20 46 70 65 44 76
REMARK Flexibility Score: inf
ROOT
ATOM      1  C   UNL     1       1.067  -1.223  -2.955  1.00  0.00     0.118 C 
ENDROOT
BRANCH   1   2
ATOM      2  N   UNL     1       2.308  -1.995  -3.048  1.00  0.00    -0.352 N 
ATOM      3  C   UNL     1       3.536  -1.919  -2.416  1.00  0.00     0.251 C 
ATOM      4  O   UNL     1       4.318  -2.853  -2.600  1.00  0.00    -0.269 OA
ATOM      5  H   UNL     1       2.258  -2.727  -3.704  1.00  0.00     0.163 HD
BRANCH   3   6
ATOM      6  C   UNL     1       3.980  -0.790  -1.544  1.00  0.00     0.042 A 
ATOM      7  C   UNL     1       3.617   1.381  -0.517  1.00  0.00     0.065 A 
ATOM      8  C   UNL     1       3.209   0.329  -1.324  1.00  0.00     0.042 A 
ATOM      9  C   UNL     1       4.881   1.391   0.123  1.00  0.00     0.061 A 
ATOM     10  C   UNL     1       5.678   0.258  -0.113  1.00  0.00     0.029 A 
ATOM     11  C   UNL     1       5.233  -0.819  -0.918  1.00  0.00     0.016 A 
BRANCH   7  12
ATOM     12  N   UNL     1       2.726   2.457  -0.395  1.00  0.00    -0.320 N 
ATOM     13  C   UNL     1       1.389   2.481  -0.045  1.00  0.00     0.255 C 
ATOM     14  O   UNL     1       0.876   3.589   0.141  1.00  0.00    -0.269 OA
ATOM     15  H   UNL     1       3.117   3.340  -0.591  1.00  0.00     0.170 HD
BRANCH  13  16
ATOM     16  C   UNL     1       0.517   1.274   0.124  1.00  0.00     0.043 A 
ATOM     17  C   UNL     1       2.015  -0.187   1.663  1.00  0.00     0.045 C 
ATOM     18  C   UNL     1       0.789   0.086   0.837  1.00  0.00    -0.038 A 
ATOM     19  C   UNL     1      -0.166  -0.956   0.811  1.00  0.00     0.004 A 
ATOM     20  C   UNL     1      -1.400  -0.800   0.183  1.00  0.00     0.000 A 
ATOM     21  C   UNL     1      -0.755   1.422  -0.470  1.00  0.00     0.014 A 
ATOM     22  C   UNL     1      -1.706   0.402  -0.438  1.00  0.00     0.001 A 
ENDBRANCH  13  16
ENDBRANCH   7  12
BRANCH   9  23
ATOM     23  N   UNL     1       5.277   2.413   0.976  1.00  0.00    -0.359 N 
ATOM     24  C   UNL     1       6.649   2.580   1.531  1.00  0.00     0.178 C 
ATOM     25  C   UNL     1       4.291   3.056   1.840  1.00  0.00     0.178 C 
ATOM     26  C   UNL     1       6.894   4.020   2.160  1.00  0.00     0.284 C 
ATOM     27  C   UNL     1       4.589   4.554   1.808  1.00  0.00     0.284 C 
ATOM     28  N   UNL     1       5.749   4.836   2.640  1.00  0.00    -0.324 N 
ATOM     29  H   UNL     1       6.058   5.802   2.530  1.00  0.00     0.348 HD
BRANCH  28  30
ATOM     30  C   UNL     1       5.441   4.854   4.091  1.00  0.00     0.364 C 
BRANCH  30  31
ATOM     31  C   UNL     1       5.253   3.516   4.805  1.00  0.00     0.279 C 
ATOM     32  O   UNL     1       6.240   2.792   5.006  1.00  0.00    -0.268 OA
ATOM     33  N   UNL     1       4.066   3.045   5.303  1.00  0.00    -0.321 N 
ATOM     34  H   UNL     1       4.222   2.350   5.982  1.00  0.00     0.170 HD
BRANCH  33  35
ATOM     35  C   UNL     1       2.683   3.272   5.121  1.00  0.00     0.041 A 
ATOM     36  C   UNL     1       1.819   2.461   5.880  1.00  0.00     0.029 A 
ATOM     37  C   UNL     1       2.101   4.125   4.189  1.00  0.00     0.029 A 
ATOM     38  C   UNL     1       0.434   2.461   5.668  1.00  0.00     0.041 A 
ATOM     39  C   UNL     1       0.721   4.086   3.925  1.00  0.00     0.041 A 
ATOM     40  C   UNL     1      -0.101   3.253   4.667  1.00  0.00     0.123 A 
ATOM     41  F   UNL     1      -1.417   3.220   4.421  1.00  0.00    -0.207 F 
ENDBRANCH  33  35
ENDBRANCH  30  31
ENDBRANCH  28  30
ENDBRANCH   9  23
ENDBRANCH   3   6
ENDBRANCH   1   2
BRANCH   1  42
ATOM     42  C   UNL     1       1.097   0.114  -3.714  1.00  0.00     0.042 C 
BRANCH  42  43
ATOM     43  C   UNL     1       0.411   0.079  -5.061  1.00  0.00     0.118 C 
BRANCH  43  44
ATOM     44  N   UNL     1      -0.806   0.886  -5.154  1.00  0.00    -0.352 N 
ATOM     45  C   UNL     1      -1.687   0.948  -6.229  1.00  0.00     0.251 C 
ATOM     46  H   UNL     1      -1.024   1.445  -4.373  1.00  0.00     0.163 HD
ATOM     47  O   UNL     1      -2.700   1.616  -6.193  1.00  0.00    -0.269 OA
BRANCH  45  48
ATOM     48  C   UNL     1      -1.401   0.046  -7.373  1.00  0.00     0.039 A 
ATOM     49  C   UNL     1      -2.266  -1.038  -7.529  1.00  0.00     0.014 A 
ATOM     50  C   UNL     1      -0.111   0.025  -7.898  1.00  0.00     0.014 A 
ATOM     51  C   UNL     1      -1.737  -2.257  -7.935  1.00  0.00     0.010 A 
ATOM     52  C   UNL     1       0.436  -1.208  -8.204  1.00  0.00     0.010 A 
ATOM     53  C   UNL     1      -0.359  -2.360  -8.136  1.00  0.00    -0.014 A 
BRANCH  53  54
ATOM     54  C   UNL     1       0.322  -3.651  -8.182  1.00  0.00     0.031 A 
ATOM     55  C   UNL     1       0.782  -4.183  -9.476  1.00  0.00     0.074 A 
ATOM     56  C   UNL     1       0.513  -4.393  -7.067  1.00  0.00     0.049 A 
ATOM     57  N   UNL     1       0.862  -5.439  -9.760  1.00  0.00    -0.248 NA
ATOM     58  C   UNL     1       1.136  -3.311 -10.584  1.00  0.00     0.031 C 
ATOM     59  C   UNL     1       1.299  -5.619  -6.947  1.00  0.00     0.029 A 
ATOM     60  N   UNL     1      -0.180  -4.306  -5.855  1.00  0.00    -0.354 N 
ATOM     61  C   UNL     1       1.537  -5.551 -10.953  1.00  0.00     0.074 A 
ATOM     62  C   UNL     1       1.605  -4.199 -11.461  1.00  0.00     0.031 C 
ATOM     63  C   UNL     1       0.834  -6.329  -5.908  1.00  0.00     0.029 A 
ATOM     64  C   UNL     1      -0.325  -5.633  -5.385  1.00  0.00     0.049 A 
ATOM     65  H   UNL     1      -0.502  -3.485  -5.416  1.00  0.00     0.167 HD
ATOM     66  C   UNL     1       2.082  -6.753 -11.303  1.00  0.00     0.037 A 
ATOM     67  C   UNL     1      -1.563  -6.172  -5.191  1.00  0.00     0.037 A 
ATOM     68  C   UNL     1       1.729  -7.810 -10.347  1.00  0.00     0.049 A 
ATOM     69  C   UNL     1      -1.880  -7.348  -6.092  1.00  0.00     0.074 A 
ATOM     70  C   UNL     1       2.400  -8.454  -9.319  1.00  0.00     0.029 A 
ATOM     71  N   UNL     1       0.398  -8.166 -10.200  1.00  0.00    -0.354 N 
ATOM     72  N   UNL     1      -1.053  -7.871  -6.954  1.00  0.00    -0.248 NA
ATOM     73  C   UNL     1      -3.212  -7.954  -6.163  1.00  0.00     0.031 C 
ATOM     74  C   UNL     1       1.455  -9.206  -8.562  1.00  0.00     0.029 A 
ATOM     75  C   UNL     1       0.207  -9.015  -9.125  1.00  0.00     0.049 A 
ATOM     76  H   UNL     1      -0.326  -7.852 -10.790  1.00  0.00     0.167 HD
ATOM     77  C   UNL     1      -1.722  -8.787  -7.727  1.00  0.00     0.074 A 
ATOM     78  C   UNL     1      -3.069  -8.805  -7.191  1.00  0.00     0.031 C 
ATOM     79  C   UNL     1      -1.145  -9.429  -8.786  1.00  0.00     0.037 A 
BRANCH  66  80
ATOM     80  C   UNL     1       3.170  -6.892 -12.352  1.00  0.00     0.057 A 
ATOM     81  C   UNL     1       4.121  -7.927 -12.276  1.00  0.00     0.134 A 
ATOM     82  C   UNL     1       3.387  -6.001 -13.418  1.00  0.00     0.134 A 
ATOM     83  F   UNL     1       3.983  -8.952 -11.425  1.00  0.00    -0.206 F 
ATOM     84  C   UNL     1       5.269  -7.973 -13.081  1.00  0.00     0.040 A 
ATOM     85  C   UNL     1       4.560  -5.994 -14.188  1.00  0.00     0.040 A 
ATOM     86  F   UNL     1       2.443  -5.144 -13.822  1.00  0.00    -0.206 F 
ATOM     87  C   UNL     1       5.520  -6.973 -14.006  1.00  0.00     0.006 A 
ENDBRANCH  66  80
BRANCH  67  88
ATOM     88  C   UNL     1      -2.542  -5.160  -4.713  1.00  0.00     0.057 A 
ATOM     89  C   UNL     1      -2.296  -4.530  -3.478  1.00  0.00     0.134 A 
ATOM     90  C   UNL     1      -3.431  -4.530  -5.585  1.00  0.00     0.134 A 
ATOM     91  F   UNL     1      -1.458  -5.088  -2.589  1.00  0.00    -0.206 F 
ATOM     92  C   UNL     1      -2.787  -3.255  -3.193  1.00  0.00     0.040 A 
ATOM     93  C   UNL     1      -3.950  -3.265  -5.296  1.00  0.00     0.040 A 
ATOM     94  F   UNL     1      -3.709  -5.062  -6.784  1.00  0.00    -0.206 F 
ATOM     95  C   UNL     1      -3.586  -2.602  -4.125  1.00  0.00     0.006 A 
ENDBRANCH  67  88
BRANCH  79  96
ATOM     96  C   UNL     1      -1.844 -10.491  -9.597  1.00  0.00     0.057 A 
ATOM     97  C   UNL     1      -2.665 -11.471  -9.018  1.00  0.00     0.134 A 
ATOM     98  C   UNL     1      -1.624 -10.634 -10.981  1.00  0.00     0.134 A 
ATOM     99  F   UNL     1      -2.871 -11.510  -7.693  1.00  0.00    -0.206 F 
ATOM    100  C   UNL     1      -3.287 -12.474  -9.774  1.00  0.00     0.040 A 
ATOM    101  C   UNL     1      -2.197 -11.661 -11.738  1.00  0.00     0.040 A 
ATOM    102  F   UNL     1      -0.856  -9.776 -11.667  1.00  0.00    -0.206 F 
ATOM    103  C   UNL     1      -3.049 -12.575 -11.138  1.00  0.00     0.006 A 
ENDBRANCH  79  96
ENDBRANCH  53  54
ENDBRANCH  45  48
ENDBRANCH  43  44
ENDBRANCH  42  43
ENDBRANCH   1  42
TORSDOF 16
