REMARK SMILES CCc1cccc2c3c([nH]c12)[C@](CC)(CC(=O)NCCCNC(=O)c1ccc(-c2c4nc(c(-c5c(F)cccc5F)c5ccc([nH]5)c(-c5c(F)cccc5F)c5nc(c(-c6c(F)cccc6F)c6ccc2[nH]6)C=C5)C=C4)cc1)OCC3
REMARK SMILES IDX 20 1 19 2 18 3 16 4 17 5 15 7 12 8 3 9 4 10 11 11 5 12 7 13
REMARK SMILES IDX 10 14 6 15 8 16 9 17 81 19 80 20 79 21 2 22 1 23 13 24 14 25
REMARK SMILES IDX 21 26 22 27 23 28 24 30 25 31 26 32 78 33 27 34 77 35 28 36
REMARK SMILES IDX 29 37 30 38 71 39 31 40 76 41 70 42 72 43 32 44 75 45 69 46
REMARK SMILES IDX 68 47 33 49 59 50 42 51 58 52 43 53 46 54 57 55 73 56 44 57
REMARK SMILES IDX 45 58 56 60 74 61 47 62 34 63 35 64 40 65 36 66 37 67 39 68
REMARK SMILES IDX 41 69 38 70 60 71 61 72 66 73 62 74 63 75 65 76 67 77 64 78
REMARK SMILES IDX 48 79 49 80 54 81 50 82 51 83 53 84 55 85 52 86
REMARK H PARENT 18 6 10 18 22 29 72 48 46 59
REMARK Flexibility Score: inf
ROOT
ATOM      1  C   UNL     1       2.419  -7.990   7.355  1.00  0.00     0.042 C 
ENDROOT
BRANCH   1   2
ATOM      2  C   UNL     1       1.099  -8.291   6.614  1.00  0.00     0.117 C 
BRANCH   2   3
ATOM      3  N   UNL     1       0.153  -7.178   6.574  1.00  0.00    -0.356 N 
ATOM      4  C   UNL     1      -0.188  -6.278   5.602  1.00  0.00     0.223 C 
ATOM      5  O   UNL     1      -0.906  -5.334   5.935  1.00  0.00    -0.275 OA
ATOM      6  H   UNL     1      -0.338  -7.050   7.417  1.00  0.00     0.163 HD
BRANCH   4   7
ATOM      7  C   UNL     1       0.225  -6.486   4.162  1.00  0.00     0.142 C 
BRANCH   7   8
ATOM      8  C   UNL     1       1.449  -5.737   3.579  1.00  0.00     0.117 C 
ATOM      9  C   UNL     1       0.810  -0.972   1.898  1.00  0.00    -0.024 A 
ATOM     10  C   UNL     1       1.066   0.275   2.515  1.00  0.00     0.006 A 
ATOM     11  C   UNL     1       1.022  -2.112   2.709  1.00  0.00     0.049 A 
ATOM     12  C   UNL     1       1.564   0.385   3.810  1.00  0.00     0.001 A 
ATOM     13  C   UNL     1       1.571  -2.017   3.987  1.00  0.00     0.003 A 
ATOM     14  N   UNL     1       0.805  -3.465   2.472  1.00  0.00    -0.356 N 
ATOM     15  C   UNL     1       1.844  -0.758   4.547  1.00  0.00     0.010 A 
ATOM     16  C   UNL     1       1.843  -3.334   4.411  1.00  0.00    -0.014 A 
ATOM     17  C   UNL     1       1.312  -4.226   3.504  1.00  0.00     0.052 A 
ATOM     18  H   UNL     1       0.352  -3.830   1.678  1.00  0.00     0.166 HD
ATOM     19  C   UNL     1       2.681  -3.758   5.540  1.00  0.00     0.066 C 
ATOM     20  C   UNL     1       2.826  -5.272   5.556  1.00  0.00     0.166 C 
ATOM     21  O   UNL     1       2.671  -5.982   4.320  1.00  0.00    -0.368 OA
BRANCH   9  22
ATOM     22  C   UNL     1       0.348  -1.048   0.462  1.00  0.00     0.034 C 
ATOM     23  C   UNL     1       0.942   0.018  -0.457  1.00  0.00     0.009 C 
ENDBRANCH   9  22
BRANCH   8  24
ATOM     24  C   UNL     1       1.736  -6.312   2.154  1.00  0.00     0.039 C 
ATOM     25  C   UNL     1       1.939  -7.828   2.094  1.00  0.00     0.007 C 
ENDBRANCH   8  24
ENDBRANCH   7   8
ENDBRANCH   4   7
ENDBRANCH   2   3
ENDBRANCH   1   2
BRANCH   1  26
ATOM     26  C   UNL     1       2.360  -6.876   8.407  1.00  0.00     0.118 C 
BRANCH  26  27
ATOM     27  N   UNL     1       2.130  -7.305   9.765  1.00  0.00    -0.352 N 
ATOM     28  C   UNL     1       2.971  -7.667  10.778  1.00  0.00     0.251 C 
ATOM     29  H   UNL     1       1.177  -7.343  10.011  1.00  0.00     0.163 HD
ATOM     30  O   UNL     1       2.475  -7.865  11.890  1.00  0.00    -0.269 OA
BRANCH  28  31
ATOM     31  C   UNL     1       4.412  -7.945  10.579  1.00  0.00     0.039 A 
ATOM     32  C   UNL     1       5.241  -7.300   9.658  1.00  0.00     0.014 A 
ATOM     33  C   UNL     1       4.949  -8.957  11.387  1.00  0.00     0.014 A 
ATOM     34  C   UNL     1       6.515  -7.792   9.404  1.00  0.00     0.010 A 
ATOM     35  C   UNL     1       6.246  -9.402  11.189  1.00  0.00     0.010 A 
ATOM     36  C   UNL     1       6.995  -8.880  10.135  1.00  0.00    -0.014 A 
BRANCH  36  37
ATOM     37  C   UNL     1       8.300  -9.431   9.780  1.00  0.00     0.031 A 
ATOM     38  C   UNL     1       9.465  -8.501   9.879  1.00  0.00     0.074 A 
ATOM     39  C   UNL     1       8.459 -10.739   9.491  1.00  0.00     0.049 A 
ATOM     40  N   UNL     1      10.336  -8.186   8.974  1.00  0.00    -0.248 NA
ATOM     41  C   UNL     1       9.636  -7.774  11.148  1.00  0.00     0.031 C 
ATOM     42  C   UNL     1       7.470 -11.817   9.619  1.00  0.00     0.029 A 
ATOM     43  N   UNL     1       9.587 -11.403   9.113  1.00  0.00    -0.354 N 
ATOM     44  C   UNL     1      11.258  -7.343   9.598  1.00  0.00     0.074 A 
ATOM     45  C   UNL     1      10.723  -7.043  10.900  1.00  0.00     0.031 C 
ATOM     46  C   UNL     1       8.096 -13.011   9.550  1.00  0.00     0.029 A 
ATOM     47  C   UNL     1       9.490 -12.782   9.216  1.00  0.00     0.049 A 
ATOM     48  H   UNL     1      10.398 -10.945   8.796  1.00  0.00     0.167 HD
ATOM     49  C   UNL     1      12.488  -7.085   9.072  1.00  0.00     0.037 A 
ATOM     50  C   UNL     1      10.492 -13.681   9.090  1.00  0.00     0.037 A 
ATOM     51  C   UNL     1      12.547  -7.401   7.673  1.00  0.00     0.049 A 
ATOM     52  C   UNL     1      11.610 -13.026   8.381  1.00  0.00     0.074 A 
ATOM     53  C   UNL     1      12.007  -6.881   6.516  1.00  0.00     0.029 A 
ATOM     54  N   UNL     1      13.071  -8.620   7.336  1.00  0.00    -0.354 N 
ATOM     55  N   UNL     1      11.571 -12.666   7.130  1.00  0.00    -0.248 NA
ATOM     56  C   UNL     1      12.669 -12.417   9.171  1.00  0.00     0.031 C 
ATOM     57  C   UNL     1      11.859  -7.994   5.637  1.00  0.00     0.029 A 
ATOM     58  C   UNL     1      12.333  -9.127   6.300  1.00  0.00     0.049 A 
ATOM     59  H   UNL     1      13.843  -9.056   7.763  1.00  0.00     0.167 HD
ATOM     60  C   UNL     1      12.315 -11.498   7.073  1.00  0.00     0.074 A 
ATOM     61  C   UNL     1      13.077 -11.476   8.316  1.00  0.00     0.031 C 
ATOM     62  C   UNL     1      12.032 -10.533   6.150  1.00  0.00     0.037 A 
BRANCH  49  63
ATOM     63  C   UNL     1      13.745  -6.873   9.886  1.00  0.00     0.057 A 
ATOM     64  C   UNL     1      13.912  -7.346  11.203  1.00  0.00     0.134 A 
ATOM     65  C   UNL     1      14.931  -6.467   9.244  1.00  0.00     0.134 A 
ATOM     66  F   UNL     1      12.894  -7.843  11.916  1.00  0.00    -0.206 F 
ATOM     67  C   UNL     1      15.161  -7.430  11.826  1.00  0.00     0.040 A 
ATOM     68  C   UNL     1      16.192  -6.592   9.842  1.00  0.00     0.040 A 
ATOM     69  F   UNL     1      14.911  -6.008   7.983  1.00  0.00    -0.206 F 
ATOM     70  C   UNL     1      16.311  -7.084  11.135  1.00  0.00     0.006 A 
ENDBRANCH  49  63
BRANCH  50  71
ATOM     71  C   UNL     1      10.633 -14.964   9.803  1.00  0.00     0.057 A 
ATOM     72  C   UNL     1      10.224 -15.087  11.143  1.00  0.00     0.134 A 
ATOM     73  C   UNL     1      11.384 -16.022   9.282  1.00  0.00     0.134 A 
ATOM     74  F   UNL     1       9.572 -14.089  11.759  1.00  0.00    -0.206 F 
ATOM     75  C   UNL     1      10.542 -16.201  11.923  1.00  0.00     0.040 A 
ATOM     76  C   UNL     1      11.714 -17.144  10.054  1.00  0.00     0.040 A 
ATOM     77  F   UNL     1      11.854 -15.969   8.027  1.00  0.00    -0.206 F 
ATOM     78  C   UNL     1      11.299 -17.232  11.381  1.00  0.00     0.006 A 
ENDBRANCH  50  71
BRANCH  62  79
ATOM     79  C   UNL     1      11.115 -10.916   5.023  1.00  0.00     0.057 A 
ATOM     80  C   UNL     1      11.593 -10.866   3.710  1.00  0.00     0.134 A 
ATOM     81  C   UNL     1       9.757 -11.221   5.194  1.00  0.00     0.134 A 
ATOM     82  F   UNL     1      12.866 -10.519   3.467  1.00  0.00    -0.206 F 
ATOM     83  C   UNL     1      10.764 -11.126   2.616  1.00  0.00     0.040 A 
ATOM     84  C   UNL     1       8.925 -11.517   4.111  1.00  0.00     0.040 A 
ATOM     85  F   UNL     1       9.188 -11.190   6.405  1.00  0.00    -0.206 F 
ATOM     86  C   UNL     1       9.429 -11.467   2.815  1.00  0.00     0.006 A 
ENDBRANCH  62  79
ENDBRANCH  36  37
ENDBRANCH  28  31
ENDBRANCH  26  27
ENDBRANCH   1  26
TORSDOF 13
