REMARK SMILES Cc1ccccc1-c1c(Cl)ccc2c1C=C(C(=O)NCCCNC(=O)c1ccc(-c3c4nc(c(-c5c(F)cccc5F)c5ccc([nH]5)c(-c5c(F)cccc5F)c5nc(c(-c6c(F)cccc6F)c6ccc3[nH]6)C=C5)C=C4)cc1)[C@@H](C(F)(F)F)O2
REMARK SMILES IDX 21 1 20 2 19 3 17 4 18 5 16 7 8 8 9 9 14 10 10 11 11 12
REMARK SMILES IDX 13 13 15 14 12 15 85 16 80 17 7 18 1 19 2 20 3 21 4 22 6 23
REMARK SMILES IDX 5 24 81 25 82 26 83 27 84 28 22 29 23 30 24 31 25 33 26 34
REMARK SMILES IDX 27 35 79 36 28 37 78 38 29 39 30 40 31 41 72 42 32 43 77 44
REMARK SMILES IDX 71 45 73 46 33 47 76 48 70 49 69 50 34 52 60 53 43 54 59 55
REMARK SMILES IDX 44 56 47 57 58 58 74 59 45 60 46 61 57 63 75 64 48 65 35 66
REMARK SMILES IDX 36 67 41 68 37 69 38 70 40 71 42 72 39 73 61 74 62 75 67 76
REMARK SMILES IDX 63 77 64 78 66 79 68 80 65 81 49 82 50 83 55 84 51 85 52 86
REMARK SMILES IDX 54 87 56 88 53 89
REMARK H PARENT 19 6 23 32 73 51 47 62
REMARK Flexibility Score: inf
ROOT
ATOM      1  C   UNL     1       5.201  -1.514  -2.835  1.00  0.00     0.042 C 
ENDROOT
BRANCH   1   2
ATOM      2  C   UNL     1       4.699  -0.609  -1.721  1.00  0.00     0.118 C 
BRANCH   2   3
ATOM      3  N   UNL     1       5.395   0.664  -1.707  1.00  0.00    -0.352 N 
ATOM      4  C   UNL     1       5.028   1.904  -2.126  1.00  0.00     0.251 C 
ATOM      5  O   UNL     1       5.893   2.779  -2.112  1.00  0.00    -0.270 OA
ATOM      6  H   UNL     1       6.301   0.622  -1.323  1.00  0.00     0.163 HD
BRANCH   4   7
ATOM      7  C   UNL     1       3.631   2.212  -2.607  1.00  0.00     0.067 C 
ATOM      8  C   UNL     1       1.151   2.449   0.162  1.00  0.00     0.012 A 
ATOM      9  C   UNL     1       0.861   3.429   1.140  1.00  0.00     0.049 A 
ATOM     10  C   UNL     1       2.058   2.808  -0.869  1.00  0.00     0.027 A 
ATOM     11  Cl  UNL     1      -0.144   3.086   2.511  1.00  0.00    -0.084 Cl
ATOM     12  C   UNL     1       1.379   4.726   1.052  1.00  0.00     0.025 A 
ATOM     13  C   UNL     1       2.510   4.136  -0.985  1.00  0.00     0.128 A 
ATOM     14  C   UNL     1       2.647   1.813  -1.780  1.00  0.00     0.026 C 
ATOM     15  C   UNL     1       2.177   5.087  -0.027  1.00  0.00     0.049 A 
ATOM     16  O   UNL     1       3.303   4.586  -2.010  1.00  0.00    -0.475 OA
ATOM     17  C   UNL     1       3.545   3.655  -3.092  1.00  0.00     0.314 C 
BRANCH   8  18
ATOM     18  C   UNL     1       0.416   1.157   0.143  1.00  0.00    -0.013 A 
ATOM     19  C   UNL     1       2.381  -0.306   0.927  1.00  0.00     0.045 C 
ATOM     20  C   UNL     1       0.970  -0.103   0.454  1.00  0.00    -0.043 A 
ATOM     21  C   UNL     1       0.163  -1.257   0.361  1.00  0.00     0.004 A 
ATOM     22  C   UNL     1      -1.178  -1.177  -0.007  1.00  0.00     0.000 A 
ATOM     23  C   UNL     1      -0.947   1.204  -0.230  1.00  0.00     0.009 A 
ATOM     24  C   UNL     1      -1.738   0.058  -0.293  1.00  0.00     0.001 A 
ENDBRANCH   8  18
BRANCH  17  25
ATOM     25  C   UNL     1       2.505   3.798  -4.217  1.00  0.00     0.429 C 
ATOM     26  F   UNL     1       2.509   5.044  -4.745  1.00  0.00    -0.167 F 
ATOM     27  F   UNL     1       2.775   2.941  -5.237  1.00  0.00    -0.167 F 
ATOM     28  F   UNL     1       1.242   3.536  -3.808  1.00  0.00    -0.167 F 
ENDBRANCH  17  25
ENDBRANCH   4   7
ENDBRANCH   2   3
ENDBRANCH   1   2
BRANCH   1  29
ATOM     29  C   UNL     1       6.431  -2.313  -2.429  1.00  0.00     0.118 C 
BRANCH  29  30
ATOM     30  N   UNL     1       6.128  -3.633  -1.869  1.00  0.00    -0.352 N 
ATOM     31  C   UNL     1       6.998  -4.594  -1.367  1.00  0.00     0.251 C 
ATOM     32  H   UNL     1       5.174  -3.874  -1.846  1.00  0.00     0.163 HD
ATOM     33  O   UNL     1       6.586  -5.618  -0.888  1.00  0.00    -0.269 OA
BRANCH  31  34
ATOM     34  C   UNL     1       8.447  -4.260  -1.312  1.00  0.00     0.039 A 
ATOM     35  C   UNL     1       9.093  -4.356  -0.076  1.00  0.00     0.014 A 
ATOM     36  C   UNL     1       9.062  -3.618  -2.384  1.00  0.00     0.014 A 
ATOM     37  C   UNL     1      10.216  -3.570   0.160  1.00  0.00     0.010 A 
ATOM     38  C   UNL     1      10.108  -2.758  -2.121  1.00  0.00     0.010 A 
ATOM     39  C   UNL     1      10.637  -2.680  -0.829  1.00  0.00    -0.014 A 
BRANCH  39  40
ATOM     40  C   UNL     1      11.527  -1.558  -0.548  1.00  0.00     0.031 A 
ATOM     41  C   UNL     1      12.929  -1.573  -1.007  1.00  0.00     0.074 A 
ATOM     42  C   UNL     1      11.058  -0.474   0.110  1.00  0.00     0.049 A 
ATOM     43  N   UNL     1      13.898  -0.975  -0.398  1.00  0.00    -0.248 NA
ATOM     44  C   UNL     1      13.355  -2.304  -2.192  1.00  0.00     0.031 C 
ATOM     45  C   UNL     1      11.731   0.809   0.290  1.00  0.00     0.029 A 
ATOM     46  N   UNL     1       9.930  -0.394   0.936  1.00  0.00    -0.354 N 
ATOM     47  C   UNL     1      14.991  -0.994  -1.235  1.00  0.00     0.074 A 
ATOM     48  C   UNL     1      14.620  -1.890  -2.308  1.00  0.00     0.031 C 
ATOM     49  C   UNL     1      11.200   1.431   1.354  1.00  0.00     0.029 A 
ATOM     50  C   UNL     1      10.250   0.520   1.964  1.00  0.00     0.049 A 
ATOM     51  H   UNL     1       9.081  -0.880   0.823  1.00  0.00     0.167 HD
ATOM     52  C   UNL     1      16.032  -0.140  -1.007  1.00  0.00     0.037 A 
ATOM     53  C   UNL     1      10.244   0.144   3.276  1.00  0.00     0.037 A 
ATOM     54  C   UNL     1      15.816   0.657   0.201  1.00  0.00     0.049 A 
ATOM     55  C   UNL     1      11.590   0.256   3.951  1.00  0.00     0.074 A 
ATOM     56  C   UNL     1      15.344   1.945   0.396  1.00  0.00     0.029 A 
ATOM     57  N   UNL     1      15.795   0.040   1.448  1.00  0.00    -0.354 N 
ATOM     58  N   UNL     1      12.709   0.461   3.313  1.00  0.00    -0.248 NA
ATOM     59  C   UNL     1      11.795   0.090   5.389  1.00  0.00     0.031 C 
ATOM     60  C   UNL     1      14.983   2.083   1.757  1.00  0.00     0.029 A 
ATOM     61  C   UNL     1      15.244   0.884   2.395  1.00  0.00     0.049 A 
ATOM     62  H   UNL     1      16.125  -0.869   1.631  1.00  0.00     0.167 HD
ATOM     63  C   UNL     1      13.757   0.382   4.190  1.00  0.00     0.074 A 
ATOM     64  C   UNL     1      13.132   0.191   5.485  1.00  0.00     0.031 C 
ATOM     65  C   UNL     1      15.055   0.448   3.771  1.00  0.00     0.037 A 
BRANCH  52  66
ATOM     66  C   UNL     1      17.068   0.193  -2.062  1.00  0.00     0.057 A 
ATOM     67  C   UNL     1      17.637   1.479  -2.147  1.00  0.00     0.134 A 
ATOM     68  C   UNL     1      17.499  -0.693  -3.064  1.00  0.00     0.134 A 
ATOM     69  F   UNL     1      17.445   2.402  -1.197  1.00  0.00    -0.206 F 
ATOM     70  C   UNL     1      18.439   1.891  -3.220  1.00  0.00     0.040 A 
ATOM     71  C   UNL     1      18.253  -0.282  -4.173  1.00  0.00     0.040 A 
ATOM     72  F   UNL     1      17.253  -2.007  -2.985  1.00  0.00    -0.206 F 
ATOM     73  C   UNL     1      18.711   1.023  -4.265  1.00  0.00     0.006 A 
ENDBRANCH  52  66
BRANCH  53  74
ATOM     74  C   UNL     1       9.215  -0.885   3.572  1.00  0.00     0.057 A 
ATOM     75  C   UNL     1       7.862  -0.529   3.427  1.00  0.00     0.134 A 
ATOM     76  C   UNL     1       9.520  -2.248   3.577  1.00  0.00     0.134 A 
ATOM     77  F   UNL     1       7.503   0.765   3.424  1.00  0.00    -0.206 F 
ATOM     78  C   UNL     1       6.875  -1.478   3.153  1.00  0.00     0.040 A 
ATOM     79  C   UNL     1       8.536  -3.209   3.320  1.00  0.00     0.040 A 
ATOM     80  F   UNL     1      10.789  -2.664   3.699  1.00  0.00    -0.206 F 
ATOM     81  C   UNL     1       7.221  -2.822   3.059  1.00  0.00     0.006 A 
ENDBRANCH  53  74
BRANCH  65  82
ATOM     82  C   UNL     1      16.259   0.189   4.635  1.00  0.00     0.057 A 
ATOM     83  C   UNL     1      16.288  -0.745   5.681  1.00  0.00     0.134 A 
ATOM     84  C   UNL     1      17.494   0.805   4.339  1.00  0.00     0.134 A 
ATOM     85  F   UNL     1      15.212  -1.482   5.990  1.00  0.00    -0.206 F 
ATOM     86  C   UNL     1      17.447  -0.999   6.425  1.00  0.00     0.040 A 
ATOM     87  C   UNL     1      18.668   0.523   5.044  1.00  0.00     0.040 A 
ATOM     88  F   UNL     1      17.613   1.694   3.342  1.00  0.00    -0.206 F 
ATOM     89  C   UNL     1      18.644  -0.371   6.104  1.00  0.00     0.006 A 
ENDBRANCH  65  82
ENDBRANCH  39  40
ENDBRANCH  31  34
ENDBRANCH  29  30
ENDBRANCH   1  29
TORSDOF 12
