REMARK SMILES O=C(NCCCNC(=O)c1ccc(-c2c3nc(c(-c4c(F)cccc4F)c4ccc([nH]4)c(-c4c(F)cccc4F)c4nc(c(-c5c(F)cccc5F)c5ccc2[nH]5)C=C4)C=C3)cc1)c1ccc(N/C=C\C(=O)c2ccco2)cc1
REMARK SMILES IDX 4 1 3 2 1 3 2 4 64 6 65 7 79 8 66 9 78 10 67 11 68 12 69 14
REMARK SMILES IDX 70 15 71 16 72 17 73 18 74 19 77 20 75 21 76 22 5 23 6 24
REMARK SMILES IDX 7 25 8 26 9 28 10 29 11 30 63 31 12 32 62 33 13 34 14 35
REMARK SMILES IDX 15 36 56 37 16 38 61 39 55 40 57 41 17 42 60 43 54 44 53 45
REMARK SMILES IDX 18 47 44 48 27 49 43 50 28 51 31 52 42 53 58 54 29 55 30 56
REMARK SMILES IDX 41 58 59 59 32 60 19 61 20 62 25 63 21 64 22 65 24 66 26 67
REMARK SMILES IDX 23 68 45 69 46 70 51 71 47 72 48 73 50 74 52 75 49 76 33 77
REMARK SMILES IDX 34 78 39 79 35 80 36 81 38 82 40 83 37 84
REMARK H PARENT 3 5 68 13 7 27 57 46 31 57
REMARK Flexibility Score: inf
ROOT
ATOM      1  C   UNL     1       4.476   1.344   0.297  1.00  0.00     0.118 C 
ENDROOT
BRANCH   1   2
ATOM      2  N   UNL     1       3.033   1.177   0.383  1.00  0.00    -0.352 N 
ATOM      3  O   UNL     1       1.057   0.116   0.176  1.00  0.00    -0.269 OA
ATOM      4  C   UNL     1       2.278   0.037   0.285  1.00  0.00     0.251 C 
ATOM      5  H   UNL     1       2.524   2.006   0.535  1.00  0.00     0.163 HD
BRANCH   4   6
ATOM      6  C   UNL     1       2.933  -1.285   0.283  1.00  0.00     0.039 A 
ATOM      7  C   UNL     1       3.893  -1.619   1.243  1.00  0.00     0.016 A 
ATOM      8  C   UNL     1       2.566  -2.211  -0.690  1.00  0.00     0.016 A 
ATOM      9  C   UNL     1       4.561  -2.842   1.166  1.00  0.00     0.027 A 
ATOM     10  C   UNL     1       3.212  -3.447  -0.738  1.00  0.00     0.027 A 
ATOM     11  C   UNL     1       4.228  -3.773   0.179  1.00  0.00     0.038 A 
BRANCH  11  12
ATOM     12  N   UNL     1       4.917  -4.981  -0.008  1.00  0.00    -0.362 N 
ATOM     13  H   UNL     1       4.407  -5.693  -0.456  1.00  0.00     0.166 HD
BRANCH  12  14
ATOM     14  C   UNL     1       6.199  -5.308   0.344  1.00  0.00     0.087 C 
ATOM     15  C   UNL     1       6.923  -6.389   0.018  1.00  0.00     0.074 C 
BRANCH  15  16
ATOM     16  C   UNL     1       6.504  -7.526  -0.856  1.00  0.00     0.222 C 
ATOM     17  O   UNL     1       7.003  -8.627  -0.624  1.00  0.00    -0.286 OA
BRANCH  16  18
ATOM     18  C   UNL     1       5.556  -7.286  -1.925  1.00  0.00     0.173 A 
ATOM     19  C   UNL     1       5.425  -6.261  -2.848  1.00  0.00     0.054 A 
ATOM     20  O   UNL     1       4.521  -8.166  -2.081  1.00  0.00    -0.461 OA
ATOM     21  C   UNL     1       4.234  -6.513  -3.571  1.00  0.00     0.043 A 
ATOM     22  C   UNL     1       3.722  -7.684  -3.067  1.00  0.00     0.196 A 
ENDBRANCH  16  18
ENDBRANCH  15  16
ENDBRANCH  12  14
ENDBRANCH  11  12
ENDBRANCH   4   6
ENDBRANCH   1   2
BRANCH   1  23
ATOM     23  C   UNL     1       4.894   2.151  -0.923  1.00  0.00     0.042 C 
BRANCH  23  24
ATOM     24  C   UNL     1       4.361   3.576  -0.939  1.00  0.00     0.118 C 
BRANCH  24  25
ATOM     25  N   UNL     1       4.857   4.380   0.171  1.00  0.00    -0.352 N 
ATOM     26  C   UNL     1       5.653   5.501   0.163  1.00  0.00     0.251 C 
ATOM     27  H   UNL     1       4.580   4.073   1.064  1.00  0.00     0.163 HD
ATOM     28  O   UNL     1       6.106   5.942   1.215  1.00  0.00    -0.269 OA
BRANCH  26  29
ATOM     29  C   UNL     1       5.989   6.156  -1.117  1.00  0.00     0.039 A 
ATOM     30  C   UNL     1       7.311   6.537  -1.362  1.00  0.00     0.014 A 
ATOM     31  C   UNL     1       5.004   6.375  -2.083  1.00  0.00     0.014 A 
ATOM     32  C   UNL     1       7.663   7.049  -2.613  1.00  0.00     0.010 A 
ATOM     33  C   UNL     1       5.371   6.800  -3.354  1.00  0.00     0.010 A 
ATOM     34  C   UNL     1       6.704   7.136  -3.635  1.00  0.00    -0.014 A 
BRANCH  34  35
ATOM     35  C   UNL     1       7.057   7.564  -5.011  1.00  0.00     0.031 A 
ATOM     36  C   UNL     1       6.415   8.790  -5.598  1.00  0.00     0.074 A 
ATOM     37  C   UNL     1       7.862   6.793  -5.769  1.00  0.00     0.049 A 
ATOM     38  N   UNL     1       6.447   9.233  -6.829  1.00  0.00    -0.248 NA
ATOM     39  C   UNL     1       5.598   9.605  -4.686  1.00  0.00     0.031 C 
ATOM     40  C   UNL     1       8.516   5.559  -5.330  1.00  0.00     0.029 A 
ATOM     41  N   UNL     1       8.248   6.924  -7.080  1.00  0.00    -0.354 N 
ATOM     42  C   UNL     1       5.633  10.358  -6.844  1.00  0.00     0.074 A 
ATOM     43  C   UNL     1       5.086  10.505  -5.513  1.00  0.00     0.031 C 
ATOM     44  C   UNL     1       9.230   5.053  -6.348  1.00  0.00     0.029 A 
ATOM     45  C   UNL     1       9.047   5.898  -7.524  1.00  0.00     0.049 A 
ATOM     46  H   UNL     1       7.977   7.681  -7.648  1.00  0.00     0.167 HD
ATOM     47  C   UNL     1       5.378  11.202  -7.871  1.00  0.00     0.037 A 
ATOM     48  C   UNL     1       9.558   5.655  -8.745  1.00  0.00     0.037 A 
ATOM     49  C   UNL     1       5.954  11.076  -9.183  1.00  0.00     0.049 A 
ATOM     50  C   UNL     1       9.261   6.608  -9.870  1.00  0.00     0.074 A 
ATOM     51  C   UNL     1       5.811  11.918 -10.272  1.00  0.00     0.029 A 
ATOM     52  N   UNL     1       6.788  10.042  -9.581  1.00  0.00    -0.354 N 
ATOM     53  N   UNL     1       8.529   7.696  -9.858  1.00  0.00    -0.248 NA
ATOM     54  C   UNL     1       9.857   6.299 -11.177  1.00  0.00     0.031 C 
ATOM     55  C   UNL     1       6.531  11.374 -11.341  1.00  0.00     0.029 A 
ATOM     56  C   UNL     1       7.155  10.216 -10.905  1.00  0.00     0.049 A 
ATOM     57  H   UNL     1       7.077   9.295  -9.008  1.00  0.00     0.167 HD
ATOM     58  C   UNL     1       8.602   8.216 -11.143  1.00  0.00     0.074 A 
ATOM     59  C   UNL     1       9.453   7.329 -11.908  1.00  0.00     0.031 C 
ATOM     60  C   UNL     1       8.017   9.331 -11.644  1.00  0.00     0.037 A 
BRANCH  47  61
ATOM     61  C   UNL     1       4.437  12.341  -7.612  1.00  0.00     0.057 A 
ATOM     62  C   UNL     1       4.797  13.427  -6.803  1.00  0.00     0.134 A 
ATOM     63  C   UNL     1       3.167  12.368  -8.202  1.00  0.00     0.134 A 
ATOM     64  F   UNL     1       5.994  13.456  -6.198  1.00  0.00    -0.206 F 
ATOM     65  C   UNL     1       3.917  14.485  -6.569  1.00  0.00     0.040 A 
ATOM     66  C   UNL     1       2.289  13.433  -7.997  1.00  0.00     0.040 A 
ATOM     67  F   UNL     1       2.761  11.362  -8.993  1.00  0.00    -0.206 F 
ATOM     68  C   UNL     1       2.662  14.493  -7.172  1.00  0.00     0.006 A 
ENDBRANCH  47  61
BRANCH  48  69
ATOM     69  C   UNL     1      10.417   4.466  -8.969  1.00  0.00     0.057 A 
ATOM     70  C   UNL     1      11.793   4.604  -9.185  1.00  0.00     0.134 A 
ATOM     71  C   UNL     1       9.889   3.169  -8.976  1.00  0.00     0.134 A 
ATOM     72  F   UNL     1      12.353   5.822  -9.208  1.00  0.00    -0.206 F 
ATOM     73  C   UNL     1      12.611   3.497  -9.418  1.00  0.00     0.040 A 
ATOM     74  C   UNL     1      10.699   2.052  -9.185  1.00  0.00     0.040 A 
ATOM     75  F   UNL     1       8.579   2.970  -8.767  1.00  0.00    -0.206 F 
ATOM     76  C   UNL     1      12.064   2.216  -9.413  1.00  0.00     0.006 A 
ENDBRANCH  48  69
BRANCH  60  77
ATOM     77  C   UNL     1       8.310   9.682 -13.072  1.00  0.00     0.057 A 
ATOM     78  C   UNL     1       7.729   8.985 -14.137  1.00  0.00     0.134 A 
ATOM     79  C   UNL     1       9.137  10.770 -13.380  1.00  0.00     0.134 A 
ATOM     80  F   UNL     1       6.939   7.926 -13.907  1.00  0.00    -0.206 F 
ATOM     81  C   UNL     1       7.968   9.352 -15.463  1.00  0.00     0.040 A 
ATOM     82  C   UNL     1       9.365  11.160 -14.700  1.00  0.00     0.040 A 
ATOM     83  F   UNL     1       9.718  11.482 -12.403  1.00  0.00    -0.206 F 
ATOM     84  C   UNL     1       8.782  10.448 -15.746  1.00  0.00     0.006 A 
ENDBRANCH  60  77
ENDBRANCH  34  35
ENDBRANCH  26  29
ENDBRANCH  24  25
ENDBRANCH  23  24
ENDBRANCH   1  23
TORSDOF 14
