REMARK SMILES NS(=O)(=O)c1ccc(-c2cc(Cl)cc3c2O[C@H](C(F)(F)F)C(C(=O)NCCCNC(=O)c2ccc(-c4c5nc(c(-c6c(F)cccc6F)c6ccc([nH]6)c(-c6c(F)cccc6F)c6nc(c(-c7c(F)cccc7F)c7ccc4[nH]7)C=C6)C=C5)cc2)=C3)cc1
REMARK SMILES IDX 26 1 25 2 23 3 24 4 22 6 9 7 10 8 15 9 11 10 14 11 16 12
REMARK SMILES IDX 12 13 13 14 86 15 17 16 8 17 5 18 6 19 88 20 7 21 87 22 2 23
REMARK SMILES IDX 3 24 4 25 1 26 18 29 19 30 20 31 21 32 27 33 28 34 29 35
REMARK SMILES IDX 30 36 31 38 32 39 33 40 85 41 34 42 84 43 35 44 36 45 37 46
REMARK SMILES IDX 78 47 38 48 83 49 77 50 79 51 39 52 82 53 76 54 75 55 40 57
REMARK SMILES IDX 66 58 49 59 65 60 50 61 53 62 64 63 80 64 51 65 52 66 63 68
REMARK SMILES IDX 81 69 54 70 41 71 42 72 47 73 43 74 44 75 46 76 48 77 45 78
REMARK SMILES IDX 67 79 68 80 73 81 69 82 70 83 72 84 74 85 71 86 55 87 56 88
REMARK SMILES IDX 61 89 57 90 58 91 60 92 62 93 59 94
REMARK H PARENT 25 5 1 27 1 28 29 37 79 56 53 67
REMARK Flexibility Score: inf
ROOT
ATOM      1  C   UNL     1       4.408  12.306  -5.183  1.00  0.00     0.118 C 
ENDROOT
BRANCH   1   2
ATOM      2  N   UNL     1       4.022  11.190  -6.023  1.00  0.00    -0.352 N 
ATOM      3  C   UNL     1       3.764   9.925  -5.607  1.00  0.00     0.251 C 
ATOM      4  O   UNL     1       4.198   8.975  -6.246  1.00  0.00    -0.270 OA
ATOM      5  H   UNL     1       3.939  11.367  -6.988  1.00  0.00     0.163 HD
BRANCH   3   6
ATOM      6  C   UNL     1       2.804   9.780  -4.476  1.00  0.00     0.067 C 
ATOM      7  C   UNL     1       2.368   5.736  -4.361  1.00  0.00     0.026 A 
ATOM      8  C   UNL     1       2.269   5.313  -5.714  1.00  0.00     0.033 A 
ATOM      9  C   UNL     1       2.251   7.120  -4.136  1.00  0.00     0.135 A 
ATOM     10  C   UNL     1       1.870   6.168  -6.739  1.00  0.00     0.042 A 
ATOM     11  C   UNL     1       1.718   7.939  -5.161  1.00  0.00     0.019 A 
ATOM     12  O   UNL     1       2.686   7.751  -2.976  1.00  0.00    -0.475 OA
ATOM     13  Cl  UNL     1       1.786   5.586  -8.353  1.00  0.00    -0.084 Cl
ATOM     14  C   UNL     1       1.508   7.468  -6.452  1.00  0.00     0.032 A 
ATOM     15  C   UNL     1       1.583   9.386  -4.885  1.00  0.00     0.025 C 
ATOM     16  C   UNL     1       3.335   9.078  -3.235  1.00  0.00     0.314 C 
BRANCH   7  17
ATOM     17  C   UNL     1       2.291   4.635  -3.359  1.00  0.00    -0.015 A 
ATOM     18  C   UNL     1       1.395   2.165  -2.298  1.00  0.00     0.082 A 
ATOM     19  C   UNL     1       2.572   2.213  -3.045  1.00  0.00     0.022 A 
ATOM     20  C   UNL     1       0.715   3.345  -1.992  1.00  0.00     0.022 A 
ATOM     21  C   UNL     1       3.029   3.443  -3.543  1.00  0.00     0.010 A 
ATOM     22  C   UNL     1       1.172   4.571  -2.505  1.00  0.00     0.010 A 
BRANCH  18  23
ATOM     23  S   UNL     1       0.670   0.594  -1.905  1.00  0.00     0.238 S 
ATOM     24  O   UNL     1       1.290  -0.434  -2.702  1.00  0.00    -0.207 OA
ATOM     25  O   UNL     1      -0.768   0.743  -1.826  1.00  0.00    -0.207 OA
BRANCH  23  26
ATOM     26  N   UNL     1       1.192   0.333  -0.334  1.00  0.00    -0.225 NA
ATOM     27  H   UNL     1       0.829  -0.559   0.001  1.00  0.00     0.137 HD
ATOM     28  H   UNL     1       0.855   1.085   0.266  1.00  0.00     0.137 HD
ENDBRANCH  23  26
ENDBRANCH  18  23
ENDBRANCH   7  17
BRANCH  16  29
ATOM     29  C   UNL     1       3.175  10.053  -2.044  1.00  0.00     0.429 C 
ATOM     30  F   UNL     1       2.324   9.597  -1.101  1.00  0.00    -0.167 F 
ATOM     31  F   UNL     1       4.367  10.291  -1.444  1.00  0.00    -0.167 F 
ATOM     32  F   UNL     1       2.703  11.271  -2.429  1.00  0.00    -0.167 F 
ENDBRANCH  16  29
ENDBRANCH   3   6
ENDBRANCH   1   2
BRANCH   1  33
ATOM     33  C   UNL     1       5.826  12.761  -5.532  1.00  0.00     0.042 C 
BRANCH  33  34
ATOM     34  C   UNL     1       6.011  13.206  -6.982  1.00  0.00     0.118 C 
BRANCH  34  35
ATOM     35  N   UNL     1       5.173  14.337  -7.345  1.00  0.00    -0.352 N 
ATOM     36  C   UNL     1       5.532  15.541  -7.901  1.00  0.00     0.251 C 
ATOM     37  H   UNL     1       4.211  14.224  -7.168  1.00  0.00     0.163 HD
ATOM     38  O   UNL     1       4.712  16.447  -7.997  1.00  0.00    -0.269 OA
BRANCH  36  39
ATOM     39  C   UNL     1       6.924  15.748  -8.353  1.00  0.00     0.039 A 
ATOM     40  C   UNL     1       7.583  16.924  -7.992  1.00  0.00     0.014 A 
ATOM     41  C   UNL     1       7.584  14.771  -9.102  1.00  0.00     0.014 A 
ATOM     42  C   UNL     1       8.930  17.087  -8.319  1.00  0.00     0.010 A 
ATOM     43  C   UNL     1       8.948  14.893  -9.344  1.00  0.00     0.010 A 
ATOM     44  C   UNL     1       9.637  16.053  -8.957  1.00  0.00    -0.014 A 
BRANCH  44  45
ATOM     45  C   UNL     1      11.094  16.166  -9.227  1.00  0.00     0.031 A 
ATOM     46  C   UNL     1      11.607  16.121 -10.640  1.00  0.00     0.074 A 
ATOM     47  C   UNL     1      11.960  16.246  -8.197  1.00  0.00     0.049 A 
ATOM     48  N   UNL     1      12.842  16.137 -11.073  1.00  0.00    -0.248 NA
ATOM     49  C   UNL     1      10.600  16.013 -11.708  1.00  0.00     0.031 C 
ATOM     50  C   UNL     1      11.593  16.248  -6.779  1.00  0.00     0.029 A 
ATOM     51  N   UNL     1      13.330  16.331  -8.183  1.00  0.00    -0.354 N 
ATOM     52  C   UNL     1      12.759  16.028 -12.455  1.00  0.00     0.074 A 
ATOM     53  C   UNL     1      11.359  15.882 -12.785  1.00  0.00     0.031 C 
ATOM     54  C   UNL     1      12.706  16.361  -6.036  1.00  0.00     0.029 A 
ATOM     55  C   UNL     1      13.867  16.391  -6.919  1.00  0.00     0.049 A 
ATOM     56  H   UNL     1      13.877  16.347  -9.002  1.00  0.00     0.167 HD
ATOM     57  C   UNL     1      13.757  16.073 -13.370  1.00  0.00     0.037 A 
ATOM     58  C   UNL     1      15.150  16.454  -6.517  1.00  0.00     0.037 A 
ATOM     59  C   UNL     1      15.148  16.237 -13.039  1.00  0.00     0.049 A 
ATOM     60  C   UNL     1      16.242  16.481  -7.552  1.00  0.00     0.074 A 
ATOM     61  C   UNL     1      16.229  16.352 -13.895  1.00  0.00     0.029 A 
ATOM     62  N   UNL     1      15.650  16.304 -11.748  1.00  0.00    -0.354 N 
ATOM     63  N   UNL     1      16.143  16.451  -8.860  1.00  0.00    -0.248 NA
ATOM     64  C   UNL     1      17.623  16.557  -7.057  1.00  0.00     0.031 C 
ATOM     65  C   UNL     1      17.392  16.429 -13.121  1.00  0.00     0.029 A 
ATOM     66  C   UNL     1      17.029  16.430 -11.784  1.00  0.00     0.049 A 
ATOM     67  H   UNL     1      15.107  16.268 -10.927  1.00  0.00     0.167 HD
ATOM     68  C   UNL     1      17.443  16.538  -9.342  1.00  0.00     0.074 A 
ATOM     69  C   UNL     1      18.311  16.637  -8.187  1.00  0.00     0.031 C 
ATOM     70  C   UNL     1      17.880  16.536 -10.625  1.00  0.00     0.037 A 
BRANCH  57  71
ATOM     71  C   UNL     1      13.378  15.943 -14.818  1.00  0.00     0.057 A 
ATOM     72  C   UNL     1      12.658  16.941 -15.489  1.00  0.00     0.134 A 
ATOM     73  C   UNL     1      13.767  14.821 -15.562  1.00  0.00     0.134 A 
ATOM     74  F   UNL     1      12.244  18.037 -14.835  1.00  0.00    -0.206 F 
ATOM     75  C   UNL     1      12.313  16.815 -16.836  1.00  0.00     0.040 A 
ATOM     76  C   UNL     1      13.456  14.698 -16.917  1.00  0.00     0.040 A 
ATOM     77  F   UNL     1      14.464  13.830 -14.986  1.00  0.00    -0.206 F 
ATOM     78  C   UNL     1      12.719  15.694 -17.556  1.00  0.00     0.006 A 
ENDBRANCH  57  71
BRANCH  58  79
ATOM     79  C   UNL     1      15.479  16.510  -5.068  1.00  0.00     0.057 A 
ATOM     80  C   UNL     1      16.039  17.660  -4.497  1.00  0.00     0.134 A 
ATOM     81  C   UNL     1      15.261  15.415  -4.224  1.00  0.00     0.134 A 
ATOM     82  F   UNL     1      16.289  18.737  -5.256  1.00  0.00    -0.206 F 
ATOM     83  C   UNL     1      16.395  17.709  -3.148  1.00  0.00     0.040 A 
ATOM     84  C   UNL     1      15.584  15.460  -2.867  1.00  0.00     0.040 A 
ATOM     85  F   UNL     1      14.719  14.286  -4.705  1.00  0.00    -0.206 F 
ATOM     86  C   UNL     1      16.162  16.607  -2.328  1.00  0.00     0.006 A 
ENDBRANCH  58  79
BRANCH  70  87
ATOM     87  C   UNL     1      19.357  16.690 -10.852  1.00  0.00     0.057 A 
ATOM     88  C   UNL     1      20.268  15.674 -10.535  1.00  0.00     0.134 A 
ATOM     89  C   UNL     1      19.868  17.857 -11.435  1.00  0.00     0.134 A 
ATOM     90  F   UNL     1      19.847  14.536  -9.964  1.00  0.00    -0.206 F 
ATOM     91  C   UNL     1      21.637  15.825 -10.765  1.00  0.00     0.040 A 
ATOM     92  C   UNL     1      21.230  18.007 -11.699  1.00  0.00     0.040 A 
ATOM     93  F   UNL     1      19.050  18.865 -11.773  1.00  0.00    -0.206 F 
ATOM     94  C   UNL     1      22.120  16.991 -11.356  1.00  0.00     0.006 A 
ENDBRANCH  70  87
ENDBRANCH  44  45
ENDBRANCH  36  39
ENDBRANCH  34  35
ENDBRANCH  33  34
ENDBRANCH   1  33
TORSDOF 14
