REMARK SMILES C[C@@H](C(=O)NCCCNC(=O)c1ccc(-c2c3nc(c(-c4c(F)cccc4F)c4ccc([nH]4)c(-c4c(F)cccc4F)c4nc(c(-c5c(F)cccc5F)c5ccc2[nH]5)C=C4)C=C3)cc1)c1ccc(C[C@H]2CCC[C@H]2O)cc1
REMARK SMILES IDX 6 1 5 2 3 3 4 4 2 6 1 7 66 8 67 9 78 10 68 11 77 12 69 13
REMARK SMILES IDX 70 14 71 15 72 16 75 17 73 18 74 19 76 20 7 22 8 23 9 24
REMARK SMILES IDX 10 25 11 27 12 28 13 29 65 30 14 31 64 32 15 33 16 34 17 35
REMARK SMILES IDX 58 36 18 37 63 38 57 39 59 40 19 41 62 42 56 43 55 44 20 46
REMARK SMILES IDX 46 47 29 48 45 49 30 50 33 51 44 52 60 53 31 54 32 55 43 57
REMARK SMILES IDX 61 58 34 59 21 60 22 61 27 62 23 63 24 64 26 65 28 66 25 67
REMARK SMILES IDX 47 68 48 69 53 70 49 71 50 72 52 73 54 74 51 75 35 76 36 77
REMARK SMILES IDX 41 78 37 79 38 80 40 81 42 82 39 83
REMARK H PARENT 5 5 76 21 9 26 59 45 33 56
REMARK Flexibility Score: inf
ROOT
ATOM      1  C   UNL     1       3.473  -0.311   2.003  1.00  0.00     0.117 C 
ENDROOT
BRANCH   1   2
ATOM      2  N   UNL     1       2.380   0.469   2.546  1.00  0.00    -0.356 N 
ATOM      3  C   UNL     1       1.068   0.534   2.178  1.00  0.00     0.227 C 
ATOM      4  O   UNL     1       0.381   1.361   2.781  1.00  0.00    -0.274 OA
ATOM      5  H   UNL     1       2.623   1.046   3.304  1.00  0.00     0.163 HD
BRANCH   3   6
ATOM      6  C   UNL     1       0.511  -0.412   1.096  1.00  0.00     0.105 C 
ATOM      7  C   UNL     1       1.021  -0.069  -0.305  1.00  0.00     0.023 C 
BRANCH   6   8
ATOM      8  C   UNL     1      -1.014  -0.428   1.099  1.00  0.00    -0.036 A 
ATOM      9  C   UNL     1      -1.744   0.702   0.702  1.00  0.00     0.005 A 
ATOM     10  C   UNL     1      -1.713  -1.557   1.544  1.00  0.00     0.005 A 
ATOM     11  C   UNL     1      -3.133   0.722   0.799  1.00  0.00     0.004 A 
ATOM     12  C   UNL     1      -3.105  -1.528   1.654  1.00  0.00     0.004 A 
ATOM     13  C   UNL     1      -3.823  -0.369   1.331  1.00  0.00    -0.048 A 
BRANCH  13  14
ATOM     14  C   UNL     1      -5.302  -0.268   1.609  1.00  0.00     0.041 C 
BRANCH  14  15
ATOM     15  C   UNL     1      -5.720   0.286   2.984  1.00  0.00     0.022 C 
ATOM     16  C   UNL     1      -5.123  -0.422   4.212  1.00  0.00     0.007 C 
ATOM     17  C   UNL     1      -5.515   1.784   3.264  1.00  0.00     0.117 C 
ATOM     18  C   UNL     1      -5.051   0.631   5.320  1.00  0.00     0.003 C 
ATOM     19  C   UNL     1      -5.740   1.875   4.769  1.00  0.00     0.032 C 
BRANCH  17  20
ATOM     20  O   UNL     1      -4.223   2.283   2.968  1.00  0.00    -0.393 OA
ATOM     21  H   UNL     1      -3.564   1.802   3.493  1.00  0.00     0.210 HD
ENDBRANCH  17  20
ENDBRANCH  14  15
ENDBRANCH  13  14
ENDBRANCH   6   8
ENDBRANCH   3   6
ENDBRANCH   1   2
BRANCH   1  22
ATOM     22  C   UNL     1       4.353   0.528   1.082  1.00  0.00     0.042 C 
BRANCH  22  23
ATOM     23  C   UNL     1       5.058   1.685   1.782  1.00  0.00     0.118 C 
BRANCH  23  24
ATOM     24  N   UNL     1       6.075   1.238   2.723  1.00  0.00    -0.352 N 
ATOM     25  C   UNL     1       7.428   1.482   2.730  1.00  0.00     0.251 C 
ATOM     26  H   UNL     1       5.746   0.677   3.462  1.00  0.00     0.163 HD
ATOM     27  O   UNL     1       8.161   0.876   3.500  1.00  0.00    -0.269 OA
BRANCH  25  28
ATOM     28  C   UNL     1       8.001   2.467   1.787  1.00  0.00     0.039 A 
ATOM     29  C   UNL     1       9.150   2.129   1.065  1.00  0.00     0.014 A 
ATOM     30  C   UNL     1       7.405   3.718   1.617  1.00  0.00     0.014 A 
ATOM     31  C   UNL     1       9.658   3.018   0.115  1.00  0.00     0.010 A 
ATOM     32  C   UNL     1       7.868   4.571   0.622  1.00  0.00     0.010 A 
ATOM     33  C   UNL     1       8.997   4.230  -0.140  1.00  0.00    -0.014 A 
BRANCH  33  34
ATOM     34  C   UNL     1       9.455   5.175  -1.188  1.00  0.00     0.031 A 
ATOM     35  C   UNL     1       9.900   6.555  -0.798  1.00  0.00     0.074 A 
ATOM     36  C   UNL     1       9.350   4.841  -2.488  1.00  0.00     0.049 A 
ATOM     37  N   UNL     1      10.139   7.595  -1.554  1.00  0.00    -0.248 NA
ATOM     38  C   UNL     1      10.060   6.806   0.643  1.00  0.00     0.031 C 
ATOM     39  C   UNL     1       8.898   3.546  -2.996  1.00  0.00     0.029 A 
ATOM     40  N   UNL     1       9.581   5.582  -3.620  1.00  0.00    -0.354 N 
ATOM     41  C   UNL     1      10.440   8.632  -0.681  1.00  0.00     0.074 A 
ATOM     42  C   UNL     1      10.316   8.105   0.661  1.00  0.00     0.031 C 
ATOM     43  C   UNL     1       8.876   3.585  -4.338  1.00  0.00     0.029 A 
ATOM     44  C   UNL     1       9.268   4.920  -4.782  1.00  0.00     0.049 A 
ATOM     45  H   UNL     1       9.937   6.500  -3.601  1.00  0.00     0.167 HD
ATOM     46  C   UNL     1      10.799   9.905  -0.972  1.00  0.00     0.037 A 
ATOM     47  C   UNL     1       9.266   5.348  -6.059  1.00  0.00     0.037 A 
ATOM     48  C   UNL     1      10.947  10.415  -2.309  1.00  0.00     0.049 A 
ATOM     49  C   UNL     1       9.673   6.761  -6.364  1.00  0.00     0.074 A 
ATOM     50  C   UNL     1      11.371  11.668  -2.713  1.00  0.00     0.029 A 
ATOM     51  N   UNL     1      10.673   9.694  -3.462  1.00  0.00    -0.354 N 
ATOM     52  N   UNL     1      10.008   7.720  -5.534  1.00  0.00    -0.248 NA
ATOM     53  C   UNL     1       9.705   7.154  -7.780  1.00  0.00     0.031 C 
ATOM     54  C   UNL     1      11.315  11.719  -4.110  1.00  0.00     0.029 A 
ATOM     55  C   UNL     1      10.901  10.482  -4.578  1.00  0.00     0.049 A 
ATOM     56  H   UNL     1      10.362   8.760  -3.484  1.00  0.00     0.167 HD
ATOM     57  C   UNL     1      10.317   8.819  -6.325  1.00  0.00     0.074 A 
ATOM     58  C   UNL     1      10.130   8.408  -7.702  1.00  0.00     0.031 C 
ATOM     59  C   UNL     1      10.723  10.054  -5.943  1.00  0.00     0.037 A 
BRANCH  46  60
ATOM     60  C   UNL     1      11.039  10.831   0.184  1.00  0.00     0.057 A 
ATOM     61  C   UNL     1      12.138  10.680   1.040  1.00  0.00     0.134 A 
ATOM     62  C   UNL     1      10.156  11.886   0.449  1.00  0.00     0.134 A 
ATOM     63  F   UNL     1      13.015   9.682   0.851  1.00  0.00    -0.206 F 
ATOM     64  C   UNL     1      12.328  11.517   2.141  1.00  0.00     0.040 A 
ATOM     65  C   UNL     1      10.352  12.748   1.529  1.00  0.00     0.040 A 
ATOM     66  F   UNL     1       9.087  12.094  -0.335  1.00  0.00    -0.206 F 
ATOM     67  C   UNL     1      11.434  12.558   2.385  1.00  0.00     0.006 A 
ENDBRANCH  46  60
BRANCH  47  68
ATOM     68  C   UNL     1       8.869   4.413  -7.140  1.00  0.00     0.057 A 
ATOM     69  C   UNL     1       9.822   3.866  -8.005  1.00  0.00     0.134 A 
ATOM     70  C   UNL     1       7.538   4.014  -7.309  1.00  0.00     0.134 A 
ATOM     71  F   UNL     1      11.111   4.223  -7.901  1.00  0.00    -0.206 F 
ATOM     72  C   UNL     1       9.467   2.958  -9.004  1.00  0.00     0.040 A 
ATOM     73  C   UNL     1       7.171   3.092  -8.290  1.00  0.00     0.040 A 
ATOM     74  F   UNL     1       6.579   4.496  -6.504  1.00  0.00    -0.206 F 
ATOM     75  C   UNL     1       8.137   2.563  -9.143  1.00  0.00     0.006 A 
ENDBRANCH  47  68
BRANCH  59  76
ATOM     76  C   UNL     1      11.040  11.045  -7.023  1.00  0.00     0.057 A 
ATOM     77  C   UNL     1      10.034  11.695  -7.747  1.00  0.00     0.134 A 
ATOM     78  C   UNL     1      12.367  11.408  -7.284  1.00  0.00     0.134 A 
ATOM     79  F   UNL     1       8.745  11.383  -7.552  1.00  0.00    -0.206 F 
ATOM     80  C   UNL     1      10.340  12.670  -8.699  1.00  0.00     0.040 A 
ATOM     81  C   UNL     1      12.684  12.395  -8.217  1.00  0.00     0.040 A 
ATOM     82  F   UNL     1      13.376  10.825  -6.617  1.00  0.00    -0.206 F 
ATOM     83  C   UNL     1      11.667  13.029  -8.928  1.00  0.00     0.006 A 
ENDBRANCH  59  76
ENDBRANCH  33  34
ENDBRANCH  25  28
ENDBRANCH  23  24
ENDBRANCH  22  23
ENDBRANCH   1  22
TORSDOF 14
