REMARK SMILES Cc1ccccc1NC(=O)C[NH+]1CCC(CC(=O)NCCCNC(=O)c2ccc(-c3c4nc(c(-c5c(F)cccc5F)c5ccc([nH]5)c(-c5c(F)cccc5F)c5nc(c(-c6c(F)cccc6F)c6ccc3[nH]6)C=C5)C=C4)cc2)CC1
REMARK SMILES IDX 20 1 19 2 17 3 18 4 16 6 15 7 12 8 13 9 81 10 14 12 80 13
REMARK SMILES IDX 11 14 9 15 8 16 10 18 7 19 1 20 2 21 3 22 4 23 6 24 5 25
REMARK SMILES IDX 21 26 22 27 23 28 24 29 25 31 26 32 27 33 79 34 28 35 78 36
REMARK SMILES IDX 29 37 30 38 31 39 72 40 32 41 77 42 71 43 73 44 33 45 76 46
REMARK SMILES IDX 70 47 69 48 34 50 60 51 43 52 59 53 44 54 47 55 58 56 74 57
REMARK SMILES IDX 45 58 46 59 57 61 75 62 48 63 35 64 36 65 41 66 37 67 38 68
REMARK SMILES IDX 40 69 42 70 39 71 61 72 62 73 67 74 63 75 64 76 66 77 68 78
REMARK SMILES IDX 65 79 49 80 50 81 55 82 51 83 52 84 54 85 56 86 53 87
REMARK H PARENT 19 5 12 11 8 17 23 30 73 49 47 60
REMARK Flexibility Score: inf
ROOT
ATOM      1  C   UNL     1      -2.776   3.520  -6.431  1.00  0.00     0.117 C 
ENDROOT
BRANCH   1   2
ATOM      2  N   UNL     1      -1.552   2.782  -6.705  1.00  0.00    -0.356 N 
ATOM      3  C   UNL     1      -1.107   1.595  -6.187  1.00  0.00     0.220 C 
ATOM      4  O   UNL     1      -0.072   1.106  -6.642  1.00  0.00    -0.275 OA
ATOM      5  H   UNL     1      -0.952   3.200  -7.363  1.00  0.00     0.163 HD
BRANCH   3   6
ATOM      6  C   UNL     1      -1.843   0.928  -5.038  1.00  0.00     0.104 C 
BRANCH   6   7
ATOM      7  C   UNL     1      -1.256   1.275  -3.658  1.00  0.00     0.009 C 
ATOM      8  N   UNL     1      -1.474   2.760  -1.125  1.00  0.00    -0.327 N 
ATOM      9  C   UNL     1      -0.471   3.151  -2.111  1.00  0.00     0.262 C 
ATOM     10  C   UNL     1      -1.745   1.323  -1.175  1.00  0.00     0.262 C 
ATOM     11  H   UNL     1      -2.354   3.207  -1.386  1.00  0.00     0.348 HD
ATOM     12  C   UNL     1      -0.970   2.766  -3.495  1.00  0.00     0.066 C 
ATOM     13  C   UNL     1      -2.234   0.859  -2.549  1.00  0.00     0.066 C 
BRANCH   8  14
ATOM     14  C   UNL     1      -1.202   3.300   0.227  1.00  0.00     0.363 C 
BRANCH  14  15
ATOM     15  C   UNL     1       0.269   3.293   0.677  1.00  0.00     0.279 C 
ATOM     16  N   UNL     1       0.930   2.161   1.065  1.00  0.00    -0.321 N 
ATOM     17  H   UNL     1       1.878   2.292   1.298  1.00  0.00     0.170 HD
ATOM     18  O   UNL     1       0.935   4.337   0.623  1.00  0.00    -0.268 OA
BRANCH  16  19
ATOM     19  C   UNL     1       0.470   0.844   1.183  1.00  0.00     0.044 A 
ATOM     20  C   UNL     1       2.609  -0.029   0.048  1.00  0.00     0.046 C 
ATOM     21  C   UNL     1       1.235  -0.206   0.637  1.00  0.00    -0.027 A 
ATOM     22  C   UNL     1       0.671  -1.493   0.586  1.00  0.00     0.005 A 
ATOM     23  C   UNL     1      -0.607  -1.740   1.088  1.00  0.00     0.000 A 
ATOM     24  C   UNL     1      -0.768   0.564   1.775  1.00  0.00     0.026 A 
ATOM     25  C   UNL     1      -1.314  -0.718   1.709  1.00  0.00     0.002 A 
ENDBRANCH  16  19
ENDBRANCH  14  15
ENDBRANCH   8  14
ENDBRANCH   6   7
ENDBRANCH   3   6
ENDBRANCH   1   2
BRANCH   1  26
ATOM     26  C   UNL     1      -2.576   4.832  -5.672  1.00  0.00     0.042 C 
BRANCH  26  27
ATOM     27  C   UNL     1      -2.111   6.000  -6.524  1.00  0.00     0.118 C 
BRANCH  27  28
ATOM     28  N   UNL     1      -2.808   7.234  -6.149  1.00  0.00    -0.352 N 
ATOM     29  C   UNL     1      -2.454   8.555  -6.377  1.00  0.00     0.251 C 
ATOM     30  H   UNL     1      -3.655   7.106  -5.663  1.00  0.00     0.163 HD
ATOM     31  O   UNL     1      -3.227   9.463  -6.185  1.00  0.00    -0.269 OA
BRANCH  29  32
ATOM     32  C   UNL     1      -1.131   8.792  -6.986  1.00  0.00     0.039 A 
ATOM     33  C   UNL     1      -1.117   9.252  -8.304  1.00  0.00     0.014 A 
ATOM     34  C   UNL     1      -0.010   8.215  -6.396  1.00  0.00     0.014 A 
ATOM     35  C   UNL     1      -0.060   8.880  -9.122  1.00  0.00     0.010 A 
ATOM     36  C   UNL     1       0.999   7.776  -7.231  1.00  0.00     0.010 A 
ATOM     37  C   UNL     1       0.926   8.038  -8.605  1.00  0.00    -0.014 A 
BRANCH  37  38
ATOM     38  C   UNL     1       1.839   7.301  -9.469  1.00  0.00     0.031 A 
ATOM     39  C   UNL     1       3.234   7.752  -9.611  1.00  0.00     0.074 A 
ATOM     40  C   UNL     1       1.418   6.238 -10.194  1.00  0.00     0.049 A 
ATOM     41  N   UNL     1       3.895   7.672 -10.716  1.00  0.00    -0.248 NA
ATOM     42  C   UNL     1       3.980   8.376  -8.524  1.00  0.00     0.031 C 
ATOM     43  C   UNL     1       2.255   5.324 -10.968  1.00  0.00     0.029 A 
ATOM     44  N   UNL     1       0.106   5.901 -10.555  1.00  0.00    -0.354 N 
ATOM     45  C   UNL     1       5.200   7.971 -10.427  1.00  0.00     0.074 A 
ATOM     46  C   UNL     1       5.194   8.479  -9.073  1.00  0.00     0.031 C 
ATOM     47  C   UNL     1       1.503   4.743 -11.914  1.00  0.00     0.029 A 
ATOM     48  C   UNL     1       0.183   5.342 -11.850  1.00  0.00     0.049 A 
ATOM     49  H   UNL     1      -0.707   6.028 -10.015  1.00  0.00     0.167 HD
ATOM     50  C   UNL     1       6.191   7.625 -11.292  1.00  0.00     0.037 A 
ATOM     51  C   UNL     1      -0.504   5.848 -12.912  1.00  0.00     0.037 A 
ATOM     52  C   UNL     1       5.684   6.916 -12.457  1.00  0.00     0.049 A 
ATOM     53  C   UNL     1       0.369   6.235 -14.079  1.00  0.00     0.074 A 
ATOM     54  C   UNL     1       5.572   5.566 -12.746  1.00  0.00     0.029 A 
ATOM     55  N   UNL     1       4.902   7.583 -13.392  1.00  0.00    -0.354 N 
ATOM     56  N   UNL     1       1.651   6.450 -13.981  1.00  0.00    -0.248 NA
ATOM     57  C   UNL     1      -0.125   6.434 -15.439  1.00  0.00     0.031 C 
ATOM     58  C   UNL     1       4.715   5.418 -13.860  1.00  0.00     0.029 A 
ATOM     59  C   UNL     1       4.312   6.680 -14.255  1.00  0.00     0.049 A 
ATOM     60  H   UNL     1       4.784   8.560 -13.433  1.00  0.00     0.167 HD
ATOM     61  C   UNL     1       2.154   6.819 -15.206  1.00  0.00     0.074 A 
ATOM     62  C   UNL     1       1.003   6.777 -16.087  1.00  0.00     0.031 C 
ATOM     63  C   UNL     1       3.478   7.124 -15.362  1.00  0.00     0.037 A 
BRANCH  50  64
ATOM     64  C   UNL     1       7.629   7.665 -10.868  1.00  0.00     0.057 A 
ATOM     65  C   UNL     1       8.506   6.597 -11.124  1.00  0.00     0.134 A 
ATOM     66  C   UNL     1       8.179   8.730 -10.135  1.00  0.00     0.134 A 
ATOM     67  F   UNL     1       8.141   5.546 -11.867  1.00  0.00    -0.206 F 
ATOM     68  C   UNL     1       9.802   6.545 -10.601  1.00  0.00     0.040 A 
ATOM     69  C   UNL     1       9.458   8.672  -9.567  1.00  0.00     0.040 A 
ATOM     70  F   UNL     1       7.483   9.860  -9.936  1.00  0.00    -0.206 F 
ATOM     71  C   UNL     1      10.270   7.568  -9.788  1.00  0.00     0.006 A 
ENDBRANCH  50  64
BRANCH  51  72
ATOM     72  C   UNL     1      -1.776   6.506 -12.531  1.00  0.00     0.057 A 
ATOM     73  C   UNL     1      -2.819   5.707 -12.032  1.00  0.00     0.134 A 
ATOM     74  C   UNL     1      -1.840   7.877 -12.271  1.00  0.00     0.134 A 
ATOM     75  F   UNL     1      -2.815   4.382 -12.248  1.00  0.00    -0.206 F 
ATOM     76  C   UNL     1      -3.818   6.229 -11.208  1.00  0.00     0.040 A 
ATOM     77  C   UNL     1      -2.841   8.412 -11.452  1.00  0.00     0.040 A 
ATOM     78  F   UNL     1      -0.872   8.698 -12.701  1.00  0.00    -0.206 F 
ATOM     79  C   UNL     1      -3.808   7.582 -10.885  1.00  0.00     0.006 A 
ENDBRANCH  51  72
BRANCH  63  80
ATOM     80  C   UNL     1       4.162   7.745 -16.565  1.00  0.00     0.057 A 
ATOM     81  C   UNL     1       3.517   8.477 -17.572  1.00  0.00     0.134 A 
ATOM     82  C   UNL     1       5.577   7.730 -16.670  1.00  0.00     0.134 A 
ATOM     83  F   UNL     1       2.194   8.677 -17.563  1.00  0.00    -0.206 F 
ATOM     84  C   UNL     1       4.214   9.100 -18.620  1.00  0.00     0.040 A 
ATOM     85  C   UNL     1       6.284   8.392 -17.678  1.00  0.00     0.040 A 
ATOM     86  F   UNL     1       6.350   7.089 -15.780  1.00  0.00    -0.206 F 
ATOM     87  C   UNL     1       5.602   9.072 -18.669  1.00  0.00     0.006 A 
ENDBRANCH  63  80
ENDBRANCH  37  38
ENDBRANCH  29  32
ENDBRANCH  27  28
ENDBRANCH  26  27
ENDBRANCH   1  26
TORSDOF 14
