REMARK SMILES CC(=O)N1CCC[C@@H](Cc2nccnc2C(=O)NCCCNC(=O)c2ccc(-c3c4nc(c(-c5c(F)cccc5F)c5ccc([nH]5)c(-c5c(F)cccc5F)c5nc(c(-c6c(F)cccc6F)c6ccc3[nH]6)C=C5)C=C4)cc2)C1
REMARK SMILES IDX 19 1 18 2 16 3 17 4 15 6 10 7 11 8 12 9 14 10 13 11 9 12
REMARK SMILES IDX 8 13 4 14 5 15 79 16 6 17 7 18 2 19 1 20 3 21 20 22 21 23
REMARK SMILES IDX 22 24 23 25 24 27 25 28 26 29 78 30 27 31 77 32 28 33 29 34
REMARK SMILES IDX 30 35 71 36 31 37 76 38 70 39 72 40 32 41 75 42 69 43 68 44
REMARK SMILES IDX 33 46 59 47 42 48 58 49 43 50 46 51 57 52 73 53 44 54 45 55
REMARK SMILES IDX 56 57 74 58 47 59 34 60 35 61 40 62 36 63 37 64 39 65 41 66
REMARK SMILES IDX 38 67 60 68 61 69 66 70 62 71 63 72 65 73 67 74 64 75 48 76
REMARK SMILES IDX 49 77 54 78 50 79 51 80 53 81 55 82 52 83
REMARK H PARENT 18 5 22 26 72 45 46 56
REMARK Flexibility Score: inf
ROOT
ATOM      1  C   UNL     1       5.825   3.489   4.679  1.00  0.00     0.118 C 
ENDROOT
BRANCH   1   2
ATOM      2  N   UNL     1       5.284   3.392   6.025  1.00  0.00    -0.351 N 
ATOM      3  C   UNL     1       4.602   2.450   6.761  1.00  0.00     0.271 C 
ATOM      4  O   UNL     1       4.247   2.854   7.878  1.00  0.00    -0.267 OA
ATOM      5  H   UNL     1       5.447   4.212   6.544  1.00  0.00     0.163 HD
BRANCH   3   6
ATOM      6  C   UNL     1       4.297   1.010   6.415  1.00  0.00     0.149 A 
ATOM      7  C   UNL     1       3.712   0.481   5.254  1.00  0.00     0.072 A 
ATOM      8  N   UNL     1       3.304  -0.825   5.183  1.00  0.00    -0.257 NA
ATOM      9  C   UNL     1       3.465  -1.577   6.290  1.00  0.00     0.131 A 
ATOM     10  N   UNL     1       4.474   0.203   7.510  1.00  0.00    -0.248 NA
ATOM     11  C   UNL     1       4.045  -1.073   7.430  1.00  0.00     0.132 A 
BRANCH   7  12
ATOM     12  C   UNL     1       3.509   1.207   3.971  1.00  0.00     0.064 C 
BRANCH  12  13
ATOM     13  C   UNL     1       2.095   1.519   3.484  1.00  0.00     0.015 C 
ATOM     14  N   UNL     1       0.153   0.805   2.221  1.00  0.00    -0.343 N 
ATOM     15  C   UNL     1      -0.796   1.389   3.167  1.00  0.00     0.119 C 
ATOM     16  C   UNL     1       1.399   0.324   2.826  1.00  0.00     0.123 C 
ATOM     17  C   UNL     1      -0.157   2.551   3.929  1.00  0.00     0.022 C 
ATOM     18  C   UNL     1       1.185   2.147   4.551  1.00  0.00     0.007 C 
BRANCH  14  19
ATOM     19  C   UNL     1      -0.093   0.896   0.859  1.00  0.00     0.219 C 
ATOM     20  C   UNL     1       0.913   0.265  -0.070  1.00  0.00     0.114 C 
ATOM     21  O   UNL     1      -1.082   1.464   0.396  1.00  0.00    -0.275 OA
ENDBRANCH  14  19
ENDBRANCH  12  13
ENDBRANCH   7  12
ENDBRANCH   3   6
ENDBRANCH   1   2
BRANCH   1  22
ATOM     22  C   UNL     1       4.862   4.289   3.786  1.00  0.00     0.042 C 
BRANCH  22  23
ATOM     23  C   UNL     1       5.032   5.800   3.846  1.00  0.00     0.118 C 
BRANCH  23  24
ATOM     24  N   UNL     1       5.984   6.266   2.857  1.00  0.00    -0.352 N 
ATOM     25  C   UNL     1       5.800   6.973   1.693  1.00  0.00     0.251 C 
ATOM     26  H   UNL     1       6.921   6.038   3.052  1.00  0.00     0.163 HD
ATOM     27  O   UNL     1       6.728   7.009   0.887  1.00  0.00    -0.269 OA
BRANCH  25  28
ATOM     28  C   UNL     1       4.538   7.699   1.378  1.00  0.00     0.039 A 
ATOM     29  C   UNL     1       4.215   7.905   0.029  1.00  0.00     0.014 A 
ATOM     30  C   UNL     1       3.738   8.293   2.358  1.00  0.00     0.014 A 
ATOM     31  C   UNL     1       3.119   8.700  -0.330  1.00  0.00     0.010 A 
ATOM     32  C   UNL     1       2.591   9.008   2.003  1.00  0.00     0.010 A 
ATOM     33  C   UNL     1       2.298   9.264   0.656  1.00  0.00    -0.014 A 
BRANCH  33  34
ATOM     34  C   UNL     1       1.214  10.223   0.304  1.00  0.00     0.031 A 
ATOM     35  C   UNL     1       1.313  11.659   0.758  1.00  0.00     0.074 A 
ATOM     36  C   UNL     1       0.137   9.819  -0.396  1.00  0.00     0.049 A 
ATOM     37  N   UNL     1       0.452  12.637   0.623  1.00  0.00    -0.248 NA
ATOM     38  C   UNL     1       2.535  12.040   1.487  1.00  0.00     0.031 C 
ATOM     39  C   UNL     1      -0.103   8.457  -0.874  1.00  0.00     0.029 A 
ATOM     40  N   UNL     1      -0.963  10.521  -0.824  1.00  0.00    -0.354 N 
ATOM     41  C   UNL     1       1.011  13.729   1.277  1.00  0.00     0.074 A 
ATOM     42  C   UNL     1       2.262  13.284   1.848  1.00  0.00     0.031 C 
ATOM     43  C   UNL     1      -1.264   8.428  -1.549  1.00  0.00     0.029 A 
ATOM     44  C   UNL     1      -1.864   9.759  -1.528  1.00  0.00     0.049 A 
ATOM     45  H   UNL     1      -1.094  11.480  -0.643  1.00  0.00     0.167 HD
ATOM     46  C   UNL     1       0.543  14.997   1.373  1.00  0.00     0.037 A 
ATOM     47  C   UNL     1      -3.038  10.098  -2.094  1.00  0.00     0.037 A 
ATOM     48  C   UNL     1      -0.672  15.460   0.758  1.00  0.00     0.049 A 
ATOM     49  C   UNL     1      -3.520  11.521  -2.007  1.00  0.00     0.074 A 
ATOM     50  C   UNL     1      -1.209  16.736   0.760  1.00  0.00     0.029 A 
ATOM     51  N   UNL     1      -1.530  14.664   0.017  1.00  0.00    -0.354 N 
ATOM     52  N   UNL     1      -2.963  12.548  -1.414  1.00  0.00    -0.248 NA
ATOM     53  C   UNL     1      -4.791  11.832  -2.679  1.00  0.00     0.031 C 
ATOM     54  C   UNL     1      -2.405  16.707   0.034  1.00  0.00     0.029 A 
ATOM     55  C   UNL     1      -2.593  15.422  -0.447  1.00  0.00     0.049 A 
ATOM     56  H   UNL     1      -1.403  13.703  -0.156  1.00  0.00     0.167 HD
ATOM     57  C   UNL     1      -3.794  13.632  -1.669  1.00  0.00     0.074 A 
ATOM     58  C   UNL     1      -4.890  13.139  -2.476  1.00  0.00     0.031 C 
ATOM     59  C   UNL     1      -3.661  14.920  -1.270  1.00  0.00     0.037 A 
BRANCH  46  60
ATOM     60  C   UNL     1       1.359  15.976   2.165  1.00  0.00     0.057 A 
ATOM     61  C   UNL     1       2.583  16.469   1.693  1.00  0.00     0.134 A 
ATOM     62  C   UNL     1       0.907  16.449   3.404  1.00  0.00     0.134 A 
ATOM     63  F   UNL     1       3.080  16.045   0.521  1.00  0.00    -0.206 F 
ATOM     64  C   UNL     1       3.342  17.374   2.437  1.00  0.00     0.040 A 
ATOM     65  C   UNL     1       1.645  17.374   4.145  1.00  0.00     0.040 A 
ATOM     66  F   UNL     1      -0.259  16.023   3.911  1.00  0.00    -0.206 F 
ATOM     67  C   UNL     1       2.870  17.834   3.665  1.00  0.00     0.006 A 
ENDBRANCH  46  60
BRANCH  47  68
ATOM     68  C   UNL     1      -3.828   9.081  -2.832  1.00  0.00     0.057 A 
ATOM     69  C   UNL     1      -3.922   9.117  -4.228  1.00  0.00     0.134 A 
ATOM     70  C   UNL     1      -4.512   8.059  -2.165  1.00  0.00     0.134 A 
ATOM     71  F   UNL     1      -3.305  10.087  -4.921  1.00  0.00    -0.206 F 
ATOM     72  C   UNL     1      -4.683   8.185  -4.935  1.00  0.00     0.040 A 
ATOM     73  C   UNL     1      -5.258   7.106  -2.860  1.00  0.00     0.040 A 
ATOM     74  F   UNL     1      -4.458   7.969  -0.828  1.00  0.00    -0.206 F 
ATOM     75  C   UNL     1      -5.351   7.172  -4.249  1.00  0.00     0.006 A 
ENDBRANCH  47  68
BRANCH  59  76
ATOM     76  C   UNL     1      -4.695  15.896  -1.744  1.00  0.00     0.057 A 
ATOM     77  C   UNL     1      -5.985  15.929  -1.201  1.00  0.00     0.134 A 
ATOM     78  C   UNL     1      -4.380  16.841  -2.729  1.00  0.00     0.134 A 
ATOM     79  F   UNL     1      -6.350  15.043  -0.263  1.00  0.00    -0.206 F 
ATOM     80  C   UNL     1      -6.933  16.855  -1.637  1.00  0.00     0.040 A 
ATOM     81  C   UNL     1      -5.312  17.786  -3.157  1.00  0.00     0.040 A 
ATOM     82  F   UNL     1      -3.158  16.867  -3.282  1.00  0.00    -0.206 F 
ATOM     83  C   UNL     1      -6.596  17.791  -2.614  1.00  0.00     0.006 A 
ENDBRANCH  59  76
ENDBRANCH  33  34
ENDBRANCH  25  28
ENDBRANCH  23  24
ENDBRANCH  22  23
ENDBRANCH   1  22
TORSDOF 13
