REMARK SMILES O=C(C[N@H+]1CC[C@]2(C1)C[C@H](CBr)C2)NCCCNC(=O)c1ccc(-c2c3nc(c(-c4c(F)cccc4F)c4ccc([nH]4)c(-c4c(F)cccc4F)c4nc(c(-c5c(F)cccc5F)c5ccc2[nH]5)C=C4)C=C3)cc1
REMARK SMILES IDX 16 1 15 2 14 3 1 4 2 5 3 7 4 8 5 9 8 10 6 12 7 13 13 14 9 15
REMARK SMILES IDX 10 16 11 17 12 18 17 19 18 20 19 21 20 23 21 24 22 25 74 26
REMARK SMILES IDX 23 27 73 28 24 29 25 30 26 31 67 32 27 33 72 34 66 35 68 36
REMARK SMILES IDX 28 37 71 38 65 39 64 40 29 42 55 43 38 44 54 45 39 46 42 47
REMARK SMILES IDX 53 48 69 49 40 50 41 51 52 53 70 54 43 55 30 56 31 57 36 58
REMARK SMILES IDX 32 59 33 60 35 61 37 62 34 63 56 64 57 65 62 66 58 67 59 68
REMARK SMILES IDX 61 69 63 70 60 71 44 72 45 73 50 74 46 75 47 76 49 77 51 78
REMARK SMILES IDX 48 79
REMARK H PARENT 14 6 4 11 18 22 68 41 42 52
REMARK Flexibility Score: inf
ROOT
ATOM      1  C   UNL     1       2.291   0.966   3.504  1.00  0.00     0.042 C 
ENDROOT
BRANCH   1   2
ATOM      2  C   UNL     1       1.838   1.278   2.090  1.00  0.00     0.118 C 
BRANCH   2   3
ATOM      3  N   UNL     1       2.378   0.372   1.098  1.00  0.00    -0.351 N 
ATOM      4  O   UNL     1       0.477   0.320  -0.199  1.00  0.00    -0.269 OA
ATOM      5  C   UNL     1       1.679   0.110  -0.070  1.00  0.00     0.275 C 
ATOM      6  H   UNL     1       3.248  -0.061   1.254  1.00  0.00     0.163 HD
BRANCH   5   7
ATOM      7  C   UNL     1       2.552  -0.438  -1.199  1.00  0.00     0.363 C 
BRANCH   7   8
ATOM      8  N   UNL     1       3.516   0.534  -1.756  1.00  0.00    -0.327 N 
ATOM      9  C   UNL     1       3.552   1.901  -1.250  1.00  0.00     0.263 C 
ATOM     10  C   UNL     1       4.877   0.035  -1.776  1.00  0.00     0.269 C 
ATOM     11  H   UNL     1       3.108   0.619  -2.687  1.00  0.00     0.348 HD
ATOM     12  C   UNL     1       4.912   2.474  -1.655  1.00  0.00     0.074 C 
ATOM     13  C   UNL     1       5.753   1.262  -2.050  1.00  0.00     0.025 C 
ATOM     14  C   UNL     1       6.258   1.536  -3.495  1.00  0.00     0.017 C 
ATOM     15  C   UNL     1       7.286   0.970  -1.754  1.00  0.00     0.017 C 
ATOM     16  C   UNL     1       7.344   0.473  -3.255  1.00  0.00     0.001 C 
BRANCH  16  17
ATOM     17  C   UNL     1       8.443   0.665  -4.272  1.00  0.00     0.084 C 
ATOM     18  Br  UNL     1       9.688  -0.819  -4.200  1.00  0.00    -0.093 Br
ENDBRANCH  16  17
ENDBRANCH   7   8
ENDBRANCH   5   7
ENDBRANCH   2   3
ENDBRANCH   1   2
BRANCH   1  19
ATOM     19  C   UNL     1       3.792   1.080   3.744  1.00  0.00     0.118 C 
BRANCH  19  20
ATOM     20  N   UNL     1       4.304   2.440   3.655  1.00  0.00    -0.352 N 
ATOM     21  C   UNL     1       5.048   3.163   4.555  1.00  0.00     0.251 C 
ATOM     22  H   UNL     1       4.082   2.915   2.821  1.00  0.00     0.163 HD
ATOM     23  O   UNL     1       5.282   4.354   4.326  1.00  0.00    -0.269 OA
BRANCH  21  24
ATOM     24  C   UNL     1       5.545   2.552   5.809  1.00  0.00     0.039 A 
ATOM     25  C   UNL     1       5.494   3.304   6.987  1.00  0.00     0.014 A 
ATOM     26  C   UNL     1       6.074   1.259   5.839  1.00  0.00     0.014 A 
ATOM     27  C   UNL     1       5.906   2.737   8.195  1.00  0.00     0.010 A 
ATOM     28  C   UNL     1       6.397   0.663   7.059  1.00  0.00     0.010 A 
ATOM     29  C   UNL     1       6.324   1.396   8.251  1.00  0.00    -0.014 A 
BRANCH  29  30
ATOM     30  C   UNL     1       6.673   0.763   9.552  1.00  0.00     0.031 A 
ATOM     31  C   UNL     1       8.064   0.250   9.814  1.00  0.00     0.074 A 
ATOM     32  C   UNL     1       5.721   0.623  10.497  1.00  0.00     0.049 A 
ATOM     33  N   UNL     1       8.551  -0.303  10.898  1.00  0.00    -0.248 NA
ATOM     34  C   UNL     1       9.030   0.347   8.709  1.00  0.00     0.031 C 
ATOM     35  C   UNL     1       4.318   1.015  10.350  1.00  0.00     0.029 A 
ATOM     36  N   UNL     1       5.790   0.116  11.772  1.00  0.00    -0.354 N 
ATOM     37  C   UNL     1       9.871  -0.621  10.603  1.00  0.00     0.074 A 
ATOM     38  C   UNL     1      10.091  -0.261   9.219  1.00  0.00     0.031 C 
ATOM     39  C   UNL     1       3.671   0.776  11.501  1.00  0.00     0.029 A 
ATOM     40  C   UNL     1       4.600   0.182  12.456  1.00  0.00     0.049 A 
ATOM     41  H   UNL     1       6.614  -0.258  12.159  1.00  0.00     0.167 HD
ATOM     42  C   UNL     1      10.823  -1.140  11.416  1.00  0.00     0.037 A 
ATOM     43  C   UNL     1       4.292  -0.188  13.714  1.00  0.00     0.037 A 
ATOM     44  C   UNL     1      10.609  -1.487  12.797  1.00  0.00     0.049 A 
ATOM     45  C   UNL     1       5.367  -0.757  14.597  1.00  0.00     0.074 A 
ATOM     46  C   UNL     1      11.525  -1.967  13.718  1.00  0.00     0.029 A 
ATOM     47  N   UNL     1       9.392  -1.398  13.456  1.00  0.00    -0.354 N 
ATOM     48  N   UNL     1       6.632  -0.973  14.329  1.00  0.00    -0.248 NA
ATOM     49  C   UNL     1       4.973  -1.120  15.965  1.00  0.00     0.031 C 
ATOM     50  C   UNL     1      10.850  -2.217  14.918  1.00  0.00     0.029 A 
ATOM     51  C   UNL     1       9.528  -1.836  14.764  1.00  0.00     0.049 A 
ATOM     52  H   UNL     1       8.554  -1.073  13.054  1.00  0.00     0.167 HD
ATOM     53  C   UNL     1       7.190  -1.468  15.500  1.00  0.00     0.074 A 
ATOM     54  C   UNL     1       6.131  -1.498  16.487  1.00  0.00     0.031 C 
ATOM     55  C   UNL     1       8.466  -1.863  15.738  1.00  0.00     0.037 A 
BRANCH  42  56
ATOM     56  C   UNL     1      12.191  -1.358  10.831  1.00  0.00     0.057 A 
ATOM     57  C   UNL     1      13.022  -0.287  10.473  1.00  0.00     0.134 A 
ATOM     58  C   UNL     1      12.699  -2.652  10.657  1.00  0.00     0.134 A 
ATOM     59  F   UNL     1      12.595   0.978  10.602  1.00  0.00    -0.206 F 
ATOM     60  C   UNL     1      14.295  -0.496   9.938  1.00  0.00     0.040 A 
ATOM     61  C   UNL     1      13.982  -2.872  10.152  1.00  0.00     0.040 A 
ATOM     62  F   UNL     1      11.961  -3.724  10.985  1.00  0.00    -0.206 F 
ATOM     63  C   UNL     1      14.781  -1.792   9.784  1.00  0.00     0.006 A 
ENDBRANCH  42  56
BRANCH  43  64
ATOM     64  C   UNL     1       2.910  -0.000  14.229  1.00  0.00     0.057 A 
ATOM     65  C   UNL     1       2.631   0.939  15.229  1.00  0.00     0.134 A 
ATOM     66  C   UNL     1       1.841  -0.764  13.747  1.00  0.00     0.134 A 
ATOM     67  F   UNL     1       3.617   1.688  15.745  1.00  0.00    -0.206 F 
ATOM     68  C   UNL     1       1.346   1.094  15.750  1.00  0.00     0.040 A 
ATOM     69  C   UNL     1       0.544  -0.599  14.238  1.00  0.00     0.040 A 
ATOM     70  F   UNL     1       2.039  -1.675  12.783  1.00  0.00    -0.206 F 
ATOM     71  C   UNL     1       0.296   0.326  15.250  1.00  0.00     0.006 A 
ENDBRANCH  43  64
BRANCH  55  72
ATOM     72  C   UNL     1       8.789  -2.325  17.131  1.00  0.00     0.057 A 
ATOM     73  C   UNL     1       8.285  -3.524  17.655  1.00  0.00     0.134 A 
ATOM     74  C   UNL     1       9.623  -1.562  17.959  1.00  0.00     0.134 A 
ATOM     75  F   UNL     1       7.472  -4.298  16.920  1.00  0.00    -0.206 F 
ATOM     76  C   UNL     1       8.564  -3.924  18.963  1.00  0.00     0.040 A 
ATOM     77  C   UNL     1       9.936  -1.968  19.257  1.00  0.00     0.040 A 
ATOM     78  F   UNL     1      10.151  -0.409  17.519  1.00  0.00    -0.206 F 
ATOM     79  C   UNL     1       9.396  -3.146  19.766  1.00  0.00     0.006 A 
ENDBRANCH  55  72
ENDBRANCH  29  30
ENDBRANCH  21  24
ENDBRANCH  19  20
ENDBRANCH   1  19
TORSDOF 12
