REMARK SMILES COC[C@@H](C)N(C)C(=O)N1CCC(CC(=O)NCCCNC(=O)c2ccc(-c3c4nc(c(-c5c(F)cccc5F)c5ccc([nH]5)c(-c5c(F)cccc5F)c5nc(c(-c6c(F)cccc6F)c6ccc3[nH]6)C=C5)C=C4)cc2)CC1
REMARK SMILES IDX 15 1 16 2 17 3 14 5 13 6 8 7 9 8 10 9 11 10 79 11 12 12
REMARK SMILES IDX 78 13 6 14 7 15 4 16 5 17 3 18 2 19 1 20 18 21 19 22 20 23
REMARK SMILES IDX 21 24 22 25 23 27 24 28 25 29 77 30 26 31 76 32 27 33 28 34
REMARK SMILES IDX 29 35 70 36 30 37 75 38 69 39 71 40 31 41 74 42 68 43 67 44
REMARK SMILES IDX 32 46 58 47 41 48 57 49 42 50 45 51 56 52 72 53 43 54 44 55
REMARK SMILES IDX 55 57 73 58 46 59 33 60 34 61 39 62 35 63 36 64 38 65 40 66
REMARK SMILES IDX 37 67 59 68 60 69 65 70 61 71 62 72 64 73 66 74 63 75 47 76
REMARK SMILES IDX 48 77 53 78 49 79 50 80 52 81 54 82 51 83
REMARK H PARENT 17 4 21 26 71 45 45 56
REMARK Flexibility Score: inf
ROOT
ATOM      1  C   UNL     1       6.808   1.929  -8.535  1.00  0.00     0.220 C 
ATOM      2  O   UNL     1       6.865   1.983  -9.765  1.00  0.00    -0.275 OA
ATOM      3  N   UNL     1       7.737   1.172  -7.883  1.00  0.00    -0.356 N 
ATOM      4  H   UNL     1       8.388   0.731  -8.475  1.00  0.00     0.163 HD
ENDROOT
BRANCH   1   5
ATOM      5  C   UNL     1       5.714   2.659  -7.777  1.00  0.00     0.103 C 
BRANCH   5   6
ATOM      6  C   UNL     1       4.373   1.899  -7.777  1.00  0.00     0.002 C 
ATOM      7  C   UNL     1       2.134   0.509  -4.833  1.00  0.00     0.320 C 
ATOM      8  O   UNL     1       3.099   0.231  -4.123  1.00  0.00    -0.248 OA
ATOM      9  N   UNL     1       2.266   0.654  -6.202  1.00  0.00    -0.325 N 
ATOM     10  C   UNL     1       3.208  -0.191  -6.901  1.00  0.00     0.121 C 
ATOM     11  C   UNL     1       1.985   1.929  -6.850  1.00  0.00     0.121 C 
ATOM     12  C   UNL     1       4.527   0.528  -7.112  1.00  0.00     0.026 C 
ATOM     13  C   UNL     1       3.281   2.724  -7.065  1.00  0.00     0.026 C 
BRANCH   7  14
ATOM     14  N   UNL     1       0.846   0.639  -4.333  1.00  0.00    -0.323 N 
ATOM     15  C   UNL     1      -0.339   0.537  -5.176  1.00  0.00     0.149 C 
BRANCH  14  16
ATOM     16  C   UNL     1       0.615   0.679  -2.872  1.00  0.00     0.109 C 
ATOM     17  C   UNL     1       1.217   1.946  -2.262  1.00  0.00     0.033 C 
BRANCH  16  18
ATOM     18  C   UNL     1       1.083  -0.617  -2.167  1.00  0.00     0.184 C 
BRANCH  18  19
ATOM     19  O   UNL     1       0.382  -0.879  -0.945  1.00  0.00    -0.383 OA
ATOM     20  C   UNL     1       0.997  -0.314   0.204  1.00  0.00     0.194 C 
ENDBRANCH  18  19
ENDBRANCH  16  18
ENDBRANCH  14  16
ENDBRANCH   7  14
ENDBRANCH   5   6
ENDBRANCH   1   5
BRANCH   3  21
ATOM     21  C   UNL     1       7.936   0.902  -6.464  1.00  0.00     0.117 C 
BRANCH  21  22
ATOM     22  C   UNL     1       7.626  -0.547  -6.080  1.00  0.00     0.042 C 
BRANCH  22  23
ATOM     23  C   UNL     1       8.569  -1.578  -6.687  1.00  0.00     0.118 C 
BRANCH  23  24
ATOM     24  N   UNL     1       9.682  -1.874  -5.803  1.00  0.00    -0.352 N 
ATOM     25  C   UNL     1       9.939  -2.996  -5.053  1.00  0.00     0.251 C 
ATOM     26  H   UNL     1      10.357  -1.161  -5.731  1.00  0.00     0.163 HD
ATOM     27  O   UNL     1      10.796  -2.942  -4.175  1.00  0.00    -0.269 OA
BRANCH  25  28
ATOM     28  C   UNL     1       9.208  -4.269  -5.278  1.00  0.00     0.039 A 
ATOM     29  C   UNL     1       8.900  -5.069  -4.170  1.00  0.00     0.014 A 
ATOM     30  C   UNL     1       8.909  -4.734  -6.561  1.00  0.00     0.014 A 
ATOM     31  C   UNL     1       8.275  -6.309  -4.347  1.00  0.00     0.010 A 
ATOM     32  C   UNL     1       8.221  -5.937  -6.733  1.00  0.00     0.010 A 
ATOM     33  C   UNL     1       7.918  -6.751  -5.630  1.00  0.00    -0.014 A 
BRANCH  33  34
ATOM     34  C   UNL     1       7.286  -8.081  -5.844  1.00  0.00     0.031 A 
ATOM     35  C   UNL     1       8.019  -9.148  -6.616  1.00  0.00     0.074 A 
ATOM     36  C   UNL     1       6.042  -8.325  -5.388  1.00  0.00     0.049 A 
ATOM     37  N   UNL     1       7.608 -10.335  -6.987  1.00  0.00    -0.248 NA
ATOM     38  C   UNL     1       9.387  -8.826  -7.051  1.00  0.00     0.031 C 
ATOM     39  C   UNL     1       5.208  -7.377  -4.649  1.00  0.00     0.029 A 
ATOM     40  N   UNL     1       5.258  -9.448  -5.490  1.00  0.00    -0.354 N 
ATOM     41  C   UNL     1       8.653 -10.887  -7.717  1.00  0.00     0.074 A 
ATOM     42  C   UNL     1       9.701  -9.892  -7.773  1.00  0.00     0.031 C 
ATOM     43  C   UNL     1       4.037  -7.963  -4.349  1.00  0.00     0.029 A 
ATOM     44  C   UNL     1       4.023  -9.314  -4.903  1.00  0.00     0.049 A 
ATOM     45  H   UNL     1       5.553 -10.272  -5.941  1.00  0.00     0.167 HD
ATOM     46  C   UNL     1       8.743 -12.119  -8.274  1.00  0.00     0.037 A 
ATOM     47  C   UNL     1       2.993 -10.179  -4.826  1.00  0.00     0.037 A 
ATOM     48  C   UNL     1       7.723 -13.130  -8.185  1.00  0.00     0.049 A 
ATOM     49  C   UNL     1       3.122 -11.544  -5.443  1.00  0.00     0.074 A 
ATOM     50  C   UNL     1       7.747 -14.426  -8.672  1.00  0.00     0.029 A 
ATOM     51  N   UNL     1       6.499 -12.961  -7.558  1.00  0.00    -0.354 N 
ATOM     52  N   UNL     1       4.131 -12.065  -6.096  1.00  0.00    -0.248 NA
ATOM     53  C   UNL     1       1.966 -12.444  -5.308  1.00  0.00     0.031 C 
ATOM     54  C   UNL     1       6.525 -15.032  -8.364  1.00  0.00     0.029 A 
ATOM     55  C   UNL     1       5.755 -14.125  -7.654  1.00  0.00     0.049 A 
ATOM     56  H   UNL     1       6.202 -12.136  -7.111  1.00  0.00     0.167 HD
ATOM     57  C   UNL     1       3.747 -13.359  -6.423  1.00  0.00     0.074 A 
ATOM     58  C   UNL     1       2.414 -13.548  -5.890  1.00  0.00     0.031 C 
ATOM     59  C   UNL     1       4.437 -14.305  -7.105  1.00  0.00     0.037 A 
BRANCH  46  60
ATOM     60  C   UNL     1       9.999 -12.445  -9.029  1.00  0.00     0.057 A 
ATOM     61  C   UNL     1      11.215 -12.674  -8.373  1.00  0.00     0.134 A 
ATOM     62  C   UNL     1       9.984 -12.566 -10.424  1.00  0.00     0.134 A 
ATOM     63  F   UNL     1      11.298 -12.563  -7.038  1.00  0.00    -0.206 F 
ATOM     64  C   UNL     1      12.378 -12.986  -9.079  1.00  0.00     0.040 A 
ATOM     65  C   UNL     1      11.135 -12.902 -11.140  1.00  0.00     0.040 A 
ATOM     66  F   UNL     1       8.851 -12.367 -11.114  1.00  0.00    -0.206 F 
ATOM     67  C   UNL     1      12.338 -13.107 -10.467  1.00  0.00     0.006 A 
ENDBRANCH  46  60
BRANCH  47  68
ATOM     68  C   UNL     1       1.750  -9.790  -4.115  1.00  0.00     0.057 A 
ATOM     69  C   UNL     1       1.423 -10.355  -2.877  1.00  0.00     0.134 A 
ATOM     70  C   UNL     1       0.858  -8.858  -4.657  1.00  0.00     0.134 A 
ATOM     71  F   UNL     1       2.229 -11.270  -2.320  1.00  0.00    -0.206 F 
ATOM     72  C   UNL     1       0.245 -10.019  -2.209  1.00  0.00     0.040 A 
ATOM     73  C   UNL     1      -0.313  -8.496  -3.990  1.00  0.00     0.040 A 
ATOM     74  F   UNL     1       1.117  -8.280  -5.839  1.00  0.00    -0.206 F 
ATOM     75  C   UNL     1      -0.626  -9.083  -2.764  1.00  0.00     0.006 A 
ENDBRANCH  47  68
BRANCH  59  76
ATOM     76  C   UNL     1       3.782 -15.642  -7.278  1.00  0.00     0.057 A 
ATOM     77  C   UNL     1       2.740 -15.841  -8.191  1.00  0.00     0.134 A 
ATOM     78  C   UNL     1       4.230 -16.753  -6.552  1.00  0.00     0.134 A 
ATOM     79  F   UNL     1       2.258 -14.814  -8.907  1.00  0.00    -0.206 F 
ATOM     80  C   UNL     1       2.154 -17.096  -8.364  1.00  0.00     0.040 A 
ATOM     81  C   UNL     1       3.667 -18.017  -6.732  1.00  0.00     0.040 A 
ATOM     82  F   UNL     1       5.231 -16.630  -5.667  1.00  0.00    -0.206 F 
ATOM     83  C   UNL     1       2.622 -18.190  -7.637  1.00  0.00     0.006 A 
ENDBRANCH  59  76
ENDBRANCH  33  34
ENDBRANCH  25  28
ENDBRANCH  23  24
ENDBRANCH  22  23
ENDBRANCH  21  22
ENDBRANCH   3  21
TORSDOF 15
