REMARK SMILES O=C(NCCCNC(=O)c1sccc1S(=O)(=O)Nc1ccc(Cn2cncn2)cc1)c1ccc(-c2c3nc(c(-c4c(F)cccc4F)c4ccc([nH]4)c(-c4c(F)cccc4F)c4nc(c(-c5c(F)cccc5F)c5ccc2[nH]5)C=C4)C=C3)cc1
REMARK SMILES IDX 7 1 8 2 9 3 6 5 5 6 4 7 3 8 1 9 2 10 31 12 32 13 84 14 33 15
REMARK SMILES IDX 83 16 34 17 35 18 36 19 77 20 37 21 82 22 76 23 78 24 38 25
REMARK SMILES IDX 81 26 75 27 74 28 39 30 65 31 48 32 64 33 49 34 52 35 63 36
REMARK SMILES IDX 79 37 50 38 51 39 62 41 80 42 53 43 40 44 41 45 46 46 42 47
REMARK SMILES IDX 43 48 45 49 47 50 44 51 66 52 67 53 72 54 68 55 69 56 71 57
REMARK SMILES IDX 73 58 70 59 54 60 55 61 60 62 56 63 57 64 59 65 61 66 58 67
REMARK SMILES IDX 10 68 11 69 14 70 12 71 13 72 15 73 16 74 17 75 18 76 19 78
REMARK SMILES IDX 20 79 30 80 21 81 29 82 22 83 23 84 24 85 25 86 28 87 26 88
REMARK SMILES IDX 27 89
REMARK H PARENT 7 4 3 11 78 29 52 40 18 77
REMARK Flexibility Score: inf
ROOT
ATOM      1  N   UNL     1       6.170  -1.852   3.116  1.00  0.00    -0.351 N 
ATOM      2  C   UNL     1       6.739  -2.620   4.088  1.00  0.00     0.262 C 
ATOM      3  O   UNL     1       7.629  -3.383   3.699  1.00  0.00    -0.268 OA
ATOM      4  H   UNL     1       6.438  -2.091   2.200  1.00  0.00     0.163 HD
ENDROOT
BRANCH   1   5
ATOM      5  C   UNL     1       5.240  -0.748   3.197  1.00  0.00     0.118 C 
BRANCH   5   6
ATOM      6  C   UNL     1       5.363   0.170   1.984  1.00  0.00     0.042 C 
BRANCH   6   7
ATOM      7  C   UNL     1       5.019  -0.495   0.645  1.00  0.00     0.118 C 
BRANCH   7   8
ATOM      8  N   UNL     1       3.631  -0.853   0.437  1.00  0.00    -0.352 N 
ATOM      9  O   UNL     1       1.533  -0.834  -0.267  1.00  0.00    -0.269 OA
ATOM     10  C   UNL     1       2.516  -0.162   0.051  1.00  0.00     0.251 C 
ATOM     11  H   UNL     1       3.449  -1.804   0.613  1.00  0.00     0.163 HD
BRANCH  10  12
ATOM     12  C   UNL     1       2.402   1.313   0.090  1.00  0.00     0.039 A 
ATOM     13  C   UNL     1       3.482   2.192   0.130  1.00  0.00     0.014 A 
ATOM     14  C   UNL     1       1.095   1.830   0.145  1.00  0.00     0.014 A 
ATOM     15  C   UNL     1       3.275   3.539   0.375  1.00  0.00     0.010 A 
ATOM     16  C   UNL     1       0.878   3.185   0.348  1.00  0.00     0.010 A 
ATOM     17  C   UNL     1       1.974   4.026   0.511  1.00  0.00    -0.014 A 
BRANCH  17  18
ATOM     18  C   UNL     1       1.821   5.464   0.656  1.00  0.00     0.031 A 
ATOM     19  C   UNL     1       2.284   6.250  -0.522  1.00  0.00     0.074 A 
ATOM     20  C   UNL     1       1.201   6.042   1.701  1.00  0.00     0.049 A 
ATOM     21  N   UNL     1       3.212   7.149  -0.577  1.00  0.00    -0.248 NA
ATOM     22  C   UNL     1       1.710   5.900  -1.833  1.00  0.00     0.031 C 
ATOM     23  C   UNL     1       0.437   5.398   2.770  1.00  0.00     0.029 A 
ATOM     24  N   UNL     1       1.038   7.368   1.958  1.00  0.00    -0.354 N 
ATOM     25  C   UNL     1       3.226   7.605  -1.894  1.00  0.00     0.074 A 
ATOM     26  C   UNL     1       2.385   6.712  -2.647  1.00  0.00     0.031 C 
ATOM     27  C   UNL     1      -0.293   6.336   3.416  1.00  0.00     0.029 A 
ATOM     28  C   UNL     1       0.050   7.647   2.890  1.00  0.00     0.049 A 
ATOM     29  H   UNL     1       1.574   8.069   1.521  1.00  0.00     0.167 HD
ATOM     30  C   UNL     1       3.767   8.805  -2.237  1.00  0.00     0.037 A 
ATOM     31  C   UNL     1      -0.498   8.862   3.139  1.00  0.00     0.037 A 
ATOM     32  C   UNL     1       4.656   9.300  -1.222  1.00  0.00     0.049 A 
ATOM     33  C   UNL     1       0.420   9.896   2.599  1.00  0.00     0.074 A 
ATOM     34  C   UNL     1       5.835   8.856  -0.657  1.00  0.00     0.029 A 
ATOM     35  N   UNL     1       4.194  10.288  -0.391  1.00  0.00    -0.354 N 
ATOM     36  N   UNL     1       1.589  10.173   3.103  1.00  0.00    -0.248 NA
ATOM     37  C   UNL     1       0.213  10.337   1.227  1.00  0.00     0.031 C 
ATOM     38  C   UNL     1       5.758   9.249   0.711  1.00  0.00     0.029 A 
ATOM     39  C   UNL     1       4.558   9.941   0.882  1.00  0.00     0.049 A 
ATOM     40  H   UNL     1       3.695  11.094  -0.659  1.00  0.00     0.167 HD
ATOM     41  C   UNL     1       2.397  10.427   2.004  1.00  0.00     0.074 A 
ATOM     42  C   UNL     1       1.475  10.611   0.887  1.00  0.00     0.031 C 
ATOM     43  C   UNL     1       3.740  10.187   2.045  1.00  0.00     0.037 A 
BRANCH  30  44
ATOM     44  C   UNL     1       3.221   9.697  -3.323  1.00  0.00     0.057 A 
ATOM     45  C   UNL     1       3.950  10.835  -3.714  1.00  0.00     0.134 A 
ATOM     46  C   UNL     1       1.886   9.656  -3.772  1.00  0.00     0.134 A 
ATOM     47  F   UNL     1       5.227  10.999  -3.335  1.00  0.00    -0.206 F 
ATOM     48  C   UNL     1       3.369  11.888  -4.431  1.00  0.00     0.040 A 
ATOM     49  C   UNL     1       1.312  10.676  -4.534  1.00  0.00     0.040 A 
ATOM     50  F   UNL     1       1.040   8.682  -3.413  1.00  0.00    -0.206 F 
ATOM     51  C   UNL     1       2.042  11.813  -4.837  1.00  0.00     0.006 A 
ENDBRANCH  30  44
BRANCH  31  52
ATOM     52  C   UNL     1      -1.890   9.176   3.529  1.00  0.00     0.057 A 
ATOM     53  C   UNL     1      -2.230  10.428   4.061  1.00  0.00     0.134 A 
ATOM     54  C   UNL     1      -2.966   8.358   3.141  1.00  0.00     0.134 A 
ATOM     55  F   UNL     1      -1.275  11.298   4.418  1.00  0.00    -0.206 F 
ATOM     56  C   UNL     1      -3.561  10.849   4.181  1.00  0.00     0.040 A 
ATOM     57  C   UNL     1      -4.298   8.761   3.264  1.00  0.00     0.040 A 
ATOM     58  F   UNL     1      -2.758   7.175   2.545  1.00  0.00    -0.206 F 
ATOM     59  C   UNL     1      -4.600  10.018   3.773  1.00  0.00     0.006 A 
ENDBRANCH  31  52
BRANCH  43  60
ATOM     60  C   UNL     1       4.361   9.895   3.381  1.00  0.00     0.057 A 
ATOM     61  C   UNL     1       4.044   8.775   4.163  1.00  0.00     0.134 A 
ATOM     62  C   UNL     1       5.425  10.692   3.816  1.00  0.00     0.134 A 
ATOM     63  F   UNL     1       3.112   7.896   3.772  1.00  0.00    -0.206 F 
ATOM     64  C   UNL     1       4.724   8.490   5.350  1.00  0.00     0.040 A 
ATOM     65  C   UNL     1       6.137  10.398   4.981  1.00  0.00     0.040 A 
ATOM     66  F   UNL     1       5.825  11.745   3.086  1.00  0.00    -0.206 F 
ATOM     67  C   UNL     1       5.780   9.300   5.759  1.00  0.00     0.006 A 
ENDBRANCH  43  60
ENDBRANCH  17  18
ENDBRANCH  10  12
ENDBRANCH   7   8
ENDBRANCH   6   7
ENDBRANCH   5   6
ENDBRANCH   1   5
BRANCH   2  68
ATOM     68  C   UNL     1       6.376  -2.467   5.476  1.00  0.00     0.112 A 
ATOM     69  S   UNL     1       7.751  -2.284   6.523  1.00  0.00    -0.137 S 
ATOM     70  C   UNL     1       5.198  -2.480   6.206  1.00  0.00     0.111 A 
ATOM     71  C   UNL     1       6.787  -2.081   7.902  1.00  0.00     0.067 A 
ATOM     72  C   UNL     1       5.455  -2.195   7.601  1.00  0.00     0.035 A 
BRANCH  70  73
ATOM     73  S   UNL     1       3.539  -2.697   5.734  1.00  0.00     0.263 S 
ATOM     74  O   UNL     1       3.001  -3.479   6.832  1.00  0.00    -0.201 OA
ATOM     75  O   UNL     1       3.098  -1.332   5.539  1.00  0.00    -0.201 OA
BRANCH  73  76
ATOM     76  N   UNL     1       3.092  -3.503   4.349  1.00  0.00    -0.280 N 
ATOM     77  H   UNL     1       2.146  -3.451   4.081  1.00  0.00     0.180 HD
BRANCH  76  78
ATOM     78  C   UNL     1       3.954  -4.254   3.527  1.00  0.00     0.049 A 
ATOM     79  C   UNL     1       3.888  -4.007   2.156  1.00  0.00     0.027 A 
ATOM     80  C   UNL     1       4.844  -5.195   4.022  1.00  0.00     0.027 A 
ATOM     81  C   UNL     1       4.868  -4.509   1.306  1.00  0.00     0.008 A 
ATOM     82  C   UNL     1       5.810  -5.729   3.165  1.00  0.00     0.008 A 
ATOM     83  C   UNL     1       5.883  -5.325   1.820  1.00  0.00    -0.026 A 
BRANCH  83  84
ATOM     84  C   UNL     1       7.110  -5.654   1.001  1.00  0.00     0.181 C 
BRANCH  84  85
ATOM     85  N   UNL     1       6.791  -6.357  -0.223  1.00  0.00    -0.249 N 
ATOM     86  C   UNL     1       6.576  -5.822  -1.457  1.00  0.00     0.220 A 
ATOM     87  N   UNL     1       6.734  -7.701  -0.264  1.00  0.00    -0.160 NA
ATOM     88  N   UNL     1       6.331  -6.784  -2.315  1.00  0.00    -0.224 NA
ATOM     89  C   UNL     1       6.436  -7.910  -1.548  1.00  0.00     0.246 A 
ENDBRANCH  84  85
ENDBRANCH  83  84
ENDBRANCH  76  78
ENDBRANCH  73  76
ENDBRANCH  70  73
ENDBRANCH   2  68
TORSDOF 15
