REMARK SMILES CCCC[C@@H](NS(=O)(=O)c1cc2c3c(c1)c(C)cc(=O)n3CC2)C(=O)NCCCNC(=O)c1ccc(-c2c3nc(c(-c4c(F)cccc4F)c4ccc([nH]4)c(-c4c(F)cccc4F)c4nc(c(-c5c(F)cccc5F)c5ccc2[nH]5)C=C4)C=C3)cc1
REMARK SMILES IDX 27 1 26 2 24 3 25 4 5 6 4 7 3 8 2 9 1 10 6 11 7 13 8 14 9 15
REMARK SMILES IDX 10 16 11 17 15 18 12 19 14 20 13 21 23 22 16 23 21 24 22 25
REMARK SMILES IDX 17 26 18 27 19 28 20 29 28 30 29 31 30 32 31 33 32 35 33 36
REMARK SMILES IDX 34 37 86 38 35 39 85 40 36 41 37 42 38 43 79 44 39 45 84 46
REMARK SMILES IDX 78 47 80 48 40 49 83 50 77 51 76 52 41 54 67 55 50 56 66 57
REMARK SMILES IDX 51 58 54 59 65 60 81 61 52 62 53 63 64 65 82 66 55 67 42 68
REMARK SMILES IDX 43 69 48 70 44 71 45 72 47 73 49 74 46 75 68 76 69 77 74 78
REMARK SMILES IDX 70 79 71 80 73 81 75 82 72 83 56 84 57 85 62 86 58 87 59 88
REMARK SMILES IDX 61 89 63 90 60 91
REMARK H PARENT 26 5 6 12 30 34 80 53 54 64
REMARK Flexibility Score: inf
ROOT
ATOM      1  C   UNL     1      -0.503   3.572  -4.607  1.00  0.00     0.117 C 
ENDROOT
BRANCH   1   2
ATOM      2  N   UNL     1      -1.003   2.212  -4.500  1.00  0.00    -0.355 N 
ATOM      3  C   UNL     1      -1.015   1.376  -3.424  1.00  0.00     0.238 C 
ATOM      4  O   UNL     1      -1.153   0.168  -3.627  1.00  0.00    -0.273 OA
ATOM      5  H   UNL     1      -1.390   1.841  -5.326  1.00  0.00     0.163 HD
BRANCH   3   6
ATOM      6  C   UNL     1      -0.856   1.923  -2.009  1.00  0.00     0.159 C 
BRANCH   6   7
ATOM      7  C   UNL     1       0.647   2.120  -1.762  1.00  0.00     0.030 C 
BRANCH   7   8
ATOM      8  C   UNL     1       1.057   2.376  -0.313  1.00  0.00     0.002 C 
BRANCH   8   9
ATOM      9  C   UNL     1       0.611   1.320   0.699  1.00  0.00    -0.003 C 
ATOM     10  C   UNL     1       1.073  -0.089   0.361  1.00  0.00     0.004 C 
ENDBRANCH   8   9
ENDBRANCH   7   8
ENDBRANCH   6   7
BRANCH   6  11
ATOM     11  N   UNL     1      -1.634   3.168  -1.815  1.00  0.00    -0.199 NA
ATOM     12  H   UNL     1      -1.438   3.765  -2.619  1.00  0.00     0.142 HD
BRANCH  11  13
ATOM     13  S   UNL     1      -3.313   3.099  -1.657  1.00  0.00     0.241 S 
ATOM     14  O   UNL     1      -3.626   2.024  -0.747  1.00  0.00    -0.207 OA
ATOM     15  O   UNL     1      -3.720   4.461  -1.380  1.00  0.00    -0.207 OA
BRANCH  13  16
ATOM     16  C   UNL     1      -3.929   2.676  -3.275  1.00  0.00     0.083 A 
ATOM     17  C   UNL     1      -4.282   3.684  -4.193  1.00  0.00     0.027 A 
ATOM     18  C   UNL     1      -4.036   1.300  -3.604  1.00  0.00     0.032 A 
ATOM     19  C   UNL     1      -4.667   3.288  -5.463  1.00  0.00    -0.020 A 
ATOM     20  C   UNL     1      -4.354   0.912  -4.904  1.00  0.00     0.003 A 
ATOM     21  C   UNL     1      -4.669   1.936  -5.779  1.00  0.00     0.055 A 
ATOM     22  C   UNL     1      -5.074   4.093  -6.663  1.00  0.00     0.060 C 
ATOM     23  C   UNL     1      -4.328  -0.456  -5.454  1.00  0.00    -0.036 A 
ATOM     24  N   UNL     1      -4.992   1.728  -7.110  1.00  0.00    -0.308 N 
ATOM     25  C   UNL     1      -5.292   3.006  -7.747  1.00  0.00     0.131 C 
ATOM     26  C   UNL     1      -3.927  -1.601  -4.573  1.00  0.00     0.045 C 
ATOM     27  C   UNL     1      -4.631  -0.635  -6.758  1.00  0.00     0.075 A 
ATOM     28  C   UNL     1      -4.998   0.486  -7.681  1.00  0.00     0.251 A 
ATOM     29  O   UNL     1      -5.257   0.260  -8.858  1.00  0.00    -0.269 OA
ENDBRANCH  13  16
ENDBRANCH  11  13
ENDBRANCH   6  11
ENDBRANCH   3   6
ENDBRANCH   1   2
BRANCH   1  30
ATOM     30  C   UNL     1       0.830   3.564  -5.338  1.00  0.00     0.042 C 
BRANCH  30  31
ATOM     31  C   UNL     1       0.675   3.160  -6.797  1.00  0.00     0.118 C 
BRANCH  31  32
ATOM     32  N   UNL     1      -0.038   4.174  -7.560  1.00  0.00    -0.352 N 
ATOM     33  C   UNL     1       0.430   4.943  -8.594  1.00  0.00     0.251 C 
ATOM     34  H   UNL     1      -0.976   4.328  -7.301  1.00  0.00     0.163 HD
ATOM     35  O   UNL     1      -0.199   5.918  -8.988  1.00  0.00    -0.269 OA
BRANCH  33  36
ATOM     36  C   UNL     1       1.717   4.577  -9.212  1.00  0.00     0.039 A 
ATOM     37  C   UNL     1       2.706   5.550  -9.358  1.00  0.00     0.014 A 
ATOM     38  C   UNL     1       1.944   3.254  -9.606  1.00  0.00     0.014 A 
ATOM     39  C   UNL     1       3.951   5.182  -9.865  1.00  0.00     0.010 A 
ATOM     40  C   UNL     1       3.207   2.876 -10.042  1.00  0.00     0.010 A 
ATOM     41  C   UNL     1       4.214   3.841 -10.192  1.00  0.00    -0.014 A 
BRANCH  41  42
ATOM     42  C   UNL     1       5.518   3.438 -10.763  1.00  0.00     0.031 A 
ATOM     43  C   UNL     1       5.584   2.993 -12.196  1.00  0.00     0.074 A 
ATOM     44  C   UNL     1       6.621   3.434  -9.993  1.00  0.00     0.049 A 
ATOM     45  N   UNL     1       6.611   2.568 -12.884  1.00  0.00    -0.248 NA
ATOM     46  C   UNL     1       4.319   3.012 -12.950  1.00  0.00     0.031 C 
ATOM     47  C   UNL     1       6.673   3.822  -8.582  1.00  0.00     0.029 A 
ATOM     48  N   UNL     1       7.912   3.084 -10.291  1.00  0.00    -0.354 N 
ATOM     49  C   UNL     1       6.119   2.277 -14.149  1.00  0.00     0.074 A 
ATOM     50  C   UNL     1       4.692   2.505 -14.115  1.00  0.00     0.031 C 
ATOM     51  C   UNL     1       7.937   3.704  -8.143  1.00  0.00     0.029 A 
ATOM     52  C   UNL     1       8.774   3.201  -9.228  1.00  0.00     0.049 A 
ATOM     53  H   UNL     1       8.195   2.778 -11.183  1.00  0.00     0.167 HD
ATOM     54  C   UNL     1       6.799   1.882 -15.251  1.00  0.00     0.037 A 
ATOM     55  C   UNL     1      10.089   2.923  -9.145  1.00  0.00     0.037 A 
ATOM     56  C   UNL     1       8.218   1.646 -15.278  1.00  0.00     0.049 A 
ATOM     57  C   UNL     1      10.807   2.413 -10.367  1.00  0.00     0.074 A 
ATOM     58  C   UNL     1       9.010   1.271 -16.348  1.00  0.00     0.029 A 
ATOM     59  N   UNL     1       9.055   1.750 -14.177  1.00  0.00    -0.354 N 
ATOM     60  N   UNL     1      10.346   2.208 -11.578  1.00  0.00    -0.248 NA
ATOM     61  C   UNL     1      12.234   2.099 -10.209  1.00  0.00     0.031 C 
ATOM     62  C   UNL     1      10.316   1.091 -15.881  1.00  0.00     0.029 A 
ATOM     63  C   UNL     1      10.350   1.415 -14.534  1.00  0.00     0.049 A 
ATOM     64  H   UNL     1       8.770   2.021 -13.274  1.00  0.00     0.167 HD
ATOM     65  C   UNL     1      11.430   1.774 -12.331  1.00  0.00     0.074 A 
ATOM     66  C   UNL     1      12.576   1.766 -11.444  1.00  0.00     0.031 C 
ATOM     67  C   UNL     1      11.478   1.414 -13.637  1.00  0.00     0.037 A 
BRANCH  54  68
ATOM     68  C   UNL     1       6.007   1.676 -16.509  1.00  0.00     0.057 A 
ATOM     69  C   UNL     1       5.834   0.395 -17.046  1.00  0.00     0.134 A 
ATOM     70  C   UNL     1       5.418   2.748 -17.195  1.00  0.00     0.134 A 
ATOM     71  F   UNL     1       6.372  -0.676 -16.443  1.00  0.00    -0.206 F 
ATOM     72  C   UNL     1       5.104   0.187 -18.217  1.00  0.00     0.040 A 
ATOM     73  C   UNL     1       4.660   2.549 -18.349  1.00  0.00     0.040 A 
ATOM     74  F   UNL     1       5.532   4.000 -16.725  1.00  0.00    -0.206 F 
ATOM     75  C   UNL     1       4.506   1.265 -18.867  1.00  0.00     0.006 A 
ENDBRANCH  54  68
BRANCH  55  76
ATOM     76  C   UNL     1      10.825   3.119  -7.870  1.00  0.00     0.057 A 
ATOM     77  C   UNL     1      10.588   2.308  -6.754  1.00  0.00     0.134 A 
ATOM     78  C   UNL     1      11.828   4.090  -7.758  1.00  0.00     0.134 A 
ATOM     79  F   UNL     1       9.636   1.364  -6.792  1.00  0.00    -0.206 F 
ATOM     80  C   UNL     1      11.326   2.449  -5.577  1.00  0.00     0.040 A 
ATOM     81  C   UNL     1      12.593   4.222  -6.598  1.00  0.00     0.040 A 
ATOM     82  F   UNL     1      12.116   4.886  -8.798  1.00  0.00    -0.206 F 
ATOM     83  C   UNL     1      12.342   3.399  -5.503  1.00  0.00     0.006 A 
ENDBRANCH  55  76
BRANCH  67  84
ATOM     84  C   UNL     1      12.818   1.019 -14.190  1.00  0.00     0.057 A 
ATOM     85  C   UNL     1      13.471   1.834 -15.124  1.00  0.00     0.134 A 
ATOM     86  C   UNL     1      13.453  -0.173 -13.817  1.00  0.00     0.134 A 
ATOM     87  F   UNL     1      12.915   2.984 -15.533  1.00  0.00    -0.206 F 
ATOM     88  C   UNL     1      14.707   1.479 -15.665  1.00  0.00     0.040 A 
ATOM     89  C   UNL     1      14.705  -0.522 -14.326  1.00  0.00     0.040 A 
ATOM     90  F   UNL     1      12.888  -0.992 -12.917  1.00  0.00    -0.206 F 
ATOM     91  C   UNL     1      15.332   0.302 -15.258  1.00  0.00     0.006 A 
ENDBRANCH  67  84
ENDBRANCH  41  42
ENDBRANCH  33  36
ENDBRANCH  31  32
ENDBRANCH  30  31
ENDBRANCH   1  30
TORSDOF 16
