REMARK SMILES CCOC(=O)c1ccc(NC(=O)[C@@H]2[C@H]3c4ccccc4[C@H](c4ccccc43)[C@@H]2C(=O)NCCCNC(=O)c2ccc(-c3c4nc(c(-c5c(F)cccc5F)c5ccc([nH]5)c(-c5c(F)cccc5F)c5nc(c(-c6c(F)cccc6F)c6ccc3[nH]6)C=C5)C=C4)cc2)cc1
REMARK SMILES IDX 29 1 30 2 31 3 28 5 13 6 14 7 27 8 15 9 21 10 26 11 22 12
REMARK SMILES IDX 20 13 16 14 25 15 23 16 19 17 17 18 24 19 18 20 11 21 10 22
REMARK SMILES IDX 12 24 9 25 6 26 7 27 93 28 8 29 92 30 4 31 5 32 3 33 2 34
REMARK SMILES IDX 1 35 32 36 33 37 34 38 35 39 36 40 37 42 38 43 39 44 91 45
REMARK SMILES IDX 40 46 90 47 41 48 42 49 43 50 84 51 44 52 89 53 83 54 85 55
REMARK SMILES IDX 45 56 88 57 82 58 81 59 46 61 72 62 55 63 71 64 56 65 59 66
REMARK SMILES IDX 70 67 86 68 57 69 58 70 69 72 87 73 60 74 47 75 48 76 53 77
REMARK SMILES IDX 49 78 50 79 52 80 54 81 51 82 73 83 74 84 79 85 75 86 76 87
REMARK SMILES IDX 78 88 80 89 77 90 61 91 62 92 67 93 63 94 64 95 66 96 68 97
REMARK SMILES IDX 65 98
REMARK H PARENT 31 4 10 23 35 41 85 60 59 71
REMARK Flexibility Score: inf
ROOT
ATOM      1  C   UNL     1       2.756   1.283  -5.947  1.00  0.00     0.224 C 
ATOM      2  O   UNL     1       2.724   0.984  -4.744  1.00  0.00    -0.275 OA
ATOM      3  N   UNL     1       1.884   2.240  -6.316  1.00  0.00    -0.356 N 
ATOM      4  H   UNL     1       1.881   3.061  -5.772  1.00  0.00     0.163 HD
ENDROOT
BRANCH   1   5
ATOM      5  C   UNL     1       3.685   0.528  -6.865  1.00  0.00     0.104 C 
ATOM      6  C   UNL     1       5.185   0.386  -6.508  1.00  0.00     0.104 C 
ATOM      7  C   UNL     1       5.644  -0.933  -7.384  1.00  0.00     0.063 C 
ATOM      8  C   UNL     1       5.879  -0.446  -8.791  1.00  0.00    -0.036 A 
ATOM      9  C   UNL     1       4.440  -1.926  -7.591  1.00  0.00    -0.036 A 
ATOM     10  C   UNL     1       3.512   0.219  -8.395  1.00  0.00     0.063 C 
ATOM     11  C   UNL     1       6.959  -0.799  -9.594  1.00  0.00     0.004 A 
ATOM     12  C   UNL     1       4.793   0.330  -9.271  1.00  0.00    -0.036 A 
ATOM     13  C   UNL     1       3.299  -1.301  -8.216  1.00  0.00    -0.036 A 
ATOM     14  C   UNL     1       4.323  -3.219  -7.117  1.00  0.00     0.004 A 
ATOM     15  C   UNL     1       7.043  -0.239 -10.861  1.00  0.00     0.000 A 
ATOM     16  C   UNL     1       4.927   0.948 -10.508  1.00  0.00     0.004 A 
ATOM     17  C   UNL     1       2.045  -1.900  -8.233  1.00  0.00     0.004 A 
ATOM     18  C   UNL     1       3.055  -3.825  -7.149  1.00  0.00     0.000 A 
ATOM     19  C   UNL     1       6.067   0.675 -11.287  1.00  0.00     0.000 A 
ATOM     20  C   UNL     1       1.926  -3.160  -7.663  1.00  0.00     0.000 A 
BRANCH   6  21
ATOM     21  C   UNL     1       5.856   1.789  -6.789  1.00  0.00     0.229 C 
ATOM     22  N   UNL     1       5.319   2.930  -6.199  1.00  0.00    -0.326 N 
ATOM     23  H   UNL     1       5.274   3.732  -6.769  1.00  0.00     0.169 HD
ATOM     24  O   UNL     1       6.774   1.957  -7.591  1.00  0.00    -0.274 OA
BRANCH  22  25
ATOM     25  C   UNL     1       4.831   3.078  -4.885  1.00  0.00     0.041 A 
ATOM     26  C   UNL     1       3.489   2.899  -2.441  1.00  0.00     0.060 A 
ATOM     27  C   UNL     1       4.695   2.218  -2.634  1.00  0.00     0.018 A 
ATOM     28  C   UNL     1       3.039   3.806  -3.410  1.00  0.00     0.018 A 
ATOM     29  C   UNL     1       5.355   2.299  -3.858  1.00  0.00     0.027 A 
ATOM     30  C   UNL     1       3.753   3.941  -4.619  1.00  0.00     0.027 A 
BRANCH  26  31
ATOM     31  C   UNL     1       2.727   2.563  -1.219  1.00  0.00     0.338 C 
ATOM     32  O   UNL     1       3.256   2.471  -0.117  1.00  0.00    -0.246 OA
BRANCH  31  33
ATOM     33  O   UNL     1       1.446   2.232  -1.525  1.00  0.00    -0.462 OA
BRANCH  33  34
ATOM     34  C   UNL     1       0.683   1.686  -0.430  1.00  0.00     0.230 C 
ATOM     35  C   UNL     1       0.957   0.201  -0.236  1.00  0.00     0.049 C 
ENDBRANCH  33  34
ENDBRANCH  31  33
ENDBRANCH  26  31
ENDBRANCH  22  25
ENDBRANCH   6  21
ENDBRANCH   1   5
BRANCH   3  36
ATOM     36  C   UNL     1       0.955   2.200  -7.415  1.00  0.00     0.117 C 
BRANCH  36  37
ATOM     37  C   UNL     1      -0.086   1.119  -7.151  1.00  0.00     0.042 C 
BRANCH  37  38
ATOM     38  C   UNL     1      -1.063   1.565  -6.067  1.00  0.00     0.118 C 
BRANCH  38  39
ATOM     39  N   UNL     1      -2.168   2.306  -6.651  1.00  0.00    -0.352 N 
ATOM     40  C   UNL     1      -3.303   1.830  -7.259  1.00  0.00     0.251 C 
ATOM     41  H   UNL     1      -2.093   3.286  -6.603  1.00  0.00     0.163 HD
ATOM     42  O   UNL     1      -3.918   2.563  -8.030  1.00  0.00    -0.269 OA
BRANCH  40  43
ATOM     43  C   UNL     1      -3.786   0.451  -7.008  1.00  0.00     0.039 A 
ATOM     44  C   UNL     1      -4.481  -0.215  -8.021  1.00  0.00     0.014 A 
ATOM     45  C   UNL     1      -3.651  -0.156  -5.758  1.00  0.00     0.014 A 
ATOM     46  C   UNL     1      -5.038  -1.473  -7.774  1.00  0.00     0.010 A 
ATOM     47  C   UNL     1      -4.082  -1.463  -5.557  1.00  0.00     0.010 A 
ATOM     48  C   UNL     1      -4.838  -2.111  -6.539  1.00  0.00    -0.014 A 
BRANCH  48  49
ATOM     49  C   UNL     1      -5.497  -3.405  -6.221  1.00  0.00     0.031 A 
ATOM     50  C   UNL     1      -6.475  -3.490  -5.075  1.00  0.00     0.074 A 
ATOM     51  C   UNL     1      -5.208  -4.503  -6.944  1.00  0.00     0.049 A 
ATOM     52  N   UNL     1      -7.146  -4.524  -4.631  1.00  0.00    -0.248 NA
ATOM     53  C   UNL     1      -6.706  -2.258  -4.303  1.00  0.00     0.031 C 
ATOM     54  C   UNL     1      -4.256  -4.559  -8.053  1.00  0.00     0.029 A 
ATOM     55  N   UNL     1      -5.698  -5.781  -6.859  1.00  0.00    -0.354 N 
ATOM     56  C   UNL     1      -7.853  -4.069  -3.523  1.00  0.00     0.074 A 
ATOM     57  C   UNL     1      -7.470  -2.692  -3.314  1.00  0.00     0.031 C 
ATOM     58  C   UNL     1      -4.274  -5.793  -8.583  1.00  0.00     0.029 A 
ATOM     59  C   UNL     1      -5.202  -6.623  -7.823  1.00  0.00     0.049 A 
ATOM     60  H   UNL     1      -6.344  -6.067  -6.173  1.00  0.00     0.167 HD
ATOM     61  C   UNL     1      -8.766  -4.724  -2.766  1.00  0.00     0.037 A 
ATOM     62  C   UNL     1      -5.473  -7.919  -8.069  1.00  0.00     0.037 A 
ATOM     63  C   UNL     1      -9.164  -6.087  -2.994  1.00  0.00     0.049 A 
ATOM     64  C   UNL     1      -6.467  -8.637  -7.200  1.00  0.00     0.074 A 
ATOM     65  C   UNL     1     -10.120  -6.832  -2.327  1.00  0.00     0.029 A 
ATOM     66  N   UNL     1      -8.618  -6.914  -3.966  1.00  0.00    -0.354 N 
ATOM     67  N   UNL     1      -7.179  -8.177  -6.199  1.00  0.00    -0.248 NA
ATOM     68  C   UNL     1      -6.696 -10.057  -7.498  1.00  0.00     0.031 C 
ATOM     69  C   UNL     1     -10.111  -8.127  -2.856  1.00  0.00     0.029 A 
ATOM     70  C   UNL     1      -9.194  -8.172  -3.894  1.00  0.00     0.049 A 
ATOM     71  H   UNL     1      -7.925  -6.646  -4.611  1.00  0.00     0.167 HD
ATOM     72  C   UNL     1      -7.963  -9.239  -5.768  1.00  0.00     0.074 A 
ATOM     73  C   UNL     1      -7.646 -10.364  -6.625  1.00  0.00     0.031 C 
ATOM     74  C   UNL     1      -8.866  -9.280  -4.757  1.00  0.00     0.037 A 
BRANCH  61  75
ATOM     75  C   UNL     1      -9.379  -3.967  -1.618  1.00  0.00     0.057 A 
ATOM     76  C   UNL     1     -10.217  -2.860  -1.816  1.00  0.00     0.134 A 
ATOM     77  C   UNL     1      -9.115  -4.341  -0.294  1.00  0.00     0.134 A 
ATOM     78  F   UNL     1     -10.504  -2.437  -3.057  1.00  0.00    -0.206 F 
ATOM     79  C   UNL     1     -10.725  -2.123  -0.744  1.00  0.00     0.040 A 
ATOM     80  C   UNL     1      -9.648  -3.634   0.786  1.00  0.00     0.040 A 
ATOM     81  F   UNL     1      -8.331  -5.396  -0.026  1.00  0.00    -0.206 F 
ATOM     82  C   UNL     1     -10.443  -2.512   0.563  1.00  0.00     0.006 A 
ENDBRANCH  61  75
BRANCH  62  83
ATOM     83  C   UNL     1      -4.832  -8.601  -9.221  1.00  0.00     0.057 A 
ATOM     84  C   UNL     1      -5.581  -8.962 -10.347  1.00  0.00     0.134 A 
ATOM     85  C   UNL     1      -3.462  -8.890  -9.238  1.00  0.00     0.134 A 
ATOM     86  F   UNL     1      -6.901  -8.725 -10.384  1.00  0.00    -0.206 F 
ATOM     87  C   UNL     1      -4.995  -9.597 -11.443  1.00  0.00     0.040 A 
ATOM     88  C   UNL     1      -2.858  -9.502 -10.338  1.00  0.00     0.040 A 
ATOM     89  F   UNL     1      -2.687  -8.561  -8.194  1.00  0.00    -0.206 F 
ATOM     90  C   UNL     1      -3.627  -9.862 -11.443  1.00  0.00     0.006 A 
ENDBRANCH  62  83
BRANCH  74  91
ATOM     91  C   UNL     1      -9.602 -10.572  -4.546  1.00  0.00     0.057 A 
ATOM     92  C   UNL     1      -8.970 -11.711  -4.032  1.00  0.00     0.134 A 
ATOM     93  C   UNL     1     -10.972 -10.664  -4.827  1.00  0.00     0.134 A 
ATOM     94  F   UNL     1      -7.658 -11.695  -3.754  1.00  0.00    -0.206 F 
ATOM     95  C   UNL     1      -9.668 -12.903  -3.830  1.00  0.00     0.040 A 
ATOM     96  C   UNL     1     -11.687 -11.840  -4.599  1.00  0.00     0.040 A 
ATOM     97  F   UNL     1     -11.640  -9.606  -5.311  1.00  0.00    -0.206 F 
ATOM     98  C   UNL     1     -11.033 -12.967  -4.107  1.00  0.00     0.006 A 
ENDBRANCH  74  91
ENDBRANCH  48  49
ENDBRANCH  40  43
ENDBRANCH  38  39
ENDBRANCH  37  38
ENDBRANCH  36  37
ENDBRANCH   3  36
TORSDOF 15
