REMARK SMILES Cc1cc(C(=O)N2CCC[C@@H]2C)sc1/C=C/C(=O)NCCCNC(=O)c1ccc(-c2c3nc(c(-c4c(F)cccc4F)c4ccc([nH]4)c(-c4c(F)cccc4F)c4nc(c(-c5c(F)cccc5F)c5ccc2[nH]5)C=C4)C=C3)cc1
REMARK SMILES IDX 20 1 19 2 17 3 18 4 16 6 15 7 14 8 1 9 2 10 3 11 4 12 13 13
REMARK SMILES IDX 5 14 6 15 7 16 8 17 11 18 9 19 10 20 12 21 21 22 22 23 23 24
REMARK SMILES IDX 24 25 25 27 26 28 27 29 79 30 28 31 78 32 29 33 30 34 31 35
REMARK SMILES IDX 72 36 32 37 77 38 71 39 73 40 33 41 76 42 70 43 69 44 34 46
REMARK SMILES IDX 60 47 43 48 59 49 44 50 47 51 58 52 74 53 45 54 46 55 57 57
REMARK SMILES IDX 75 58 48 59 35 60 36 61 41 62 37 63 38 64 40 65 42 66 39 67
REMARK SMILES IDX 61 68 62 69 67 70 63 71 64 72 66 73 68 74 65 75 49 76 50 77
REMARK SMILES IDX 55 78 51 79 52 80 54 81 56 82 53 83
REMARK H PARENT 19 5 23 26 73 45 47 56
REMARK Flexibility Score: inf
ROOT
ATOM      1  C   UNL     1       2.196  -4.684  -0.560  1.00  0.00     0.118 C 
ENDROOT
BRANCH   1   2
ATOM      2  N   UNL     1       0.927  -5.281  -0.182  1.00  0.00    -0.352 N 
ATOM      3  C   UNL     1      -0.297  -4.712  -0.024  1.00  0.00     0.244 C 
ATOM      4  O   UNL     1      -1.277  -5.420   0.195  1.00  0.00    -0.270 OA
ATOM      5  H   UNL     1       0.960  -6.250  -0.013  1.00  0.00     0.163 HD
BRANCH   3   6
ATOM      6  C   UNL     1      -0.472  -3.259  -0.206  1.00  0.00     0.072 C 
ATOM      7  C   UNL     1       0.250  -2.339   0.452  1.00  0.00     0.025 C 
BRANCH   7   8
ATOM      8  C   UNL     1       0.057  -0.936   0.270  1.00  0.00     0.031 A 
ATOM      9  C   UNL     1       2.495  -0.108   0.260  1.00  0.00     0.046 C 
ATOM     10  C   UNL     1       1.010   0.076   0.228  1.00  0.00    -0.032 A 
ATOM     11  C   UNL     1       0.395   1.369   0.097  1.00  0.00     0.029 A 
ATOM     12  C   UNL     1      -0.984   1.324  -0.000  1.00  0.00     0.093 A 
ATOM     13  S   UNL     1      -1.519  -0.288   0.069  1.00  0.00    -0.130 S 
BRANCH  12  14
ATOM     14  C   UNL     1      -1.857   2.443  -0.349  1.00  0.00     0.264 C 
ATOM     15  O   UNL     1      -1.396   3.429  -0.932  1.00  0.00    -0.268 OA
BRANCH  14  16
ATOM     16  N   UNL     1      -3.225   2.387  -0.110  1.00  0.00    -0.335 N 
ATOM     17  C   UNL     1      -4.126   3.100  -0.991  1.00  0.00     0.120 C 
ATOM     18  C   UNL     1      -3.978   1.724   0.961  1.00  0.00     0.082 C 
ATOM     19  C   UNL     1      -5.378   2.247  -0.944  1.00  0.00     0.024 C 
ATOM     20  C   UNL     1      -5.450   1.833   0.522  1.00  0.00     0.026 C 
ATOM     21  C   UNL     1      -3.755   2.409   2.307  1.00  0.00     0.031 C 
ENDBRANCH  14  16
ENDBRANCH  12  14
ENDBRANCH   7   8
ENDBRANCH   3   6
ENDBRANCH   1   2
BRANCH   1  22
ATOM     22  C   UNL     1       3.160  -4.622   0.623  1.00  0.00     0.042 C 
BRANCH  22  23
ATOM     23  C   UNL     1       3.721  -5.985   1.021  1.00  0.00     0.118 C 
BRANCH  23  24
ATOM     24  N   UNL     1       4.640  -6.510   0.022  1.00  0.00    -0.352 N 
ATOM     25  C   UNL     1       5.953  -6.890   0.140  1.00  0.00     0.251 C 
ATOM     26  H   UNL     1       4.259  -6.609  -0.880  1.00  0.00     0.163 HD
ATOM     27  O   UNL     1       6.610  -7.105  -0.874  1.00  0.00    -0.269 OA
BRANCH  25  28
ATOM     28  C   UNL     1       6.589  -7.035   1.468  1.00  0.00     0.039 A 
ATOM     29  C   UNL     1       7.913  -6.612   1.625  1.00  0.00     0.014 A 
ATOM     30  C   UNL     1       5.919  -7.637   2.538  1.00  0.00     0.014 A 
ATOM     31  C   UNL     1       8.548  -6.749   2.862  1.00  0.00     0.010 A 
ATOM     32  C   UNL     1       6.531  -7.715   3.788  1.00  0.00     0.010 A 
ATOM     33  C   UNL     1       7.853  -7.280   3.960  1.00  0.00    -0.014 A 
BRANCH  33  34
ATOM     34  C   UNL     1       8.498  -7.396   5.292  1.00  0.00     0.031 A 
ATOM     35  C   UNL     1       8.764  -8.748   5.892  1.00  0.00     0.074 A 
ATOM     36  C   UNL     1       8.793  -6.280   5.987  1.00  0.00     0.049 A 
ATOM     37  N   UNL     1       9.249  -9.050   7.070  1.00  0.00    -0.248 NA
ATOM     38  C   UNL     1       8.415  -9.917   5.068  1.00  0.00     0.031 C 
ATOM     39  C   UNL     1       8.547  -4.911   5.533  1.00  0.00     0.029 A 
ATOM     40  N   UNL     1       9.353  -6.124   7.229  1.00  0.00    -0.354 N 
ATOM     41  C   UNL     1       9.247 -10.437   7.136  1.00  0.00     0.074 A 
ATOM     42  C   UNL     1       8.673 -10.918   5.897  1.00  0.00     0.031 C 
ATOM     43  C   UNL     1       8.969  -4.053   6.476  1.00  0.00     0.029 A 
ATOM     44  C   UNL     1       9.484  -4.811   7.612  1.00  0.00     0.049 A 
ATOM     45  H   UNL     1       9.634  -6.880   7.793  1.00  0.00     0.167 HD
ATOM     46  C   UNL     1       9.699 -11.239   8.130  1.00  0.00     0.037 A 
ATOM     47  C   UNL     1       9.960  -4.279   8.753  1.00  0.00     0.037 A 
ATOM     48  C   UNL     1      10.296 -10.761   9.349  1.00  0.00     0.049 A 
ATOM     49  C   UNL     1      10.467  -5.188   9.836  1.00  0.00     0.074 A 
ATOM     50  C   UNL     1      10.834 -11.495  10.392  1.00  0.00     0.029 A 
ATOM     51  N   UNL     1      10.435  -9.424   9.688  1.00  0.00    -0.354 N 
ATOM     52  N   UNL     1      10.507  -6.498   9.863  1.00  0.00    -0.248 NA
ATOM     53  C   UNL     1      11.001  -4.545  11.045  1.00  0.00     0.031 C 
ATOM     54  C   UNL     1      11.271 -10.601  11.376  1.00  0.00     0.029 A 
ATOM     55  C   UNL     1      11.039  -9.311  10.929  1.00  0.00     0.049 A 
ATOM     56  H   UNL     1      10.148  -8.666   9.128  1.00  0.00     0.167 HD
ATOM     57  C   UNL     1      11.089  -6.836  11.076  1.00  0.00     0.074 A 
ATOM     58  C   UNL     1      11.399  -5.593  11.753  1.00  0.00     0.031 C 
ATOM     59  C   UNL     1      11.345  -8.066  11.585  1.00  0.00     0.037 A 
BRANCH  46  60
ATOM     60  C   UNL     1       9.568 -12.721   7.934  1.00  0.00     0.057 A 
ATOM     61  C   UNL     1      10.370 -13.417   7.020  1.00  0.00     0.134 A 
ATOM     62  C   UNL     1       8.652 -13.465   8.688  1.00  0.00     0.134 A 
ATOM     63  F   UNL     1      11.259 -12.761   6.259  1.00  0.00    -0.206 F 
ATOM     64  C   UNL     1      10.248 -14.796   6.845  1.00  0.00     0.040 A 
ATOM     65  C   UNL     1       8.538 -14.848   8.539  1.00  0.00     0.040 A 
ATOM     66  F   UNL     1       7.858 -12.862   9.585  1.00  0.00    -0.206 F 
ATOM     67  C   UNL     1       9.334 -15.517   7.611  1.00  0.00     0.006 A 
ENDBRANCH  46  60
BRANCH  47  68
ATOM     68  C   UNL     1      10.003  -2.806   8.918  1.00  0.00     0.057 A 
ATOM     69  C   UNL     1      11.218  -2.112   8.880  1.00  0.00     0.134 A 
ATOM     70  C   UNL     1       8.836  -2.057   9.112  1.00  0.00     0.134 A 
ATOM     71  F   UNL     1      12.370  -2.779   8.714  1.00  0.00    -0.206 F 
ATOM     72  C   UNL     1      11.274  -0.728   9.043  1.00  0.00     0.040 A 
ATOM     73  C   UNL     1       8.876  -0.669   9.256  1.00  0.00     0.040 A 
ATOM     74  F   UNL     1       7.641  -2.663   9.150  1.00  0.00    -0.206 F 
ATOM     75  C   UNL     1      10.099  -0.002   9.227  1.00  0.00     0.006 A 
ENDBRANCH  47  68
BRANCH  59  76
ATOM     76  C   UNL     1      12.017  -8.125  12.924  1.00  0.00     0.057 A 
ATOM     77  C   UNL     1      11.327  -7.835  14.108  1.00  0.00     0.134 A 
ATOM     78  C   UNL     1      13.359  -8.509  13.032  1.00  0.00     0.134 A 
ATOM     79  F   UNL     1      10.043  -7.448  14.070  1.00  0.00    -0.206 F 
ATOM     80  C   UNL     1      11.956  -7.907  15.352  1.00  0.00     0.040 A 
ATOM     81  C   UNL     1      13.992  -8.605  14.272  1.00  0.00     0.040 A 
ATOM     82  F   UNL     1      14.073  -8.806  11.936  1.00  0.00    -0.206 F 
ATOM     83  C   UNL     1      13.291  -8.299  15.436  1.00  0.00     0.006 A 
ENDBRANCH  59  76
ENDBRANCH  33  34
ENDBRANCH  25  28
ENDBRANCH  23  24
ENDBRANCH  22  23
ENDBRANCH   1  22
TORSDOF 13
