REMARK SMILES CCC(CC)(NC(=O)NCCc1nccs1)C(=O)NCCCNC(=O)c1ccc(-c2c3nc(c(-c4c(F)cccc4F)c4ccc([nH]4)c(-c4c(F)cccc4F)c4nc(c(-c5c(F)cccc5F)c5ccc2[nH]5)C=C4)C=C3)cc1
REMARK SMILES IDX 20 1 19 2 17 3 18 4 3 6 2 7 1 8 4 9 5 10 6 11 7 12 8 14 9 15
REMARK SMILES IDX 10 17 11 18 12 19 13 20 16 21 14 22 15 23 21 24 22 25 23 26
REMARK SMILES IDX 24 27 25 29 26 30 27 31 79 32 28 33 78 34 29 35 30 36 31 37
REMARK SMILES IDX 72 38 32 39 77 40 71 41 73 42 33 43 76 44 70 45 69 46 34 48
REMARK SMILES IDX 60 49 43 50 59 51 44 52 47 53 58 54 74 55 45 56 46 57 57 59
REMARK SMILES IDX 75 60 48 61 35 62 36 63 41 64 37 65 38 66 40 67 42 68 39 69
REMARK SMILES IDX 61 70 62 71 67 72 63 73 64 74 66 75 68 76 65 77 49 78 50 79
REMARK SMILES IDX 55 80 51 81 52 82 54 83 56 84 53 85
REMARK H PARENT 19 5 6 13 9 16 23 28 73 47 47 58
REMARK Flexibility Score: inf
ROOT
ATOM      1  C   UNL     1       1.898  -1.048  -5.262  1.00  0.00     0.117 C 
ENDROOT
BRANCH   1   2
ATOM      2  N   UNL     1       2.586  -1.021  -3.973  1.00  0.00    -0.354 N 
ATOM      3  C   UNL     1       2.239  -0.559  -2.721  1.00  0.00     0.245 C 
ATOM      4  O   UNL     1       2.978  -0.891  -1.788  1.00  0.00    -0.272 OA
ATOM      5  H   UNL     1       3.487  -1.416  -4.005  1.00  0.00     0.163 HD
BRANCH   3   6
ATOM      6  C   UNL     1       0.925   0.227  -2.467  1.00  0.00     0.120 C 
BRANCH   6   7
ATOM      7  C   UNL     1       0.768   0.946  -1.096  1.00  0.00     0.035 C 
ATOM      8  C   UNL     1       0.866   0.108   0.173  1.00  0.00     0.007 C 
ENDBRANCH   6   7
BRANCH   6   9
ATOM      9  C   UNL     1      -0.190  -0.876  -2.595  1.00  0.00     0.035 C 
ATOM     10  C   UNL     1      -1.642  -0.426  -2.559  1.00  0.00     0.007 C 
ENDBRANCH   6   9
BRANCH   6  11
ATOM     11  N   UNL     1       0.828   1.265  -3.516  1.00  0.00    -0.324 N 
ATOM     12  C   UNL     1       1.589   2.282  -3.938  1.00  0.00     0.315 C 
ATOM     13  H   UNL     1      -0.006   1.188  -4.034  1.00  0.00     0.166 HD
ATOM     14  O   UNL     1       1.060   3.056  -4.744  1.00  0.00    -0.249 OA
ATOM     15  N   UNL     1       2.880   2.503  -3.662  1.00  0.00    -0.338 N 
ATOM     16  H   UNL     1       3.287   3.090  -4.340  1.00  0.00     0.165 HD
BRANCH  15  17
ATOM     17  C   UNL     1       3.862   2.123  -2.644  1.00  0.00     0.125 C 
BRANCH  17  18
ATOM     18  C   UNL     1       4.968   1.148  -3.054  1.00  0.00     0.089 C 
BRANCH  18  19
ATOM     19  C   UNL     1       6.098   1.575  -3.945  1.00  0.00     0.094 A 
ATOM     20  N   UNL     1       6.917   0.676  -4.463  1.00  0.00    -0.250 NA
ATOM     21  S   UNL     1       6.459   3.196  -4.364  1.00  0.00    -0.127 S 
ATOM     22  C   UNL     1       7.911   1.287  -5.193  1.00  0.00     0.123 A 
ATOM     23  C   UNL     1       7.821   2.658  -5.264  1.00  0.00     0.087 A 
ENDBRANCH  18  19
ENDBRANCH  17  18
ENDBRANCH  15  17
ENDBRANCH   6  11
ENDBRANCH   3   6
ENDBRANCH   1   2
BRANCH   1  24
ATOM     24  C   UNL     1       2.278  -0.008  -6.313  1.00  0.00     0.042 C 
BRANCH  24  25
ATOM     25  C   UNL     1       3.748   0.189  -6.633  1.00  0.00     0.118 C 
BRANCH  25  26
ATOM     26  N   UNL     1       4.418  -1.010  -7.097  1.00  0.00    -0.352 N 
ATOM     27  C   UNL     1       5.231  -1.181  -8.195  1.00  0.00     0.251 C 
ATOM     28  H   UNL     1       4.271  -1.816  -6.550  1.00  0.00     0.163 HD
ATOM     29  O   UNL     1       5.643  -2.292  -8.491  1.00  0.00    -0.269 OA
BRANCH  27  30
ATOM     30  C   UNL     1       5.585  -0.016  -9.040  1.00  0.00     0.039 A 
ATOM     31  C   UNL     1       5.431  -0.110 -10.425  1.00  0.00     0.014 A 
ATOM     32  C   UNL     1       6.070   1.162  -8.469  1.00  0.00     0.014 A 
ATOM     33  C   UNL     1       5.696   1.002 -11.230  1.00  0.00     0.010 A 
ATOM     34  C   UNL     1       6.292   2.284  -9.264  1.00  0.00     0.010 A 
ATOM     35  C   UNL     1       6.097   2.218 -10.652  1.00  0.00    -0.014 A 
BRANCH  35  36
ATOM     36  C   UNL     1       6.277   3.446 -11.467  1.00  0.00     0.031 A 
ATOM     37  C   UNL     1       7.638   4.062 -11.622  1.00  0.00     0.074 A 
ATOM     38  C   UNL     1       5.196   4.060 -11.985  1.00  0.00     0.049 A 
ATOM     39  N   UNL     1       7.977   5.185 -12.203  1.00  0.00    -0.248 NA
ATOM     40  C   UNL     1       8.766   3.329 -11.025  1.00  0.00     0.031 C 
ATOM     41  C   UNL     1       3.817   3.584 -11.867  1.00  0.00     0.029 A 
ATOM     42  N   UNL     1       5.084   5.231 -12.694  1.00  0.00    -0.354 N 
ATOM     43  C   UNL     1       9.351   5.299 -12.036  1.00  0.00     0.074 A 
ATOM     44  C   UNL     1       9.777   4.154 -11.259  1.00  0.00     0.031 C 
ATOM     45  C   UNL     1       2.999   4.452 -12.483  1.00  0.00     0.029 A 
ATOM     46  C   UNL     1       3.788   5.563 -13.005  1.00  0.00     0.049 A 
ATOM     47  H   UNL     1       5.859   5.780 -12.953  1.00  0.00     0.167 HD
ATOM     48  C   UNL     1      10.182   6.262 -12.503  1.00  0.00     0.037 A 
ATOM     49  C   UNL     1       3.289   6.650 -13.625  1.00  0.00     0.037 A 
ATOM     50  C   UNL     1       9.752   7.397 -13.279  1.00  0.00     0.049 A 
ATOM     51  C   UNL     1       4.229   7.720 -14.107  1.00  0.00     0.074 A 
ATOM     52  C   UNL     1      10.525   8.399 -13.839  1.00  0.00     0.029 A 
ATOM     53  N   UNL     1       8.433   7.685 -13.595  1.00  0.00    -0.354 N 
ATOM     54  N   UNL     1       5.535   7.781 -14.004  1.00  0.00    -0.248 NA
ATOM     55  C   UNL     1       3.629   8.871 -14.798  1.00  0.00     0.031 C 
ATOM     56  C   UNL     1       9.670   9.322 -14.448  1.00  0.00     0.029 A 
ATOM     57  C   UNL     1       8.369   8.863 -14.323  1.00  0.00     0.049 A 
ATOM     58  H   UNL     1       7.657   7.135 -13.341  1.00  0.00     0.167 HD
ATOM     59  C   UNL     1       5.914   8.949 -14.653  1.00  0.00     0.074 A 
ATOM     60  C   UNL     1       4.702   9.568 -15.145  1.00  0.00     0.031 C 
ATOM     61  C   UNL     1       7.158   9.458 -14.829  1.00  0.00     0.037 A 
BRANCH  48  62
ATOM     62  C   UNL     1      11.645   6.134 -12.184  1.00  0.00     0.057 A 
ATOM     63  C   UNL     1      12.441   5.133 -12.757  1.00  0.00     0.134 A 
ATOM     64  C   UNL     1      12.276   7.051 -11.334  1.00  0.00     0.134 A 
ATOM     65  F   UNL     1      11.899   4.218 -13.575  1.00  0.00    -0.206 F 
ATOM     66  C   UNL     1      13.805   5.032 -12.474  1.00  0.00     0.040 A 
ATOM     67  C   UNL     1      13.645   6.979 -11.068  1.00  0.00     0.040 A 
ATOM     68  F   UNL     1      11.577   8.041 -10.759  1.00  0.00    -0.206 F 
ATOM     69  C   UNL     1      14.412   5.962 -11.633  1.00  0.00     0.006 A 
ENDBRANCH  48  62
BRANCH  49  70
ATOM     70  C   UNL     1       1.825   6.773 -13.843  1.00  0.00     0.057 A 
ATOM     71  C   UNL     1       1.276   6.686 -15.128  1.00  0.00     0.134 A 
ATOM     72  C   UNL     1       0.940   6.986 -12.778  1.00  0.00     0.134 A 
ATOM     73  F   UNL     1       2.074   6.501 -16.190  1.00  0.00    -0.206 F 
ATOM     74  C   UNL     1      -0.094   6.827 -15.350  1.00  0.00     0.040 A 
ATOM     75  C   UNL     1      -0.436   7.101 -12.983  1.00  0.00     0.040 A 
ATOM     76  F   UNL     1       1.401   7.071 -11.522  1.00  0.00    -0.206 F 
ATOM     77  C   UNL     1      -0.955   7.030 -14.274  1.00  0.00     0.006 A 
ENDBRANCH  49  70
BRANCH  61  78
ATOM     78  C   UNL     1       7.288  10.713 -15.641  1.00  0.00     0.057 A 
ATOM     79  C   UNL     1       6.891  11.964 -15.152  1.00  0.00     0.134 A 
ATOM     80  C   UNL     1       7.883  10.675 -16.910  1.00  0.00     0.134 A 
ATOM     81  F   UNL     1       6.304  12.069 -13.951  1.00  0.00    -0.206 F 
ATOM     82  C   UNL     1       7.069  13.129 -15.902  1.00  0.00     0.040 A 
ATOM     83  C   UNL     1       8.091  11.835 -17.656  1.00  0.00     0.040 A 
ATOM     84  F   UNL     1       8.293   9.510 -17.434  1.00  0.00    -0.206 F 
ATOM     85  C   UNL     1       7.680  13.067 -17.153  1.00  0.00     0.006 A 
ENDBRANCH  61  78
ENDBRANCH  35  36
ENDBRANCH  27  30
ENDBRANCH  25  26
ENDBRANCH  24  25
ENDBRANCH   1  24
TORSDOF 16
