REMARK SMILES CCN(Cc1cn(CC)nc1C)C(=O)c1ccn([C@@H](C)C(=O)NCCCNC(=O)c2ccc(-c3c4nc(c(-c5c(F)cccc5F)c5ccc([nH]5)c(-c5c(F)cccc5F)c5nc(c(-c6c(F)cccc6F)c6ccc3[nH]6)C=C5)C=C4)cc2)n1
REMARK SMILES IDX 21 1 22 2 23 3 19 5 20 6 18 7 15 8 16 9 84 10 17 11 13 12
REMARK SMILES IDX 14 13 3 14 2 15 1 16 4 17 5 18 6 19 11 20 7 21 10 22 12 23
REMARK SMILES IDX 8 24 9 25 24 26 25 27 26 28 27 29 28 30 29 32 30 33 31 34
REMARK SMILES IDX 83 35 32 36 82 37 33 38 34 39 35 40 76 41 36 42 81 43 75 44
REMARK SMILES IDX 77 45 37 46 80 47 74 48 73 49 38 51 64 52 47 53 63 54 48 55
REMARK SMILES IDX 51 56 62 57 78 58 49 59 50 60 61 62 79 63 52 64 39 65 40 66
REMARK SMILES IDX 45 67 41 68 42 69 44 70 46 71 43 72 65 73 66 74 71 75 67 76
REMARK SMILES IDX 68 77 70 78 72 79 69 80 53 81 54 82 59 83 55 84 56 85 58 86
REMARK SMILES IDX 60 87 57 88
REMARK H PARENT 23 4 27 31 77 50 51 61
REMARK Flexibility Score: inf
ROOT
ATOM      1  C   UNL     1       6.010   2.978   6.204  1.00  0.00     0.244 C 
ATOM      2  O   UNL     1       7.132   2.529   5.929  1.00  0.00    -0.273 OA
ATOM      3  N   UNL     1       5.635   2.813   7.508  1.00  0.00    -0.354 N 
ATOM      4  H   UNL     1       6.318   2.350   8.046  1.00  0.00     0.163 HD
ENDROOT
BRANCH   1   5
ATOM      5  C   UNL     1       5.185   3.685   5.110  1.00  0.00     0.193 C 
ATOM      6  C   UNL     1       4.809   5.121   5.453  1.00  0.00     0.044 C 
BRANCH   5   7
ATOM      7  N   UNL     1       4.057   2.873   4.671  1.00  0.00    -0.260 N 
ATOM      8  C   UNL     1       3.070   1.310   3.630  1.00  0.00     0.150 A 
ATOM      9  C   UNL     1       2.722   1.252   4.991  1.00  0.00     0.056 A 
ATOM     10  N   UNL     1       3.982   2.296   3.446  1.00  0.00    -0.167 NA
ATOM     11  C   UNL     1       2.991   2.519   5.433  1.00  0.00     0.110 A 
BRANCH   8  12
ATOM     12  C   UNL     1       2.541   0.430   2.575  1.00  0.00     0.274 C 
ATOM     13  O   UNL     1       3.300  -0.163   1.807  1.00  0.00    -0.267 OA
BRANCH  12  14
ATOM     14  N   UNL     1       1.130   0.282   2.478  1.00  0.00    -0.333 N 
BRANCH  14  15
ATOM     15  C   UNL     1       0.636  -0.553   1.383  1.00  0.00     0.117 C 
ATOM     16  C   UNL     1       0.809   0.089   0.012  1.00  0.00     0.027 C 
ENDBRANCH  14  15
BRANCH  14  17
ATOM     17  C   UNL     1       0.124   1.079   3.210  1.00  0.00     0.159 C 
BRANCH  17  18
ATOM     18  C   UNL     1      -0.180   0.575   4.598  1.00  0.00     0.012 A 
ATOM     19  C   UNL     1      -0.338   1.375   5.727  1.00  0.00     0.114 A 
ATOM     20  C   UNL     1      -0.297  -0.749   5.123  1.00  0.00     0.064 A 
ATOM     21  N   UNL     1      -0.337   0.541   6.809  1.00  0.00    -0.272 N 
ATOM     22  N   UNL     1      -0.364  -0.752   6.463  1.00  0.00    -0.178 NA
ATOM     23  C   UNL     1      -0.258  -2.059   4.433  1.00  0.00     0.069 C 
BRANCH  21  24
ATOM     24  C   UNL     1      -0.045   0.905   8.184  1.00  0.00     0.141 C 
ATOM     25  C   UNL     1      -1.128   0.534   9.176  1.00  0.00     0.029 C 
ENDBRANCH  21  24
ENDBRANCH  17  18
ENDBRANCH  14  17
ENDBRANCH  12  14
ENDBRANCH   8  12
ENDBRANCH   5   7
ENDBRANCH   1   5
BRANCH   3  26
ATOM     26  C   UNL     1       4.450   3.170   8.281  1.00  0.00     0.117 C 
BRANCH  26  27
ATOM     27  C   UNL     1       3.445   2.018   8.413  1.00  0.00     0.042 C 
BRANCH  27  28
ATOM     28  C   UNL     1       3.699   1.110   9.583  1.00  0.00     0.118 C 
BRANCH  28  29
ATOM     29  N   UNL     1       3.271   1.661  10.868  1.00  0.00    -0.352 N 
ATOM     30  C   UNL     1       3.218   1.004  12.093  1.00  0.00     0.251 C 
ATOM     31  H   UNL     1       2.989   2.605  10.866  1.00  0.00     0.163 HD
ATOM     32  O   UNL     1       2.542   1.440  13.007  1.00  0.00    -0.269 OA
BRANCH  30  33
ATOM     33  C   UNL     1       3.997  -0.245  12.246  1.00  0.00     0.039 A 
ATOM     34  C   UNL     1       3.578  -1.321  13.028  1.00  0.00     0.014 A 
ATOM     35  C   UNL     1       5.164  -0.341  11.504  1.00  0.00     0.014 A 
ATOM     36  C   UNL     1       4.342  -2.489  12.995  1.00  0.00     0.010 A 
ATOM     37  C   UNL     1       5.661  -1.565  11.189  1.00  0.00     0.010 A 
ATOM     38  C   UNL     1       5.381  -2.595  12.055  1.00  0.00    -0.014 A 
BRANCH  38  39
ATOM     39  C   UNL     1       6.177  -3.793  11.868  1.00  0.00     0.031 A 
ATOM     40  C   UNL     1       5.357  -4.977  11.548  1.00  0.00     0.074 A 
ATOM     41  C   UNL     1       7.526  -3.789  11.768  1.00  0.00     0.049 A 
ATOM     42  N   UNL     1       5.010  -5.907  12.368  1.00  0.00    -0.248 NA
ATOM     43  C   UNL     1       4.666  -5.028  10.251  1.00  0.00     0.031 C 
ATOM     44  C   UNL     1       8.455  -2.650  11.718  1.00  0.00     0.029 A 
ATOM     45  N   UNL     1       8.364  -4.849  11.618  1.00  0.00    -0.354 N 
ATOM     46  C   UNL     1       4.268  -6.805  11.617  1.00  0.00     0.074 A 
ATOM     47  C   UNL     1       3.892  -6.104  10.417  1.00  0.00     0.031 C 
ATOM     48  C   UNL     1       9.683  -3.074  11.338  1.00  0.00     0.029 A 
ATOM     49  C   UNL     1       9.678  -4.523  11.287  1.00  0.00     0.049 A 
ATOM     50  H   UNL     1       8.064  -5.780  11.733  1.00  0.00     0.167 HD
ATOM     51  C   UNL     1       4.286  -8.129  11.927  1.00  0.00     0.037 A 
ATOM     52  C   UNL     1      10.672  -5.399  10.989  1.00  0.00     0.037 A 
ATOM     53  C   UNL     1       4.886  -8.339  13.226  1.00  0.00     0.049 A 
ATOM     54  C   UNL     1      10.263  -6.720  11.534  1.00  0.00     0.074 A 
ATOM     55  C   UNL     1       4.603  -7.914  14.510  1.00  0.00     0.029 A 
ATOM     56  N   UNL     1       6.200  -8.744  13.245  1.00  0.00    -0.354 N 
ATOM     57  N   UNL     1      10.176  -6.977  12.809  1.00  0.00    -0.248 NA
ATOM     58  C   UNL     1       9.481  -7.588  10.667  1.00  0.00     0.031 C 
ATOM     59  C   UNL     1       5.874  -7.640  15.098  1.00  0.00     0.029 A 
ATOM     60  C   UNL     1       6.865  -7.994  14.181  1.00  0.00     0.049 A 
ATOM     61  H   UNL     1       6.595  -9.451  12.685  1.00  0.00     0.167 HD
ATOM     62  C   UNL     1       9.007  -7.712  12.939  1.00  0.00     0.074 A 
ATOM     63  C   UNL     1       8.665  -8.126  11.578  1.00  0.00     0.031 C 
ATOM     64  C   UNL     1       8.267  -7.654  14.086  1.00  0.00     0.037 A 
BRANCH  51  65
ATOM     65  C   UNL     1       4.170  -9.248  10.923  1.00  0.00     0.057 A 
ATOM     66  C   UNL     1       4.088 -10.569  11.399  1.00  0.00     0.134 A 
ATOM     67  C   UNL     1       4.431  -9.125   9.544  1.00  0.00     0.134 A 
ATOM     68  F   UNL     1       3.846 -10.820  12.696  1.00  0.00    -0.206 F 
ATOM     69  C   UNL     1       4.340 -11.678  10.585  1.00  0.00     0.040 A 
ATOM     70  C   UNL     1       4.633 -10.227   8.710  1.00  0.00     0.040 A 
ATOM     71  F   UNL     1       4.611  -7.944   8.943  1.00  0.00    -0.206 F 
ATOM     72  C   UNL     1       4.624 -11.508   9.236  1.00  0.00     0.006 A 
ENDBRANCH  51  65
BRANCH  52  73
ATOM     73  C   UNL     1      11.791  -5.272  10.025  1.00  0.00     0.057 A 
ATOM     74  C   UNL     1      12.873  -6.167  10.043  1.00  0.00     0.134 A 
ATOM     75  C   UNL     1      11.676  -4.472   8.875  1.00  0.00     0.134 A 
ATOM     76  F   UNL     1      13.050  -7.000  11.079  1.00  0.00    -0.206 F 
ATOM     77  C   UNL     1      13.764  -6.287   8.966  1.00  0.00     0.040 A 
ATOM     78  C   UNL     1      12.559  -4.581   7.794  1.00  0.00     0.040 A 
ATOM     79  F   UNL     1      10.646  -3.627   8.724  1.00  0.00    -0.206 F 
ATOM     80  C   UNL     1      13.598  -5.503   7.829  1.00  0.00     0.006 A 
ENDBRANCH  52  73
BRANCH  64  81
ATOM     81  C   UNL     1       8.889  -6.998  15.292  1.00  0.00     0.057 A 
ATOM     82  C   UNL     1       9.264  -5.647  15.364  1.00  0.00     0.134 A 
ATOM     83  C   UNL     1       8.982  -7.739  16.475  1.00  0.00     0.134 A 
ATOM     84  F   UNL     1       9.123  -4.828  14.314  1.00  0.00    -0.206 F 
ATOM     85  C   UNL     1       9.748  -5.076  16.546  1.00  0.00     0.040 A 
ATOM     86  C   UNL     1       9.431  -7.173  17.670  1.00  0.00     0.040 A 
ATOM     87  F   UNL     1       8.593  -9.023  16.498  1.00  0.00    -0.206 F 
ATOM     88  C   UNL     1       9.827  -5.839  17.706  1.00  0.00     0.006 A 
ENDBRANCH  64  81
ENDBRANCH  38  39
ENDBRANCH  30  33
ENDBRANCH  28  29
ENDBRANCH  27  28
ENDBRANCH  26  27
ENDBRANCH   3  26
TORSDOF 17
