REMARK SMILES C[C@H]1CCCN(C(=O)NC[C@H]2CC[C@H](C(=O)NCCCNC(=O)c3ccc(-c4c5nc(c(-c6c(F)cccc6F)c6ccc([nH]6)c(-c6c(F)cccc6F)c6nc(c(-c7c(F)cccc7F)c7ccc4[nH]7)C=C6)C=C5)cc3)O2)CC1
REMARK SMILES IDX 15 1 16 2 17 3 14 5 11 6 12 7 78 8 13 9 10 10 9 11 7 12 8 13
REMARK SMILES IDX 6 15 79 16 80 17 2 18 1 19 5 21 4 22 3 23 18 25 19 26 20 27
REMARK SMILES IDX 21 28 22 29 23 31 24 32 25 33 77 34 26 35 76 36 27 37 28 38
REMARK SMILES IDX 29 39 70 40 30 41 75 42 69 43 71 44 31 45 74 46 68 47 67 48
REMARK SMILES IDX 32 50 58 51 41 52 57 53 42 54 45 55 56 56 72 57 43 58 44 59
REMARK SMILES IDX 55 61 73 62 46 63 33 64 34 65 39 66 35 67 36 68 38 69 40 70
REMARK SMILES IDX 37 71 59 72 60 73 65 74 61 75 62 76 64 77 66 78 63 79 47 80
REMARK SMILES IDX 48 81 53 82 49 83 50 84 52 85 54 86 51 87
REMARK H PARENT 17 4 9 14 21 30 71 49 45 60
REMARK Flexibility Score: 90.00
ROOT
ATOM      1  C   UNL     1      -5.331  -7.777   2.137  1.00  0.00     0.249 C 
ATOM      2  O   UNL     1      -6.348  -8.447   2.347  1.00  0.00    -0.272 OA
ATOM      3  N   UNL     1      -4.973  -7.587   0.836  1.00  0.00    -0.354 N 
ATOM      4  H   UNL     1      -5.573  -8.002   0.176  1.00  0.00     0.163 HD
ENDROOT
BRANCH   1   5
ATOM      5  C   UNL     1      -4.473  -7.271   3.320  1.00  0.00     0.207 C 
ATOM      6  C   UNL     1      -2.410  -6.151   3.426  1.00  0.00     0.138 C 
ATOM      7  C   UNL     1      -2.105  -7.638   3.444  1.00  0.00     0.037 C 
ATOM      8  O   UNL     1      -3.819  -6.015   3.180  1.00  0.00    -0.363 OA
ATOM      9  C   UNL     1      -3.430  -8.294   3.740  1.00  0.00     0.045 C 
BRANCH   6  10
ATOM     10  C   UNL     1      -2.033  -5.481   4.751  1.00  0.00     0.149 C 
BRANCH  10  11
ATOM     11  N   UNL     1      -2.119  -4.026   4.685  1.00  0.00    -0.335 N 
ATOM     12  C   UNL     1      -2.784  -3.022   5.280  1.00  0.00     0.317 C 
ATOM     13  O   UNL     1      -2.436  -1.896   4.907  1.00  0.00    -0.249 OA
ATOM     14  H   UNL     1      -1.506  -3.675   4.000  1.00  0.00     0.165 HD
BRANCH  12  15
ATOM     15  N   UNL     1      -3.756  -3.205   6.230  1.00  0.00    -0.325 N 
BRANCH  15  16
ATOM     16  C   UNL     1      -4.393  -1.998   6.772  1.00  0.00     0.121 C 
BRANCH  16  17
ATOM     17  C   UNL     1      -3.835  -1.621   8.148  1.00  0.00     0.025 C 
BRANCH  17  18
ATOM     18  C   UNL     1      -4.386  -2.419   9.344  1.00  0.00    -0.012 CG0
ATOM     19  C   UNL     1      -5.806  -1.977   9.715  1.00  0.00     0.008 C 
ATOM     20  G   UNL     1      -4.302  -3.941   9.181  1.00  0.00     0.000 G0
ENDBRANCH  17  18
ENDBRANCH  16  17
ENDBRANCH  15  16
BRANCH  15  21
ATOM     21  C   UNL     1      -4.217  -4.490   6.727  1.00  0.00     0.121 C 
BRANCH  21  22
ATOM     22  C   UNL     1      -5.075  -4.501   7.987  1.00  0.00     0.022 C 
BRANCH  22  23
ATOM     23  C   UNL     1      -4.302  -3.941   9.181  1.00  0.00     0.005 CG0
ATOM     24  G   UNL     1      -4.386  -2.419   9.344  1.00  0.00     0.000 G0
ENDBRANCH  22  23
ENDBRANCH  21  22
ENDBRANCH  15  21
ENDBRANCH  12  15
ENDBRANCH  10  11
ENDBRANCH   6  10
ENDBRANCH   1   5
BRANCH   3  25
ATOM     25  C   UNL     1      -3.849  -6.870   0.271  1.00  0.00     0.117 C 
BRANCH  25  26
ATOM     26  C   UNL     1      -2.703  -7.810  -0.085  1.00  0.00     0.042 C 
BRANCH  26  27
ATOM     27  C   UNL     1      -2.841  -8.433  -1.466  1.00  0.00     0.118 C 
BRANCH  27  28
ATOM     28  N   UNL     1      -2.685  -7.448  -2.526  1.00  0.00    -0.352 N 
ATOM     29  C   UNL     1      -1.756  -7.358  -3.531  1.00  0.00     0.251 C 
ATOM     30  H   UNL     1      -3.356  -6.727  -2.521  1.00  0.00     0.163 HD
ATOM     31  O   UNL     1      -1.672  -6.321  -4.182  1.00  0.00    -0.269 OA
BRANCH  29  32
ATOM     32  C   UNL     1      -0.851  -8.489  -3.834  1.00  0.00     0.039 A 
ATOM     33  C   UNL     1       0.467  -8.210  -4.212  1.00  0.00     0.014 A 
ATOM     34  C   UNL     1      -1.299  -9.811  -3.799  1.00  0.00     0.014 A 
ATOM     35  C   UNL     1       1.344  -9.256  -4.503  1.00  0.00     0.010 A 
ATOM     36  C   UNL     1      -0.403 -10.856  -4.007  1.00  0.00     0.010 A 
ATOM     37  C   UNL     1       0.924 -10.589  -4.372  1.00  0.00    -0.014 A 
BRANCH  37  38
ATOM     38  C   UNL     1       1.854 -11.717  -4.622  1.00  0.00     0.031 A 
ATOM     39  C   UNL     1       1.586 -12.681  -5.746  1.00  0.00     0.074 A 
ATOM     40  C   UNL     1       2.899 -11.912  -3.796  1.00  0.00     0.049 A 
ATOM     41  N   UNL     1       2.231 -13.772  -6.071  1.00  0.00    -0.248 NA
ATOM     42  C   UNL     1       0.421 -12.397  -6.600  1.00  0.00     0.031 C 
ATOM     43  C   UNL     1       3.233 -11.075  -2.641  1.00  0.00     0.029 A 
ATOM     44  N   UNL     1       3.867 -12.884  -3.791  1.00  0.00    -0.354 N 
ATOM     45  C   UNL     1       1.541 -14.313  -7.149  1.00  0.00     0.074 A 
ATOM     46  C   UNL     1       0.401 -13.458  -7.394  1.00  0.00     0.031 C 
ATOM     47  C   UNL     1       4.339 -11.558  -2.053  1.00  0.00     0.029 A 
ATOM     48  C   UNL     1       4.769 -12.758  -2.763  1.00  0.00     0.049 A 
ATOM     49  H   UNL     1       3.911 -13.604  -4.461  1.00  0.00     0.167 HD
ATOM     50  C   UNL     1       1.844 -15.410  -7.881  1.00  0.00     0.037 A 
ATOM     51  C   UNL     1       5.821 -13.528  -2.427  1.00  0.00     0.037 A 
ATOM     52  C   UNL     1       3.001 -16.236  -7.657  1.00  0.00     0.049 A 
ATOM     53  C   UNL     1       6.143 -14.733  -3.266  1.00  0.00     0.074 A 
ATOM     54  C   UNL     1       3.436 -17.328  -8.387  1.00  0.00     0.029 A 
ATOM     55  N   UNL     1       3.909 -16.058  -6.624  1.00  0.00    -0.354 N 
ATOM     56  N   UNL     1       5.520 -15.193  -4.323  1.00  0.00    -0.248 NA
ATOM     57  C   UNL     1       7.316 -15.522  -2.868  1.00  0.00     0.031 C 
ATOM     58  C   UNL     1       4.585 -17.835  -7.772  1.00  0.00     0.029 A 
ATOM     59  C   UNL     1       4.891 -17.032  -6.685  1.00  0.00     0.049 A 
ATOM     60  H   UNL     1       3.861 -15.344  -5.947  1.00  0.00     0.167 HD
ATOM     61  C   UNL     1       6.238 -16.309  -4.732  1.00  0.00     0.074 A 
ATOM     62  C   UNL     1       7.353 -16.446  -3.818  1.00  0.00     0.031 C 
ATOM     63  C   UNL     1       5.996 -17.147  -5.769  1.00  0.00     0.037 A 
BRANCH  50  64
ATOM     64  C   UNL     1       0.916 -15.777  -9.002  1.00  0.00     0.057 A 
ATOM     65  C   UNL     1       0.840 -15.018 -10.177  1.00  0.00     0.134 A 
ATOM     66  C   UNL     1       0.121 -16.928  -8.925  1.00  0.00     0.134 A 
ATOM     67  F   UNL     1       1.566 -13.897 -10.310  1.00  0.00    -0.206 F 
ATOM     68  C   UNL     1      -0.008 -15.377 -11.226  1.00  0.00     0.040 A 
ATOM     69  C   UNL     1      -0.712 -17.312  -9.978  1.00  0.00     0.040 A 
ATOM     70  F   UNL     1       0.149 -17.703  -7.831  1.00  0.00    -0.206 F 
ATOM     71  C   UNL     1      -0.781 -16.532 -11.131  1.00  0.00     0.006 A 
ENDBRANCH  50  64
BRANCH  51  72
ATOM     72  C   UNL     1       6.658 -13.174  -1.253  1.00  0.00     0.057 A 
ATOM     73  C   UNL     1       7.967 -12.705  -1.415  1.00  0.00     0.134 A 
ATOM     74  C   UNL     1       6.177 -13.305   0.055  1.00  0.00     0.134 A 
ATOM     75  F   UNL     1       8.489 -12.575  -2.644  1.00  0.00    -0.206 F 
ATOM     76  C   UNL     1       8.775 -12.399  -0.320  1.00  0.00     0.040 A 
ATOM     77  C   UNL     1       6.966 -12.979   1.159  1.00  0.00     0.040 A 
ATOM     78  F   UNL     1       4.928 -13.740   0.277  1.00  0.00    -0.206 F 
ATOM     79  C   UNL     1       8.273 -12.533   0.973  1.00  0.00     0.006 A 
ENDBRANCH  51  72
BRANCH  63  80
ATOM     80  C   UNL     1       6.971 -18.265  -5.986  1.00  0.00     0.057 A 
ATOM     81  C   UNL     1       7.014 -19.380  -5.139  1.00  0.00     0.134 A 
ATOM     82  C   UNL     1       7.850 -18.243  -7.076  1.00  0.00     0.134 A 
ATOM     83  F   UNL     1       6.207 -19.453  -4.069  1.00  0.00    -0.206 F 
ATOM     84  C   UNL     1       7.914 -20.424  -5.356  1.00  0.00     0.040 A 
ATOM     85  C   UNL     1       8.736 -19.293  -7.318  1.00  0.00     0.040 A 
ATOM     86  F   UNL     1       7.852 -17.208  -7.929  1.00  0.00    -0.206 F 
ATOM     87  C   UNL     1       8.774 -20.385  -6.453  1.00  0.00     0.006 A 
ENDBRANCH  63  80
ENDBRANCH  37  38
ENDBRANCH  29  32
ENDBRANCH  27  28
ENDBRANCH  26  27
ENDBRANCH  25  26
ENDBRANCH   3  25
TORSDOF 13
