REMARK SMILES Cc1cc(Cl)c(C)c2c1O[C@H](C(F)(F)F)C(C(=O)NCCCNC(=O)c1ccc(-c3c4nc(c(-c5c(F)cccc5F)c5ccc([nH]5)c(-c5c(F)cccc5F)c5nc(c(-c6c(F)cccc6F)c6ccc3[nH]6)C=C5)C=C4)cc1)=C2
REMARK SMILES IDX 21 1 20 2 19 3 17 4 18 5 16 7 1 8 2 9 3 10 9 11 4 12 8 13
REMARK SMILES IDX 10 14 5 15 6 16 80 17 11 18 7 19 12 20 13 21 14 22 15 23
REMARK SMILES IDX 22 24 23 25 24 26 25 28 26 29 27 30 79 31 28 32 78 33 29 34
REMARK SMILES IDX 30 35 31 36 72 37 32 38 77 39 71 40 73 41 33 42 76 43 70 44
REMARK SMILES IDX 69 45 34 47 60 48 43 49 59 50 44 51 47 52 58 53 74 54 45 55
REMARK SMILES IDX 46 56 57 58 75 59 48 60 35 61 36 62 41 63 37 64 38 65 40 66
REMARK SMILES IDX 42 67 39 68 61 69 62 70 67 71 63 72 64 73 66 74 68 75 65 76
REMARK SMILES IDX 49 77 50 78 55 79 51 80 52 81 54 82 56 83 53 84
REMARK H PARENT 19 6 23 27 73 46 47 57
REMARK Flexibility Score: inf
ROOT
ATOM      1  C   UNL     1       5.111  -4.412   4.298  1.00  0.00     0.042 C 
ENDROOT
BRANCH   1   2
ATOM      2  C   UNL     1       5.296  -4.579   2.798  1.00  0.00     0.118 C 
BRANCH   2   3
ATOM      3  N   UNL     1       4.440  -5.626   2.261  1.00  0.00    -0.352 N 
ATOM      4  C   UNL     1       3.327  -5.704   1.496  1.00  0.00     0.251 C 
ATOM      5  O   UNL     1       2.915  -6.848   1.282  1.00  0.00    -0.270 OA
ATOM      6  H   UNL     1       4.756  -6.520   2.527  1.00  0.00     0.163 HD
BRANCH   4   7
ATOM      7  C   UNL     1       2.603  -4.535   0.921  1.00  0.00     0.067 C 
ATOM      8  C   UNL     1       0.803   0.107  -0.174  1.00  0.00     0.048 C 
ATOM      9  C   UNL     1       0.406  -1.288  -0.561  1.00  0.00    -0.007 A 
ATOM     10  C   UNL     1      -0.653  -1.508  -1.441  1.00  0.00     0.028 A 
ATOM     11  C   UNL     1       1.070  -2.397  -0.029  1.00  0.00     0.131 A 
ATOM     12  C   UNL     1      -1.029  -2.810  -1.797  1.00  0.00     0.045 A 
ATOM     13  C   UNL     1       0.714  -3.712  -0.377  1.00  0.00     0.022 A 
ATOM     14  O   UNL     1       2.050  -2.124   0.886  1.00  0.00    -0.475 OA
ATOM     15  Cl  UNL     1      -2.364  -2.949  -2.890  1.00  0.00    -0.084 Cl
ATOM     16  C   UNL     1      -0.353  -3.933  -1.280  1.00  0.00    -0.021 A 
ATOM     17  C   UNL     1       1.466  -4.806   0.252  1.00  0.00     0.026 C 
ATOM     18  C   UNL     1       3.083  -3.123   1.032  1.00  0.00     0.314 C 
ATOM     19  C   UNL     1      -0.742  -5.340  -1.664  1.00  0.00     0.047 C 
BRANCH  18  20
ATOM     20  C   UNL     1       4.253  -2.806   0.081  1.00  0.00     0.429 C 
ATOM     21  F   UNL     1       4.896  -1.682   0.487  1.00  0.00    -0.167 F 
ATOM     22  F   UNL     1       5.184  -3.789   0.053  1.00  0.00    -0.167 F 
ATOM     23  F   UNL     1       3.855  -2.608  -1.195  1.00  0.00    -0.167 F 
ENDBRANCH  18  20
ENDBRANCH   4   7
ENDBRANCH   2   3
ENDBRANCH   1   2
BRANCH   1  24
ATOM     24  C   UNL     1       5.837  -5.496   5.083  1.00  0.00     0.118 C 
BRANCH  24  25
ATOM     25  N   UNL     1       7.283  -5.424   4.890  1.00  0.00    -0.352 N 
ATOM     26  C   UNL     1       8.266  -4.971   5.731  1.00  0.00     0.251 C 
ATOM     27  H   UNL     1       7.602  -5.753   4.018  1.00  0.00     0.163 HD
ATOM     28  O   UNL     1       9.384  -4.715   5.287  1.00  0.00    -0.269 OA
BRANCH  26  29
ATOM     29  C   UNL     1       7.982  -4.794   7.165  1.00  0.00     0.039 A 
ATOM     30  C   UNL     1       8.520  -3.698   7.843  1.00  0.00     0.014 A 
ATOM     31  C   UNL     1       7.200  -5.730   7.846  1.00  0.00     0.014 A 
ATOM     32  C   UNL     1       8.220  -3.511   9.192  1.00  0.00     0.010 A 
ATOM     33  C   UNL     1       6.815  -5.486   9.155  1.00  0.00     0.010 A 
ATOM     34  C   UNL     1       7.337  -4.386   9.847  1.00  0.00    -0.014 A 
BRANCH  34  35
ATOM     35  C   UNL     1       6.976  -4.195  11.270  1.00  0.00     0.031 A 
ATOM     36  C   UNL     1       7.343  -5.247  12.280  1.00  0.00     0.074 A 
ATOM     37  C   UNL     1       6.271  -3.108  11.638  1.00  0.00     0.049 A 
ATOM     38  N   UNL     1       7.067  -5.297  13.557  1.00  0.00    -0.248 NA
ATOM     39  C   UNL     1       8.094  -6.415  11.785  1.00  0.00     0.031 C 
ATOM     40  C   UNL     1       5.818  -2.049  10.734  1.00  0.00     0.029 A 
ATOM     41  N   UNL     1       5.810  -2.715  12.868  1.00  0.00    -0.354 N 
ATOM     42  C   UNL     1       7.600  -6.496  14.010  1.00  0.00     0.074 A 
ATOM     43  C   UNL     1       8.154  -7.179  12.864  1.00  0.00     0.031 C 
ATOM     44  C   UNL     1       5.177  -1.109  11.446  1.00  0.00     0.029 A 
ATOM     45  C   UNL     1       5.138  -1.518  12.847  1.00  0.00     0.049 A 
ATOM     46  H   UNL     1       5.949  -3.241  13.688  1.00  0.00     0.167 HD
ATOM     47  C   UNL     1       7.653  -6.968  15.276  1.00  0.00     0.037 A 
ATOM     48  C   UNL     1       4.555  -0.830  13.847  1.00  0.00     0.037 A 
ATOM     49  C   UNL     1       7.131  -6.264  16.415  1.00  0.00     0.049 A 
ATOM     50  C   UNL     1       4.617  -1.382  15.243  1.00  0.00     0.074 A 
ATOM     51  C   UNL     1       7.188  -6.627  17.748  1.00  0.00     0.029 A 
ATOM     52  N   UNL     1       6.459  -5.053  16.354  1.00  0.00    -0.354 N 
ATOM     53  N   UNL     1       5.184  -2.486  15.669  1.00  0.00    -0.248 NA
ATOM     54  C   UNL     1       3.963  -0.597  16.299  1.00  0.00     0.031 C 
ATOM     55  C   UNL     1       6.506  -5.659  18.490  1.00  0.00     0.029 A 
ATOM     56  C   UNL     1       6.072  -4.667  17.625  1.00  0.00     0.049 A 
ATOM     57  H   UNL     1       6.284  -4.544  15.530  1.00  0.00     0.167 HD
ATOM     58  C   UNL     1       4.975  -2.517  17.041  1.00  0.00     0.074 A 
ATOM     59  C   UNL     1       4.244  -1.313  17.380  1.00  0.00     0.031 C 
ATOM     60  C   UNL     1       5.350  -3.460  17.940  1.00  0.00     0.037 A 
BRANCH  47  61
ATOM     61  C   UNL     1       8.318  -8.294  15.503  1.00  0.00     0.057 A 
ATOM     62  C   UNL     1       9.704  -8.455  15.372  1.00  0.00     0.134 A 
ATOM     63  C   UNL     1       7.575  -9.406  15.919  1.00  0.00     0.134 A 
ATOM     64  F   UNL     1      10.471  -7.434  14.962  1.00  0.00    -0.206 F 
ATOM     65  C   UNL     1      10.325  -9.677  15.634  1.00  0.00     0.040 A 
ATOM     66  C   UNL     1       8.189 -10.625  16.211  1.00  0.00     0.040 A 
ATOM     67  F   UNL     1       6.245  -9.321  16.067  1.00  0.00    -0.206 F 
ATOM     68  C   UNL     1       9.568 -10.763  16.066  1.00  0.00     0.006 A 
ENDBRANCH  47  61
BRANCH  48  69
ATOM     69  C   UNL     1       3.896   0.471  13.563  1.00  0.00     0.057 A 
ATOM     70  C   UNL     1       4.449   1.673  14.019  1.00  0.00     0.134 A 
ATOM     71  C   UNL     1       2.716   0.549  12.813  1.00  0.00     0.134 A 
ATOM     72  F   UNL     1       5.570   1.664  14.754  1.00  0.00    -0.206 F 
ATOM     73  C   UNL     1       3.847   2.904  13.751  1.00  0.00     0.040 A 
ATOM     74  C   UNL     1       2.117   1.774  12.516  1.00  0.00     0.040 A 
ATOM     75  F   UNL     1       2.140  -0.566  12.338  1.00  0.00    -0.206 F 
ATOM     76  C   UNL     1       2.681   2.957  12.990  1.00  0.00     0.006 A 
ENDBRANCH  48  69
BRANCH  60  77
ATOM     77  C   UNL     1       4.994  -3.231  19.379  1.00  0.00     0.057 A 
ATOM     78  C   UNL     1       3.680  -3.370  19.841  1.00  0.00     0.134 A 
ATOM     79  C   UNL     1       5.991  -2.964  20.327  1.00  0.00     0.134 A 
ATOM     80  F   UNL     1       2.680  -3.616  18.981  1.00  0.00    -0.206 F 
ATOM     81  C   UNL     1       3.368  -3.244  21.195  1.00  0.00     0.040 A 
ATOM     82  C   UNL     1       5.696  -2.865  21.686  1.00  0.00     0.040 A 
ATOM     83  F   UNL     1       7.272  -2.833  19.950  1.00  0.00    -0.206 F 
ATOM     84  C   UNL     1       4.380  -3.003  22.123  1.00  0.00     0.006 A 
ENDBRANCH  60  77
ENDBRANCH  34  35
ENDBRANCH  26  29
ENDBRANCH  24  25
ENDBRANCH   1  24
TORSDOF 11
