REMARK SMILES COc1cnc(F)c(C(=O)NCCCNC(=O)c2ccc(-c3c4nc(c(-c5c(F)cccc5F)c5ccc([nH]5)c(-c5c(F)cccc5F)c5nc(c(-c6c(F)cccc6F)c6ccc3[nH]6)C=C5)C=C4)cc2)c1
REMARK SMILES IDX 13 1 12 2 11 3 9 4 10 5 8 7 3 8 4 9 72 10 5 11 6 12 7 13
REMARK SMILES IDX 2 14 1 15 14 16 15 17 16 18 17 20 18 21 19 22 71 23 20 24
REMARK SMILES IDX 70 25 21 26 22 27 23 28 64 29 24 30 69 31 63 32 65 33 25 34
REMARK SMILES IDX 68 35 62 36 61 37 26 39 52 40 35 41 51 42 36 43 39 44 50 45
REMARK SMILES IDX 66 46 37 47 38 48 49 50 67 51 40 52 27 53 28 54 33 55 29 56
REMARK SMILES IDX 30 57 32 58 34 59 31 60 53 61 54 62 59 63 55 64 56 65 58 66
REMARK SMILES IDX 60 67 57 68 41 69 42 70 47 71 43 72 44 73 46 74 48 75 45 76
REMARK H PARENT 11 6 15 19 65 38 39 49
REMARK Flexibility Score: inf
ROOT
ATOM      1  C   UNL     1       3.265  -4.052  -6.759  1.00  0.00     0.042 C 
ENDROOT
BRANCH   1   2
ATOM      2  C   UNL     1       3.599  -4.414  -5.311  1.00  0.00     0.118 C 
BRANCH   2   3
ATOM      3  N   UNL     1       4.169  -3.277  -4.609  1.00  0.00    -0.352 N 
ATOM      4  C   UNL     1       3.659  -2.392  -3.698  1.00  0.00     0.256 C 
ATOM      5  O   UNL     1       4.424  -1.521  -3.277  1.00  0.00    -0.269 OA
ATOM      6  H   UNL     1       5.113  -3.109  -4.833  1.00  0.00     0.163 HD
BRANCH   4   7
ATOM      7  C   UNL     1       2.295  -2.443  -3.132  1.00  0.00     0.098 A 
ATOM      8  C   UNL     1       0.870  -1.919  -1.246  1.00  0.00     0.138 A 
ATOM      9  C   UNL     1      -0.195  -2.428  -1.970  1.00  0.00     0.160 A 
ATOM     10  C   UNL     1       2.135  -1.962  -1.823  1.00  0.00     0.066 A 
ATOM     11  N   UNL     1      -0.089  -2.873  -3.241  1.00  0.00    -0.224 NA
ATOM     12  C   UNL     1       1.147  -2.836  -3.801  1.00  0.00     0.225 A 
ATOM     13  F   UNL     1       1.185  -3.150  -5.101  1.00  0.00    -0.184 F 
BRANCH   8  14
ATOM     14  O   UNL     1       0.631  -1.434   0.006  1.00  0.00    -0.495 OA
ATOM     15  C   UNL     1       1.130  -0.104   0.173  1.00  0.00     0.278 C 
ENDBRANCH   8  14
ENDBRANCH   4   7
ENDBRANCH   2   3
ENDBRANCH   1   2
BRANCH   1  16
ATOM     16  C   UNL     1       4.494  -3.909  -7.655  1.00  0.00     0.118 C 
BRANCH  16  17
ATOM     17  N   UNL     1       5.115  -5.193  -7.948  1.00  0.00    -0.352 N 
ATOM     18  C   UNL     1       5.280  -5.841  -9.148  1.00  0.00     0.251 C 
ATOM     19  H   UNL     1       5.473  -5.670  -7.164  1.00  0.00     0.163 HD
ATOM     20  O   UNL     1       5.633  -7.015  -9.161  1.00  0.00    -0.269 OA
BRANCH  18  21
ATOM     21  C   UNL     1       5.021  -5.139 -10.425  1.00  0.00     0.039 A 
ATOM     22  C   UNL     1       4.318  -5.807 -11.432  1.00  0.00     0.014 A 
ATOM     23  C   UNL     1       5.497  -3.844 -10.646  1.00  0.00     0.014 A 
ATOM     24  C   UNL     1       4.026  -5.151 -12.631  1.00  0.00     0.010 A 
ATOM     25  C   UNL     1       5.155  -3.170 -11.817  1.00  0.00     0.010 A 
ATOM     26  C   UNL     1       4.407  -3.813 -12.816  1.00  0.00    -0.014 A 
BRANCH  26  27
ATOM     27  C   UNL     1       4.005  -3.050 -14.025  1.00  0.00     0.031 A 
ATOM     28  C   UNL     1       5.043  -2.546 -14.986  1.00  0.00     0.074 A 
ATOM     29  C   UNL     1       2.708  -2.733 -14.203  1.00  0.00     0.049 A 
ATOM     30  N   UNL     1       4.899  -1.753 -16.017  1.00  0.00    -0.248 NA
ATOM     31  C   UNL     1       6.430  -2.971 -14.742  1.00  0.00     0.031 C 
ATOM     32  C   UNL     1       1.610  -3.137 -13.323  1.00  0.00     0.029 A 
ATOM     33  N   UNL     1       2.096  -1.975 -15.171  1.00  0.00    -0.354 N 
ATOM     34  C   UNL     1       6.174  -1.571 -16.536  1.00  0.00     0.074 A 
ATOM     35  C   UNL     1       7.085  -2.304 -15.683  1.00  0.00     0.031 C 
ATOM     36  C   UNL     1       0.460  -2.628 -13.794  1.00  0.00     0.029 A 
ATOM     37  C   UNL     1       0.744  -1.825 -14.978  1.00  0.00     0.049 A 
ATOM     38  H   UNL     1       2.580  -1.578 -15.931  1.00  0.00     0.167 HD
ATOM     39  C   UNL     1       6.548  -0.868 -17.632  1.00  0.00     0.037 A 
ATOM     40  C   UNL     1      -0.161  -1.099 -15.661  1.00  0.00     0.037 A 
ATOM     41  C   UNL     1       5.635  -0.155 -18.487  1.00  0.00     0.049 A 
ATOM     42  C   UNL     1       0.286  -0.294 -16.848  1.00  0.00     0.074 A 
ATOM     43  C   UNL     1       5.908   0.527 -19.660  1.00  0.00     0.029 A 
ATOM     44  N   UNL     1       4.274  -0.025 -18.256  1.00  0.00    -0.354 N 
ATOM     45  N   UNL     1       1.485  -0.183 -17.366  1.00  0.00    -0.248 NA
ATOM     46  C   UNL     1      -0.743   0.495 -17.541  1.00  0.00     0.031 C 
ATOM     47  C   UNL     1       4.721   1.112 -20.113  1.00  0.00     0.029 A 
ATOM     48  C   UNL     1       3.700   0.757 -19.245  1.00  0.00     0.049 A 
ATOM     49  H   UNL     1       3.788  -0.428 -17.501  1.00  0.00     0.167 HD
ATOM     50  C   UNL     1       1.353   0.671 -18.453  1.00  0.00     0.074 A 
ATOM     51  C   UNL     1      -0.047   1.036 -18.531  1.00  0.00     0.031 C 
ATOM     52  C   UNL     1       2.306   1.115 -19.307  1.00  0.00     0.037 A 
BRANCH  39  53
ATOM     53  C   UNL     1       8.010  -0.830 -17.968  1.00  0.00     0.057 A 
ATOM     54  C   UNL     1       8.683  -1.954 -18.465  1.00  0.00     0.134 A 
ATOM     55  C   UNL     1       8.744   0.355 -17.837  1.00  0.00     0.134 A 
ATOM     56  F   UNL     1       8.040  -3.124 -18.607  1.00  0.00    -0.206 F 
ATOM     57  C   UNL     1      10.038  -1.907 -18.796  1.00  0.00     0.040 A 
ATOM     58  C   UNL     1      10.094   0.422 -18.189  1.00  0.00     0.040 A 
ATOM     59  F   UNL     1       8.160   1.472 -17.376  1.00  0.00    -0.206 F 
ATOM     60  C   UNL     1      10.746  -0.714 -18.665  1.00  0.00     0.006 A 
ENDBRANCH  39  53
BRANCH  40  61
ATOM     61  C   UNL     1      -1.583  -1.095 -15.234  1.00  0.00     0.057 A 
ATOM     62  C   UNL     1      -2.569  -1.720 -16.005  1.00  0.00     0.134 A 
ATOM     63  C   UNL     1      -1.990  -0.468 -14.050  1.00  0.00     0.134 A 
ATOM     64  F   UNL     1      -2.243  -2.319 -17.160  1.00  0.00    -0.206 F 
ATOM     65  C   UNL     1      -3.911  -1.710 -15.622  1.00  0.00     0.040 A 
ATOM     66  C   UNL     1      -3.325  -0.472 -13.642  1.00  0.00     0.040 A 
ATOM     67  F   UNL     1      -1.093   0.145 -13.264  1.00  0.00    -0.206 F 
ATOM     68  C   UNL     1      -4.291  -1.090 -14.434  1.00  0.00     0.006 A 
ENDBRANCH  40  61
BRANCH  52  69
ATOM     69  C   UNL     1       1.869   2.037 -20.407  1.00  0.00     0.057 A 
ATOM     70  C   UNL     1       1.539   3.374 -20.156  1.00  0.00     0.134 A 
ATOM     71  C   UNL     1       1.830   1.597 -21.736  1.00  0.00     0.134 A 
ATOM     72  F   UNL     1       1.542   3.851 -18.902  1.00  0.00    -0.206 F 
ATOM     73  C   UNL     1       1.174   4.240 -21.188  1.00  0.00     0.040 A 
ATOM     74  C   UNL     1       1.490   2.460 -22.779  1.00  0.00     0.040 A 
ATOM     75  F   UNL     1       2.141   0.329 -22.044  1.00  0.00    -0.206 F 
ATOM     76  C   UNL     1       1.159   3.786 -22.505  1.00  0.00     0.006 A 
ENDBRANCH  52  69
ENDBRANCH  26  27
ENDBRANCH  18  21
ENDBRANCH  16  17
ENDBRANCH   1  16
TORSDOF 11
