REMARK SMILES Cc1cc(C)cc(Oc2nc3ccccn3c(=O)c2/C=C2\SC(=S)N(CCC(=O)NCCCNC(=O)c3ccc(-c4c5nc(c(-c6c(F)cccc6F)c6ccc([nH]6)c(-c6c(F)cccc6F)c6nc(c(-c7c(F)cccc7F)c7ccc4[nH]7)C=C6)C=C5)cc3)C2=O)c1
REMARK SMILES IDX 28 1 29 2 30 3 27 5 26 6 25 7 20 8 21 9 22 10 91 11 23 12
REMARK SMILES IDX 92 13 24 14 19 15 9 16 10 17 11 18 17 19 12 20 16 21 18 22
REMARK SMILES IDX 13 23 15 24 14 25 8 26 7 27 1 28 2 29 3 30 93 31 4 32 5 33
REMARK SMILES IDX 6 34 31 35 32 36 33 37 34 38 35 39 36 41 37 42 38 43 90 44
REMARK SMILES IDX 39 45 89 46 40 47 41 48 42 49 83 50 43 51 88 52 82 53 84 54
REMARK SMILES IDX 44 55 87 56 81 57 80 58 45 60 71 61 54 62 70 63 55 64 58 65
REMARK SMILES IDX 69 66 85 67 56 68 57 69 68 71 86 72 59 73 46 74 47 75 52 76
REMARK SMILES IDX 48 77 49 78 51 79 53 80 50 81 72 82 73 83 78 84 74 85 75 86
REMARK SMILES IDX 77 87 79 88 76 89 60 90 61 91 66 92 62 93 63 94 65 95 67 96
REMARK SMILES IDX 64 97
REMARK H PARENT 30 4 34 40 84 59 58 70
REMARK Flexibility Score: inf
ROOT
ATOM      1  C   UNL     1       1.145   1.340   5.036  1.00  0.00     0.221 C 
ATOM      2  O   UNL     1       1.014   1.583   6.237  1.00  0.00    -0.275 OA
ATOM      3  N   UNL     1       0.168   0.615   4.422  1.00  0.00    -0.356 N 
ATOM      4  H   UNL     1      -0.622   0.440   4.983  1.00  0.00     0.163 HD
ENDROOT
BRANCH   1   5
ATOM      5  C   UNL     1       2.348   1.870   4.280  1.00  0.00     0.122 C 
BRANCH   5   6
ATOM      6  C   UNL     1       3.644   1.130   4.642  1.00  0.00     0.137 C 
BRANCH   6   7
ATOM      7  N   UNL     1       4.104   0.279   3.535  1.00  0.00    -0.292 N 
ATOM      8  C   UNL     1       3.259  -2.680   1.749  1.00  0.00     0.041 C 
ATOM      9  C   UNL     1       3.959  -1.618   2.174  1.00  0.00     0.081 C 
ATOM     10  S   UNL     1       4.999  -0.593   1.278  1.00  0.00    -0.054 SA
ATOM     11  C   UNL     1       3.788  -1.064   3.541  1.00  0.00     0.266 C 
ATOM     12  C   UNL     1       4.843   0.713   2.453  1.00  0.00     0.148 C 
ATOM     13  O   UNL     1       3.400  -1.716   4.501  1.00  0.00    -0.268 OA
ATOM     14  S   UNL     1       5.492   2.226   2.189  1.00  0.00    -0.052 S 
BRANCH   8  15
ATOM     15  C   UNL     1       3.303  -3.301   0.435  1.00  0.00     0.104 A 
ATOM     16  C   UNL     1       2.312  -3.314  -0.486  1.00  0.00     0.234 A 
ATOM     17  N   UNL     1       2.318  -4.140  -1.583  1.00  0.00    -0.194 NA
ATOM     18  C   UNL     1       3.303  -4.962  -1.737  1.00  0.00     0.143 A 
ATOM     19  C   UNL     1       4.511  -4.128   0.147  1.00  0.00     0.269 A 
ATOM     20  C   UNL     1       3.228  -5.990  -2.814  1.00  0.00     0.048 A 
ATOM     21  N   UNL     1       4.430  -4.977  -0.938  1.00  0.00    -0.267 N 
ATOM     22  O   UNL     1       5.478  -4.083   0.912  1.00  0.00    -0.268 OA
ATOM     23  C   UNL     1       4.227  -6.869  -2.966  1.00  0.00     0.005 A 
ATOM     24  C   UNL     1       5.475  -5.856  -1.186  1.00  0.00     0.096 A 
ATOM     25  C   UNL     1       5.402  -6.787  -2.142  1.00  0.00     0.019 A 
BRANCH  16  26
ATOM     26  O   UNL     1       1.072  -2.720  -0.258  1.00  0.00    -0.438 OA
BRANCH  26  27
ATOM     27  C   UNL     1       0.838  -1.383  -0.494  1.00  0.00     0.130 A 
ATOM     28  C   UNL     1       2.571   1.990  -0.556  1.00  0.00     0.044 C 
ATOM     29  C   UNL     1       1.498   0.944  -0.578  1.00  0.00    -0.047 A 
ATOM     30  C   UNL     1       0.154   1.328  -0.467  1.00  0.00     0.007 A 
ATOM     31  C   UNL     1       1.828  -0.417  -0.632  1.00  0.00     0.050 A 
ATOM     32  C   UNL     1      -0.861   0.368  -0.408  1.00  0.00    -0.047 A 
ATOM     33  C   UNL     1      -2.289   0.808  -0.261  1.00  0.00     0.044 C 
ATOM     34  C   UNL     1      -0.507  -0.988  -0.427  1.00  0.00     0.050 A 
ENDBRANCH  26  27
ENDBRANCH  16  26
ENDBRANCH   8  15
ENDBRANCH   6   7
ENDBRANCH   5   6
ENDBRANCH   1   5
BRANCH   3  35
ATOM     35  C   UNL     1       0.090   0.056   3.081  1.00  0.00     0.117 C 
BRANCH  35  36
ATOM     36  C   UNL     1       0.484  -1.418   3.069  1.00  0.00     0.042 C 
BRANCH  36  37
ATOM     37  C   UNL     1      -0.560  -2.458   3.456  1.00  0.00     0.118 C 
BRANCH  37  38
ATOM     38  N   UNL     1      -1.203  -3.089   2.312  1.00  0.00    -0.352 N 
ATOM     39  C   UNL     1      -0.980  -4.224   1.566  1.00  0.00     0.251 C 
ATOM     40  H   UNL     1      -1.986  -2.583   1.997  1.00  0.00     0.163 HD
ATOM     41  O   UNL     1      -1.728  -4.390   0.598  1.00  0.00    -0.269 OA
BRANCH  39  42
ATOM     42  C   UNL     1       0.079  -5.253   1.814  1.00  0.00     0.039 A 
ATOM     43  C   UNL     1       0.536  -5.987   0.701  1.00  0.00     0.014 A 
ATOM     44  C   UNL     1       0.541  -5.635   3.073  1.00  0.00     0.014 A 
ATOM     45  C   UNL     1       1.433  -7.061   0.836  1.00  0.00     0.010 A 
ATOM     46  C   UNL     1       1.455  -6.699   3.213  1.00  0.00     0.010 A 
ATOM     47  C   UNL     1       1.890  -7.440   2.101  1.00  0.00    -0.014 A 
BRANCH  47  48
ATOM     48  C   UNL     1       2.688  -8.688   2.288  1.00  0.00     0.031 A 
ATOM     49  C   UNL     1       1.994  -9.940   2.749  1.00  0.00     0.074 A 
ATOM     50  C   UNL     1       4.019  -8.716   2.084  1.00  0.00     0.049 A 
ATOM     51  N   UNL     1       2.505 -11.105   3.058  1.00  0.00    -0.248 NA
ATOM     52  C   UNL     1       0.535  -9.858   2.914  1.00  0.00     0.031 C 
ATOM     53  C   UNL     1       4.816  -7.567   1.682  1.00  0.00     0.029 A 
ATOM     54  N   UNL     1       4.939  -9.733   2.197  1.00  0.00    -0.354 N 
ATOM     55  C   UNL     1       1.440 -11.879   3.500  1.00  0.00     0.074 A 
ATOM     56  C   UNL     1       0.253 -11.054   3.411  1.00  0.00     0.031 C 
ATOM     57  C   UNL     1       6.099  -7.944   1.546  1.00  0.00     0.029 A 
ATOM     58  C   UNL     1       6.229  -9.352   1.901  1.00  0.00     0.049 A 
ATOM     59  H   UNL     1       4.698 -10.649   2.466  1.00  0.00     0.167 HD
ATOM     60  C   UNL     1       1.455 -13.153   3.956  1.00  0.00     0.037 A 
ATOM     61  C   UNL     1       7.387 -10.046   1.940  1.00  0.00     0.037 A 
ATOM     62  C   UNL     1       2.634 -13.977   4.035  1.00  0.00     0.049 A 
ATOM     63  C   UNL     1       7.366 -11.470   2.435  1.00  0.00     0.074 A 
ATOM     64  C   UNL     1       2.735 -15.294   4.450  1.00  0.00     0.029 A 
ATOM     65  N   UNL     1       3.914 -13.564   3.702  1.00  0.00    -0.354 N 
ATOM     66  N   UNL     1       6.344 -12.202   2.807  1.00  0.00    -0.248 NA
ATOM     67  C   UNL     1       8.663 -12.156   2.546  1.00  0.00     0.031 C 
ATOM     68  C   UNL     1       4.084 -15.660   4.422  1.00  0.00     0.029 A 
ATOM     69  C   UNL     1       4.815 -14.592   3.930  1.00  0.00     0.049 A 
ATOM     70  H   UNL     1       4.149 -12.672   3.356  1.00  0.00     0.167 HD
ATOM     71  C   UNL     1       6.872 -13.430   3.185  1.00  0.00     0.074 A 
ATOM     72  C   UNL     1       8.300 -13.361   2.962  1.00  0.00     0.031 C 
ATOM     73  C   UNL     1       6.233 -14.513   3.690  1.00  0.00     0.037 A 
BRANCH  60  74
ATOM     74  C   UNL     1       0.162 -13.726   4.457  1.00  0.00     0.057 A 
ATOM     75  C   UNL     1      -0.880 -14.085   3.595  1.00  0.00     0.134 A 
ATOM     76  C   UNL     1      -0.020 -13.963   5.826  1.00  0.00     0.134 A 
ATOM     77  F   UNL     1      -0.775 -13.871   2.274  1.00  0.00    -0.206 F 
ATOM     78  C   UNL     1      -2.065 -14.644   4.078  1.00  0.00     0.040 A 
ATOM     79  C   UNL     1      -1.188 -14.546   6.318  1.00  0.00     0.040 A 
ATOM     80  F   UNL     1       0.942 -13.645   6.707  1.00  0.00    -0.206 F 
ATOM     81  C   UNL     1      -2.217 -14.884   5.442  1.00  0.00     0.006 A 
ENDBRANCH  60  74
BRANCH  61  82
ATOM     82  C   UNL     1       8.680  -9.419   1.538  1.00  0.00     0.057 A 
ATOM     83  C   UNL     1       9.419  -9.912   0.453  1.00  0.00     0.134 A 
ATOM     84  C   UNL     1       9.246  -8.362   2.262  1.00  0.00     0.134 A 
ATOM     85  F   UNL     1       8.951 -10.942  -0.269  1.00  0.00    -0.206 F 
ATOM     86  C   UNL     1      10.678  -9.404   0.124  1.00  0.00     0.040 A 
ATOM     87  C   UNL     1      10.486  -7.816   1.920  1.00  0.00     0.040 A 
ATOM     88  F   UNL     1       8.603  -7.842   3.317  1.00  0.00    -0.206 F 
ATOM     89  C   UNL     1      11.213  -8.347   0.857  1.00  0.00     0.006 A 
ENDBRANCH  61  82
BRANCH  73  90
ATOM     90  C   UNL     1       7.067 -15.723   3.999  1.00  0.00     0.057 A 
ATOM     91  C   UNL     1       7.958 -15.754   5.080  1.00  0.00     0.134 A 
ATOM     92  C   UNL     1       6.947 -16.886   3.227  1.00  0.00     0.134 A 
ATOM     93  F   UNL     1       8.131 -14.670   5.851  1.00  0.00    -0.206 F 
ATOM     94  C   UNL     1       8.717 -16.890   5.366  1.00  0.00     0.040 A 
ATOM     95  C   UNL     1       7.678 -18.037   3.522  1.00  0.00     0.040 A 
ATOM     96  F   UNL     1       6.105 -16.927   2.183  1.00  0.00    -0.206 F 
ATOM     97  C   UNL     1       8.572 -18.039   4.590  1.00  0.00     0.006 A 
ENDBRANCH  73  90
ENDBRANCH  47  48
ENDBRANCH  39  42
ENDBRANCH  37  38
ENDBRANCH  36  37
ENDBRANCH  35  36
ENDBRANCH   3  35
TORSDOF 15
