REMARK SMILES Cc1cc(O[C@@H](C)C(=O)NCCC(=O)NCCCNC(=O)c2ccc(-c3c4nc(c(-c5c(F)cccc5F)c5ccc([nH]5)c(-c5c(F)cccc5F)c5nc(c(-c6c(F)cccc6F)c6ccc3[nH]6)C=C5)C=C4)cc2)c2c3c(c(=O)oc2c1)CCCC3
REMARK SMILES IDX 13 1 14 2 15 3 12 5 11 6 10 7 8 8 9 9 6 11 7 12 5 13 4 14
REMARK SMILES IDX 1 15 2 16 3 17 83 18 82 19 76 20 81 21 77 22 79 23 78 24
REMARK SMILES IDX 87 25 80 26 84 27 86 28 85 29 16 30 17 31 18 32 19 33 20 34
REMARK SMILES IDX 21 36 22 37 23 38 75 39 24 40 74 41 25 42 26 43 27 44 68 45
REMARK SMILES IDX 28 46 73 47 67 48 69 49 29 50 72 51 66 52 65 53 30 55 56 56
REMARK SMILES IDX 39 57 55 58 40 59 43 60 54 61 70 62 41 63 42 64 53 66 71 67
REMARK SMILES IDX 44 68 31 69 32 70 37 71 33 72 34 73 36 74 38 75 35 76 57 77
REMARK SMILES IDX 58 78 63 79 59 80 60 81 62 82 64 83 61 84 45 85 46 86 51 87
REMARK SMILES IDX 47 88 48 89 50 90 52 91 49 92
REMARK H PARENT 15 4 10 10 19 35 69 54 43 65
REMARK Flexibility Score: inf
ROOT
ATOM      1  C   UNL     1      -2.060   0.930  -0.396  1.00  0.00     0.221 C 
ATOM      2  O   UNL     1      -1.914  -0.150  -0.968  1.00  0.00    -0.275 OA
ATOM      3  N   UNL     1      -3.180   1.659  -0.643  1.00  0.00    -0.356 N 
ATOM      4  H   UNL     1      -3.918   1.181  -1.085  1.00  0.00     0.163 HD
ENDROOT
BRANCH   1   5
ATOM      5  C   UNL     1      -1.030   1.450   0.577  1.00  0.00     0.121 C 
BRANCH   5   6
ATOM      6  C   UNL     1       0.058   2.295  -0.078  1.00  0.00     0.126 C 
BRANCH   6   7
ATOM      7  N   UNL     1      -0.051   3.702   0.272  1.00  0.00    -0.352 N 
ATOM      8  C   UNL     1       0.237   4.421   1.380  1.00  0.00     0.260 C 
ATOM      9  O   UNL     1      -0.325   5.524   1.434  1.00  0.00    -0.271 OA
ATOM     10  H   UNL     1      -0.415   4.252  -0.459  1.00  0.00     0.163 HD
BRANCH   8  11
ATOM     11  C   UNL     1       1.296   4.041   2.451  1.00  0.00     0.258 C 
ATOM     12  C   UNL     1       2.707   4.194   1.886  1.00  0.00     0.064 C 
BRANCH  11  13
ATOM     13  O   UNL     1       1.173   3.083   3.483  1.00  0.00    -0.480 OA
BRANCH  13  14
ATOM     14  C   UNL     1       1.065   1.740   3.330  1.00  0.00     0.132 A 
ATOM     15  C   UNL     1       2.123  -0.953   0.860  1.00  0.00     0.044 C 
ATOM     16  C   UNL     1       1.563  -0.313   2.097  1.00  0.00    -0.044 A 
ATOM     17  C   UNL     1       1.788   1.047   2.351  1.00  0.00     0.050 A 
ATOM     18  C   UNL     1       0.692  -1.006   2.927  1.00  0.00     0.051 A 
ATOM     19  C   UNL     1       0.093  -0.343   4.001  1.00  0.00     0.142 A 
ATOM     20  C   UNL     1       0.254   1.026   4.245  1.00  0.00     0.063 A 
ATOM     21  O   UNL     1      -0.696  -1.165   4.822  1.00  0.00    -0.422 OA
ATOM     22  C   UNL     1      -0.418   1.581   5.455  1.00  0.00    -0.023 A 
ATOM     23  C   UNL     1      -1.224  -0.704   6.009  1.00  0.00     0.339 A 
ATOM     24  C   UNL     1      -1.080   0.746   6.284  1.00  0.00     0.042 A 
ATOM     25  C   UNL     1      -0.309   3.056   5.788  1.00  0.00     0.037 C 
ATOM     26  O   UNL     1      -1.801  -1.459   6.783  1.00  0.00    -0.246 OA
ATOM     27  C   UNL     1      -1.736   1.188   7.571  1.00  0.00     0.043 C 
ATOM     28  C   UNL     1      -0.689   3.430   7.223  1.00  0.00     0.005 C 
ATOM     29  C   UNL     1      -1.933   2.695   7.680  1.00  0.00     0.005 C 
ENDBRANCH  13  14
ENDBRANCH  11  13
ENDBRANCH   8  11
ENDBRANCH   6   7
ENDBRANCH   5   6
ENDBRANCH   1   5
BRANCH   3  30
ATOM     30  C   UNL     1      -3.421   3.055  -0.334  1.00  0.00     0.117 C 
BRANCH  30  31
ATOM     31  C   UNL     1      -2.874   3.933  -1.449  1.00  0.00     0.042 C 
BRANCH  31  32
ATOM     32  C   UNL     1      -3.623   3.762  -2.758  1.00  0.00     0.118 C 
BRANCH  32  33
ATOM     33  N   UNL     1      -4.924   4.406  -2.735  1.00  0.00    -0.352 N 
ATOM     34  C   UNL     1      -5.307   5.638  -3.218  1.00  0.00     0.251 C 
ATOM     35  H   UNL     1      -5.641   3.882  -2.311  1.00  0.00     0.163 HD
ATOM     36  O   UNL     1      -6.385   6.113  -2.902  1.00  0.00    -0.269 OA
BRANCH  34  37
ATOM     37  C   UNL     1      -4.381   6.397  -4.090  1.00  0.00     0.039 A 
ATOM     38  C   UNL     1      -3.660   5.747  -5.090  1.00  0.00     0.014 A 
ATOM     39  C   UNL     1      -4.210   7.767  -3.884  1.00  0.00     0.014 A 
ATOM     40  C   UNL     1      -2.608   6.401  -5.712  1.00  0.00     0.010 A 
ATOM     41  C   UNL     1      -3.244   8.460  -4.619  1.00  0.00     0.010 A 
ATOM     42  C   UNL     1      -2.391   7.770  -5.497  1.00  0.00    -0.014 A 
BRANCH  42  43
ATOM     43  C   UNL     1      -1.272   8.454  -6.197  1.00  0.00     0.031 A 
ATOM     44  C   UNL     1      -0.185   9.147  -5.418  1.00  0.00     0.074 A 
ATOM     45  C   UNL     1      -1.212   8.414  -7.543  1.00  0.00     0.049 A 
ATOM     46  N   UNL     1       0.831   9.847  -5.859  1.00  0.00    -0.248 NA
ATOM     47  C   UNL     1      -0.250   9.050  -3.952  1.00  0.00     0.031 C 
ATOM     48  C   UNL     1      -2.187   7.753  -8.414  1.00  0.00     0.029 A 
ATOM     49  N   UNL     1      -0.285   8.925  -8.414  1.00  0.00    -0.354 N 
ATOM     50  C   UNL     1       1.499  10.304  -4.730  1.00  0.00     0.074 A 
ATOM     51  C   UNL     1       0.760   9.823  -3.582  1.00  0.00     0.031 C 
ATOM     52  C   UNL     1      -1.780   7.850  -9.686  1.00  0.00     0.029 A 
ATOM     53  C   UNL     1      -0.571   8.662  -9.732  1.00  0.00     0.049 A 
ATOM     54  H   UNL     1       0.508   9.430  -8.124  1.00  0.00     0.167 HD
ATOM     55  C   UNL     1       2.628  11.051  -4.656  1.00  0.00     0.037 A 
ATOM     56  C   UNL     1       0.045   9.062 -10.858  1.00  0.00     0.037 A 
ATOM     57  C   UNL     1       3.369  11.511  -5.803  1.00  0.00     0.049 A 
ATOM     58  C   UNL     1       1.254   9.943 -10.752  1.00  0.00     0.074 A 
ATOM     59  C   UNL     1       4.534  12.258  -5.837  1.00  0.00     0.029 A 
ATOM     60  N   UNL     1       3.012  11.271  -7.122  1.00  0.00    -0.354 N 
ATOM     61  N   UNL     1       1.869  10.376  -9.678  1.00  0.00    -0.248 NA
ATOM     62  C   UNL     1       1.843  10.406 -12.014  1.00  0.00     0.031 C 
ATOM     63  C   UNL     1       4.852  12.513  -7.176  1.00  0.00     0.029 A 
ATOM     64  C   UNL     1       3.919  11.877  -7.978  1.00  0.00     0.049 A 
ATOM     65  H   UNL     1       2.229  10.747  -7.409  1.00  0.00     0.167 HD
ATOM     66  C   UNL     1       2.929  11.147 -10.133  1.00  0.00     0.074 A 
ATOM     67  C   UNL     1       2.882  11.105 -11.582  1.00  0.00     0.031 C 
ATOM     68  C   UNL     1       3.856  11.828  -9.418  1.00  0.00     0.037 A 
BRANCH  55  69
ATOM     69  C   UNL     1       3.102  11.450  -3.285  1.00  0.00     0.057 A 
ATOM     70  C   UNL     1       3.030  12.786  -2.870  1.00  0.00     0.134 A 
ATOM     71  C   UNL     1       3.628  10.522  -2.376  1.00  0.00     0.134 A 
ATOM     72  F   UNL     1       2.548  13.730  -3.691  1.00  0.00    -0.206 F 
ATOM     73  C   UNL     1       3.453  13.183  -1.599  1.00  0.00     0.040 A 
ATOM     74  C   UNL     1       4.026  10.901  -1.091  1.00  0.00     0.040 A 
ATOM     75  F   UNL     1       3.716   9.223  -2.702  1.00  0.00    -0.206 F 
ATOM     76  C   UNL     1       3.942  12.236  -0.702  1.00  0.00     0.006 A 
ENDBRANCH  55  69
BRANCH  56  77
ATOM     77  C   UNL     1      -0.497   8.657 -12.179  1.00  0.00     0.057 A 
ATOM     78  C   UNL     1      -1.732   9.133 -12.637  1.00  0.00     0.134 A 
ATOM     79  C   UNL     1       0.203   7.775 -13.009  1.00  0.00     0.134 A 
ATOM     80  F   UNL     1      -2.456   9.975 -11.884  1.00  0.00    -0.206 F 
ATOM     81  C   UNL     1      -2.260   8.734 -13.865  1.00  0.00     0.040 A 
ATOM     82  C   UNL     1      -0.300   7.391 -14.253  1.00  0.00     0.040 A 
ATOM     83  F   UNL     1       1.398   7.299 -12.633  1.00  0.00    -0.206 F 
ATOM     84  C   UNL     1      -1.539   7.865 -14.680  1.00  0.00     0.006 A 
ENDBRANCH  56  77
BRANCH  68  85
ATOM     85  C   UNL     1       4.915  12.552 -10.196  1.00  0.00     0.057 A 
ATOM     86  C   UNL     1       6.237  12.087 -10.200  1.00  0.00     0.134 A 
ATOM     87  C   UNL     1       4.635  13.713 -10.928  1.00  0.00     0.134 A 
ATOM     88  F   UNL     1       6.573  10.984  -9.516  1.00  0.00    -0.206 F 
ATOM     89  C   UNL     1       7.242  12.752 -10.903  1.00  0.00     0.040 A 
ATOM     90  C   UNL     1       5.626  14.371 -11.658  1.00  0.00     0.040 A 
ATOM     91  F   UNL     1       3.386  14.200 -10.979  1.00  0.00    -0.206 F 
ATOM     92  C   UNL     1       6.936  13.893 -11.641  1.00  0.00     0.006 A 
ENDBRANCH  68  85
ENDBRANCH  42  43
ENDBRANCH  34  37
ENDBRANCH  32  33
ENDBRANCH  31  32
ENDBRANCH  30  31
ENDBRANCH   3  30
TORSDOF 15
