REMARK SMILES CCCc1cc(-n2ccc(C(=O)NCCCNC(=O)c3ccc(-c4c5nc(c(-c6c(F)cccc6F)c6ccc([nH]6)c(-c6c(F)cccc6F)c6nc(c(-c7c(F)cccc7F)c7ccc4[nH]7)C=C6)C=C5)cc3)n2)nc(C(C)C)n1
REMARK SMILES IDX 14 1 13 2 11 3 12 4 10 6 7 7 8 8 74 9 9 10 6 11 4 12 5 13
REMARK SMILES IDX 80 14 76 15 75 16 3 17 2 18 1 19 77 20 78 21 79 22 15 23
REMARK SMILES IDX 16 24 17 25 18 26 19 28 20 29 21 30 73 31 22 32 72 33 23 34
REMARK SMILES IDX 24 35 25 36 66 37 26 38 71 39 65 40 67 41 27 42 70 43 64 44
REMARK SMILES IDX 63 45 28 47 54 48 37 49 53 50 38 51 41 52 52 53 68 54 39 55
REMARK SMILES IDX 40 56 51 58 69 59 42 60 29 61 30 62 35 63 31 64 32 65 34 66
REMARK SMILES IDX 36 67 33 68 55 69 56 70 61 71 57 72 58 73 60 74 62 75 59 76
REMARK SMILES IDX 43 77 44 78 49 79 45 80 46 81 48 82 50 83 47 84
REMARK H PARENT 13 5 17 27 67 46 41 57
REMARK Flexibility Score: inf
ROOT
ATOM      1  C   UNL     1      -0.486  -7.700  -5.166  1.00  0.00     0.118 C 
ENDROOT
BRANCH   1   2
ATOM      2  N   UNL     1       0.803  -8.379  -5.281  1.00  0.00    -0.351 N 
ATOM      3  C   UNL     1       2.015  -8.142  -4.663  1.00  0.00     0.271 C 
ATOM      4  O   UNL     1       2.958  -8.878  -4.960  1.00  0.00    -0.267 OA
ATOM      5  H   UNL     1       0.808  -9.137  -5.908  1.00  0.00     0.163 HD
BRANCH   3   6
ATOM      6  C   UNL     1       2.192  -7.019  -3.729  1.00  0.00     0.150 A 
ATOM      7  N   UNL     1       1.740  -5.254  -2.603  1.00  0.00    -0.222 N 
ATOM      8  C   UNL     1       3.107  -5.381  -2.531  1.00  0.00     0.118 A 
ATOM      9  N   UNL     1       1.178  -6.305  -3.226  1.00  0.00    -0.161 NA
ATOM     10  C   UNL     1       3.425  -6.529  -3.218  1.00  0.00     0.056 A 
BRANCH   7  11
ATOM     11  C   UNL     1       0.927  -4.154  -2.217  1.00  0.00     0.157 A 
ATOM     12  C   UNL     1       0.543  -1.854  -2.112  1.00  0.00     0.046 A 
ATOM     13  C   UNL     1       1.430  -2.878  -2.366  1.00  0.00     0.073 A 
ATOM     14  N   UNL     1      -0.717  -2.080  -1.685  1.00  0.00    -0.238 NA
ATOM     15  C   UNL     1      -1.101  -3.355  -1.506  1.00  0.00     0.133 A 
ATOM     16  N   UNL     1      -0.337  -4.412  -1.806  1.00  0.00    -0.213 NA
BRANCH  12  17
ATOM     17  C   UNL     1       0.942  -0.419  -2.344  1.00  0.00     0.056 C 
BRANCH  17  18
ATOM     18  C   UNL     1       0.459   0.529  -1.244  1.00  0.00     0.003 C 
ATOM     19  C   UNL     1       0.994   0.159   0.133  1.00  0.00     0.004 C 
ENDBRANCH  17  18
ENDBRANCH  12  17
BRANCH  15  20
ATOM     20  C   UNL     1      -2.425  -3.614  -0.824  1.00  0.00     0.051 C 
ATOM     21  C   UNL     1      -2.406  -3.035   0.593  1.00  0.00     0.016 C 
ATOM     22  C   UNL     1      -3.589  -3.049  -1.633  1.00  0.00     0.016 C 
ENDBRANCH  15  20
ENDBRANCH   7  11
ENDBRANCH   3   6
ENDBRANCH   1   2
BRANCH   1  23
ATOM     23  C   UNL     1      -0.762  -6.728  -6.319  1.00  0.00     0.042 C 
BRANCH  23  24
ATOM     24  C   UNL     1      -1.208  -7.463  -7.573  1.00  0.00     0.118 C 
BRANCH  24  25
ATOM     25  N   UNL     1      -2.513  -8.122  -7.419  1.00  0.00    -0.352 N 
ATOM     26  C   UNL     1      -3.234  -8.863  -8.341  1.00  0.00     0.251 C 
ATOM     27  H   UNL     1      -2.935  -8.021  -6.535  1.00  0.00     0.163 HD
ATOM     28  O   UNL     1      -4.419  -9.098  -8.177  1.00  0.00    -0.269 OA
BRANCH  26  29
ATOM     29  C   UNL     1      -2.531  -9.370  -9.532  1.00  0.00     0.039 A 
ATOM     30  C   UNL     1      -3.127  -9.388 -10.796  1.00  0.00     0.014 A 
ATOM     31  C   UNL     1      -1.220  -9.795  -9.359  1.00  0.00     0.014 A 
ATOM     32  C   UNL     1      -2.352  -9.765 -11.891  1.00  0.00     0.010 A 
ATOM     33  C   UNL     1      -0.408  -9.934 -10.446  1.00  0.00     0.010 A 
ATOM     34  C   UNL     1      -0.984 -10.017 -11.704  1.00  0.00    -0.014 A 
BRANCH  34  35
ATOM     35  C   UNL     1      -0.082 -10.267 -12.818  1.00  0.00     0.031 A 
ATOM     36  C   UNL     1      -0.083  -9.186 -13.837  1.00  0.00     0.074 A 
ATOM     37  C   UNL     1       0.843 -11.254 -12.788  1.00  0.00     0.049 A 
ATOM     38  N   UNL     1      -0.516  -9.252 -15.051  1.00  0.00    -0.248 NA
ATOM     39  C   UNL     1       0.285  -7.824 -13.411  1.00  0.00     0.031 C 
ATOM     40  C   UNL     1       1.156 -12.181 -11.691  1.00  0.00     0.029 A 
ATOM     41  N   UNL     1       1.789 -11.572 -13.712  1.00  0.00    -0.354 N 
ATOM     42  C   UNL     1      -0.253  -8.007 -15.614  1.00  0.00     0.074 A 
ATOM     43  C   UNL     1       0.032  -7.121 -14.517  1.00  0.00     0.031 C 
ATOM     44  C   UNL     1       2.347 -12.778 -11.918  1.00  0.00     0.029 A 
ATOM     45  C   UNL     1       2.794 -12.419 -13.249  1.00  0.00     0.049 A 
ATOM     46  H   UNL     1       1.765 -11.230 -14.635  1.00  0.00     0.167 HD
ATOM     47  C   UNL     1      -0.017  -7.887 -16.949  1.00  0.00     0.037 A 
ATOM     48  C   UNL     1       3.920 -12.776 -13.917  1.00  0.00     0.037 A 
ATOM     49  C   UNL     1      -0.457  -9.067 -17.655  1.00  0.00     0.049 A 
ATOM     50  C   UNL     1       3.679 -12.495 -15.354  1.00  0.00     0.074 A 
ATOM     51  C   UNL     1      -1.667  -9.718 -17.798  1.00  0.00     0.029 A 
ATOM     52  N   UNL     1       0.503  -9.981 -18.017  1.00  0.00    -0.354 N 
ATOM     53  N   UNL     1       2.813 -13.144 -16.081  1.00  0.00    -0.248 NA
ATOM     54  C   UNL     1       4.044 -11.175 -15.843  1.00  0.00     0.031 C 
ATOM     55  C   UNL     1      -1.344 -11.107 -17.752  1.00  0.00     0.029 A 
ATOM     56  C   UNL     1       0.044 -11.227 -17.676  1.00  0.00     0.049 A 
ATOM     57  H   UNL     1       1.366  -9.777 -18.444  1.00  0.00     0.167 HD
ATOM     58  C   UNL     1       2.195 -12.167 -16.847  1.00  0.00     0.074 A 
ATOM     59  C   UNL     1       3.046 -10.984 -16.711  1.00  0.00     0.031 C 
ATOM     60  C   UNL     1       0.905 -12.315 -17.269  1.00  0.00     0.037 A 
BRANCH  47  61
ATOM     61  C   UNL     1       0.970  -6.916 -17.554  1.00  0.00     0.057 A 
ATOM     62  C   UNL     1       1.051  -6.815 -18.955  1.00  0.00     0.134 A 
ATOM     63  C   UNL     1       2.033  -6.311 -16.852  1.00  0.00     0.134 A 
ATOM     64  F   UNL     1       0.108  -7.358 -19.740  1.00  0.00    -0.206 F 
ATOM     65  C   UNL     1       2.147  -6.234 -19.605  1.00  0.00     0.040 A 
ATOM     66  C   UNL     1       3.105  -5.682 -17.490  1.00  0.00     0.040 A 
ATOM     67  F   UNL     1       2.154  -6.379 -15.522  1.00  0.00    -0.206 F 
ATOM     68  C   UNL     1       3.184  -5.673 -18.872  1.00  0.00     0.006 A 
ENDBRANCH  47  61
BRANCH  48  69
ATOM     69  C   UNL     1       5.279 -13.034 -13.385  1.00  0.00     0.057 A 
ATOM     70  C   UNL     1       6.255 -13.675 -14.164  1.00  0.00     0.134 A 
ATOM     71  C   UNL     1       5.742 -12.399 -12.220  1.00  0.00     0.134 A 
ATOM     72  F   UNL     1       5.920 -14.274 -15.316  1.00  0.00    -0.206 F 
ATOM     73  C   UNL     1       7.614 -13.660 -13.820  1.00  0.00     0.040 A 
ATOM     74  C   UNL     1       7.096 -12.379 -11.864  1.00  0.00     0.040 A 
ATOM     75  F   UNL     1       4.909 -11.695 -11.440  1.00  0.00    -0.206 F 
ATOM     76  C   UNL     1       8.040 -12.998 -12.673  1.00  0.00     0.006 A 
ENDBRANCH  48  69
BRANCH  60  77
ATOM     77  C   UNL     1       0.255 -13.663 -17.095  1.00  0.00     0.057 A 
ATOM     78  C   UNL     1      -0.004 -14.270 -15.855  1.00  0.00     0.134 A 
ATOM     79  C   UNL     1      -0.265 -14.301 -18.226  1.00  0.00     0.134 A 
ATOM     80  F   UNL     1       0.369 -13.692 -14.707  1.00  0.00    -0.206 F 
ATOM     81  C   UNL     1      -0.713 -15.472 -15.752  1.00  0.00     0.040 A 
ATOM     82  C   UNL     1      -1.004 -15.483 -18.134  1.00  0.00     0.040 A 
ATOM     83  F   UNL     1      -0.106 -13.754 -19.441  1.00  0.00    -0.206 F 
ATOM     84  C   UNL     1      -1.222 -16.078 -16.895  1.00  0.00     0.006 A 
ENDBRANCH  60  77
ENDBRANCH  34  35
ENDBRANCH  26  29
ENDBRANCH  24  25
ENDBRANCH  23  24
ENDBRANCH   1  23
TORSDOF 14
