REMARK SMILES CC1(C)[C@H](O)CC[C@@]2(C)[C@H]3Cc4c(oc(C(=O)NCCCNC(=O)c5ccc(-c6c7nc(c(-c8c(F)cccc8F)c8ccc([nH]8)c(-c8c(F)cccc8F)c8nc(c(-c9c(F)cccc9F)c9ccc6[nH]9)C=C8)C=C7)cc5)cc4=O)O[C@@]3(C)CC[C@@H]12
REMARK SMILES IDX 20 1 19 2 18 3 16 4 17 5 15 7 1 8 2 9 3 10 4 11 87 12 6 13
REMARK SMILES IDX 8 14 86 15 7 16 9 17 10 18 85 19 83 20 11 21 84 22 82 23
REMARK SMILES IDX 12 24 13 25 80 26 14 27 79 28 81 29 5 30 21 32 22 33 23 34
REMARK SMILES IDX 24 36 25 37 26 38 78 39 27 40 77 41 28 42 29 43 30 44 71 45
REMARK SMILES IDX 31 46 76 47 70 48 72 49 32 50 75 51 69 52 68 53 33 55 59 56
REMARK SMILES IDX 42 57 58 58 43 59 46 60 57 61 73 62 44 63 45 64 56 66 74 67
REMARK SMILES IDX 47 68 34 69 35 70 40 71 36 72 37 73 39 74 41 75 38 76 60 77
REMARK SMILES IDX 61 78 66 79 62 80 63 81 65 82 67 83 64 84 48 85 49 86 54 87
REMARK SMILES IDX 50 88 51 89 53 90 55 91 52 92
REMARK H PARENT 18 6 5 31 22 35 72 54 46 65
REMARK Flexibility Score: inf
ROOT
ATOM      1  C   UNL     1       0.859   8.386   3.666  1.00  0.00     0.042 C 
ENDROOT
BRANCH   1   2
ATOM      2  C   UNL     1      -0.192   8.619   2.559  1.00  0.00     0.118 C 
BRANCH   2   3
ATOM      3  N   UNL     1       0.265   9.522   1.476  1.00  0.00    -0.349 N 
ATOM      4  C   UNL     1       0.846   9.373   0.225  1.00  0.00     0.287 C 
ATOM      5  O   UNL     1       0.943  10.383  -0.472  1.00  0.00    -0.266 OA
ATOM      6  H   UNL     1       0.120  10.469   1.703  1.00  0.00     0.163 HD
BRANCH   4   7
ATOM      7  C   UNL     1       1.348   8.056  -0.304  1.00  0.00     0.199 A 
ATOM      8  C   UNL     1       2.249  -1.131  -1.891  1.00  0.00     0.014 C 
ATOM      9  C   UNL     1       1.427   0.163  -2.195  1.00  0.00    -0.006 C 
ATOM     10  C   UNL     1       0.024  -0.384  -2.621  1.00  0.00     0.014 C 
ATOM     11  C   UNL     1       1.105   0.809  -0.693  1.00  0.00     0.120 C 
ATOM     12  C   UNL     1       2.249   1.284  -3.495  1.00  0.00     0.004 C 
ATOM     13  C   UNL     1       2.368   1.393  -0.153  1.00  0.00     0.033 C 
ATOM     14  C   UNL     1       1.982   2.439  -2.582  1.00  0.00    -0.022 C 
ATOM     15  C   UNL     1       3.628   2.083  -4.107  1.00  0.00     0.009 C 
ATOM     16  C   UNL     1       3.017   1.869  -1.409  1.00  0.00     0.010 C 
ATOM     17  C   UNL     1       0.482   2.471  -3.205  1.00  0.00     0.012 C 
ATOM     18  C   UNL     1       2.136   3.955  -2.549  1.00  0.00     0.044 C 
ATOM     19  C   UNL     1       3.935   3.729  -4.055  1.00  0.00     0.049 C 
ATOM     20  C   UNL     1       2.719   4.687  -3.735  1.00  0.00     0.113 C 
ATOM     21  C   UNL     1       2.956   4.409  -1.345  1.00  0.00     0.055 C 
ATOM     22  C   UNL     1       1.933   4.790  -5.053  1.00  0.00     0.057 C 
ATOM     23  O   UNL     1       2.885   6.177  -3.318  1.00  0.00    -0.458 OA
ATOM     24  C   UNL     1       2.393   5.681  -1.054  1.00  0.00     0.081 A 
ATOM     25  C   UNL     1       2.345   6.590  -2.018  1.00  0.00     0.292 A 
ATOM     26  C   UNL     1       1.706   5.773   0.206  1.00  0.00     0.192 A 
ATOM     27  O   UNL     1       1.721   7.843  -1.694  1.00  0.00    -0.420 OA
ATOM     28  C   UNL     1       1.477   7.106   0.622  1.00  0.00     0.105 A 
ATOM     29  O   UNL     1       1.339   4.820   0.891  1.00  0.00    -0.289 OA
BRANCH  11  30
ATOM     30  O   UNL     1       0.088   1.813  -0.663  1.00  0.00    -0.393 OA
ATOM     31  H   UNL     1       0.373   2.577  -1.188  1.00  0.00     0.210 HD
ENDBRANCH  11  30
ENDBRANCH   4   7
ENDBRANCH   2   3
ENDBRANCH   1   2
BRANCH   1  32
ATOM     32  C   UNL     1       0.881   9.460   4.744  1.00  0.00     0.118 C 
BRANCH  32  33
ATOM     33  N   UNL     1      -0.283   9.387   5.614  1.00  0.00    -0.352 N 
ATOM     34  C   UNL     1      -0.345   9.265   6.981  1.00  0.00     0.251 C 
ATOM     35  H   UNL     1      -1.154   9.433   5.156  1.00  0.00     0.163 HD
ATOM     36  O   UNL     1      -1.418   9.031   7.527  1.00  0.00    -0.269 OA
BRANCH  34  37
ATOM     37  C   UNL     1       0.879   9.407   7.795  1.00  0.00     0.039 A 
ATOM     38  C   UNL     1       1.116   8.498   8.832  1.00  0.00     0.014 A 
ATOM     39  C   UNL     1       1.773  10.455   7.559  1.00  0.00     0.014 A 
ATOM     40  C   UNL     1       2.272   8.616   9.605  1.00  0.00     0.010 A 
ATOM     41  C   UNL     1       2.956  10.533   8.287  1.00  0.00     0.010 A 
ATOM     42  C   UNL     1       3.207   9.625   9.326  1.00  0.00    -0.014 A 
BRANCH  42  43
ATOM     43  C   UNL     1       4.422   9.792  10.156  1.00  0.00     0.031 A 
ATOM     44  C   UNL     1       4.545  10.989  11.056  1.00  0.00     0.074 A 
ATOM     45  C   UNL     1       5.422   8.896  10.074  1.00  0.00     0.049 A 
ATOM     46  N   UNL     1       5.527  11.336  11.847  1.00  0.00    -0.248 NA
ATOM     47  C   UNL     1       3.415  11.932  11.049  1.00  0.00     0.031 C 
ATOM     48  C   UNL     1       5.425   7.705   9.224  1.00  0.00     0.029 A 
ATOM     49  N   UNL     1       6.633   8.852  10.715  1.00  0.00    -0.354 N 
ATOM     50  C   UNL     1       5.130  12.530  12.435  1.00  0.00     0.074 A 
ATOM     51  C   UNL     1       3.856  12.887  11.851  1.00  0.00     0.031 C 
ATOM     52  C   UNL     1       6.571   7.031   9.419  1.00  0.00     0.029 A 
ATOM     53  C   UNL     1       7.394   7.760  10.379  1.00  0.00     0.049 A 
ATOM     54  H   UNL     1       6.929   9.538  11.356  1.00  0.00     0.167 HD
ATOM     55  C   UNL     1       5.755  13.250  13.399  1.00  0.00     0.037 A 
ATOM     56  C   UNL     1       8.618   7.394  10.804  1.00  0.00     0.037 A 
ATOM     57  C   UNL     1       7.033  12.902  13.960  1.00  0.00     0.049 A 
ATOM     58  C   UNL     1       9.332   8.261  11.807  1.00  0.00     0.074 A 
ATOM     59  C   UNL     1       7.749  13.549  14.951  1.00  0.00     0.029 A 
ATOM     60  N   UNL     1       7.795  11.812  13.563  1.00  0.00    -0.354 N 
ATOM     61  N   UNL     1       8.921   9.353  12.406  1.00  0.00    -0.248 NA
ATOM     62  C   UNL     1      10.686   7.838  12.193  1.00  0.00     0.031 C 
ATOM     63  C   UNL     1       8.970  12.883  15.112  1.00  0.00     0.029 A 
ATOM     64  C   UNL     1       8.988  11.786  14.266  1.00  0.00     0.049 A 
ATOM     65  H   UNL     1       7.526  11.153  12.882  1.00  0.00     0.167 HD
ATOM     66  C   UNL     1       9.946   9.724  13.268  1.00  0.00     0.074 A 
ATOM     67  C   UNL     1      10.991   8.732  13.122  1.00  0.00     0.031 C 
ATOM     68  C   UNL     1      10.017  10.788  14.107  1.00  0.00     0.037 A 
BRANCH  55  69
ATOM     69  C   UNL     1       5.054  14.490  13.879  1.00  0.00     0.057 A 
ATOM     70  C   UNL     1       5.572  15.761  13.605  1.00  0.00     0.134 A 
ATOM     71  C   UNL     1       3.844  14.427  14.587  1.00  0.00     0.134 A 
ATOM     72  F   UNL     1       6.728  15.898  12.939  1.00  0.00    -0.206 F 
ATOM     73  C   UNL     1       4.907  16.922  14.003  1.00  0.00     0.040 A 
ATOM     74  C   UNL     1       3.152  15.581  14.959  1.00  0.00     0.040 A 
ATOM     75  F   UNL     1       3.283  13.241  14.871  1.00  0.00    -0.206 F 
ATOM     76  C   UNL     1       3.685  16.834  14.668  1.00  0.00     0.006 A 
ENDBRANCH  55  69
BRANCH  56  77
ATOM     77  C   UNL     1       9.243   6.137  10.319  1.00  0.00     0.057 A 
ATOM     78  C   UNL     1       9.680   5.992   8.997  1.00  0.00     0.134 A 
ATOM     79  C   UNL     1       9.457   5.061  11.190  1.00  0.00     0.134 A 
ATOM     80  F   UNL     1       9.501   6.982   8.110  1.00  0.00    -0.206 F 
ATOM     81  C   UNL     1      10.311   4.825   8.561  1.00  0.00     0.040 A 
ATOM     82  C   UNL     1      10.110   3.901  10.774  1.00  0.00     0.040 A 
ATOM     83  F   UNL     1       9.076   5.147  12.473  1.00  0.00    -0.206 F 
ATOM     84  C   UNL     1      10.538   3.780   9.454  1.00  0.00     0.006 A 
ENDBRANCH  56  77
BRANCH  68  85
ATOM     85  C   UNL     1      11.251  10.903  14.958  1.00  0.00     0.057 A 
ATOM     86  C   UNL     1      11.178  10.710  16.344  1.00  0.00     0.134 A 
ATOM     87  C   UNL     1      12.504  11.213  14.414  1.00  0.00     0.134 A 
ATOM     88  F   UNL     1      10.008  10.419  16.932  1.00  0.00    -0.206 F 
ATOM     89  C   UNL     1      12.307  10.818  17.157  1.00  0.00     0.040 A 
ATOM     90  C   UNL     1      13.647  11.291  15.213  1.00  0.00     0.040 A 
ATOM     91  F   UNL     1      12.646  11.396  13.093  1.00  0.00    -0.206 F 
ATOM     92  C   UNL     1      13.548  11.099  16.590  1.00  0.00     0.006 A 
ENDBRANCH  68  85
ENDBRANCH  42  43
ENDBRANCH  34  37
ENDBRANCH  32  33
ENDBRANCH   1  32
TORSDOF 11
