REMARK SMILES COc1cc([C@@H]2CC(=O)Nc3c(C(=O)NCCCNC(=O)c4ccc(-c5c6nc(c(-c7c(F)cccc7F)c7ccc([nH]7)c(-c7c(F)cccc7F)c7nc(c(-c8c(F)cccc8F)c8ccc5[nH]8)C=C7)C=C6)cc4)cn(-c4ccc(F)cc4)c32)c(OC)c2c1OCO2
REMARK SMILES IDX 17 1 16 2 15 3 13 4 14 5 12 7 6 8 7 9 85 10 8 11 11 12 77 13
REMARK SMILES IDX 9 14 10 15 76 16 5 18 3 19 4 20 90 21 89 22 91 23 86 24
REMARK SMILES IDX 93 25 92 26 2 27 1 28 87 29 88 30 78 31 79 32 84 33 80 34
REMARK SMILES IDX 83 35 81 36 82 37 18 38 19 39 20 40 21 42 22 43 23 44 75 45
REMARK SMILES IDX 24 46 74 47 25 48 26 49 27 50 68 51 28 52 73 53 67 54 69 55
REMARK SMILES IDX 29 56 72 57 66 58 65 59 30 61 56 62 39 63 55 64 40 65 43 66
REMARK SMILES IDX 54 67 70 68 41 69 42 70 53 72 71 73 44 74 31 75 32 76 37 77
REMARK SMILES IDX 33 78 34 79 36 80 38 81 35 82 57 83 58 84 63 85 59 86 60 87
REMARK SMILES IDX 62 88 64 89 61 90 45 91 46 92 51 93 47 94 48 95 50 96 52 97
REMARK SMILES IDX 49 98
REMARK H PARENT 15 6 10 17 19 41 69 60 43 71
REMARK Flexibility Score: inf
ROOT
ATOM      1  C   UNL     1       0.241  -5.010  -9.716  1.00  0.00     0.042 C 
ENDROOT
BRANCH   1   2
ATOM      2  C   UNL     1       0.860  -3.604  -9.832  1.00  0.00     0.118 C 
BRANCH   2   3
ATOM      3  N   UNL     1      -0.131  -2.598 -10.148  1.00  0.00    -0.352 N 
ATOM      4  C   UNL     1      -0.973  -1.831  -9.383  1.00  0.00     0.254 C 
ATOM      5  O   UNL     1      -1.623  -0.992 -10.015  1.00  0.00    -0.269 OA
ATOM      6  H   UNL     1      -0.220  -2.428 -11.114  1.00  0.00     0.163 HD
BRANCH   4   7
ATOM      7  C   UNL     1      -1.113  -1.931  -7.923  1.00  0.00     0.081 A 
ATOM      8  C   UNL     1      -0.886  -3.061  -4.370  1.00  0.00     0.082 C 
ATOM      9  C   UNL     1      -0.847  -4.576  -4.608  1.00  0.00     0.115 C 
ATOM     10  C   UNL     1      -1.120  -2.346  -5.672  1.00  0.00     0.055 A 
ATOM     11  C   UNL     1      -0.042  -4.924  -5.829  1.00  0.00     0.225 C 
ATOM     12  C   UNL     1      -0.767  -2.860  -6.899  1.00  0.00     0.076 A 
ATOM     13  N   UNL     1      -1.782  -1.161  -5.878  1.00  0.00    -0.317 N 
ATOM     14  O   UNL     1       0.603  -5.967  -5.929  1.00  0.00    -0.275 OA
ATOM     15  N   UNL     1      -0.149  -4.082  -6.899  1.00  0.00    -0.324 N 
ATOM     16  C   UNL     1      -1.828  -0.943  -7.235  1.00  0.00     0.107 A 
ATOM     17  H   UNL     1       0.254  -4.380  -7.746  1.00  0.00     0.170 HD
BRANCH   8  18
ATOM     18  C   UNL     1       0.346  -2.599  -3.584  1.00  0.00     0.012 A 
ATOM     19  C   UNL     1       1.136  -1.816  -1.400  1.00  0.00     0.165 A 
ATOM     20  C   UNL     1       0.129  -2.332  -2.208  1.00  0.00     0.059 A 
ATOM     21  C   UNL     1       2.394  -1.673  -1.945  1.00  0.00     0.211 A 
ATOM     22  C   UNL     1       2.645  -1.973  -3.268  1.00  0.00     0.211 A 
ATOM     23  O   UNL     1       3.507  -1.241  -1.288  1.00  0.00    -0.449 OA
ATOM     24  C   UNL     1       1.647  -2.424  -4.123  1.00  0.00     0.168 A 
ATOM     25  O   UNL     1       3.954  -1.747  -3.583  1.00  0.00    -0.449 OA
ATOM     26  C   UNL     1       4.505  -1.392  -2.307  1.00  0.00     0.468 C 
BRANCH  19  27
ATOM     27  O   UNL     1       0.801  -1.514  -0.114  1.00  0.00    -0.493 OA
ATOM     28  C   UNL     1       1.088  -0.151   0.201  1.00  0.00     0.278 C 
ENDBRANCH  19  27
BRANCH  24  29
ATOM     29  O   UNL     1       1.815  -2.694  -5.447  1.00  0.00    -0.492 OA
ATOM     30  C   UNL     1       3.123  -2.717  -6.000  1.00  0.00     0.278 C 
ENDBRANCH  24  29
ENDBRANCH   8  18
BRANCH  13  31
ATOM     31  C   UNL     1      -2.407  -0.370  -4.891  1.00  0.00     0.046 A 
ATOM     32  C   UNL     1      -1.685   0.015  -3.758  1.00  0.00     0.029 A 
ATOM     33  C   UNL     1      -3.771  -0.083  -5.001  1.00  0.00     0.029 A 
ATOM     34  C   UNL     1      -2.345   0.589  -2.676  1.00  0.00     0.041 A 
ATOM     35  C   UNL     1      -4.428   0.494  -3.913  1.00  0.00     0.041 A 
ATOM     36  C   UNL     1      -3.715   0.802  -2.755  1.00  0.00     0.123 A 
ATOM     37  F   UNL     1      -4.361   1.307  -1.696  1.00  0.00    -0.207 F 
ENDBRANCH  13  31
ENDBRANCH   4   7
ENDBRANCH   2   3
ENDBRANCH   1   2
BRANCH   1  38
ATOM     38  C   UNL     1       0.395  -5.843 -10.959  1.00  0.00     0.118 C 
BRANCH  38  39
ATOM     39  N   UNL     1       1.789  -6.294 -11.114  1.00  0.00    -0.352 N 
ATOM     40  C   UNL     1       2.370  -6.918 -12.199  1.00  0.00     0.251 C 
ATOM     41  H   UNL     1       2.381  -6.129 -10.345  1.00  0.00     0.163 HD
ATOM     42  O   UNL     1       3.417  -7.550 -12.096  1.00  0.00    -0.269 OA
BRANCH  40  43
ATOM     43  C   UNL     1       1.688  -6.791 -13.487  1.00  0.00     0.039 A 
ATOM     44  C   UNL     1       1.475  -7.875 -14.340  1.00  0.00     0.014 A 
ATOM     45  C   UNL     1       1.117  -5.552 -13.732  1.00  0.00     0.014 A 
ATOM     46  C   UNL     1       0.600  -7.702 -15.407  1.00  0.00     0.010 A 
ATOM     47  C   UNL     1       0.039  -5.499 -14.557  1.00  0.00     0.010 A 
ATOM     48  C   UNL     1      -0.132  -6.507 -15.489  1.00  0.00    -0.014 A 
BRANCH  48  49
ATOM     49  C   UNL     1      -1.136  -6.262 -16.508  1.00  0.00     0.031 A 
ATOM     50  C   UNL     1      -2.202  -7.288 -16.587  1.00  0.00     0.074 A 
ATOM     51  C   UNL     1      -1.216  -5.073 -17.149  1.00  0.00     0.049 A 
ATOM     52  N   UNL     1      -2.387  -8.159 -17.521  1.00  0.00    -0.248 NA
ATOM     53  C   UNL     1      -3.075  -7.474 -15.417  1.00  0.00     0.031 C 
ATOM     54  C   UNL     1      -0.448  -3.837 -16.922  1.00  0.00     0.029 A 
ATOM     55  N   UNL     1      -2.100  -4.689 -18.103  1.00  0.00    -0.354 N 
ATOM     56  C   UNL     1      -3.539  -8.855 -17.169  1.00  0.00     0.074 A 
ATOM     57  C   UNL     1      -3.789  -8.540 -15.788  1.00  0.00     0.031 C 
ATOM     58  C   UNL     1      -1.055  -2.798 -17.535  1.00  0.00     0.029 A 
ATOM     59  C   UNL     1      -2.122  -3.323 -18.359  1.00  0.00     0.049 A 
ATOM     60  H   UNL     1      -2.680  -5.328 -18.577  1.00  0.00     0.167 HD
ATOM     61  C   UNL     1      -4.328  -9.425 -18.122  1.00  0.00     0.037 A 
ATOM     62  C   UNL     1      -2.976  -2.679 -19.190  1.00  0.00     0.037 A 
ATOM     63  C   UNL     1      -3.632  -9.503 -19.385  1.00  0.00     0.049 A 
ATOM     64  C   UNL     1      -3.552  -3.704 -20.097  1.00  0.00     0.074 A 
ATOM     65  C   UNL     1      -2.471 -10.116 -19.817  1.00  0.00     0.029 A 
ATOM     66  N   UNL     1      -3.917  -8.544 -20.327  1.00  0.00    -0.354 N 
ATOM     67  N   UNL     1      -2.855  -4.351 -20.991  1.00  0.00    -0.248 NA
ATOM     68  C   UNL     1      -4.779  -4.358 -19.668  1.00  0.00     0.031 C 
ATOM     69  C   UNL     1      -1.865  -9.172 -20.700  1.00  0.00     0.029 A 
ATOM     70  C   UNL     1      -2.724  -8.078 -20.818  1.00  0.00     0.049 A 
ATOM     71  H   UNL     1      -4.815  -8.246 -20.601  1.00  0.00     0.167 HD
ATOM     72  C   UNL     1      -3.316  -5.659 -20.924  1.00  0.00     0.074 A 
ATOM     73  C   UNL     1      -4.551  -5.586 -20.144  1.00  0.00     0.031 C 
ATOM     74  C   UNL     1      -2.507  -6.713 -21.247  1.00  0.00     0.037 A 
BRANCH  61  75
ATOM     75  C   UNL     1      -5.831  -9.552 -18.032  1.00  0.00     0.057 A 
ATOM     76  C   UNL     1      -6.515 -10.260 -19.037  1.00  0.00     0.134 A 
ATOM     77  C   UNL     1      -6.653  -8.784 -17.182  1.00  0.00     0.134 A 
ATOM     78  F   UNL     1      -5.849 -11.026 -19.915  1.00  0.00    -0.206 F 
ATOM     79  C   UNL     1      -7.896 -10.142 -19.235  1.00  0.00     0.040 A 
ATOM     80  C   UNL     1      -8.039  -8.700 -17.338  1.00  0.00     0.040 A 
ATOM     81  F   UNL     1      -6.162  -7.994 -16.221  1.00  0.00    -0.206 F 
ATOM     82  C   UNL     1      -8.662  -9.351 -18.389  1.00  0.00     0.006 A 
ENDBRANCH  61  75
BRANCH  62  83
ATOM     83  C   UNL     1      -3.559  -1.330 -19.034  1.00  0.00     0.057 A 
ATOM     84  C   UNL     1      -4.137  -0.660 -20.119  1.00  0.00     0.134 A 
ATOM     85  C   UNL     1      -3.815  -0.788 -17.762  1.00  0.00     0.134 A 
ATOM     86  F   UNL     1      -3.980  -1.127 -21.366  1.00  0.00    -0.206 F 
ATOM     87  C   UNL     1      -4.947   0.471 -19.949  1.00  0.00     0.040 A 
ATOM     88  C   UNL     1      -4.619   0.342 -17.578  1.00  0.00     0.040 A 
ATOM     89  F   UNL     1      -3.367  -1.391 -16.651  1.00  0.00    -0.206 F 
ATOM     90  C   UNL     1      -5.201   0.967 -18.673  1.00  0.00     0.006 A 
ENDBRANCH  62  83
BRANCH  74  91
ATOM     91  C   UNL     1      -1.180  -6.412 -21.896  1.00  0.00     0.057 A 
ATOM     92  C   UNL     1      -0.135  -5.708 -21.276  1.00  0.00     0.134 A 
ATOM     93  C   UNL     1      -0.891  -6.995 -23.134  1.00  0.00     0.134 A 
ATOM     94  F   UNL     1      -0.277  -5.194 -20.049  1.00  0.00    -0.206 F 
ATOM     95  C   UNL     1       1.120  -5.559 -21.876  1.00  0.00     0.040 A 
ATOM     96  C   UNL     1       0.368  -6.882 -23.730  1.00  0.00     0.040 A 
ATOM     97  F   UNL     1      -1.819  -7.732 -23.765  1.00  0.00    -0.206 F 
ATOM     98  C   UNL     1       1.377  -6.154 -23.105  1.00  0.00     0.006 A 
ENDBRANCH  74  91
ENDBRANCH  48  49
ENDBRANCH  40  43
ENDBRANCH  38  39
ENDBRANCH   1  38
TORSDOF 14
