REMARK SMILES CC[NH2+][C@@]1(C(=O)NCCCNC(=O)c2ccc(-c3c4nc(c(-c5c(F)cccc5F)c5ccc([nH]5)c(-c5c(F)cccc5F)c5nc(c(-c6c(F)cccc6F)c6ccc3[nH]6)C=C5)C=C4)cc2)CC[C@H]([NH+]2CCC(C(C)(C)C)CC2)C1
REMARK SMILES IDX 9 1 8 2 7 3 5 4 6 5 4 7 68 8 81 9 69 10 70 11 3 12 2 15 1 16
REMARK SMILES IDX 71 17 72 18 80 19 73 21 79 22 74 23 75 24 76 25 77 26 78 27
REMARK SMILES IDX 10 28 11 29 12 30 13 32 14 33 15 34 67 35 16 36 66 37 17 38
REMARK SMILES IDX 18 39 19 40 60 41 20 42 65 43 59 44 61 45 21 46 64 47 58 48
REMARK SMILES IDX 57 49 22 51 48 52 31 53 47 54 32 55 35 56 46 57 62 58 33 59
REMARK SMILES IDX 34 60 45 62 63 63 36 64 23 65 24 66 29 67 25 68 26 69 28 70
REMARK SMILES IDX 30 71 27 72 49 73 50 74 55 75 51 76 52 77 54 78 56 79 53 80
REMARK SMILES IDX 37 81 38 82 43 83 39 84 40 85 42 86 44 87 41 88
REMARK H PARENT 7 6 3 13 3 14 71 20 11 31 61 50 35 61
REMARK Flexibility Score: inf
ROOT
ATOM      1  C   UNL     1      -3.598  -5.679  -1.550  1.00  0.00     0.042 C 
ENDROOT
BRANCH   1   2
ATOM      2  C   UNL     1      -3.040  -4.386  -2.135  1.00  0.00     0.118 C 
BRANCH   2   3
ATOM      3  N   UNL     1      -2.290  -3.572  -1.163  1.00  0.00    -0.351 N 
ATOM      4  C   UNL     1      -1.178  -3.193  -0.522  1.00  0.00     0.281 C 
ATOM      5  O   UNL     1      -1.606  -2.441   0.395  1.00  0.00    -0.268 OA
ATOM      6  H   UNL     1      -2.983  -2.993  -0.772  1.00  0.00     0.163 HD
BRANCH   4   7
ATOM      7  C   UNL     1       0.471  -3.471  -0.524  1.00  0.00     0.181 C 
ATOM      8  C   UNL     1       1.499  -3.460  -1.687  1.00  0.00     0.085 C 
ATOM      9  C   UNL     1       0.794  -4.838   0.174  1.00  0.00     0.144 C 
ATOM     10  C   UNL     1       2.328  -4.768  -1.649  1.00  0.00     0.072 C 
ATOM     11  C   UNL     1       1.528  -5.787  -0.851  1.00  0.00     0.191 C 
BRANCH   7  12
ATOM     12  N   UNL     1       0.979  -2.294   0.310  1.00  0.00    -0.334 N 
ATOM     13  H   UNL     1       0.468  -2.270   1.193  1.00  0.00     0.347 HD
ATOM     14  H   UNL     1       1.979  -2.426   0.467  1.00  0.00     0.347 HD
BRANCH  12  15
ATOM     15  C   UNL     1       0.791  -0.997  -0.388  1.00  0.00     0.257 C 
ATOM     16  C   UNL     1       1.306   0.166   0.439  1.00  0.00     0.071 C 
ENDBRANCH  12  15
ENDBRANCH   7  12
BRANCH  11  17
ATOM     17  N   UNL     1       0.695  -6.746  -1.605  1.00  0.00    -0.332 N 
ATOM     18  C   UNL     1       1.305  -7.662  -2.579  1.00  0.00     0.262 C 
ATOM     19  C   UNL     1      -0.498  -6.204  -2.189  1.00  0.00     0.262 C 
ATOM     20  H   UNL     1       0.483  -7.330  -0.796  1.00  0.00     0.348 HD
ATOM     21  C   UNL     1       1.326  -7.247  -4.090  1.00  0.00     0.066 C 
ATOM     22  C   UNL     1      -0.177  -5.417  -3.432  1.00  0.00     0.066 C 
ATOM     23  C   UNL     1       0.193  -6.299  -4.584  1.00  0.00     0.005 C 
BRANCH  23  24
ATOM     24  C   UNL     1       0.520  -5.394  -5.840  1.00  0.00    -0.035 C 
ATOM     25  C   UNL     1       0.660  -6.301  -7.065  1.00  0.00     0.011 C 
ATOM     26  C   UNL     1      -0.625  -4.381  -6.138  1.00  0.00     0.011 C 
ATOM     27  C   UNL     1       1.805  -4.549  -5.673  1.00  0.00     0.011 C 
ENDBRANCH  23  24
ENDBRANCH  11  17
ENDBRANCH   4   7
ENDBRANCH   2   3
ENDBRANCH   1   2
BRANCH   1  28
ATOM     28  C   UNL     1      -4.645  -6.348  -2.426  1.00  0.00     0.118 C 
BRANCH  28  29
ATOM     29  N   UNL     1      -4.278  -6.660  -3.806  1.00  0.00    -0.352 N 
ATOM     30  C   UNL     1      -4.648  -7.742  -4.598  1.00  0.00     0.251 C 
ATOM     31  H   UNL     1      -3.680  -6.008  -4.239  1.00  0.00     0.163 HD
ATOM     32  O   UNL     1      -4.253  -7.824  -5.746  1.00  0.00    -0.269 OA
BRANCH  30  33
ATOM     33  C   UNL     1      -5.494  -8.822  -4.023  1.00  0.00     0.039 A 
ATOM     34  C   UNL     1      -5.277 -10.159  -4.372  1.00  0.00     0.014 A 
ATOM     35  C   UNL     1      -6.468  -8.514  -3.083  1.00  0.00     0.014 A 
ATOM     36  C   UNL     1      -5.984 -11.171  -3.706  1.00  0.00     0.010 A 
ATOM     37  C   UNL     1      -6.984  -9.507  -2.277  1.00  0.00     0.010 A 
ATOM     38  C   UNL     1      -6.815 -10.850  -2.621  1.00  0.00    -0.014 A 
BRANCH  38  39
ATOM     39  C   UNL     1      -7.628 -11.848  -1.880  1.00  0.00     0.031 A 
ATOM     40  C   UNL     1      -9.118 -11.616  -1.750  1.00  0.00     0.074 A 
ATOM     41  C   UNL     1      -7.038 -12.877  -1.243  1.00  0.00     0.049 A 
ATOM     42  N   UNL     1      -9.995 -12.228  -0.997  1.00  0.00    -0.248 NA
ATOM     43  C   UNL     1      -9.684 -10.479  -2.503  1.00  0.00     0.031 C 
ATOM     44  C   UNL     1      -5.601 -13.158  -1.219  1.00  0.00     0.029 A 
ATOM     45  N   UNL     1      -7.582 -13.879  -0.481  1.00  0.00    -0.354 N 
ATOM     46  C   UNL     1     -11.178 -11.510  -1.145  1.00  0.00     0.074 A 
ATOM     47  C   UNL     1     -10.881 -10.356  -1.956  1.00  0.00     0.031 C 
ATOM     48  C   UNL     1      -5.384 -14.290  -0.528  1.00  0.00     0.029 A 
ATOM     49  C   UNL     1      -6.659 -14.789  -0.026  1.00  0.00     0.049 A 
ATOM     50  H   UNL     1      -8.544 -13.940  -0.280  1.00  0.00     0.167 HD
ATOM     51  C   UNL     1     -12.420 -11.817  -0.705  1.00  0.00     0.037 A 
ATOM     52  C   UNL     1      -6.837 -15.905   0.705  1.00  0.00     0.037 A 
ATOM     53  C   UNL     1     -12.718 -13.025   0.010  1.00  0.00     0.049 A 
ATOM     54  C   UNL     1      -8.236 -16.274   1.120  1.00  0.00     0.074 A 
ATOM     55  C   UNL     1     -13.944 -13.502   0.433  1.00  0.00     0.029 A 
ATOM     56  N   UNL     1     -11.766 -13.965   0.379  1.00  0.00    -0.354 N 
ATOM     57  N   UNL     1      -9.358 -15.625   0.917  1.00  0.00    -0.248 NA
ATOM     58  C   UNL     1      -8.396 -17.539   1.849  1.00  0.00     0.031 C 
ATOM     59  C   UNL     1     -13.729 -14.718   1.089  1.00  0.00     0.029 A 
ATOM     60  C   UNL     1     -12.376 -15.021   1.028  1.00  0.00     0.049 A 
ATOM     61  H   UNL     1     -10.800 -13.890   0.205  1.00  0.00     0.167 HD
ATOM     62  C   UNL     1     -10.361 -16.418   1.458  1.00  0.00     0.074 A 
ATOM     63  C   UNL     1      -9.713 -17.602   1.986  1.00  0.00     0.031 C 
ATOM     64  C   UNL     1     -11.698 -16.194   1.517  1.00  0.00     0.037 A 
BRANCH  51  65
ATOM     65  C   UNL     1     -13.532 -10.855  -1.026  1.00  0.00     0.057 A 
ATOM     66  C   UNL     1     -13.954 -10.617  -2.343  1.00  0.00     0.134 A 
ATOM     67  C   UNL     1     -14.187 -10.151  -0.008  1.00  0.00     0.134 A 
ATOM     68  F   UNL     1     -13.362 -11.244  -3.371  1.00  0.00    -0.206 F 
ATOM     69  C   UNL     1     -14.948  -9.682  -2.638  1.00  0.00     0.040 A 
ATOM     70  C   UNL     1     -15.209  -9.241  -0.288  1.00  0.00     0.040 A 
ATOM     71  F   UNL     1     -13.842 -10.329   1.276  1.00  0.00    -0.206 F 
ATOM     72  C   UNL     1     -15.584  -8.996  -1.607  1.00  0.00     0.006 A 
ENDBRANCH  51  65
BRANCH  52  73
ATOM     73  C   UNL     1      -5.681 -16.784   1.023  1.00  0.00     0.057 A 
ATOM     74  C   UNL     1      -5.552 -18.046   0.427  1.00  0.00     0.134 A 
ATOM     75  C   UNL     1      -4.678 -16.392   1.917  1.00  0.00     0.134 A 
ATOM     76  F   UNL     1      -6.485 -18.484  -0.431  1.00  0.00    -0.206 F 
ATOM     77  C   UNL     1      -4.486 -18.895   0.728  1.00  0.00     0.040 A 
ATOM     78  C   UNL     1      -3.591 -17.220   2.206  1.00  0.00     0.040 A 
ATOM     79  F   UNL     1      -4.731 -15.191   2.510  1.00  0.00    -0.206 F 
ATOM     80  C   UNL     1      -3.497 -18.480   1.617  1.00  0.00     0.006 A 
ENDBRANCH  52  73
BRANCH  64  81
ATOM     81  C   UNL     1     -12.546 -17.275   2.117  1.00  0.00     0.057 A 
ATOM     82  C   UNL     1     -12.545 -17.541   3.491  1.00  0.00     0.134 A 
ATOM     83  C   UNL     1     -13.410 -18.024   1.308  1.00  0.00     0.134 A 
ATOM     84  F   UNL     1     -11.733 -16.862   4.315  1.00  0.00    -0.206 F 
ATOM     85  C   UNL     1     -13.355 -18.537   4.037  1.00  0.00     0.040 A 
ATOM     86  C   UNL     1     -14.247 -18.999   1.847  1.00  0.00     0.040 A 
ATOM     87  F   UNL     1     -13.468 -17.805  -0.015  1.00  0.00    -0.206 F 
ATOM     88  C   UNL     1     -14.214 -19.264   3.214  1.00  0.00     0.006 A 
ENDBRANCH  64  81
ENDBRANCH  38  39
ENDBRANCH  30  33
ENDBRANCH  28  29
ENDBRANCH   1  28
TORSDOF 14
