REMARK SMILES O=C(COc1c(Cl)cc(/C=C2/C(=O)NC(=O)N=C2O)cc1Cl)NCCCNC(=O)c1ccc(-c2c3nc(c(-c4c(F)cccc4F)c4ccc([nH]4)c(-c4c(F)cccc4F)c4nc(c(-c5c(F)cccc5F)c5ccc2[nH]5)C=C4)C=C3)cc1
REMARK SMILES IDX 24 1 23 2 1 3 2 4 3 6 4 7 5 8 6 9 21 10 7 11 8 12 20 13
REMARK SMILES IDX 22 14 9 15 10 16 11 17 12 18 18 19 13 20 14 21 17 22 15 23
REMARK SMILES IDX 16 25 19 26 25 28 26 29 27 30 28 31 29 33 30 34 31 35 83 36
REMARK SMILES IDX 32 37 82 38 33 39 34 40 35 41 76 42 36 43 81 44 75 45 77 46
REMARK SMILES IDX 37 47 80 48 74 49 73 50 38 52 64 53 47 54 63 55 48 56 51 57
REMARK SMILES IDX 62 58 78 59 49 60 50 61 61 63 79 64 52 65 39 66 40 67 45 68
REMARK SMILES IDX 41 69 42 70 44 71 46 72 43 73 65 74 66 75 71 76 67 77 68 78
REMARK SMILES IDX 70 79 72 80 69 81 53 82 54 83 59 84 55 85 56 86 58 87 60 88
REMARK SMILES IDX 57 89
REMARK H PARENT 23 5 14 24 19 27 27 32 77 51 51 62
REMARK Flexibility Score: inf
ROOT
ATOM      1  C   UNL     1       2.121   2.417  -0.757  1.00  0.00     0.117 C 
ENDROOT
BRANCH   1   2
ATOM      2  N   UNL     1       2.810   1.219  -0.340  1.00  0.00    -0.353 N 
ATOM      3  O   UNL     1       1.305   0.524   1.261  1.00  0.00    -0.271 OA
ATOM      4  C   UNL     1       2.229   0.282   0.493  1.00  0.00     0.257 C 
ATOM      5  H   UNL     1       3.728   1.064  -0.661  1.00  0.00     0.163 HD
BRANCH   4   6
ATOM      6  C   UNL     1       2.814  -1.121   0.307  1.00  0.00     0.329 C 
BRANCH   6   7
ATOM      7  O   UNL     1       3.638  -1.185  -0.858  1.00  0.00    -0.481 OA
BRANCH   7   8
ATOM      8  C   UNL     1       3.151  -1.833  -1.965  1.00  0.00     0.157 A 
ATOM      9  C   UNL     1       1.926  -1.591  -2.604  1.00  0.00     0.085 A 
ATOM     10  C   UNL     1       4.055  -2.706  -2.595  1.00  0.00     0.085 A 
ATOM     11  Cl  UNL     1       0.710  -0.501  -2.059  1.00  0.00    -0.080 Cl
ATOM     12  C   UNL     1       1.624  -2.218  -3.821  1.00  0.00     0.032 A 
ATOM     13  C   UNL     1       3.753  -3.311  -3.822  1.00  0.00     0.032 A 
ATOM     14  Cl  UNL     1       5.587  -3.079  -1.877  1.00  0.00    -0.080 Cl
ATOM     15  C   UNL     1       2.519  -3.097  -4.432  1.00  0.00    -0.021 A 
BRANCH  15  16
ATOM     16  C   UNL     1       2.134  -3.649  -5.737  1.00  0.00     0.027 C 
ATOM     17  C   UNL     1       2.308  -4.878  -6.259  1.00  0.00     0.102 C 
ATOM     18  C   UNL     1       1.822  -5.079  -7.648  1.00  0.00     0.264 C 
ATOM     19  C   UNL     1       2.939  -6.064  -5.679  1.00  0.00     0.228 C 
ATOM     20  O   UNL     1       1.120  -4.277  -8.253  1.00  0.00    -0.269 OA
ATOM     21  N   UNL     1       2.247  -6.242  -8.220  1.00  0.00    -0.272 N 
ATOM     22  N   UNL     1       3.285  -7.130  -6.298  1.00  0.00    -0.157 NA
ATOM     23  C   UNL     1       3.036  -7.200  -7.640  1.00  0.00     0.351 C 
ATOM     24  H   UNL     1       1.957  -6.411  -9.146  1.00  0.00     0.175 HD
ATOM     25  O   UNL     1       3.486  -8.101  -8.344  1.00  0.00    -0.246 OA
BRANCH  19  26
ATOM     26  O   UNL     1       3.134  -6.049  -4.358  1.00  0.00    -0.493 OA
ATOM     27  H   UNL     1       2.897  -5.292  -3.859  1.00  0.00     0.295 HD
ENDBRANCH  19  26
ENDBRANCH  15  16
ENDBRANCH   7   8
ENDBRANCH   6   7
ENDBRANCH   4   6
ENDBRANCH   1   2
BRANCH   1  28
ATOM     28  C   UNL     1       2.559   3.659  -0.013  1.00  0.00     0.042 C 
BRANCH  28  29
ATOM     29  C   UNL     1       4.052   3.933  -0.099  1.00  0.00     0.118 C 
BRANCH  29  30
ATOM     30  N   UNL     1       4.518   4.212  -1.452  1.00  0.00    -0.352 N 
ATOM     31  C   UNL     1       5.196   5.297  -1.950  1.00  0.00     0.251 C 
ATOM     32  H   UNL     1       4.315   3.511  -2.113  1.00  0.00     0.163 HD
ATOM     33  O   UNL     1       5.390   5.390  -3.159  1.00  0.00    -0.269 OA
BRANCH  31  34
ATOM     34  C   UNL     1       5.670   6.369  -1.046  1.00  0.00     0.039 A 
ATOM     35  C   UNL     1       5.573   7.697  -1.469  1.00  0.00     0.014 A 
ATOM     36  C   UNL     1       6.220   6.079   0.204  1.00  0.00     0.014 A 
ATOM     37  C   UNL     1       5.980   8.728  -0.619  1.00  0.00     0.010 A 
ATOM     38  C   UNL     1       6.516   7.108   1.093  1.00  0.00     0.010 A 
ATOM     39  C   UNL     1       6.428   8.444   0.682  1.00  0.00    -0.014 A 
BRANCH  39  40
ATOM     40  C   UNL     1       6.854   9.533   1.598  1.00  0.00     0.031 A 
ATOM     41  C   UNL     1       8.274   9.588   2.099  1.00  0.00     0.074 A 
ATOM     42  C   UNL     1       5.962  10.460   2.000  1.00  0.00     0.049 A 
ATOM     43  N   UNL     1       8.839  10.464   2.892  1.00  0.00    -0.248 NA
ATOM     44  C   UNL     1       9.173   8.502   1.676  1.00  0.00     0.031 C 
ATOM     45  C   UNL     1       4.544  10.486   1.637  1.00  0.00     0.029 A 
ATOM     46  N   UNL     1       6.119  11.563   2.801  1.00  0.00    -0.354 N 
ATOM     47  C   UNL     1      10.147  10.028   3.067  1.00  0.00     0.074 A 
ATOM     48  C   UNL     1      10.273   8.773   2.361  1.00  0.00     0.031 C 
ATOM     49  C   UNL     1       3.972  11.573   2.177  1.00  0.00     0.029 A 
ATOM     50  C   UNL     1       4.970  12.301   2.953  1.00  0.00     0.049 A 
ATOM     51  H   UNL     1       6.974  11.803   3.227  1.00  0.00     0.167 HD
ATOM     52  C   UNL     1      11.164  10.632   3.726  1.00  0.00     0.037 A 
ATOM     53  C   UNL     1       4.750  13.440   3.636  1.00  0.00     0.037 A 
ATOM     54  C   UNL     1      11.043  11.891   4.413  1.00  0.00     0.049 A 
ATOM     55  C   UNL     1       5.896  14.094   4.359  1.00  0.00     0.074 A 
ATOM     56  C   UNL     1      12.023  12.612   5.072  1.00  0.00     0.029 A 
ATOM     57  N   UNL     1       9.866  12.615   4.531  1.00  0.00    -0.354 N 
ATOM     58  N   UNL     1       7.146  13.709   4.454  1.00  0.00    -0.248 NA
ATOM     59  C   UNL     1       5.602  15.354   5.057  1.00  0.00     0.031 C 
ATOM     60  C   UNL     1      11.428  13.746   5.634  1.00  0.00     0.029 A 
ATOM     61  C   UNL     1      10.091  13.766   5.268  1.00  0.00     0.049 A 
ATOM     62  H   UNL     1       8.998  12.350   4.148  1.00  0.00     0.167 HD
ATOM     63  C   UNL     1       7.795  14.697   5.184  1.00  0.00     0.074 A 
ATOM     64  C   UNL     1       6.802  15.705   5.494  1.00  0.00     0.031 C 
ATOM     65  C   UNL     1       9.096  14.767   5.560  1.00  0.00     0.037 A 
BRANCH  52  66
ATOM     66  C   UNL     1      12.496   9.937   3.730  1.00  0.00     0.057 A 
ATOM     67  C   UNL     1      13.264   9.797   2.564  1.00  0.00     0.134 A 
ATOM     68  C   UNL     1      13.031   9.419   4.917  1.00  0.00     0.134 A 
ATOM     69  F   UNL     1      12.806  10.256   1.389  1.00  0.00    -0.206 F 
ATOM     70  C   UNL     1      14.496   9.140   2.573  1.00  0.00     0.040 A 
ATOM     71  C   UNL     1      14.277   8.791   4.944  1.00  0.00     0.040 A 
ATOM     72  F   UNL     1      12.355   9.522   6.071  1.00  0.00    -0.206 F 
ATOM     73  C   UNL     1      15.010   8.642   3.768  1.00  0.00     0.006 A 
ENDBRANCH  52  66
BRANCH  53  74
ATOM     74  C   UNL     1       3.399  14.060   3.639  1.00  0.00     0.057 A 
ATOM     75  C   UNL     1       3.160  15.281   2.996  1.00  0.00     0.134 A 
ATOM     76  C   UNL     1       2.322  13.461   4.302  1.00  0.00     0.134 A 
ATOM     77  F   UNL     1       4.155  15.914   2.358  1.00  0.00    -0.206 F 
ATOM     78  C   UNL     1       1.908  15.897   3.035  1.00  0.00     0.040 A 
ATOM     79  C   UNL     1       1.056  14.050   4.324  1.00  0.00     0.040 A 
ATOM     80  F   UNL     1       2.481  12.286   4.929  1.00  0.00    -0.206 F 
ATOM     81  C   UNL     1       0.850  15.278   3.698  1.00  0.00     0.006 A 
ENDBRANCH  53  74
BRANCH  65  82
ATOM     82  C   UNL     1       9.533  16.003   6.295  1.00  0.00     0.057 A 
ATOM     83  C   UNL     1       9.108  16.289   7.599  1.00  0.00     0.134 A 
ATOM     84  C   UNL     1      10.405  16.916   5.686  1.00  0.00     0.134 A 
ATOM     85  F   UNL     1       8.266  15.462   8.238  1.00  0.00    -0.206 F 
ATOM     86  C   UNL     1       9.499  17.459   8.254  1.00  0.00     0.040 A 
ATOM     87  C   UNL     1      10.831  18.070   6.344  1.00  0.00     0.040 A 
ATOM     88  F   UNL     1      10.863  16.698   4.444  1.00  0.00    -0.206 F 
ATOM     89  C   UNL     1      10.367  18.351   7.627  1.00  0.00     0.006 A 
ENDBRANCH  65  82
ENDBRANCH  39  40
ENDBRANCH  31  34
ENDBRANCH  29  30
ENDBRANCH  28  29
ENDBRANCH   1  28
TORSDOF 14
