REMARK SMILES COc1cccc(C(=O)Nc2ccc(NC(=O)[C@@H]3[C@@H](C(=O)NCCCNC(=O)c4ccc(-c5c6nc(c(-c7c(F)cccc7F)c7ccc([nH]7)c(-c7c(F)cccc7F)c7nc(c(-c8c(F)cccc8F)c8ccc5[nH]8)C=C7)C=C6)cc4)[C@@H]4C=C[C@H]3C4)cc2)c1
REMARK SMILES IDX 20 1 21 2 22 3 19 5 18 6 86 7 83 8 85 9 87 10 84 11 16 12
REMARK SMILES IDX 15 13 17 15 14 16 11 17 12 18 89 19 13 20 88 21 10 22 8 23
REMARK SMILES IDX 9 24 7 26 3 27 4 28 90 29 5 30 6 31 2 32 1 33 23 34 24 35
REMARK SMILES IDX 25 36 26 37 27 38 28 40 29 41 30 42 82 43 31 44 81 45 32 46
REMARK SMILES IDX 33 47 34 48 75 49 35 50 80 51 74 52 76 53 36 54 79 55 73 56
REMARK SMILES IDX 72 57 37 59 63 60 46 61 62 62 47 63 50 64 61 65 77 66 48 67
REMARK SMILES IDX 49 68 60 70 78 71 51 72 38 73 39 74 44 75 40 76 41 77 43 78
REMARK SMILES IDX 45 79 42 80 64 81 65 82 70 83 66 84 67 85 69 86 71 87 68 88
REMARK SMILES IDX 52 89 53 90 58 91 54 92 55 93 57 94 59 95 56 96
REMARK H PARENT 22 4 15 14 10 25 26 39 76 58 50 69
REMARK Flexibility Score: inf
ROOT
ATOM      1  C   UNL     1       5.375  -0.019  -4.312  1.00  0.00     0.224 C 
ATOM      2  O   UNL     1       4.348  -0.700  -4.439  1.00  0.00    -0.275 OA
ATOM      3  N   UNL     1       5.975   0.339  -5.465  1.00  0.00    -0.356 N 
ATOM      4  H   UNL     1       5.521   0.005  -6.272  1.00  0.00     0.163 HD
ENDROOT
BRANCH   1   5
ATOM      5  C   UNL     1       5.812   0.383  -2.908  1.00  0.00     0.098 C 
ATOM      6  C   UNL     1       5.544   1.856  -2.533  1.00  0.00     0.099 C 
ATOM      7  C   UNL     1       6.768   2.193  -1.620  1.00  0.00     0.025 C 
ATOM      8  C   UNL     1       7.242   0.136  -2.370  1.00  0.00     0.025 C 
ATOM      9  C   UNL     1       6.827   1.286  -0.413  1.00  0.00    -0.027 C 
ATOM     10  C   UNL     1       7.902   1.516  -2.397  1.00  0.00     0.017 C 
ATOM     11  C   UNL     1       7.112   0.051  -0.855  1.00  0.00    -0.027 C 
BRANCH   6  12
ATOM     12  C   UNL     1       4.219   2.368  -1.940  1.00  0.00     0.228 C 
ATOM     13  N   UNL     1       3.629   1.898  -0.804  1.00  0.00    -0.326 N 
ATOM     14  H   UNL     1       3.075   2.557  -0.327  1.00  0.00     0.169 HD
ATOM     15  O   UNL     1       3.747   3.417  -2.405  1.00  0.00    -0.274 OA
BRANCH  13  16
ATOM     16  C   UNL     1       3.679   0.641  -0.206  1.00  0.00     0.041 A 
ATOM     17  C   UNL     1       4.027  -1.847   0.976  1.00  0.00     0.041 A 
ATOM     18  C   UNL     1       3.758  -1.760  -0.388  1.00  0.00     0.028 A 
ATOM     19  C   UNL     1       4.084  -0.700   1.765  1.00  0.00     0.028 A 
ATOM     20  C   UNL     1       3.502  -0.517  -0.955  1.00  0.00     0.028 A 
ATOM     21  C   UNL     1       3.879   0.550   1.174  1.00  0.00     0.028 A 
BRANCH  17  22
ATOM     22  N   UNL     1       4.226  -3.102   1.542  1.00  0.00    -0.322 N 
ATOM     23  C   UNL     1       3.295  -4.102   1.736  1.00  0.00     0.255 C 
ATOM     24  O   UNL     1       3.696  -5.251   1.923  1.00  0.00    -0.269 OA
ATOM     25  H   UNL     1       5.143  -3.301   1.842  1.00  0.00     0.170 HD
BRANCH  23  26
ATOM     26  C   UNL     1       1.836  -3.802   1.898  1.00  0.00     0.043 A 
ATOM     27  C   UNL     1      -0.186  -2.497   1.510  1.00  0.00     0.119 A 
ATOM     28  C   UNL     1      -0.851  -3.249   2.473  1.00  0.00     0.046 A 
ATOM     29  C   UNL     1       1.136  -2.813   1.198  1.00  0.00     0.060 A 
ATOM     30  C   UNL     1      -0.196  -4.291   3.130  1.00  0.00     0.005 A 
ATOM     31  C   UNL     1       1.144  -4.560   2.850  1.00  0.00     0.014 A 
BRANCH  27  32
ATOM     32  O   UNL     1      -0.913  -1.488   0.936  1.00  0.00    -0.497 OA
ATOM     33  C   UNL     1      -0.194  -0.544   0.146  1.00  0.00     0.278 C 
ENDBRANCH  27  32
ENDBRANCH  23  26
ENDBRANCH  17  22
ENDBRANCH  13  16
ENDBRANCH   6  12
ENDBRANCH   1   5
BRANCH   3  34
ATOM     34  C   UNL     1       7.156   1.120  -5.739  1.00  0.00     0.117 C 
BRANCH  34  35
ATOM     35  C   UNL     1       8.422   0.288  -5.582  1.00  0.00     0.042 C 
BRANCH  35  36
ATOM     36  C   UNL     1       8.747  -0.520  -6.830  1.00  0.00     0.118 C 
BRANCH  36  37
ATOM     37  N   UNL     1       9.313   0.333  -7.862  1.00  0.00    -0.352 N 
ATOM     38  C   UNL     1      10.610   0.427  -8.289  1.00  0.00     0.251 C 
ATOM     39  H   UNL     1       8.674   0.927  -8.318  1.00  0.00     0.163 HD
ATOM     40  O   UNL     1      10.971   1.436  -8.904  1.00  0.00    -0.269 OA
BRANCH  38  41
ATOM     41  C   UNL     1      11.576  -0.662  -8.036  1.00  0.00     0.039 A 
ATOM     42  C   UNL     1      12.916  -0.339  -7.796  1.00  0.00     0.014 A 
ATOM     43  C   UNL     1      11.188  -2.003  -8.117  1.00  0.00     0.014 A 
ATOM     44  C   UNL     1      13.856  -1.356  -7.617  1.00  0.00     0.010 A 
ATOM     45  C   UNL     1      12.108  -3.014  -7.859  1.00  0.00     0.010 A 
ATOM     46  C   UNL     1      13.456  -2.702  -7.635  1.00  0.00    -0.014 A 
BRANCH  46  47
ATOM     47  C   UNL     1      14.439  -3.800  -7.474  1.00  0.00     0.031 A 
ATOM     48  C   UNL     1      14.693  -4.750  -8.612  1.00  0.00     0.074 A 
ATOM     49  C   UNL     1      15.055  -3.977  -6.290  1.00  0.00     0.049 A 
ATOM     50  N   UNL     1      15.451  -5.817  -8.647  1.00  0.00    -0.248 NA
ATOM     51  C   UNL     1      13.976  -4.484  -9.870  1.00  0.00     0.031 C 
ATOM     52  C   UNL     1      14.855  -3.149  -5.100  1.00  0.00     0.029 A 
ATOM     53  N   UNL     1      15.968  -4.919  -5.892  1.00  0.00    -0.354 N 
ATOM     54  C   UNL     1      15.283  -6.359  -9.916  1.00  0.00     0.074 A 
ATOM     55  C   UNL     1      14.316  -5.532 -10.605  1.00  0.00     0.031 C 
ATOM     56  C   UNL     1      15.638  -3.607  -4.111  1.00  0.00     0.029 A 
ATOM     57  C   UNL     1      16.369  -4.777  -4.586  1.00  0.00     0.049 A 
ATOM     58  H   UNL     1      16.304  -5.629  -6.485  1.00  0.00     0.167 HD
ATOM     59  C   UNL     1      15.896  -7.434 -10.465  1.00  0.00     0.037 A 
ATOM     60  C   UNL     1      17.229  -5.511  -3.857  1.00  0.00     0.037 A 
ATOM     61  C   UNL     1      16.887  -8.228  -9.789  1.00  0.00     0.049 A 
ATOM     62  C   UNL     1      17.915  -6.685  -4.496  1.00  0.00     0.074 A 
ATOM     63  C   UNL     1      17.617  -9.297 -10.278  1.00  0.00     0.029 A 
ATOM     64  N   UNL     1      17.291  -8.033  -8.477  1.00  0.00    -0.354 N 
ATOM     65  N   UNL     1      17.790  -7.151  -5.715  1.00  0.00    -0.248 NA
ATOM     66  C   UNL     1      18.867  -7.431  -3.660  1.00  0.00     0.031 C 
ATOM     67  C   UNL     1      18.442  -9.768  -9.250  1.00  0.00     0.029 A 
ATOM     68  C   UNL     1      18.250  -8.970  -8.134  1.00  0.00     0.049 A 
ATOM     69  H   UNL     1      16.946  -7.332  -7.878  1.00  0.00     0.167 HD
ATOM     70  C   UNL     1      18.661  -8.229  -5.801  1.00  0.00     0.074 A 
ATOM     71  C   UNL     1      19.319  -8.338  -4.514  1.00  0.00     0.031 C 
ATOM     72  C   UNL     1      18.895  -9.056  -6.849  1.00  0.00     0.037 A 
BRANCH  59  73
ATOM     73  C   UNL     1      15.515  -7.806 -11.868  1.00  0.00     0.057 A 
ATOM     74  C   UNL     1      15.896  -7.027 -12.968  1.00  0.00     0.134 A 
ATOM     75  C   UNL     1      14.779  -8.970 -12.125  1.00  0.00     0.134 A 
ATOM     76  F   UNL     1      16.590  -5.892 -12.789  1.00  0.00    -0.206 F 
ATOM     77  C   UNL     1      15.537  -7.376 -14.271  1.00  0.00     0.040 A 
ATOM     78  C   UNL     1      14.435  -9.343 -13.426  1.00  0.00     0.040 A 
ATOM     79  F   UNL     1      14.385  -9.764 -11.119  1.00  0.00    -0.206 F 
ATOM     80  C   UNL     1      14.809  -8.541 -14.503  1.00  0.00     0.006 A 
ENDBRANCH  59  73
BRANCH  60  81
ATOM     81  C   UNL     1      17.513  -5.136  -2.450  1.00  0.00     0.057 A 
ATOM     82  C   UNL     1      18.742  -4.572  -2.090  1.00  0.00     0.134 A 
ATOM     83  C   UNL     1      16.565  -5.322  -1.437  1.00  0.00     0.134 A 
ATOM     84  F   UNL     1      19.695  -4.385  -3.015  1.00  0.00    -0.206 F 
ATOM     85  C   UNL     1      19.026  -4.220  -0.770  1.00  0.00     0.040 A 
ATOM     86  C   UNL     1      16.828  -4.954  -0.116  1.00  0.00     0.040 A 
ATOM     87  F   UNL     1      15.365  -5.848  -1.720  1.00  0.00    -0.206 F 
ATOM     88  C   UNL     1      18.064  -4.406   0.221  1.00  0.00     0.006 A 
ENDBRANCH  60  81
BRANCH  72  89
ATOM     89  C   UNL     1      19.922 -10.130  -6.653  1.00  0.00     0.057 A 
ATOM     90  C   UNL     1      19.659 -11.267  -5.881  1.00  0.00     0.134 A 
ATOM     91  C   UNL     1      21.174 -10.040  -7.273  1.00  0.00     0.134 A 
ATOM     92  F   UNL     1      18.482 -11.404  -5.251  1.00  0.00    -0.206 F 
ATOM     93  C   UNL     1      20.614 -12.270  -5.715  1.00  0.00     0.040 A 
ATOM     94  C   UNL     1      22.129 -11.047  -7.134  1.00  0.00     0.040 A 
ATOM     95  F   UNL     1      21.484  -8.978  -8.033  1.00  0.00    -0.206 F 
ATOM     96  C   UNL     1      21.852 -12.164  -6.348  1.00  0.00     0.006 A 
ENDBRANCH  72  89
ENDBRANCH  46  47
ENDBRANCH  38  41
ENDBRANCH  36  37
ENDBRANCH  35  36
ENDBRANCH  34  35
ENDBRANCH   3  34
TORSDOF 15
