REMARK SMILES O=C(NCCCNC(=O)c1[nH]ncc1C[N@H+]1CCC[C@H](C(=O)c2ccc3ccccc3c2)C1)c1ccc(-c2c3nc(c(-c4c(F)cccc4F)c4ccc([nH]4)c(-c4c(F)cccc4F)c4nc(c(-c5c(F)cccc5F)c5ccc2[nH]5)C=C4)C=C3)cc1
REMARK SMILES IDX 6 1 5 2 4 3 3 4 1 5 2 6 34 8 35 9 87 10 36 11 86 12 37 13
REMARK SMILES IDX 38 14 39 15 80 16 40 17 85 18 79 19 81 20 41 21 84 22 78 23
REMARK SMILES IDX 77 24 42 26 68 27 51 28 67 29 52 30 55 31 66 32 82 33 53 34
REMARK SMILES IDX 54 35 65 37 83 38 56 39 43 40 44 41 49 42 45 43 46 44 48 45
REMARK SMILES IDX 50 46 47 47 69 48 70 49 75 50 71 51 72 52 74 53 76 54 73 55
REMARK SMILES IDX 57 56 58 57 63 58 59 59 60 60 62 61 64 62 61 63 7 64 8 65
REMARK SMILES IDX 9 67 10 68 11 69 14 70 12 71 13 73 15 74 16 75 17 76 33 77
REMARK SMILES IDX 18 79 20 80 19 81 21 82 22 83 23 84 24 85 32 86 25 87 31 88
REMARK SMILES IDX 26 89 30 90 27 91 29 92 28 93
REMARK H PARENT 3 7 81 25 55 36 7 66 11 72 16 78
REMARK Flexibility Score: inf
ROOT
ATOM      1  C   UNL     1       4.280  -3.381  -1.462  1.00  0.00     0.118 C 
ENDROOT
BRANCH   1   2
ATOM      2  C   UNL     1       4.836  -2.194  -0.678  1.00  0.00     0.042 C 
BRANCH   2   3
ATOM      3  C   UNL     1       4.573  -0.841  -1.335  1.00  0.00     0.118 C 
BRANCH   3   4
ATOM      4  N   UNL     1       3.172  -0.444  -1.269  1.00  0.00    -0.352 N 
ATOM      5  O   UNL     1       1.265   0.378  -0.425  1.00  0.00    -0.269 OA
ATOM      6  C   UNL     1       2.493   0.362  -0.386  1.00  0.00     0.251 C 
ATOM      7  H   UNL     1       2.612  -0.820  -1.985  1.00  0.00     0.163 HD
BRANCH   6   8
ATOM      8  C   UNL     1       3.196   1.192   0.624  1.00  0.00     0.039 A 
ATOM      9  C   UNL     1       4.372   1.882   0.328  1.00  0.00     0.014 A 
ATOM     10  C   UNL     1       2.609   1.351   1.887  1.00  0.00     0.014 A 
ATOM     11  C   UNL     1       5.032   2.598   1.327  1.00  0.00     0.010 A 
ATOM     12  C   UNL     1       3.231   2.138   2.866  1.00  0.00     0.010 A 
ATOM     13  C   UNL     1       4.471   2.736   2.608  1.00  0.00    -0.014 A 
BRANCH  13  14
ATOM     14  C   UNL     1       5.205   3.521   3.637  1.00  0.00     0.031 A 
ATOM     15  C   UNL     1       5.779   2.855   4.859  1.00  0.00     0.074 A 
ATOM     16  C   UNL     1       5.434   4.833   3.426  1.00  0.00     0.049 A 
ATOM     17  N   UNL     1       6.552   3.365   5.785  1.00  0.00    -0.248 NA
ATOM     18  C   UNL     1       5.434   1.442   5.080  1.00  0.00     0.031 C 
ATOM     19  C   UNL     1       4.909   5.612   2.303  1.00  0.00     0.029 A 
ATOM     20  N   UNL     1       6.215   5.727   4.115  1.00  0.00    -0.354 N 
ATOM     21  C   UNL     1       6.747   2.355   6.718  1.00  0.00     0.074 A 
ATOM     22  C   UNL     1       6.019   1.197   6.244  1.00  0.00     0.031 C 
ATOM     23  C   UNL     1       5.461   6.836   2.322  1.00  0.00     0.029 A 
ATOM     24  C   UNL     1       6.357   6.933   3.471  1.00  0.00     0.049 A 
ATOM     25  H   UNL     1       6.632   5.525   4.984  1.00  0.00     0.167 HD
ATOM     26  C   UNL     1       7.466   2.386   7.865  1.00  0.00     0.037 A 
ATOM     27  C   UNL     1       7.151   7.983   3.751  1.00  0.00     0.037 A 
ATOM     28  C   UNL     1       8.245   3.506   8.317  1.00  0.00     0.049 A 
ATOM     29  C   UNL     1       8.040   7.949   4.957  1.00  0.00     0.074 A 
ATOM     30  C   UNL     1       9.015   3.619   9.463  1.00  0.00     0.029 A 
ATOM     31  N   UNL     1       8.371   4.702   7.631  1.00  0.00    -0.354 N 
ATOM     32  N   UNL     1       8.204   6.988   5.830  1.00  0.00    -0.248 NA
ATOM     33  C   UNL     1       8.846   9.151   5.221  1.00  0.00     0.031 C 
ATOM     34  C   UNL     1       9.614   4.885   9.465  1.00  0.00     0.029 A 
ATOM     35  C   UNL     1       9.216   5.554   8.320  1.00  0.00     0.049 A 
ATOM     36  H   UNL     1       7.926   4.914   6.778  1.00  0.00     0.167 HD
ATOM     37  C   UNL     1       9.115   7.472   6.757  1.00  0.00     0.074 A 
ATOM     38  C   UNL     1       9.495   8.801   6.324  1.00  0.00     0.031 C 
ATOM     39  C   UNL     1       9.581   6.872   7.878  1.00  0.00     0.037 A 
BRANCH  26  40
ATOM     40  C   UNL     1       7.433   1.161   8.723  1.00  0.00     0.057 A 
ATOM     41  C   UNL     1       8.269   0.065   8.465  1.00  0.00     0.134 A 
ATOM     42  C   UNL     1       6.574   1.093   9.831  1.00  0.00     0.134 A 
ATOM     43  F   UNL     1       9.097   0.069   7.408  1.00  0.00    -0.206 F 
ATOM     44  C   UNL     1       8.247  -1.065   9.284  1.00  0.00     0.040 A 
ATOM     45  C   UNL     1       6.551  -0.028  10.661  1.00  0.00     0.040 A 
ATOM     46  F   UNL     1       5.750   2.112  10.123  1.00  0.00    -0.206 F 
ATOM     47  C   UNL     1       7.389  -1.111  10.386  1.00  0.00     0.006 A 
ENDBRANCH  26  40
BRANCH  27  48
ATOM     48  C   UNL     1       7.187   9.136   2.822  1.00  0.00     0.057 A 
ATOM     49  C   UNL     1       8.237   9.270   1.899  1.00  0.00     0.134 A 
ATOM     50  C   UNL     1       6.170  10.101   2.816  1.00  0.00     0.134 A 
ATOM     51  F   UNL     1       9.241   8.379   1.874  1.00  0.00    -0.206 F 
ATOM     52  C   UNL     1       8.274  10.332   0.995  1.00  0.00     0.040 A 
ATOM     53  C   UNL     1       6.190  11.163   1.910  1.00  0.00     0.040 A 
ATOM     54  F   UNL     1       5.141  10.017   3.675  1.00  0.00    -0.206 F 
ATOM     55  C   UNL     1       7.245  11.278   0.998  1.00  0.00     0.006 A 
ENDBRANCH  27  48
BRANCH  39  56
ATOM     56  C   UNL     1      10.530   7.660   8.720  1.00  0.00     0.057 A 
ATOM     57  C   UNL     1      10.056   8.593   9.655  1.00  0.00     0.134 A 
ATOM     58  C   UNL     1      11.914   7.473   8.616  1.00  0.00     0.134 A 
ATOM     59  F   UNL     1       8.740   8.819   9.787  1.00  0.00    -0.206 F 
ATOM     60  C   UNL     1      10.934   9.321  10.459  1.00  0.00     0.040 A 
ATOM     61  C   UNL     1      12.801   8.192   9.418  1.00  0.00     0.040 A 
ATOM     62  F   UNL     1      12.422   6.596   7.734  1.00  0.00    -0.206 F 
ATOM     63  C   UNL     1      12.310   9.119  10.341  1.00  0.00     0.006 A 
ENDBRANCH  39  56
ENDBRANCH  13  14
ENDBRANCH   6   8
ENDBRANCH   3   4
ENDBRANCH   2   3
ENDBRANCH   1   2
BRANCH   1  64
ATOM     64  N   UNL     1       4.940  -3.538  -2.752  1.00  0.00    -0.351 N 
ATOM     65  C   UNL     1       5.932  -4.406  -3.135  1.00  0.00     0.269 C 
ATOM     66  H   UNL     1       4.627  -2.927  -3.458  1.00  0.00     0.163 HD
ATOM     67  O   UNL     1       6.587  -4.128  -4.134  1.00  0.00    -0.268 OA
BRANCH  65  68
ATOM     68  C   UNL     1       6.202  -5.579  -2.350  1.00  0.00     0.131 A 
ATOM     69  N   UNL     1       7.484  -5.991  -2.101  1.00  0.00    -0.272 N 
ATOM     70  C   UNL     1       5.384  -6.570  -1.816  1.00  0.00     0.057 A 
ATOM     71  N   UNL     1       7.562  -7.074  -1.313  1.00  0.00    -0.183 NA
ATOM     72  H   UNL     1       8.276  -5.534  -2.466  1.00  0.00     0.190 HD
ATOM     73  C   UNL     1       6.288  -7.433  -1.152  1.00  0.00     0.145 A 
BRANCH  70  74
ATOM     74  C   UNL     1       3.897  -6.686  -1.913  1.00  0.00     0.303 C 
BRANCH  74  75
ATOM     75  N   UNL     1       3.407  -7.847  -2.653  1.00  0.00    -0.330 N 
ATOM     76  C   UNL     1       4.065  -8.086  -3.937  1.00  0.00     0.262 C 
ATOM     77  C   UNL     1       3.275  -9.066  -1.860  1.00  0.00     0.274 C 
ATOM     78  H   UNL     1       2.454  -7.569  -2.889  1.00  0.00     0.348 HD
ATOM     79  C   UNL     1       3.215  -9.030  -4.784  1.00  0.00     0.062 C 
ATOM     80  C   UNL     1       2.416 -10.107  -2.590  1.00  0.00     0.116 C 
ATOM     81  C   UNL     1       2.849 -10.317  -4.045  1.00  0.00     0.023 C 
BRANCH  80  82
ATOM     82  C   UNL     1       0.930  -9.849  -2.328  1.00  0.00     0.171 C 
ATOM     83  O   UNL     1       0.333 -10.437  -1.424  1.00  0.00    -0.294 OA
BRANCH  82  84
ATOM     84  C   UNL     1       0.192  -8.787  -3.045  1.00  0.00     0.019 A 
ATOM     85  C   UNL     1      -0.215  -8.964  -4.367  1.00  0.00     0.012 A 
ATOM     86  C   UNL     1      -0.201  -7.649  -2.329  1.00  0.00     0.020 A 
ATOM     87  C   UNL     1      -0.963  -7.968  -5.000  1.00  0.00     0.009 A 
ATOM     88  C   UNL     1      -0.970  -6.649  -2.947  1.00  0.00    -0.018 A 
ATOM     89  C   UNL     1      -1.347  -6.807  -4.305  1.00  0.00    -0.018 A 
ATOM     90  C   UNL     1      -1.386  -5.502  -2.246  1.00  0.00     0.009 A 
ATOM     91  C   UNL     1      -2.116  -5.808  -4.925  1.00  0.00     0.009 A 
ATOM     92  C   UNL     1      -2.156  -4.522  -2.876  1.00  0.00     0.001 A 
ATOM     93  C   UNL     1      -2.518  -4.673  -4.213  1.00  0.00     0.001 A 
ENDBRANCH  82  84
ENDBRANCH  80  82
ENDBRANCH  74  75
ENDBRANCH  70  74
ENDBRANCH  65  68
ENDBRANCH   1  64
TORSDOF 14
