REMARK SMILES O=C(COc1ccc(F)cc1)Nc1sccc1C(=O)NCCCNC(=O)c1ccc(-c2c3nc(c(-c4c(F)cccc4F)c4ccc([nH]4)c(-c4c(F)cccc4F)c4nc(c(-c5c(F)cccc5F)c5ccc2[nH]5)C=C4)C=C3)cc1
REMARK SMILES IDX 21 1 20 2 18 3 19 4 17 6 13 7 14 8 15 9 16 10 12 11 1 12
REMARK SMILES IDX 2 13 3 15 4 16 5 17 6 18 11 19 7 20 10 21 8 22 9 23 22 24
REMARK SMILES IDX 23 25 24 26 25 27 26 29 27 30 28 31 80 32 29 33 79 34 30 35
REMARK SMILES IDX 31 36 32 37 73 38 33 39 78 40 72 41 74 42 34 43 77 44 71 45
REMARK SMILES IDX 70 46 35 48 61 49 44 50 60 51 45 52 48 53 59 54 75 55 46 56
REMARK SMILES IDX 47 57 58 59 76 60 49 61 36 62 37 63 42 64 38 65 39 66 41 67
REMARK SMILES IDX 43 68 40 69 62 70 63 71 68 72 64 73 65 74 67 75 69 76 66 77
REMARK SMILES IDX 50 78 51 79 56 80 52 81 53 82 55 83 57 84 54 85
REMARK H PARENT 20 5 12 14 24 28 74 47 48 58
REMARK Flexibility Score: inf
ROOT
ATOM      1  C   UNL     1       2.767   2.128  -1.211  1.00  0.00     0.118 C 
ENDROOT
BRANCH   1   2
ATOM      2  N   UNL     1       1.389   2.317  -1.606  1.00  0.00    -0.352 N 
ATOM      3  C   UNL     1       0.548   1.465  -2.284  1.00  0.00     0.254 C 
ATOM      4  O   UNL     1      -0.596   1.865  -2.511  1.00  0.00    -0.269 OA
ATOM      5  H   UNL     1       0.995   3.183  -1.353  1.00  0.00     0.163 HD
BRANCH   3   6
ATOM      6  C   UNL     1       1.042   0.219  -2.868  1.00  0.00     0.074 A 
ATOM      7  C   UNL     1       1.874  -0.748  -2.333  1.00  0.00     0.108 A 
ATOM      8  S   UNL     1       2.385  -1.903  -3.484  1.00  0.00    -0.126 S 
ATOM      9  C   UNL     1       1.307  -1.301  -4.657  1.00  0.00     0.068 A 
ATOM     10  C   UNL     1       0.656  -0.176  -4.207  1.00  0.00     0.028 A 
BRANCH   7  11
ATOM     11  N   UNL     1       2.422  -1.012  -1.100  1.00  0.00    -0.314 N 
ATOM     12  O   UNL     1       0.790  -0.063   0.258  1.00  0.00    -0.271 OA
ATOM     13  C   UNL     1       1.877  -0.611   0.105  1.00  0.00     0.262 C 
ATOM     14  H   UNL     1       3.263  -1.523  -1.074  1.00  0.00     0.170 HD
BRANCH  13  15
ATOM     15  C   UNL     1       2.847  -0.821   1.272  1.00  0.00     0.329 C 
BRANCH  15  16
ATOM     16  O   UNL     1       3.708  -1.946   1.075  1.00  0.00    -0.484 OA
BRANCH  16  17
ATOM     17  C   UNL     1       3.150  -3.058   1.642  1.00  0.00     0.120 A 
ATOM     18  C   UNL     1       2.204  -3.803   0.937  1.00  0.00     0.049 A 
ATOM     19  C   UNL     1       3.565  -3.439   2.917  1.00  0.00     0.049 A 
ATOM     20  C   UNL     1       1.626  -4.917   1.538  1.00  0.00     0.043 A 
ATOM     21  C   UNL     1       2.986  -4.557   3.513  1.00  0.00     0.043 A 
ATOM     22  C   UNL     1       2.018  -5.281   2.822  1.00  0.00     0.123 A 
ATOM     23  F   UNL     1       1.457  -6.349   3.400  1.00  0.00    -0.207 F 
ENDBRANCH  16  17
ENDBRANCH  15  16
ENDBRANCH  13  15
ENDBRANCH   7  11
ENDBRANCH   3   6
ENDBRANCH   1   2
BRANCH   1  24
ATOM     24  C   UNL     1       3.522   3.401  -0.882  1.00  0.00     0.042 C 
BRANCH  24  25
ATOM     25  C   UNL     1       2.932   4.193   0.280  1.00  0.00     0.118 C 
BRANCH  25  26
ATOM     26  N   UNL     1       2.880   3.468   1.550  1.00  0.00    -0.352 N 
ATOM     27  C   UNL     1       3.649   3.521   2.691  1.00  0.00     0.251 C 
ATOM     28  H   UNL     1       2.148   2.811   1.599  1.00  0.00     0.163 HD
ATOM     29  O   UNL     1       3.455   2.693   3.580  1.00  0.00    -0.269 OA
BRANCH  27  30
ATOM     30  C   UNL     1       4.742   4.510   2.846  1.00  0.00     0.039 A 
ATOM     31  C   UNL     1       5.910   4.142   3.524  1.00  0.00     0.014 A 
ATOM     32  C   UNL     1       4.640   5.795   2.326  1.00  0.00     0.014 A 
ATOM     33  C   UNL     1       7.008   5.010   3.551  1.00  0.00     0.010 A 
ATOM     34  C   UNL     1       5.771   6.595   2.224  1.00  0.00     0.010 A 
ATOM     35  C   UNL     1       6.975   6.213   2.829  1.00  0.00    -0.014 A 
BRANCH  35  36
ATOM     36  C   UNL     1       8.165   7.094   2.676  1.00  0.00     0.031 A 
ATOM     37  C   UNL     1       8.077   8.552   3.047  1.00  0.00     0.074 A 
ATOM     38  C   UNL     1       9.287   6.621   2.094  1.00  0.00     0.049 A 
ATOM     39  N   UNL     1       8.914   9.525   2.793  1.00  0.00    -0.248 NA
ATOM     40  C   UNL     1       6.857   8.981   3.752  1.00  0.00     0.031 C 
ATOM     41  C   UNL     1       9.496   5.246   1.638  1.00  0.00     0.029 A 
ATOM     42  N   UNL     1      10.463   7.255   1.776  1.00  0.00    -0.354 N 
ATOM     43  C   UNL     1       8.302  10.681   3.263  1.00  0.00     0.074 A 
ATOM     44  C   UNL     1       7.000  10.297   3.763  1.00  0.00     0.031 C 
ATOM     45  C   UNL     1      10.740   5.127   1.147  1.00  0.00     0.029 A 
ATOM     46  C   UNL     1      11.397   6.428   1.199  1.00  0.00     0.049 A 
ATOM     47  H   UNL     1      10.623   8.211   1.946  1.00  0.00     0.167 HD
ATOM     48  C   UNL     1       8.790  11.943   3.304  1.00  0.00     0.037 A 
ATOM     49  C   UNL     1      12.642   6.688   0.757  1.00  0.00     0.037 A 
ATOM     50  C   UNL     1      10.111  12.312   2.873  1.00  0.00     0.049 A 
ATOM     51  C   UNL     1      13.178   8.088   0.843  1.00  0.00     0.074 A 
ATOM     52  C   UNL     1      10.721  13.553   2.928  1.00  0.00     0.029 A 
ATOM     53  N   UNL     1      11.036  11.433   2.329  1.00  0.00    -0.354 N 
ATOM     54  N   UNL     1      12.591   9.168   1.299  1.00  0.00    -0.248 NA
ATOM     55  C   UNL     1      14.545   8.308   0.350  1.00  0.00     0.031 C 
ATOM     56  C   UNL     1      12.010  13.429   2.401  1.00  0.00     0.029 A 
ATOM     57  C   UNL     1      12.213  12.105   2.047  1.00  0.00     0.049 A 
ATOM     58  H   UNL     1      10.878  10.475   2.167  1.00  0.00     0.167 HD
ATOM     59  C   UNL     1      13.522  10.189   1.169  1.00  0.00     0.074 A 
ATOM     60  C   UNL     1      14.716   9.600   0.599  1.00  0.00     0.031 C 
ATOM     61  C   UNL     1      13.396  11.498   1.493  1.00  0.00     0.037 A 
BRANCH  48  62
ATOM     62  C   UNL     1       7.896  13.011   3.864  1.00  0.00     0.057 A 
ATOM     63  C   UNL     1       7.366  14.011   3.040  1.00  0.00     0.134 A 
ATOM     64  C   UNL     1       7.580  13.064   5.229  1.00  0.00     0.134 A 
ATOM     65  F   UNL     1       7.635  14.025   1.725  1.00  0.00    -0.206 F 
ATOM     66  C   UNL     1       6.552  15.023   3.552  1.00  0.00     0.040 A 
ATOM     67  C   UNL     1       6.744  14.053   5.747  1.00  0.00     0.040 A 
ATOM     68  F   UNL     1       8.044  12.127   6.070  1.00  0.00    -0.206 F 
ATOM     69  C   UNL     1       6.233  15.041   4.908  1.00  0.00     0.006 A 
ENDBRANCH  48  62
BRANCH  49  70
ATOM     70  C   UNL     1      13.485   5.580   0.243  1.00  0.00     0.057 A 
ATOM     71  C   UNL     1      13.246   4.977  -0.996  1.00  0.00     0.134 A 
ATOM     72  C   UNL     1      14.539   5.076   1.015  1.00  0.00     0.134 A 
ATOM     73  F   UNL     1      12.244   5.408  -1.777  1.00  0.00    -0.206 F 
ATOM     74  C   UNL     1      14.016   3.902  -1.445  1.00  0.00     0.040 A 
ATOM     75  C   UNL     1      15.329   4.015   0.571  1.00  0.00     0.040 A 
ATOM     76  F   UNL     1      14.825   5.625   2.205  1.00  0.00    -0.206 F 
ATOM     77  C   UNL     1      15.062   3.420  -0.660  1.00  0.00     0.006 A 
ENDBRANCH  49  70
BRANCH  61  78
ATOM     78  C   UNL     1      14.584  12.384   1.273  1.00  0.00     0.057 A 
ATOM     79  C   UNL     1      15.330  12.856   2.361  1.00  0.00     0.134 A 
ATOM     80  C   UNL     1      14.938  12.834  -0.004  1.00  0.00     0.134 A 
ATOM     81  F   UNL     1      15.033  12.467   3.610  1.00  0.00    -0.206 F 
ATOM     82  C   UNL     1      16.379  13.758   2.186  1.00  0.00     0.040 A 
ATOM     83  C   UNL     1      15.998  13.721  -0.193  1.00  0.00     0.040 A 
ATOM     84  F   UNL     1      14.267  12.408  -1.085  1.00  0.00    -0.206 F 
ATOM     85  C   UNL     1      16.715  14.194   0.906  1.00  0.00     0.006 A 
ENDBRANCH  61  78
ENDBRANCH  35  36
ENDBRANCH  27  30
ENDBRANCH  25  26
ENDBRANCH  24  25
ENDBRANCH   1  24
TORSDOF 14
