REMARK SMILES CC1(C)CCC[C@H]1NC(=O)N[C@@H]1COC[C@@]1(C)C(=O)NCCCNC(=O)c1ccc(-c2c3nc(c(-c4c(F)cccc4F)c4ccc([nH]4)c(-c4c(F)cccc4F)c4nc(c(-c5c(F)cccc5F)c5ccc2[nH]5)C=C4)C=C3)cc1
REMARK SMILES IDX 22 1 21 2 20 3 18 4 19 5 16 7 12 8 13 9 14 10 15 11 17 12
REMARK SMILES IDX 11 13 8 14 9 15 10 17 7 19 1 20 2 21 3 22 4 23 5 24 6 25
REMARK SMILES IDX 23 26 24 27 25 28 26 30 27 31 28 32 80 33 29 34 79 35 30 36
REMARK SMILES IDX 31 37 32 38 73 39 33 40 78 41 72 42 74 43 34 44 77 45 71 46
REMARK SMILES IDX 70 47 35 49 61 50 44 51 60 52 45 53 48 54 59 55 75 56 46 57
REMARK SMILES IDX 47 58 58 60 76 61 49 62 36 63 37 64 42 65 38 66 39 67 41 68
REMARK SMILES IDX 43 69 40 70 62 71 63 72 68 73 64 74 65 75 67 76 69 77 66 78
REMARK SMILES IDX 50 79 51 80 56 81 52 82 53 83 55 84 57 85 54 86
REMARK H PARENT 20 6 8 16 11 18 24 29 74 48 48 59
REMARK Flexibility Score: inf
ROOT
ATOM      1  C   UNL     1       3.763   2.393   2.595  1.00  0.00     0.042 C 
ENDROOT
BRANCH   1   2
ATOM      2  C   UNL     1       3.417   3.727   1.936  1.00  0.00     0.117 C 
BRANCH   2   3
ATOM      3  N   UNL     1       3.834   3.903   0.554  1.00  0.00    -0.355 N 
ATOM      4  C   UNL     1       3.168   3.788  -0.630  1.00  0.00     0.230 C 
ATOM      5  O   UNL     1       3.728   4.292  -1.609  1.00  0.00    -0.274 OA
ATOM      6  H   UNL     1       4.781   4.153   0.455  1.00  0.00     0.163 HD
BRANCH   4   7
ATOM      7  C   UNL     1       1.867   2.986  -0.784  1.00  0.00     0.092 C 
ATOM      8  C   UNL     1       0.604   3.631  -0.179  1.00  0.00     0.127 C 
ATOM      9  C   UNL     1      -0.492   3.542  -1.239  1.00  0.00     0.186 C 
ATOM     10  O   UNL     1       0.047   2.779  -2.320  1.00  0.00    -0.378 OA
ATOM     11  C   UNL     1       1.469   2.981  -2.279  1.00  0.00     0.179 C 
ATOM     12  C   UNL     1       2.175   1.556  -0.380  1.00  0.00     0.026 C 
BRANCH   8  13
ATOM     13  N   UNL     1       0.152   3.284   1.174  1.00  0.00    -0.332 N 
ATOM     14  N   UNL     1      -0.610   1.047   1.487  1.00  0.00    -0.335 N 
ATOM     15  C   UNL     1      -0.309   2.272   1.899  1.00  0.00     0.315 C 
ATOM     16  H   UNL     1      -0.723   0.430   2.246  1.00  0.00     0.165 HD
ATOM     17  O   UNL     1      -0.450   2.500   3.106  1.00  0.00    -0.249 OA
ATOM     18  H   UNL     1       0.212   4.083   1.745  1.00  0.00     0.165 HD
BRANCH  14  19
ATOM     19  C   UNL     1      -0.818   0.365   0.212  1.00  0.00     0.089 C 
ATOM     20  C   UNL     1       1.006  -1.333   1.082  1.00  0.00     0.013 C 
ATOM     21  C   UNL     1      -0.219  -1.084   0.186  1.00  0.00    -0.015 C 
ATOM     22  C   UNL     1       0.144  -1.499  -1.259  1.00  0.00     0.013 C 
ATOM     23  C   UNL     1      -1.393  -1.940   0.688  1.00  0.00     0.008 C 
ATOM     24  C   UNL     1      -2.606  -1.335   0.009  1.00  0.00     0.003 C 
ATOM     25  C   UNL     1      -2.338   0.169  -0.005  1.00  0.00     0.025 C 
ENDBRANCH  14  19
ENDBRANCH   8  13
ENDBRANCH   4   7
ENDBRANCH   2   3
ENDBRANCH   1   2
BRANCH   1  26
ATOM     26  C   UNL     1       5.248   2.067   2.712  1.00  0.00     0.118 C 
BRANCH  26  27
ATOM     27  N   UNL     1       5.958   3.005   3.561  1.00  0.00    -0.352 N 
ATOM     28  C   UNL     1       6.501   2.886   4.814  1.00  0.00     0.251 C 
ATOM     29  H   UNL     1       6.072   3.897   3.160  1.00  0.00     0.163 HD
ATOM     30  O   UNL     1       6.835   3.918   5.393  1.00  0.00    -0.269 OA
BRANCH  28  31
ATOM     31  C   UNL     1       6.713   1.581   5.494  1.00  0.00     0.039 A 
ATOM     32  C   UNL     1       6.668   1.567   6.895  1.00  0.00     0.014 A 
ATOM     33  C   UNL     1       7.084   0.415   4.818  1.00  0.00     0.014 A 
ATOM     34  C   UNL     1       6.982   0.405   7.606  1.00  0.00     0.010 A 
ATOM     35  C   UNL     1       7.331  -0.768   5.527  1.00  0.00     0.010 A 
ATOM     36  C   UNL     1       7.309  -0.779   6.930  1.00  0.00    -0.014 A 
BRANCH  36  37
ATOM     37  C   UNL     1       7.649  -2.009   7.695  1.00  0.00     0.031 A 
ATOM     38  C   UNL     1       9.042  -2.581   7.668  1.00  0.00     0.074 A 
ATOM     39  C   UNL     1       6.695  -2.629   8.416  1.00  0.00     0.049 A 
ATOM     40  N   UNL     1       9.526  -3.615   8.312  1.00  0.00    -0.248 NA
ATOM     41  C   UNL     1      10.013  -1.920   6.784  1.00  0.00     0.031 C 
ATOM     42  C   UNL     1       5.291  -2.223   8.479  1.00  0.00     0.029 A 
ATOM     43  N   UNL     1       6.762  -3.731   9.231  1.00  0.00    -0.354 N 
ATOM     44  C   UNL     1      10.848  -3.736   7.902  1.00  0.00     0.074 A 
ATOM     45  C   UNL     1      11.077  -2.699   6.919  1.00  0.00     0.031 C 
ATOM     46  C   UNL     1       4.633  -3.052   9.305  1.00  0.00     0.029 A 
ATOM     47  C   UNL     1       5.564  -4.054   9.817  1.00  0.00     0.049 A 
ATOM     48  H   UNL     1       7.590  -4.242   9.380  1.00  0.00     0.167 HD
ATOM     49  C   UNL     1      11.791  -4.617   8.318  1.00  0.00     0.037 A 
ATOM     50  C   UNL     1       5.247  -5.038  10.679  1.00  0.00     0.037 A 
ATOM     51  C   UNL     1      11.576  -5.634   9.315  1.00  0.00     0.049 A 
ATOM     52  C   UNL     1       6.319  -5.968  11.171  1.00  0.00     0.074 A 
ATOM     53  C   UNL     1      12.491  -6.518   9.861  1.00  0.00     0.029 A 
ATOM     54  N   UNL     1      10.354  -5.907   9.912  1.00  0.00    -0.354 N 
ATOM     55  N   UNL     1       7.587  -6.012  10.842  1.00  0.00    -0.248 NA
ATOM     56  C   UNL     1       5.919  -6.971  12.167  1.00  0.00     0.031 C 
ATOM     57  C   UNL     1      11.815  -7.351  10.761  1.00  0.00     0.029 A 
ATOM     58  C   UNL     1      10.486  -6.961  10.803  1.00  0.00     0.049 A 
ATOM     59  H   UNL     1       9.516  -5.425   9.729  1.00  0.00     0.167 HD
ATOM     60  C   UNL     1       8.139  -7.041  11.593  1.00  0.00     0.074 A 
ATOM     61  C   UNL     1       7.072  -7.576  12.415  1.00  0.00     0.031 C 
ATOM     62  C   UNL     1       9.414  -7.501  11.600  1.00  0.00     0.037 A 
BRANCH  49  63
ATOM     63  C   UNL     1      13.150  -4.515   7.685  1.00  0.00     0.057 A 
ATOM     64  C   UNL     1      14.016  -3.447   7.957  1.00  0.00     0.134 A 
ATOM     65  C   UNL     1      13.603  -5.503   6.802  1.00  0.00     0.134 A 
ATOM     66  F   UNL     1      13.640  -2.462   8.786  1.00  0.00    -0.206 F 
ATOM     67  C   UNL     1      15.268  -3.347   7.346  1.00  0.00     0.040 A 
ATOM     68  C   UNL     1      14.863  -5.428   6.205  1.00  0.00     0.040 A 
ATOM     69  F   UNL     1      12.830  -6.558   6.503  1.00  0.00    -0.206 F 
ATOM     70  C   UNL     1      15.696  -4.342   6.470  1.00  0.00     0.006 A 
ENDBRANCH  49  63
BRANCH  50  71
ATOM     71  C   UNL     1       3.850  -5.162  11.158  1.00  0.00     0.057 A 
ATOM     72  C   UNL     1       3.491  -4.769  12.452  1.00  0.00     0.134 A 
ATOM     73  C   UNL     1       2.835  -5.640  10.320  1.00  0.00     0.134 A 
ATOM     74  F   UNL     1       4.424  -4.320  13.304  1.00  0.00    -0.206 F 
ATOM     75  C   UNL     1       2.172  -4.851  12.899  1.00  0.00     0.040 A 
ATOM     76  C   UNL     1       1.509  -5.708  10.748  1.00  0.00     0.040 A 
ATOM     77  F   UNL     1       3.118  -6.024   9.067  1.00  0.00    -0.206 F 
ATOM     78  C   UNL     1       1.175  -5.314  12.042  1.00  0.00     0.006 A 
ENDBRANCH  50  71
BRANCH  62  79
ATOM     79  C   UNL     1       9.717  -8.645  12.521  1.00  0.00     0.057 A 
ATOM     80  C   UNL     1       9.267  -9.944  12.252  1.00  0.00     0.134 A 
ATOM     81  C   UNL     1      10.470  -8.450  13.685  1.00  0.00     0.134 A 
ATOM     82  F   UNL     1       8.528 -10.195  11.160  1.00  0.00    -0.206 F 
ATOM     83  C   UNL     1       9.530 -11.003  13.123  1.00  0.00     0.040 A 
ATOM     84  C   UNL     1      10.760  -9.505  14.552  1.00  0.00     0.040 A 
ATOM     85  F   UNL     1      10.937  -7.232  13.999  1.00  0.00    -0.206 F 
ATOM     86  C   UNL     1      10.283 -10.785  14.275  1.00  0.00     0.006 A 
ENDBRANCH  62  79
ENDBRANCH  36  37
ENDBRANCH  28  31
ENDBRANCH  26  27
ENDBRANCH   1  26
TORSDOF 12
