REMARK SMILES Cn1ccc(NS(=O)(=O)c2ccc(C(=O)NCCCNC(=O)c3ccc(-c4c5nc(c(-c6c(F)cccc6F)c6ccc([nH]6)c(-c6c(F)cccc6F)c6nc(c(-c7c(F)cccc7F)c7ccc4[nH]7)C=C6)C=C5)cc3)cc2F)n1
REMARK SMILES IDX 17 1 16 2 14 3 15 4 13 6 10 7 11 8 78 9 12 10 77 11 79 12
REMARK SMILES IDX 7 13 8 14 9 15 6 16 5 18 1 19 2 20 3 21 80 22 4 23 18 24
REMARK SMILES IDX 19 25 20 26 21 27 22 29 23 30 24 31 76 32 25 33 75 34 26 35
REMARK SMILES IDX 27 36 28 37 69 38 29 39 74 40 68 41 70 42 30 43 73 44 67 45
REMARK SMILES IDX 66 46 31 48 57 49 40 50 56 51 41 52 44 53 55 54 71 55 42 56
REMARK SMILES IDX 43 57 54 59 72 60 45 61 32 62 33 63 38 64 34 65 35 66 37 67
REMARK SMILES IDX 39 68 36 69 58 70 59 71 64 72 60 73 61 74 63 75 65 76 62 77
REMARK SMILES IDX 46 78 47 79 52 80 48 81 49 82 51 83 53 84 50 85
REMARK H PARENT 16 5 6 17 20 28 70 47 44 58
REMARK Flexibility Score: inf
ROOT
ATOM      1  C   UNL     1      -3.521   7.208   0.938  1.00  0.00     0.118 C 
ENDROOT
BRANCH   1   2
ATOM      2  N   UNL     1      -4.032   5.897   0.591  1.00  0.00    -0.352 N 
ATOM      3  C   UNL     1      -3.502   4.778   0.007  1.00  0.00     0.251 C 
ATOM      4  O   UNL     1      -4.310   3.887  -0.271  1.00  0.00    -0.269 OA
ATOM      5  H   UNL     1      -4.981   5.785   0.830  1.00  0.00     0.163 HD
BRANCH   3   6
ATOM      6  C   UNL     1      -2.052   4.533  -0.266  1.00  0.00     0.042 A 
ATOM      7  C   UNL     1       0.608   3.603  -0.426  1.00  0.00     0.123 A 
ATOM      8  C   UNL     1      -0.414   2.863  -1.017  1.00  0.00     0.026 A 
ATOM      9  C   UNL     1       0.319   4.864   0.075  1.00  0.00     0.144 A 
ATOM     10  C   UNL     1      -1.736   3.312  -0.897  1.00  0.00     0.015 A 
ATOM     11  C   UNL     1      -0.991   5.339   0.132  1.00  0.00     0.054 A 
ATOM     12  F   UNL     1       1.293   5.659   0.538  1.00  0.00    -0.205 F 
BRANCH   7  13
ATOM     13  S   UNL     1       2.230   2.981  -0.115  1.00  0.00     0.266 S 
ATOM     14  O   UNL     1       2.524   3.174   1.288  1.00  0.00    -0.201 OA
ATOM     15  O   UNL     1       3.073   3.557  -1.134  1.00  0.00    -0.201 OA
BRANCH  13  16
ATOM     16  N   UNL     1       2.283   1.344  -0.415  1.00  0.00    -0.262 N 
ATOM     17  H   UNL     1       3.011   1.042  -1.004  1.00  0.00     0.182 HD
BRANCH  16  18
ATOM     18  C   UNL     1       1.441   0.354   0.055  1.00  0.00     0.161 A 
ATOM     19  C   UNL     1      -1.796  -0.653   0.745  1.00  0.00     0.173 C 
ATOM     20  N   UNL     1      -0.361  -0.602   0.585  1.00  0.00    -0.274 N 
ATOM     21  C   UNL     1       0.455  -1.621   0.190  1.00  0.00     0.110 A 
ATOM     22  N   UNL     1       0.264   0.588   0.624  1.00  0.00    -0.155 NA
ATOM     23  C   UNL     1       1.643  -1.024  -0.161  1.00  0.00     0.069 A 
ENDBRANCH  16  18
ENDBRANCH  13  16
ENDBRANCH   7  13
ENDBRANCH   3   6
ENDBRANCH   1   2
BRANCH   1  24
ATOM     24  C   UNL     1      -3.468   8.125  -0.280  1.00  0.00     0.042 C 
BRANCH  24  25
ATOM     25  C   UNL     1      -4.858   8.596  -0.713  1.00  0.00     0.118 C 
BRANCH  25  26
ATOM     26  N   UNL     1      -5.439   9.516   0.259  1.00  0.00    -0.352 N 
ATOM     27  C   UNL     1      -5.764  10.842   0.130  1.00  0.00     0.251 C 
ATOM     28  H   UNL     1      -5.625   9.125   1.143  1.00  0.00     0.163 HD
ATOM     29  O   UNL     1      -5.992  11.516   1.129  1.00  0.00    -0.269 OA
BRANCH  27  30
ATOM     30  C   UNL     1      -5.848  11.461  -1.208  1.00  0.00     0.039 A 
ATOM     31  C   UNL     1      -5.303  12.734  -1.401  1.00  0.00     0.014 A 
ATOM     32  C   UNL     1      -6.513  10.813  -2.253  1.00  0.00     0.014 A 
ATOM     33  C   UNL     1      -5.375  13.335  -2.659  1.00  0.00     0.010 A 
ATOM     34  C   UNL     1      -6.538  11.389  -3.519  1.00  0.00     0.010 A 
ATOM     35  C   UNL     1      -5.971  12.654  -3.733  1.00  0.00    -0.014 A 
BRANCH  35  36
ATOM     36  C   UNL     1      -6.006  13.240  -5.095  1.00  0.00     0.031 A 
ATOM     37  C   UNL     1      -7.317  13.627  -5.716  1.00  0.00     0.074 A 
ATOM     38  C   UNL     1      -4.862  13.352  -5.797  1.00  0.00     0.049 A 
ATOM     39  N   UNL     1      -7.563  14.041  -6.933  1.00  0.00    -0.248 NA
ATOM     40  C   UNL     1      -8.512  13.512  -4.865  1.00  0.00     0.031 C 
ATOM     41  C   UNL     1      -3.532  12.983  -5.309  1.00  0.00     0.029 A 
ATOM     42  N   UNL     1      -4.638  13.793  -7.076  1.00  0.00    -0.354 N 
ATOM     43  C   UNL     1      -8.939  14.218  -6.999  1.00  0.00     0.074 A 
ATOM     44  C   UNL     1      -9.479  13.833  -5.713  1.00  0.00     0.031 C 
ATOM     45  C   UNL     1      -2.629  13.229  -6.271  1.00  0.00     0.029 A 
ATOM     46  C   UNL     1      -3.319  13.734  -7.455  1.00  0.00     0.049 A 
ATOM     47  H   UNL     1      -5.354  14.121  -7.667  1.00  0.00     0.167 HD
ATOM     48  C   UNL     1      -9.680  14.675  -8.036  1.00  0.00     0.037 A 
ATOM     49  C   UNL     1      -2.734  14.040  -8.627  1.00  0.00     0.037 A 
ATOM     50  C   UNL     1      -9.134  15.087  -9.302  1.00  0.00     0.049 A 
ATOM     51  C   UNL     1      -3.579  14.537  -9.765  1.00  0.00     0.074 A 
ATOM     52  C   UNL     1      -9.799  15.617 -10.394  1.00  0.00     0.029 A 
ATOM     53  N   UNL     1      -7.792  15.018  -9.642  1.00  0.00    -0.354 N 
ATOM     54  N   UNL     1      -4.874  14.730  -9.804  1.00  0.00    -0.248 NA
ATOM     55  C   UNL     1      -2.884  14.854 -11.021  1.00  0.00     0.031 C 
ATOM     56  C   UNL     1      -8.863  15.839 -11.408  1.00  0.00     0.029 A 
ATOM     57  C   UNL     1      -7.610  15.482 -10.934  1.00  0.00     0.049 A 
ATOM     58  H   UNL     1      -7.075  14.689  -9.053  1.00  0.00     0.167 HD
ATOM     59  C   UNL     1      -5.149  15.208 -11.078  1.00  0.00     0.074 A 
ATOM     60  C   UNL     1      -3.884  15.284 -11.780  1.00  0.00     0.031 C 
ATOM     61  C   UNL     1      -6.343  15.554 -11.615  1.00  0.00     0.037 A 
BRANCH  48  62
ATOM     62  C   UNL     1     -11.164  14.768  -7.843  1.00  0.00     0.057 A 
ATOM     63  C   UNL     1     -12.028  13.892  -8.512  1.00  0.00     0.134 A 
ATOM     64  C   UNL     1     -11.739  15.762  -7.044  1.00  0.00     0.134 A 
ATOM     65  F   UNL     1     -11.541  12.921  -9.299  1.00  0.00    -0.206 F 
ATOM     66  C   UNL     1     -13.415  14.008  -8.397  1.00  0.00     0.040 A 
ATOM     67  C   UNL     1     -13.124  15.874  -6.903  1.00  0.00     0.040 A 
ATOM     68  F   UNL     1     -10.965  16.625  -6.369  1.00  0.00    -0.206 F 
ATOM     69  C   UNL     1     -13.966  15.000  -7.588  1.00  0.00     0.006 A 
ENDBRANCH  48  62
BRANCH  49  70
ATOM     70  C   UNL     1      -1.264  13.905  -8.768  1.00  0.00     0.057 A 
ATOM     71  C   UNL     1      -0.645  12.652  -8.839  1.00  0.00     0.134 A 
ATOM     72  C   UNL     1      -0.441  15.036  -8.797  1.00  0.00     0.134 A 
ATOM     73  F   UNL     1      -1.380  11.531  -8.808  1.00  0.00    -0.206 F 
ATOM     74  C   UNL     1       0.743  12.528  -8.918  1.00  0.00     0.040 A 
ATOM     75  C   UNL     1       0.946  14.928  -8.895  1.00  0.00     0.040 A 
ATOM     76  F   UNL     1      -0.980  16.263  -8.748  1.00  0.00    -0.206 F 
ATOM     77  C   UNL     1       1.543  13.669  -8.948  1.00  0.00     0.006 A 
ENDBRANCH  49  70
BRANCH  61  78
ATOM     78  C   UNL     1      -6.347  16.062 -13.024  1.00  0.00     0.057 A 
ATOM     79  C   UNL     1      -6.559  17.421 -13.291  1.00  0.00     0.134 A 
ATOM     80  C   UNL     1      -6.228  15.195 -14.116  1.00  0.00     0.134 A 
ATOM     81  F   UNL     1      -6.691  18.300 -12.286  1.00  0.00    -0.206 F 
ATOM     82  C   UNL     1      -6.669  17.897 -14.598  1.00  0.00     0.040 A 
ATOM     83  C   UNL     1      -6.317  15.662 -15.427  1.00  0.00     0.040 A 
ATOM     84  F   UNL     1      -6.013  13.885 -13.922  1.00  0.00    -0.206 F 
ATOM     85  C   UNL     1      -6.548  17.015 -15.671  1.00  0.00     0.006 A 
ENDBRANCH  61  78
ENDBRANCH  35  36
ENDBRANCH  27  30
ENDBRANCH  25  26
ENDBRANCH  24  25
ENDBRANCH   1  24
TORSDOF 13
