REMARK SMILES COc1ccc(C[NH2+]Cc2cccn2-c2sc(C)c(C)c2C(=O)NCCCNC(=O)c2ccc(-c3c4nc(c(-c5c(F)cccc5F)c5ccc([nH]5)c(-c5c(F)cccc5F)c5nc(c(-c6c(F)cccc6F)c6ccc3[nH]6)C=C5)C=C4)cc2)cc1
REMARK SMILES IDX 22 1 23 2 24 3 21 5 15 6 16 7 17 8 19 9 18 10 20 11 14 12
REMARK SMILES IDX 10 13 11 14 12 15 13 16 9 17 8 18 7 21 6 22 3 23 4 24 86 25
REMARK SMILES IDX 5 26 85 27 2 28 1 29 25 30 26 31 27 32 28 33 29 34 30 36
REMARK SMILES IDX 31 37 32 38 84 39 33 40 83 41 34 42 35 43 36 44 77 45 37 46
REMARK SMILES IDX 82 47 76 48 78 49 38 50 81 51 75 52 74 53 39 55 65 56 48 57
REMARK SMILES IDX 64 58 49 59 52 60 63 61 79 62 50 63 51 64 62 66 80 67 53 68
REMARK SMILES IDX 40 69 41 70 46 71 42 72 43 73 45 74 47 75 44 76 66 77 67 78
REMARK SMILES IDX 72 79 68 80 69 81 71 82 73 83 70 84 54 85 55 86 60 87 56 88
REMARK SMILES IDX 57 89 59 90 61 91 58 92
REMARK H PARENT 24 4 8 19 8 20 28 35 78 54 52 65
REMARK Flexibility Score: inf
ROOT
ATOM      1  C   UNL     1       4.024  -0.790  10.600  1.00  0.00     0.254 C 
ATOM      2  O   UNL     1       4.261  -1.757  11.328  1.00  0.00    -0.269 OA
ATOM      3  N   UNL     1       4.248   0.444  11.171  1.00  0.00    -0.352 N 
ATOM      4  H   UNL     1       4.519   0.440  12.117  1.00  0.00     0.163 HD
ENDROOT
BRANCH   1   5
ATOM      5  C   UNL     1       3.472  -0.993   9.238  1.00  0.00     0.078 A 
ATOM      6  C   UNL     1       3.665  -0.288   8.054  1.00  0.00     0.113 A 
ATOM      7  S   UNL     1       3.176  -1.170   6.681  1.00  0.00    -0.122 S 
ATOM      8  C   UNL     1       2.182  -2.178   7.612  1.00  0.00     0.007 A 
ATOM      9  C   UNL     1       2.552  -2.123   8.948  1.00  0.00    -0.022 A 
ATOM     10  C   UNL     1       1.162  -3.026   6.927  1.00  0.00     0.057 C 
ATOM     11  C   UNL     1       2.052  -3.092   9.980  1.00  0.00     0.046 C 
BRANCH   6  12
ATOM     12  N   UNL     1       4.375   0.876   7.740  1.00  0.00    -0.306 N 
ATOM     13  C   UNL     1       3.867   2.174   7.524  1.00  0.00     0.078 A 
ATOM     14  C   UNL     1       4.944   3.012   7.277  1.00  0.00     0.029 A 
ATOM     15  C   UNL     1       6.119   2.235   7.299  1.00  0.00     0.020 A 
ATOM     16  C   UNL     1       5.747   0.938   7.567  1.00  0.00     0.092 A 
BRANCH  13  17
ATOM     17  C   UNL     1       2.420   2.580   7.683  1.00  0.00     0.316 C 
BRANCH  17  18
ATOM     18  N   UNL     1       1.773   2.892   6.405  1.00  0.00    -0.338 N 
ATOM     19  H   UNL     1       0.907   3.403   6.573  1.00  0.00     0.346 HD
ATOM     20  H   UNL     1       2.388   3.469   5.832  1.00  0.00     0.346 HD
BRANCH  18  21
ATOM     21  C   UNL     1       1.482   1.642   5.724  1.00  0.00     0.297 C 
BRANCH  21  22
ATOM     22  C   UNL     1       1.175   1.735   4.262  1.00  0.00     0.006 A 
ATOM     23  C   UNL     1       0.568   1.385   1.560  1.00  0.00     0.118 A 
ATOM     24  C   UNL     1      -0.418   1.814   2.453  1.00  0.00     0.047 A 
ATOM     25  C   UNL     1       1.880   1.225   1.997  1.00  0.00     0.047 A 
ATOM     26  C   UNL     1      -0.119   1.986   3.805  1.00  0.00     0.013 A 
ATOM     27  C   UNL     1       2.183   1.404   3.342  1.00  0.00     0.013 A 
BRANCH  23  28
ATOM     28  O   UNL     1       0.160   1.156   0.273  1.00  0.00    -0.497 OA
ATOM     29  C   UNL     1       0.820   0.059  -0.356  1.00  0.00     0.278 C 
ENDBRANCH  23  28
ENDBRANCH  21  22
ENDBRANCH  18  21
ENDBRANCH  17  18
ENDBRANCH  13  17
ENDBRANCH   6  12
ENDBRANCH   1   5
BRANCH   3  30
ATOM     30  C   UNL     1       4.134   1.729  10.555  1.00  0.00     0.118 C 
BRANCH  30  31
ATOM     31  C   UNL     1       3.868   2.948  11.415  1.00  0.00     0.042 C 
BRANCH  31  32
ATOM     32  C   UNL     1       5.062   3.386  12.237  1.00  0.00     0.118 C 
BRANCH  32  33
ATOM     33  N   UNL     1       6.221   3.786  11.454  1.00  0.00    -0.352 N 
ATOM     34  C   UNL     1       7.389   4.371  11.928  1.00  0.00     0.251 C 
ATOM     35  H   UNL     1       6.173   3.625  10.484  1.00  0.00     0.163 HD
ATOM     36  O   UNL     1       8.225   4.822  11.168  1.00  0.00    -0.269 OA
BRANCH  34  37
ATOM     37  C   UNL     1       7.546   4.499  13.388  1.00  0.00     0.039 A 
ATOM     38  C   UNL     1       7.800   5.763  13.927  1.00  0.00     0.014 A 
ATOM     39  C   UNL     1       7.315   3.397  14.218  1.00  0.00     0.014 A 
ATOM     40  C   UNL     1       7.690   5.947  15.302  1.00  0.00     0.010 A 
ATOM     41  C   UNL     1       7.120   3.593  15.574  1.00  0.00     0.010 A 
ATOM     42  C   UNL     1       7.289   4.874  16.113  1.00  0.00    -0.014 A 
BRANCH  42  43
ATOM     43  C   UNL     1       6.944   5.130  17.529  1.00  0.00     0.031 A 
ATOM     44  C   UNL     1       5.662   5.951  17.694  1.00  0.00     0.074 A 
ATOM     45  C   UNL     1       7.789   4.611  18.465  1.00  0.00     0.049 A 
ATOM     46  N   UNL     1       5.333   6.804  18.615  1.00  0.00    -0.248 NA
ATOM     47  C   UNL     1       4.626   5.876  16.629  1.00  0.00     0.031 C 
ATOM     48  C   UNL     1       8.980   3.808  18.130  1.00  0.00     0.029 A 
ATOM     49  N   UNL     1       7.844   4.632  19.844  1.00  0.00    -0.354 N 
ATOM     50  C   UNL     1       4.011   7.224  18.352  1.00  0.00     0.074 A 
ATOM     51  C   UNL     1       3.683   6.723  17.050  1.00  0.00     0.031 C 
ATOM     52  C   UNL     1       9.656   3.469  19.240  1.00  0.00     0.029 A 
ATOM     53  C   UNL     1       8.990   4.013  20.405  1.00  0.00     0.049 A 
ATOM     54  H   UNL     1       7.141   5.044  20.396  1.00  0.00     0.167 HD
ATOM     55  C   UNL     1       3.218   7.831  19.285  1.00  0.00     0.037 A 
ATOM     56  C   UNL     1       9.422   3.980  21.703  1.00  0.00     0.037 A 
ATOM     57  C   UNL     1       3.926   7.976  20.514  1.00  0.00     0.049 A 
ATOM     58  C   UNL     1       8.391   4.671  22.493  1.00  0.00     0.074 A 
ATOM     59  C   UNL     1       4.954   8.783  20.922  1.00  0.00     0.029 A 
ATOM     60  N   UNL     1       3.761   6.970  21.433  1.00  0.00    -0.354 N 
ATOM     61  N   UNL     1       7.229   4.176  22.800  1.00  0.00    -0.248 NA
ATOM     62  C   UNL     1       8.626   6.066  22.892  1.00  0.00     0.031 C 
ATOM     63  C   UNL     1       5.659   7.992  21.858  1.00  0.00     0.029 A 
ATOM     64  C   UNL     1       4.962   6.798  22.074  1.00  0.00     0.049 A 
ATOM     65  H   UNL     1       2.933   6.465  21.602  1.00  0.00     0.167 HD
ATOM     66  C   UNL     1       6.503   5.301  23.121  1.00  0.00     0.074 A 
ATOM     67  C   UNL     1       7.455   6.331  23.462  1.00  0.00     0.031 C 
ATOM     68  C   UNL     1       5.271   5.479  22.581  1.00  0.00     0.037 A 
BRANCH  55  69
ATOM     69  C   UNL     1       1.734   8.098  19.330  1.00  0.00     0.057 A 
ATOM     70  C   UNL     1       1.249   9.036  20.274  1.00  0.00     0.134 A 
ATOM     71  C   UNL     1       0.768   7.264  18.758  1.00  0.00     0.134 A 
ATOM     72  F   UNL     1       2.076   9.918  20.860  1.00  0.00    -0.206 F 
ATOM     73  C   UNL     1      -0.078   9.053  20.712  1.00  0.00     0.040 A 
ATOM     74  C   UNL     1      -0.578   7.308  19.155  1.00  0.00     0.040 A 
ATOM     75  F   UNL     1       1.095   6.319  17.869  1.00  0.00    -0.206 F 
ATOM     76  C   UNL     1      -0.995   8.171  20.163  1.00  0.00     0.006 A 
ENDBRANCH  55  69
BRANCH  56  77
ATOM     77  C   UNL     1      10.679   3.548  22.424  1.00  0.00     0.057 A 
ATOM     78  C   UNL     1      11.695   2.739  21.904  1.00  0.00     0.134 A 
ATOM     79  C   UNL     1      10.940   4.000  23.745  1.00  0.00     0.134 A 
ATOM     80  F   UNL     1      11.550   2.076  20.754  1.00  0.00    -0.206 F 
ATOM     81  C   UNL     1      12.916   2.523  22.572  1.00  0.00     0.040 A 
ATOM     82  C   UNL     1      12.152   3.809  24.416  1.00  0.00     0.040 A 
ATOM     83  F   UNL     1      10.020   4.655  24.466  1.00  0.00    -0.206 F 
ATOM     84  C   UNL     1      13.163   3.087  23.816  1.00  0.00     0.006 A 
ENDBRANCH  56  77
BRANCH  68  85
ATOM     85  C   UNL     1       4.589   4.187  22.180  1.00  0.00     0.057 A 
ATOM     86  C   UNL     1       4.256   3.233  23.150  1.00  0.00     0.134 A 
ATOM     87  C   UNL     1       4.374   3.798  20.850  1.00  0.00     0.134 A 
ATOM     88  F   UNL     1       4.417   3.513  24.453  1.00  0.00    -0.206 F 
ATOM     89  C   UNL     1       3.764   1.965  22.812  1.00  0.00     0.040 A 
ATOM     90  C   UNL     1       3.869   2.543  20.493  1.00  0.00     0.040 A 
ATOM     91  F   UNL     1       4.665   4.621  19.845  1.00  0.00    -0.206 F 
ATOM     92  C   UNL     1       3.572   1.614  21.479  1.00  0.00     0.006 A 
ENDBRANCH  68  85
ENDBRANCH  42  43
ENDBRANCH  34  37
ENDBRANCH  32  33
ENDBRANCH  31  32
ENDBRANCH  30  31
ENDBRANCH   3  30
TORSDOF 16
