REMARK SMILES Cc1nn(C(C)C)c(C)c1S(=O)(=O)Nc1cccc(C(=O)NCCCNC(=O)c2ccc(-c3c4nc(c(-c5c(F)cccc5F)c5ccc([nH]5)c(-c5c(F)cccc5F)c5nc(c(-c6c(F)cccc6F)c6ccc3[nH]6)C=C5)C=C4)cc2)c1C
REMARK SMILES IDX 23 1 22 2 20 3 21 4 19 6 15 7 16 8 83 9 17 10 84 11 18 12
REMARK SMILES IDX 14 13 11 15 12 16 13 17 10 18 1 19 2 20 3 21 4 22 8 23 9 24
REMARK SMILES IDX 5 25 6 26 7 27 24 28 25 29 26 30 27 31 28 33 29 34 30 35
REMARK SMILES IDX 82 36 31 37 81 38 32 39 33 40 34 41 75 42 35 43 80 44 74 45
REMARK SMILES IDX 76 46 36 47 79 48 73 49 72 50 37 52 63 53 46 54 62 55 47 56
REMARK SMILES IDX 50 57 61 58 77 59 48 60 49 61 60 63 78 64 51 65 38 66 39 67
REMARK SMILES IDX 44 68 40 69 41 70 43 71 45 72 42 73 64 74 65 75 70 76 66 77
REMARK SMILES IDX 67 78 69 79 71 80 68 81 52 82 53 83 58 84 54 85 55 86 57 87
REMARK SMILES IDX 59 88 56 89
REMARK H PARENT 22 5 14 14 26 32 76 51 50 62
REMARK Flexibility Score: inf
ROOT
ATOM      1  C   UNL     1       0.913  -2.844   3.305  1.00  0.00     0.118 C 
ENDROOT
BRANCH   1   2
ATOM      2  N   UNL     1       0.746  -1.668   4.149  1.00  0.00    -0.352 N 
ATOM      3  C   UNL     1       1.029  -0.333   3.961  1.00  0.00     0.251 C 
ATOM      4  O   UNL     1       0.815   0.423   4.905  1.00  0.00    -0.269 OA
ATOM      5  H   UNL     1       0.352  -1.867   5.029  1.00  0.00     0.163 HD
BRANCH   3   6
ATOM      6  C   UNL     1       1.568   0.209   2.673  1.00  0.00     0.044 A 
ATOM      7  C   UNL     1       1.516   1.742   0.781  1.00  0.00     0.053 A 
ATOM      8  C   UNL     1       2.612   1.099   0.208  1.00  0.00     0.027 A 
ATOM      9  C   UNL     1       1.058   1.386   2.079  1.00  0.00    -0.014 A 
ATOM     10  C   UNL     1       3.180   0.009   0.848  1.00  0.00     0.003 A 
ATOM     11  C   UNL     1      -0.004   2.250   2.720  1.00  0.00     0.047 C 
ATOM     12  C   UNL     1       2.648  -0.434   2.056  1.00  0.00     0.014 A 
BRANCH   7  13
ATOM     13  N   UNL     1       0.809   2.783   0.110  1.00  0.00    -0.279 N 
ATOM     14  H   UNL     1       0.359   3.460   0.664  1.00  0.00     0.180 HD
BRANCH  13  15
ATOM     15  S   UNL     1       0.690   2.934  -1.550  1.00  0.00     0.265 S 
ATOM     16  O   UNL     1       2.028   3.086  -2.090  1.00  0.00    -0.201 OA
ATOM     17  O   UNL     1      -0.294   3.973  -1.762  1.00  0.00    -0.201 OA
BRANCH  15  18
ATOM     18  C   UNL     1       0.051   1.586  -2.416  1.00  0.00     0.131 A 
ATOM     19  C   UNL     1      -0.321  -0.380  -0.666  1.00  0.00     0.070 C 
ATOM     20  C   UNL     1      -0.293   0.278  -1.991  1.00  0.00     0.080 A 
ATOM     21  N   UNL     1      -0.662  -0.484  -3.030  1.00  0.00    -0.176 NA
ATOM     22  N   UNL     1      -0.643   0.337  -4.091  1.00  0.00    -0.266 N 
ATOM     23  C   UNL     1      -0.241   1.608  -3.777  1.00  0.00     0.056 A 
ATOM     24  C   UNL     1      -0.181   2.713  -4.770  1.00  0.00     0.068 C 
BRANCH  22  25
ATOM     25  C   UNL     1      -1.026  -0.193  -5.398  1.00  0.00     0.101 C 
ATOM     26  C   UNL     1       0.073  -1.092  -5.965  1.00  0.00     0.033 C 
ATOM     27  C   UNL     1      -2.368  -0.925  -5.340  1.00  0.00     0.033 C 
ENDBRANCH  22  25
ENDBRANCH  15  18
ENDBRANCH  13  15
ENDBRANCH   7  13
ENDBRANCH   3   6
ENDBRANCH   1   2
BRANCH   1  28
ATOM     28  C   UNL     1       2.249  -3.544   3.559  1.00  0.00     0.042 C 
BRANCH  28  29
ATOM     29  C   UNL     1       2.329  -4.320   4.864  1.00  0.00     0.118 C 
BRANCH  29  30
ATOM     30  N   UNL     1       2.296  -5.767   4.711  1.00  0.00    -0.352 N 
ATOM     31  C   UNL     1       2.414  -6.754   5.680  1.00  0.00     0.251 C 
ATOM     32  H   UNL     1       2.174  -6.092   3.789  1.00  0.00     0.163 HD
ATOM     33  O   UNL     1       2.371  -7.927   5.363  1.00  0.00    -0.269 OA
BRANCH  31  34
ATOM     34  C   UNL     1       2.433  -6.366   7.116  1.00  0.00     0.039 A 
ATOM     35  C   UNL     1       1.582  -7.066   7.980  1.00  0.00     0.014 A 
ATOM     36  C   UNL     1       3.069  -5.209   7.551  1.00  0.00     0.014 A 
ATOM     37  C   UNL     1       1.151  -6.453   9.152  1.00  0.00     0.010 A 
ATOM     38  C   UNL     1       2.556  -4.546   8.644  1.00  0.00     0.010 A 
ATOM     39  C   UNL     1       1.541  -5.140   9.397  1.00  0.00    -0.014 A 
BRANCH  39  40
ATOM     40  C   UNL     1       0.880  -4.273  10.361  1.00  0.00     0.031 A 
ATOM     41  C   UNL     1       1.540  -3.960  11.640  1.00  0.00     0.074 A 
ATOM     42  C   UNL     1      -0.292  -3.691  10.025  1.00  0.00     0.049 A 
ATOM     43  N   UNL     1       0.928  -3.501  12.677  1.00  0.00    -0.248 NA
ATOM     44  C   UNL     1       2.953  -4.230  11.881  1.00  0.00     0.031 C 
ATOM     45  C   UNL     1      -0.963  -2.584  10.701  1.00  0.00     0.029 A 
ATOM     46  N   UNL     1      -1.235  -4.152   9.094  1.00  0.00    -0.354 N 
ATOM     47  C   UNL     1       1.884  -3.134  13.597  1.00  0.00     0.074 A 
ATOM     48  C   UNL     1       3.097  -3.743  13.116  1.00  0.00     0.031 C 
ATOM     49  C   UNL     1      -2.269  -2.620  10.397  1.00  0.00     0.029 A 
ATOM     50  C   UNL     1      -2.498  -3.840   9.643  1.00  0.00     0.049 A 
ATOM     51  H   UNL     1      -1.053  -4.600   8.236  1.00  0.00     0.167 HD
ATOM     52  C   UNL     1       1.540  -2.236  14.565  1.00  0.00     0.037 A 
ATOM     53  C   UNL     1      -3.378  -4.821  10.001  1.00  0.00     0.037 A 
ATOM     54  C   UNL     1       0.082  -2.066  14.606  1.00  0.00     0.049 A 
ATOM     55  C   UNL     1      -3.751  -4.802  11.465  1.00  0.00     0.074 A 
ATOM     56  C   UNL     1      -0.770  -1.068  14.163  1.00  0.00     0.029 A 
ATOM     57  N   UNL     1      -0.723  -3.163  14.909  1.00  0.00    -0.354 N 
ATOM     58  N   UNL     1      -3.050  -4.200  12.386  1.00  0.00    -0.248 NA
ATOM     59  C   UNL     1      -4.928  -5.473  12.009  1.00  0.00     0.031 C 
ATOM     60  C   UNL     1      -2.085  -1.603  14.120  1.00  0.00     0.029 A 
ATOM     61  C   UNL     1      -2.038  -2.912  14.570  1.00  0.00     0.049 A 
ATOM     62  H   UNL     1      -0.398  -4.002  15.309  1.00  0.00     0.167 HD
ATOM     63  C   UNL     1      -3.628  -4.408  13.612  1.00  0.00     0.074 A 
ATOM     64  C   UNL     1      -4.814  -5.190  13.319  1.00  0.00     0.031 C 
ATOM     65  C   UNL     1      -3.067  -3.929  14.763  1.00  0.00     0.037 A 
BRANCH  52  66
ATOM     66  C   UNL     1       2.507  -1.315  15.302  1.00  0.00     0.057 A 
ATOM     67  C   UNL     1       2.009  -0.245  16.077  1.00  0.00     0.134 A 
ATOM     68  C   UNL     1       3.913  -1.331  15.212  1.00  0.00     0.134 A 
ATOM     69  F   UNL     1       0.698  -0.096  16.312  1.00  0.00    -0.206 F 
ATOM     70  C   UNL     1       2.828   0.747  16.644  1.00  0.00     0.040 A 
ATOM     71  C   UNL     1       4.744  -0.355  15.786  1.00  0.00     0.040 A 
ATOM     72  F   UNL     1       4.591  -2.275  14.562  1.00  0.00    -0.206 F 
ATOM     73  C   UNL     1       4.202   0.702  16.491  1.00  0.00     0.006 A 
ENDBRANCH  52  66
BRANCH  53  74
ATOM     74  C   UNL     1      -3.269  -6.040   9.157  1.00  0.00     0.057 A 
ATOM     75  C   UNL     1      -3.592  -5.940   7.792  1.00  0.00     0.134 A 
ATOM     76  C   UNL     1      -2.504  -7.141   9.550  1.00  0.00     0.134 A 
ATOM     77  F   UNL     1      -4.327  -4.907   7.348  1.00  0.00    -0.206 F 
ATOM     78  C   UNL     1      -3.073  -6.824   6.843  1.00  0.00     0.040 A 
ATOM     79  C   UNL     1      -1.990  -8.042   8.608  1.00  0.00     0.040 A 
ATOM     80  F   UNL     1      -2.137  -7.296  10.831  1.00  0.00    -0.206 F 
ATOM     81  C   UNL     1      -2.238  -7.860   7.248  1.00  0.00     0.006 A 
ENDBRANCH  53  74
BRANCH  65  82
ATOM     82  C   UNL     1      -3.471  -4.303  16.171  1.00  0.00     0.057 A 
ATOM     83  C   UNL     1      -4.068  -5.521  16.530  1.00  0.00     0.134 A 
ATOM     84  C   UNL     1      -3.119  -3.472  17.260  1.00  0.00     0.134 A 
ATOM     85  F   UNL     1      -4.351  -6.462  15.620  1.00  0.00    -0.206 F 
ATOM     86  C   UNL     1      -4.349  -5.861  17.862  1.00  0.00     0.040 A 
ATOM     87  C   UNL     1      -3.343  -3.825  18.594  1.00  0.00     0.040 A 
ATOM     88  F   UNL     1      -2.517  -2.287  17.077  1.00  0.00    -0.206 F 
ATOM     89  C   UNL     1      -3.975  -5.018  18.901  1.00  0.00     0.006 A 
ENDBRANCH  65  82
ENDBRANCH  39  40
ENDBRANCH  31  34
ENDBRANCH  29  30
ENDBRANCH  28  29
ENDBRANCH   1  28
TORSDOF 14
