REMARK SMILES C[C@@H]1CN(c2cc(C(=O)NCCCNC(=O)c3ccc(-c4c5nc(c(-c6c(F)cccc6F)c6ccc([nH]6)c(-c6c(F)cccc6F)c6nc(c(-c7c(F)cccc7F)c7ccc4[nH]7)C=C6)C=C5)cc3)c(F)cc2F)S(=O)(=O)C1
REMARK SMILES IDX 12 1 11 2 10 3 8 4 9 5 7 7 5 8 6 9 74 10 73 11 75 12 71 13
REMARK SMILES IDX 72 14 4 15 1 16 2 17 3 18 79 19 76 20 77 21 78 22 13 23
REMARK SMILES IDX 14 24 15 25 16 27 17 28 18 29 70 30 19 31 69 32 20 33 21 34
REMARK SMILES IDX 22 35 63 36 23 37 68 38 62 39 64 40 24 41 67 42 61 43 60 44
REMARK SMILES IDX 25 46 51 47 34 48 50 49 35 50 38 51 49 52 65 53 36 54 37 55
REMARK SMILES IDX 48 57 66 58 39 59 26 60 27 61 32 62 28 63 29 64 31 65 33 66
REMARK SMILES IDX 30 67 52 68 53 69 58 70 54 71 55 72 57 73 59 74 56 75 40 76
REMARK SMILES IDX 41 77 46 78 42 79 43 80 45 81 47 82 44 83
REMARK H PARENT 10 6 14 26 64 45 38 56
REMARK Flexibility Score: inf
ROOT
ATOM      1  C   UNL     1       4.949   1.382   9.951  1.00  0.00     0.042 C 
ENDROOT
BRANCH   1   2
ATOM      2  C   UNL     1       3.650   0.587   9.829  1.00  0.00     0.118 C 
BRANCH   2   3
ATOM      3  N   UNL     1       2.670   1.334   9.069  1.00  0.00    -0.352 N 
ATOM      4  C   UNL     1       2.271   1.290   7.765  1.00  0.00     0.254 C 
ATOM      5  O   UNL     1       1.426   2.121   7.425  1.00  0.00    -0.269 OA
ATOM      6  H   UNL     1       2.195   2.013   9.601  1.00  0.00     0.163 HD
BRANCH   4   7
ATOM      7  C   UNL     1       2.728   0.305   6.750  1.00  0.00     0.077 A 
ATOM      8  C   UNL     1       2.128  -0.773   4.636  1.00  0.00     0.088 A 
ATOM      9  C   UNL     1       1.815   0.067   5.706  1.00  0.00     0.047 A 
ATOM     10  C   UNL     1       3.394  -1.357   4.582  1.00  0.00     0.150 A 
ATOM     11  C   UNL     1       4.303  -1.163   5.614  1.00  0.00     0.081 A 
ATOM     12  F   UNL     1       3.787  -2.047   3.502  1.00  0.00    -0.205 F 
ATOM     13  C   UNL     1       3.976  -0.318   6.677  1.00  0.00     0.139 A 
ATOM     14  F   UNL     1       4.949  -0.075   7.561  1.00  0.00    -0.206 F 
BRANCH   8  15
ATOM     15  N   UNL     1       1.168  -0.827   3.575  1.00  0.00    -0.267 N 
ATOM     16  C   UNL     1       1.081   0.100  -0.091  1.00  0.00     0.011 C 
ATOM     17  C   UNL     1       0.632  -0.498   1.232  1.00  0.00     0.023 C 
ATOM     18  C   UNL     1       1.367   0.108   2.434  1.00  0.00     0.140 C 
ATOM     19  C   UNL     1       0.885  -2.001   1.321  1.00  0.00     0.165 C 
ATOM     20  S   UNL     1       0.612  -2.361   3.047  1.00  0.00     0.235 S 
ATOM     21  O   UNL     1       1.486  -3.424   3.476  1.00  0.00    -0.206 OA
ATOM     22  O   UNL     1      -0.818  -2.404   3.276  1.00  0.00    -0.206 OA
ENDBRANCH   8  15
ENDBRANCH   4   7
ENDBRANCH   2   3
ENDBRANCH   1   2
BRANCH   1  23
ATOM     23  C   UNL     1       4.868   2.510  10.976  1.00  0.00     0.118 C 
BRANCH  23  24
ATOM     24  N   UNL     1       4.724   1.999  12.334  1.00  0.00    -0.352 N 
ATOM     25  C   UNL     1       5.558   2.112  13.415  1.00  0.00     0.251 C 
ATOM     26  H   UNL     1       3.896   1.493  12.500  1.00  0.00     0.163 HD
ATOM     27  O   UNL     1       5.390   1.386  14.391  1.00  0.00    -0.269 OA
BRANCH  25  28
ATOM     28  C   UNL     1       6.656   3.100  13.415  1.00  0.00     0.039 A 
ATOM     29  C   UNL     1       7.880   2.752  13.993  1.00  0.00     0.014 A 
ATOM     30  C   UNL     1       6.467   4.382  12.892  1.00  0.00     0.014 A 
ATOM     31  C   UNL     1       8.929   3.672  13.997  1.00  0.00     0.010 A 
ATOM     32  C   UNL     1       7.537   5.266  12.819  1.00  0.00     0.010 A 
ATOM     33  C   UNL     1       8.776   4.924  13.380  1.00  0.00    -0.014 A 
BRANCH  33  34
ATOM     34  C   UNL     1       9.898   5.891  13.311  1.00  0.00     0.031 A 
ATOM     35  C   UNL     1       9.791   7.224  13.997  1.00  0.00     0.074 A 
ATOM     36  C   UNL     1      10.989   5.586  12.585  1.00  0.00     0.049 A 
ATOM     37  N   UNL     1      10.641   8.219  14.005  1.00  0.00    -0.248 NA
ATOM     38  C   UNL     1       8.556   7.483  14.752  1.00  0.00     0.031 C 
ATOM     39  C   UNL     1      11.191   4.337  11.849  1.00  0.00     0.029 A 
ATOM     40  N   UNL     1      12.135   6.301  12.347  1.00  0.00    -0.354 N 
ATOM     41  C   UNL     1      10.043   9.218  14.762  1.00  0.00     0.074 A 
ATOM     42  C   UNL     1       8.729   8.740  15.131  1.00  0.00     0.031 C 
ATOM     43  C   UNL     1      12.406   4.354  11.281  1.00  0.00     0.029 A 
ATOM     44  C   UNL     1      13.049   5.632  11.571  1.00  0.00     0.049 A 
ATOM     45  H   UNL     1      12.287   7.208  12.698  1.00  0.00     0.167 HD
ATOM     46  C   UNL     1      10.556  10.412  15.143  1.00  0.00     0.037 A 
ATOM     47  C   UNL     1      14.269   6.005  11.142  1.00  0.00     0.037 A 
ATOM     48  C   UNL     1      11.866  10.878  14.772  1.00  0.00     0.049 A 
ATOM     49  C   UNL     1      14.798   7.356  11.531  1.00  0.00     0.074 A 
ATOM     50  C   UNL     1      12.492  12.061  15.123  1.00  0.00     0.029 A 
ATOM     51  N   UNL     1      12.751  10.182  13.960  1.00  0.00    -0.354 N 
ATOM     52  N   UNL     1      14.241   8.275  12.282  1.00  0.00    -0.248 NA
ATOM     53  C   UNL     1      16.122   7.723  11.013  1.00  0.00     0.031 C 
ATOM     54  C   UNL     1      13.733  12.105  14.481  1.00  0.00     0.029 A 
ATOM     55  C   UNL     1      13.908  10.922  13.779  1.00  0.00     0.049 A 
ATOM     56  H   UNL     1      12.582   9.294  13.571  1.00  0.00     0.167 HD
ATOM     57  C   UNL     1      15.155   9.319  12.350  1.00  0.00     0.074 A 
ATOM     58  C   UNL     1      16.308   8.912  11.572  1.00  0.00     0.031 C 
ATOM     59  C   UNL     1      15.048  10.504  12.999  1.00  0.00     0.037 A 
BRANCH  46  60
ATOM     60  C   UNL     1       9.695  11.287  16.012  1.00  0.00     0.057 A 
ATOM     61  C   UNL     1       9.202  12.511  15.540  1.00  0.00     0.134 A 
ATOM     62  C   UNL     1       9.368  10.927  17.327  1.00  0.00     0.134 A 
ATOM     63  F   UNL     1       9.480  12.925  14.295  1.00  0.00    -0.206 F 
ATOM     64  C   UNL     1       8.415  13.340  16.343  1.00  0.00     0.040 A 
ATOM     65  C   UNL     1       8.554  11.731  18.127  1.00  0.00     0.040 A 
ATOM     66  F   UNL     1       9.797   9.764  17.840  1.00  0.00    -0.206 F 
ATOM     67  C   UNL     1       8.081  12.946  17.637  1.00  0.00     0.006 A 
ENDBRANCH  46  60
BRANCH  47  68
ATOM     68  C   UNL     1      15.086   5.054  10.348  1.00  0.00     0.057 A 
ATOM     69  C   UNL     1      14.739   4.695   9.040  1.00  0.00     0.134 A 
ATOM     70  C   UNL     1      16.210   4.439  10.909  1.00  0.00     0.134 A 
ATOM     71  F   UNL     1      13.666   5.241   8.449  1.00  0.00    -0.206 F 
ATOM     72  C   UNL     1      15.466   3.739   8.328  1.00  0.00     0.040 A 
ATOM     73  C   UNL     1      16.961   3.500  10.200  1.00  0.00     0.040 A 
ATOM     74  F   UNL     1      16.601   4.753  12.153  1.00  0.00    -0.206 F 
ATOM     75  C   UNL     1      16.582   3.140   8.908  1.00  0.00     0.006 A 
ENDBRANCH  47  68
BRANCH  59  76
ATOM     76  C   UNL     1      16.214  11.447  12.919  1.00  0.00     0.057 A 
ATOM     77  C   UNL     1      16.989  11.721  14.054  1.00  0.00     0.134 A 
ATOM     78  C   UNL     1      16.523  12.141  11.743  1.00  0.00     0.134 A 
ATOM     79  F   UNL     1      16.740  11.098  15.216  1.00  0.00    -0.206 F 
ATOM     80  C   UNL     1      18.017  12.663  14.026  1.00  0.00     0.040 A 
ATOM     81  C   UNL     1      17.569  13.064  11.695  1.00  0.00     0.040 A 
ATOM     82  F   UNL     1      15.828  11.916  10.617  1.00  0.00    -0.206 F 
ATOM     83  C   UNL     1      18.311  13.336  12.842  1.00  0.00     0.006 A 
ENDBRANCH  59  76
ENDBRANCH  33  34
ENDBRANCH  25  28
ENDBRANCH  23  24
ENDBRANCH   1  23
TORSDOF 11
