REMARK SMILES C/C=C(\C)[C@@H]1C(C)=C[C@@H]2[C@H]([C@@H]1/C=C/C=C/C(=O)NCCCNC(=O)c1ccc(-c3c4nc(c(-c5c(F)cccc5F)c5ccc([nH]5)c(-c5c(F)cccc5F)c5nc(c(-c6c(F)cccc6F)c6ccc3[nH]6)C=C5)C=C4)cc1)[C@@H](C)CC[C@@H]2O
REMARK SMILES IDX 19 1 18 2 16 3 17 4 15 6 14 7 13 8 12 9 11 10 5 11 6 12 7 13
REMARK SMILES IDX 8 14 10 15 9 16 79 17 83 18 80 19 81 20 82 21 3 22 1 23 2 24
REMARK SMILES IDX 4 25 84 26 20 28 21 29 22 30 23 31 24 33 25 34 26 35 78 36
REMARK SMILES IDX 27 37 77 38 28 39 29 40 30 41 71 42 31 43 76 44 70 45 72 46
REMARK SMILES IDX 32 47 75 48 69 49 68 50 33 52 59 53 42 54 58 55 43 56 46 57
REMARK SMILES IDX 57 58 73 59 44 60 45 61 56 63 74 64 47 65 34 66 35 67 40 68
REMARK SMILES IDX 36 69 37 70 39 71 41 72 38 73 60 74 61 75 66 76 62 77 63 78
REMARK SMILES IDX 65 79 67 80 64 81 48 82 49 83 54 84 50 85 51 86 53 87 55 88
REMARK SMILES IDX 52 89
REMARK H PARENT 18 5 84 27 22 32 72 51 46 62
REMARK Flexibility Score: inf
ROOT
ATOM      1  C   UNL     1      -0.617   9.513  -0.465  1.00  0.00     0.118 C 
ENDROOT
BRANCH   1   2
ATOM      2  N   UNL     1       0.636   9.893  -1.101  1.00  0.00    -0.352 N 
ATOM      3  C   UNL     1       1.778   9.188  -1.335  1.00  0.00     0.243 C 
ATOM      4  O   UNL     1       2.686   9.708  -1.980  1.00  0.00    -0.270 OA
ATOM      5  H   UNL     1       0.664  10.824  -1.418  1.00  0.00     0.163 HD
BRANCH   3   6
ATOM      6  C   UNL     1       1.900   7.772  -0.924  1.00  0.00     0.071 C 
ATOM      7  C   UNL     1       1.486   7.298   0.257  1.00  0.00     0.005 C 
BRANCH   7   8
ATOM      8  C   UNL     1       1.462   5.895   0.593  1.00  0.00    -0.004 C 
ATOM      9  C   UNL     1       0.596   5.449   1.516  1.00  0.00    -0.022 C 
BRANCH   9  10
ATOM     10  C   UNL     1       0.366   3.994   1.885  1.00  0.00     0.027 C 
ATOM     11  C   UNL     1      -0.978   3.396   1.278  1.00  0.00     0.047 C 
ATOM     12  C   UNL     1      -1.810   2.606   2.280  1.00  0.00    -0.069 C 
ATOM     13  C   UNL     1      -2.688   1.507   1.748  1.00  0.00     0.040 C 
ATOM     14  C   UNL     1      -1.776   2.899   3.591  1.00  0.00    -0.021 C 
ATOM     15  C   UNL     1       0.506   3.887   3.441  1.00  0.00     0.009 C 
ATOM     16  C   UNL     1      -0.884   4.004   4.116  1.00  0.00     0.044 C 
ATOM     17  C   UNL     1       1.267   2.619   3.948  1.00  0.00    -0.010 C 
ATOM     18  C   UNL     1      -0.725   4.024   5.647  1.00  0.00     0.121 C 
ATOM     19  C   UNL     1       2.703   2.540   3.414  1.00  0.00     0.008 C 
ATOM     20  C   UNL     1       1.332   2.601   5.493  1.00  0.00     0.006 C 
ATOM     21  C   UNL     1      -0.026   2.774   6.164  1.00  0.00     0.033 C 
BRANCH  11  22
ATOM     22  C   UNL     1      -1.853   4.411   0.498  1.00  0.00    -0.070 C 
ATOM     23  C   UNL     1      -3.600   6.304   0.547  1.00  0.00     0.035 C 
ATOM     24  C   UNL     1      -2.742   5.221   1.117  1.00  0.00    -0.031 C 
ATOM     25  C   UNL     1      -1.599   4.429  -0.989  1.00  0.00     0.040 C 
ENDBRANCH  11  22
BRANCH  18  26
ATOM     26  O   UNL     1      -1.974   4.215   6.306  1.00  0.00    -0.393 OA
ATOM     27  H   UNL     1      -2.560   3.466   6.111  1.00  0.00     0.210 HD
ENDBRANCH  18  26
ENDBRANCH   9  10
ENDBRANCH   7   8
ENDBRANCH   3   6
ENDBRANCH   1   2
BRANCH   1  28
ATOM     28  C   UNL     1      -0.746  10.136   0.925  1.00  0.00     0.042 C 
BRANCH  28  29
ATOM     29  C   UNL     1      -1.025  11.635   0.891  1.00  0.00     0.118 C 
BRANCH  29  30
ATOM     30  N   UNL     1      -2.353  11.937   0.373  1.00  0.00    -0.352 N 
ATOM     31  C   UNL     1      -3.388  12.630   0.951  1.00  0.00     0.251 C 
ATOM     32  H   UNL     1      -2.537  11.590  -0.530  1.00  0.00     0.163 HD
ATOM     33  O   UNL     1      -4.503  12.597   0.445  1.00  0.00    -0.269 OA
BRANCH  31  34
ATOM     34  C   UNL     1      -3.163  13.405   2.190  1.00  0.00     0.039 A 
ATOM     35  C   UNL     1      -4.122  13.353   3.206  1.00  0.00     0.014 A 
ATOM     36  C   UNL     1      -2.023  14.197   2.342  1.00  0.00     0.014 A 
ATOM     37  C   UNL     1      -3.904  14.041   4.402  1.00  0.00     0.010 A 
ATOM     38  C   UNL     1      -1.771  14.819   3.560  1.00  0.00     0.010 A 
ATOM     39  C   UNL     1      -2.708  14.748   4.603  1.00  0.00    -0.014 A 
BRANCH  39  40
ATOM     40  C   UNL     1      -2.403  15.420   5.891  1.00  0.00     0.031 A 
ATOM     41  C   UNL     1      -2.214  16.910   5.934  1.00  0.00     0.074 A 
ATOM     42  C   UNL     1      -2.204  14.679   6.999  1.00  0.00     0.049 A 
ATOM     43  N   UNL     1      -1.808  17.666   6.923  1.00  0.00    -0.248 NA
ATOM     44  C   UNL     1      -2.491  17.647   4.691  1.00  0.00     0.031 C 
ATOM     45  C   UNL     1      -2.327  13.223   7.078  1.00  0.00     0.029 A 
ATOM     46  N   UNL     1      -1.833  15.050   8.268  1.00  0.00    -0.354 N 
ATOM     47  C   UNL     1      -1.761  18.958   6.416  1.00  0.00     0.074 A 
ATOM     48  C   UNL     1      -2.132  18.878   5.020  1.00  0.00     0.031 C 
ATOM     49  C   UNL     1      -2.048  12.825   8.329  1.00  0.00     0.029 A 
ATOM     50  C   UNL     1      -1.679  13.989   9.128  1.00  0.00     0.049 A 
ATOM     51  H   UNL     1      -1.691  15.986   8.536  1.00  0.00     0.167 HD
ATOM     52  C   UNL     1      -1.454  20.108   7.061  1.00  0.00     0.037 A 
ATOM     53  C   UNL     1      -1.264  13.956  10.409  1.00  0.00     0.037 A 
ATOM     54  C   UNL     1      -1.103  20.181   8.455  1.00  0.00     0.049 A 
ATOM     55  C   UNL     1      -0.901  15.244  11.096  1.00  0.00     0.074 A 
ATOM     56  C   UNL     1      -0.824  21.303   9.215  1.00  0.00     0.029 A 
ATOM     57  N   UNL     1      -0.979  19.086   9.296  1.00  0.00    -0.354 N 
ATOM     58  N   UNL     1      -0.914  16.466  10.620  1.00  0.00    -0.248 NA
ATOM     59  C   UNL     1      -0.467  15.151  12.497  1.00  0.00     0.031 C 
ATOM     60  C   UNL     1      -0.479  20.883  10.503  1.00  0.00     0.029 A 
ATOM     61  C   UNL     1      -0.605  19.505  10.562  1.00  0.00     0.049 A 
ATOM     62  H   UNL     1      -1.134  18.150   9.033  1.00  0.00     0.167 HD
ATOM     63  C   UNL     1      -0.532  17.288  11.673  1.00  0.00     0.074 A 
ATOM     64  C   UNL     1      -0.295  16.427  12.812  1.00  0.00     0.031 C 
ATOM     65  C   UNL     1      -0.396  18.636  11.693  1.00  0.00     0.037 A 
BRANCH  52  66
ATOM     66  C   UNL     1      -1.480  21.382   6.264  1.00  0.00     0.057 A 
ATOM     67  C   UNL     1      -2.677  21.931   5.784  1.00  0.00     0.134 A 
ATOM     68  C   UNL     1      -0.298  22.088   6.006  1.00  0.00     0.134 A 
ATOM     69  F   UNL     1      -3.844  21.302   5.987  1.00  0.00    -0.206 F 
ATOM     70  C   UNL     1      -2.693  23.120   5.052  1.00  0.00     0.040 A 
ATOM     71  C   UNL     1      -0.306  23.294   5.302  1.00  0.00     0.040 A 
ATOM     72  F   UNL     1       0.882  21.625   6.443  1.00  0.00    -0.206 F 
ATOM     73  C   UNL     1      -1.506  23.809   4.816  1.00  0.00     0.006 A 
ENDBRANCH  52  66
BRANCH  53  74
ATOM     74  C   UNL     1      -1.182  12.660  11.132  1.00  0.00     0.057 A 
ATOM     75  C   UNL     1      -2.058  12.363  12.182  1.00  0.00     0.134 A 
ATOM     76  C   UNL     1      -0.226  11.693  10.798  1.00  0.00     0.134 A 
ATOM     77  F   UNL     1      -2.985  13.257  12.560  1.00  0.00    -0.206 F 
ATOM     78  C   UNL     1      -1.975  11.163  12.889  1.00  0.00     0.040 A 
ATOM     79  C   UNL     1      -0.149  10.476  11.478  1.00  0.00     0.040 A 
ATOM     80  F   UNL     1       0.638  11.911   9.796  1.00  0.00    -0.206 F 
ATOM     81  C   UNL     1      -1.020  10.212  12.533  1.00  0.00     0.006 A 
ENDBRANCH  53  74
BRANCH  65  82
ATOM     82  C   UNL     1      -0.034  19.279  13.000  1.00  0.00     0.057 A 
ATOM     83  C   UNL     1       1.252  19.185  13.547  1.00  0.00     0.134 A 
ATOM     84  C   UNL     1      -0.971  20.066  13.683  1.00  0.00     0.134 A 
ATOM     85  F   UNL     1       2.192  18.437  12.949  1.00  0.00    -0.206 F 
ATOM     86  C   UNL     1       1.588  19.840  14.733  1.00  0.00     0.040 A 
ATOM     87  C   UNL     1      -0.639  20.748  14.854  1.00  0.00     0.040 A 
ATOM     88  F   UNL     1      -2.219  20.205  13.209  1.00  0.00    -0.206 F 
ATOM     89  C   UNL     1       0.644  20.633  15.383  1.00  0.00     0.006 A 
ENDBRANCH  65  82
ENDBRANCH  39  40
ENDBRANCH  31  34
ENDBRANCH  29  30
ENDBRANCH  28  29
ENDBRANCH   1  28
TORSDOF 14
