REMARK SMILES COc1ccc(-c2cc(=O)oc3cc(OCC(=O)N[C@@H](C)C(=O)NCCCNC(=O)c4ccc(-c5c6nc(c(-c7c(F)cccc7F)c7ccc([nH]7)c(-c7c(F)cccc7F)c7nc(c(-c8c(F)cccc8F)c8ccc5[nH]8)C=C7)C=C6)cc4)ccc23)cc1
REMARK SMILES IDX 22 1 23 2 24 3 20 5 21 6 19 7 17 8 18 9 16 11 15 12 14 13
REMARK SMILES IDX 7 14 8 15 87 16 9 17 12 18 86 19 10 20 11 21 13 22 85 23
REMARK SMILES IDX 6 24 3 25 4 26 89 27 5 28 88 29 2 30 1 31 25 32 26 33 27 34
REMARK SMILES IDX 28 35 29 36 30 38 31 39 32 40 84 41 33 42 83 43 34 44 35 45
REMARK SMILES IDX 36 46 77 47 37 48 82 49 76 50 78 51 38 52 81 53 75 54 74 55
REMARK SMILES IDX 39 57 65 58 48 59 64 60 49 61 52 62 63 63 79 64 50 65 51 66
REMARK SMILES IDX 62 68 80 69 53 70 40 71 41 72 46 73 42 74 43 75 45 76 47 77
REMARK SMILES IDX 44 78 66 79 67 80 72 81 68 82 69 83 71 84 73 85 70 86 54 87
REMARK SMILES IDX 55 88 60 89 56 90 57 91 59 92 61 93 58 94
REMARK H PARENT 24 4 19 10 28 37 78 56 52 67
REMARK Flexibility Score: inf
ROOT
ATOM      1  C   UNL     1       8.726   2.698   3.124  1.00  0.00     0.242 C 
ATOM      2  O   UNL     1       8.158   3.786   3.232  1.00  0.00    -0.273 OA
ATOM      3  N   UNL     1       9.979   2.574   3.657  1.00  0.00    -0.354 N 
ATOM      4  H   UNL     1      10.360   3.414   4.001  1.00  0.00     0.163 HD
ENDROOT
BRANCH   1   5
ATOM      5  C   UNL     1       8.017   1.490   2.493  1.00  0.00     0.168 C 
ATOM      6  C   UNL     1       7.650   0.487   3.588  1.00  0.00     0.041 C 
BRANCH   5   7
ATOM      7  N   UNL     1       8.862   0.951   1.421  1.00  0.00    -0.342 N 
ATOM      8  C   UNL     1       8.496   0.461   0.199  1.00  0.00     0.258 C 
ATOM      9  O   UNL     1       9.377   0.221  -0.628  1.00  0.00    -0.271 OA
ATOM     10  H   UNL     1       9.828   0.941   1.608  1.00  0.00     0.164 HD
BRANCH   8  11
ATOM     11  C   UNL     1       7.029   0.238  -0.110  1.00  0.00     0.329 C 
BRANCH  11  12
ATOM     12  O   UNL     1       6.545  -0.576   0.946  1.00  0.00    -0.484 OA
BRANCH  12  13
ATOM     13  C   UNL     1       6.177  -1.852   0.645  1.00  0.00     0.123 A 
ATOM     14  C   UNL     1       3.486  -4.668   1.498  1.00  0.00    -0.000 A 
ATOM     15  C   UNL     1       3.679  -5.566   2.475  1.00  0.00     0.103 A 
ATOM     16  C   UNL     1       4.688  -4.138   0.815  1.00  0.00     0.026 A 
ATOM     17  C   UNL     1       5.053  -5.904   2.905  1.00  0.00     0.336 A 
ATOM     18  C   UNL     1       5.780  -3.985   1.654  1.00  0.00     0.142 A 
ATOM     19  C   UNL     1       4.535  -3.313  -0.307  1.00  0.00     0.016 A 
ATOM     20  O   UNL     1       5.285  -6.907   3.571  1.00  0.00    -0.246 OA
ATOM     21  O   UNL     1       6.013  -4.917   2.676  1.00  0.00    -0.423 OA
ATOM     22  C   UNL     1       6.517  -2.816   1.601  1.00  0.00     0.094 A 
ATOM     23  C   UNL     1       5.275  -2.138  -0.378  1.00  0.00     0.047 A 
BRANCH  14  24
ATOM     24  C   UNL     1       2.268  -3.820   1.571  1.00  0.00    -0.017 A 
ATOM     25  C   UNL     1       0.364  -1.817   1.250  1.00  0.00     0.118 A 
ATOM     26  C   UNL     1       0.101  -3.115   0.799  1.00  0.00     0.047 A 
ATOM     27  C   UNL     1       1.513  -1.537   1.975  1.00  0.00     0.047 A 
ATOM     28  C   UNL     1       1.062  -4.123   0.946  1.00  0.00     0.012 A 
ATOM     29  C   UNL     1       2.457  -2.538   2.138  1.00  0.00     0.012 A 
BRANCH  25  30
ATOM     30  O   UNL     1      -0.527  -0.819   0.964  1.00  0.00    -0.497 OA
ATOM     31  C   UNL     1       0.028   0.060  -0.022  1.00  0.00     0.278 C 
ENDBRANCH  25  30
ENDBRANCH  14  24
ENDBRANCH  12  13
ENDBRANCH  11  12
ENDBRANCH   8  11
ENDBRANCH   5   7
ENDBRANCH   1   5
BRANCH   3  32
ATOM     32  C   UNL     1      10.845   1.413   3.802  1.00  0.00     0.117 C 
BRANCH  32  33
ATOM     33  C   UNL     1      12.104   1.524   2.954  1.00  0.00     0.042 C 
BRANCH  33  34
ATOM     34  C   UNL     1      12.976   2.718   3.309  1.00  0.00     0.118 C 
BRANCH  34  35
ATOM     35  N   UNL     1      13.486   2.654   4.670  1.00  0.00    -0.352 N 
ATOM     36  C   UNL     1      14.782   2.611   5.120  1.00  0.00     0.251 C 
ATOM     37  H   UNL     1      12.798   2.639   5.375  1.00  0.00     0.163 HD
ATOM     38  O   UNL     1      15.012   2.368   6.300  1.00  0.00    -0.269 OA
BRANCH  36  39
ATOM     39  C   UNL     1      15.898   2.834   4.178  1.00  0.00     0.039 A 
ATOM     40  C   UNL     1      17.021   2.006   4.251  1.00  0.00     0.014 A 
ATOM     41  C   UNL     1      15.838   3.857   3.229  1.00  0.00     0.014 A 
ATOM     42  C   UNL     1      18.055   2.163   3.327  1.00  0.00     0.010 A 
ATOM     43  C   UNL     1      16.826   3.955   2.257  1.00  0.00     0.010 A 
ATOM     44  C   UNL     1      17.948   3.115   2.301  1.00  0.00    -0.014 A 
BRANCH  44  45
ATOM     45  C   UNL     1      19.000   3.262   1.267  1.00  0.00     0.031 A 
ATOM     46  C   UNL     1      19.763   4.552   1.153  1.00  0.00     0.074 A 
ATOM     47  C   UNL     1      19.203   2.274   0.376  1.00  0.00     0.049 A 
ATOM     48  N   UNL     1      20.637   4.919   0.251  1.00  0.00    -0.248 NA
ATOM     49  C   UNL     1      19.475   5.580   2.165  1.00  0.00     0.031 C 
ATOM     50  C   UNL     1      18.480   1.001   0.342  1.00  0.00     0.029 A 
ATOM     51  N   UNL     1      20.065   2.196  -0.688  1.00  0.00    -0.354 N 
ATOM     52  C   UNL     1      20.980   6.226   0.571  1.00  0.00     0.074 A 
ATOM     53  C   UNL     1      20.186   6.604   1.719  1.00  0.00     0.031 C 
ATOM     54  C   UNL     1      18.936   0.265  -0.685  1.00  0.00     0.029 A 
ATOM     55  C   UNL     1      19.958   1.025  -1.397  1.00  0.00     0.049 A 
ATOM     56  H   UNL     1      20.700   2.912  -0.921  1.00  0.00     0.167 HD
ATOM     57  C   UNL     1      21.891   7.031  -0.025  1.00  0.00     0.037 A 
ATOM     58  C   UNL     1      20.604   0.615  -2.504  1.00  0.00     0.037 A 
ATOM     59  C   UNL     1      22.710   6.637  -1.140  1.00  0.00     0.049 A 
ATOM     60  C   UNL     1      21.641   1.508  -3.124  1.00  0.00     0.074 A 
ATOM     61  C   UNL     1      23.720   7.348  -1.763  1.00  0.00     0.029 A 
ATOM     62  N   UNL     1      22.611   5.420  -1.798  1.00  0.00    -0.354 N 
ATOM     63  N   UNL     1      22.009   2.714  -2.768  1.00  0.00    -0.248 NA
ATOM     64  C   UNL     1      22.357   0.979  -4.293  1.00  0.00     0.031 C 
ATOM     65  C   UNL     1      24.213   6.572  -2.818  1.00  0.00     0.029 A 
ATOM     66  C   UNL     1      23.532   5.365  -2.830  1.00  0.00     0.049 A 
ATOM     67  H   UNL     1      21.980   4.702  -1.565  1.00  0.00     0.167 HD
ATOM     68  C   UNL     1      23.010   3.084  -3.656  1.00  0.00     0.074 A 
ATOM     69  C   UNL     1      23.201   1.967  -4.559  1.00  0.00     0.031 C 
ATOM     70  C   UNL     1      23.707   4.244  -3.718  1.00  0.00     0.037 A 
BRANCH  57  71
ATOM     71  C   UNL     1      22.048   8.416   0.529  1.00  0.00     0.057 A 
ATOM     72  C   UNL     1      22.641   8.650   1.776  1.00  0.00     0.134 A 
ATOM     73  C   UNL     1      21.605   9.530  -0.195  1.00  0.00     0.134 A 
ATOM     74  F   UNL     1      23.073   7.624   2.526  1.00  0.00    -0.206 F 
ATOM     75  C   UNL     1      22.759   9.939   2.299  1.00  0.00     0.040 A 
ATOM     76  C   UNL     1      21.741  10.826   0.306  1.00  0.00     0.040 A 
ATOM     77  F   UNL     1      21.031   9.377  -1.398  1.00  0.00    -0.206 F 
ATOM     78  C   UNL     1      22.311  11.032   1.560  1.00  0.00     0.006 A 
ENDBRANCH  57  71
BRANCH  58  79
ATOM     79  C   UNL     1      20.300  -0.717  -3.079  1.00  0.00     0.057 A 
ATOM     80  C   UNL     1      21.195  -1.783  -2.939  1.00  0.00     0.134 A 
ATOM     81  C   UNL     1      19.102  -0.962  -3.760  1.00  0.00     0.134 A 
ATOM     82  F   UNL     1      22.366  -1.603  -2.309  1.00  0.00    -0.206 F 
ATOM     83  C   UNL     1      20.915  -3.046  -3.464  1.00  0.00     0.040 A 
ATOM     84  C   UNL     1      18.800  -2.224  -4.273  1.00  0.00     0.040 A 
ATOM     85  F   UNL     1      18.201   0.018  -3.918  1.00  0.00    -0.206 F 
ATOM     86  C   UNL     1      19.710  -3.270  -4.128  1.00  0.00     0.006 A 
ENDBRANCH  58  79
BRANCH  70  87
ATOM     87  C   UNL     1      24.753   4.356  -4.786  1.00  0.00     0.057 A 
ATOM     88  C   UNL     1      24.413   4.563  -6.128  1.00  0.00     0.134 A 
ATOM     89  C   UNL     1      26.113   4.296  -4.461  1.00  0.00     0.134 A 
ATOM     90  F   UNL     1      23.126   4.615  -6.503  1.00  0.00    -0.206 F 
ATOM     91  C   UNL     1      25.392   4.691  -7.114  1.00  0.00     0.040 A 
ATOM     92  C   UNL     1      27.101   4.444  -5.434  1.00  0.00     0.040 A 
ATOM     93  F   UNL     1      26.503   4.106  -3.191  1.00  0.00    -0.206 F 
ATOM     94  C   UNL     1      26.741   4.638  -6.766  1.00  0.00     0.006 A 
ENDBRANCH  70  87
ENDBRANCH  44  45
ENDBRANCH  36  39
ENDBRANCH  34  35
ENDBRANCH  33  34
ENDBRANCH  32  33
ENDBRANCH   3  32
TORSDOF 16
