REMARK SMILES O=C(CC[C@@]1(c2ccccc2)NC(=O)N(CC(=O)Nc2cccc(F)c2)C1=O)NCCCNC(=O)c1ccc(-c2c3nc(c(-c4c(F)cccc4F)c4ccc([nH]4)c(-c4c(F)cccc4F)c4nc(c(-c5c(F)cccc5F)c5ccc2[nH]5)C=C4)C=C3)cc1
REMARK SMILES IDX 1 1 2 2 29 3 3 5 4 6 5 7 12 8 27 9 13 10 15 12 28 13 14 14
REMARK SMILES IDX 6 15 7 16 11 17 8 18 10 19 9 20 16 21 17 22 18 23 19 24
REMARK SMILES IDX 20 26 21 27 26 28 22 29 24 30 23 31 25 32 30 33 31 34 32 35
REMARK SMILES IDX 33 36 34 37 35 39 36 40 37 41 89 42 38 43 88 44 39 45 40 46
REMARK SMILES IDX 41 47 82 48 42 49 87 50 81 51 83 52 43 53 86 54 80 55 79 56
REMARK SMILES IDX 44 58 70 59 53 60 69 61 54 62 57 63 68 64 84 65 55 66 56 67
REMARK SMILES IDX 67 69 85 70 58 71 45 72 46 73 51 74 47 75 48 76 50 77 52 78
REMARK SMILES IDX 49 79 71 80 72 81 77 82 73 83 74 84 76 85 78 86 75 87 59 88
REMARK SMILES IDX 60 89 65 90 61 91 62 92 64 93 66 94 63 95
REMARK H PARENT 29 4 12 11 19 25 33 38 83 57 57 68
REMARK Flexibility Score: inf
ROOT
ATOM      1  O   UNL     1       3.320   2.026  -2.159  1.00  0.00    -0.275 OA
ATOM      2  C   UNL     1       3.238   1.431  -1.088  1.00  0.00     0.220 C 
ATOM      3  N   UNL     1       2.687   1.950   0.153  1.00  0.00    -0.356 N 
ATOM      4  H   UNL     1       1.807   1.529   0.286  1.00  0.00     0.163 HD
ENDROOT
BRANCH   2   5
ATOM      5  C   UNL     1       3.712  -0.029  -0.958  1.00  0.00     0.103 C 
BRANCH   5   6
ATOM      6  C   UNL     1       5.066  -0.149  -0.216  1.00  0.00     0.053 C 
BRANCH   6   7
ATOM      7  C   UNL     1       4.973   0.159   1.293  1.00  0.00     0.147 C 
ATOM      8  N   UNL     1       4.458  -0.980   2.011  1.00  0.00    -0.319 N 
ATOM      9  C   UNL     1       6.338   0.307   1.990  1.00  0.00     0.261 C 
ATOM     10  C   UNL     1       5.347  -1.469   2.935  1.00  0.00     0.325 C 
ATOM     11  H   UNL     1       3.566  -1.366   1.856  1.00  0.00     0.166 HD
ATOM     12  N   UNL     1       6.485  -0.727   2.877  1.00  0.00    -0.252 N 
ATOM     13  O   UNL     1       7.167   1.179   1.770  1.00  0.00    -0.271 OA
ATOM     14  O   UNL     1       5.100  -2.406   3.674  1.00  0.00    -0.248 OA
BRANCH   7  15
ATOM     15  C   UNL     1       4.130   1.398   1.463  1.00  0.00    -0.013 A 
ATOM     16  C   UNL     1       2.415   1.190   2.045  1.00  0.00     0.007 A 
ATOM     17  C   UNL     1       4.562   2.794   0.368  1.00  0.00     0.007 A 
ATOM     18  C   UNL     1       1.114   2.292   1.429  1.00  0.00     0.000 A 
ATOM     19  C   UNL     1       3.241   3.891  -0.253  1.00  0.00     0.000 A 
ATOM     20  C   UNL     1       1.532   3.614   0.255  1.00  0.00     0.000 A 
ENDBRANCH   7  15
BRANCH  12  21
ATOM     21  C   UNL     1       7.582  -0.860   3.801  1.00  0.00     0.230 C 
BRANCH  21  22
ATOM     22  C   UNL     1       9.014  -0.933   3.257  1.00  0.00     0.244 C 
ATOM     23  O   UNL     1       9.875  -0.176   3.727  1.00  0.00    -0.273 OA
ATOM     24  N   UNL     1       9.478  -1.961   2.486  1.00  0.00    -0.324 N 
ATOM     25  H   UNL     1      10.460  -1.986   2.411  1.00  0.00     0.170 HD
BRANCH  24  26
ATOM     26  C   UNL     1       8.837  -2.983   1.781  1.00  0.00     0.044 A 
ATOM     27  C   UNL     1       9.435  -4.247   1.769  1.00  0.00     0.026 A 
ATOM     28  C   UNL     1       7.703  -2.777   1.010  1.00  0.00     0.065 A 
ATOM     29  C   UNL     1       8.831  -5.314   1.095  1.00  0.00     0.005 A 
ATOM     30  C   UNL     1       7.097  -3.841   0.350  1.00  0.00     0.125 A 
ATOM     31  C   UNL     1       7.641  -5.114   0.400  1.00  0.00     0.039 A 
ATOM     32  F   UNL     1       5.985  -3.622  -0.364  1.00  0.00    -0.207 F 
ENDBRANCH  24  26
ENDBRANCH  21  22
ENDBRANCH  12  21
ENDBRANCH   6   7
ENDBRANCH   5   6
ENDBRANCH   2   5
BRANCH   3  33
ATOM     33  C   UNL     1       3.024   3.234   1.764  1.00  0.00     0.117 C 
BRANCH  33  34
ATOM     34  C   UNL     1       2.005   4.202   2.729  1.00  0.00     0.042 C 
BRANCH  34  35
ATOM     35  C   UNL     1       1.683   3.621   4.109  1.00  0.00     0.118 C 
BRANCH  35  36
ATOM     36  N   UNL     1       2.832   3.465   4.991  1.00  0.00    -0.352 N 
ATOM     37  C   UNL     1       2.790   3.246   6.349  1.00  0.00     0.251 C 
ATOM     38  H   UNL     1       3.723   3.523   4.576  1.00  0.00     0.163 HD
ATOM     39  O   UNL     1       3.808   3.205   7.028  1.00  0.00    -0.269 OA
BRANCH  37  40
ATOM     40  C   UNL     1       1.463   3.112   6.980  1.00  0.00     0.039 A 
ATOM     41  C   UNL     1       1.054   4.076   7.902  1.00  0.00     0.014 A 
ATOM     42  C   UNL     1       0.595   2.097   6.568  1.00  0.00     0.014 A 
ATOM     43  C   UNL     1      -0.259   4.057   8.372  1.00  0.00     0.010 A 
ATOM     44  C   UNL     1      -0.729   2.116   6.991  1.00  0.00     0.010 A 
ATOM     45  C   UNL     1      -1.168   3.096   7.897  1.00  0.00    -0.014 A 
BRANCH  45  46
ATOM     46  C   UNL     1      -2.579   3.093   8.352  1.00  0.00     0.031 A 
ATOM     47  C   UNL     1      -3.088   1.960   9.198  1.00  0.00     0.074 A 
ATOM     48  C   UNL     1      -3.411   4.078   7.965  1.00  0.00     0.049 A 
ATOM     49  N   UNL     1      -4.291   1.758   9.671  1.00  0.00    -0.248 NA
ATOM     50  C   UNL     1      -2.123   0.901   9.532  1.00  0.00     0.031 C 
ATOM     51  C   UNL     1      -3.048   5.203   7.101  1.00  0.00     0.029 A 
ATOM     52  N   UNL     1      -4.738   4.289   8.245  1.00  0.00    -0.354 N 
ATOM     53  C   UNL     1      -4.229   0.548  10.349  1.00  0.00     0.074 A 
ATOM     54  C   UNL     1      -2.888   0.033  10.178  1.00  0.00     0.031 C 
ATOM     55  C   UNL     1      -4.120   5.997   6.941  1.00  0.00     0.029 A 
ATOM     56  C   UNL     1      -5.249   5.427   7.670  1.00  0.00     0.049 A 
ATOM     57  H   UNL     1      -5.273   3.681   8.805  1.00  0.00     0.167 HD
ATOM     58  C   UNL     1      -5.195  -0.067  11.072  1.00  0.00     0.037 A 
ATOM     59  C   UNL     1      -6.488   5.951   7.729  1.00  0.00     0.037 A 
ATOM     60  C   UNL     1      -6.519   0.461  11.264  1.00  0.00     0.049 A 
ATOM     61  C   UNL     1      -7.540   5.256   8.550  1.00  0.00     0.074 A 
ATOM     62  C   UNL     1      -7.551  -0.055  12.027  1.00  0.00     0.029 A 
ATOM     63  N   UNL     1      -6.992   1.629  10.685  1.00  0.00    -0.354 N 
ATOM     64  N   UNL     1      -7.447   4.150   9.247  1.00  0.00    -0.248 NA
ATOM     65  C   UNL     1      -8.867   5.888   8.599  1.00  0.00     0.031 C 
ATOM     66  C   UNL     1      -8.662   0.784  11.882  1.00  0.00     0.029 A 
ATOM     67  C   UNL     1      -8.307   1.843  11.061  1.00  0.00     0.049 A 
ATOM     68  H   UNL     1      -6.470   2.220  10.095  1.00  0.00     0.167 HD
ATOM     69  C   UNL     1      -8.691   3.967   9.838  1.00  0.00     0.074 A 
ATOM     70  C   UNL     1      -9.517   5.083   9.428  1.00  0.00     0.031 C 
ATOM     71  C   UNL     1      -9.111   2.965  10.649  1.00  0.00     0.037 A 
BRANCH  58  72
ATOM     72  C   UNL     1      -4.844  -1.376  11.714  1.00  0.00     0.057 A 
ATOM     73  C   UNL     1      -3.964  -1.451  12.802  1.00  0.00     0.134 A 
ATOM     74  C   UNL     1      -5.404  -2.574  11.252  1.00  0.00     0.134 A 
ATOM     75  F   UNL     1      -3.382  -0.341  13.282  1.00  0.00    -0.206 F 
ATOM     76  C   UNL     1      -3.631  -2.672  13.389  1.00  0.00     0.040 A 
ATOM     77  C   UNL     1      -5.099  -3.798  11.848  1.00  0.00     0.040 A 
ATOM     78  F   UNL     1      -6.257  -2.573  10.217  1.00  0.00    -0.206 F 
ATOM     79  C   UNL     1      -4.204  -3.850  12.915  1.00  0.00     0.006 A 
ENDBRANCH  58  72
BRANCH  59  80
ATOM     80  C   UNL     1      -6.794   7.220   7.023  1.00  0.00     0.057 A 
ATOM     81  C   UNL     1      -7.012   8.406   7.734  1.00  0.00     0.134 A 
ATOM     82  C   UNL     1      -6.885   7.278   5.628  1.00  0.00     0.134 A 
ATOM     83  F   UNL     1      -6.957   8.409   9.074  1.00  0.00    -0.206 F 
ATOM     84  C   UNL     1      -7.328   9.601   7.085  1.00  0.00     0.040 A 
ATOM     85  C   UNL     1      -7.178   8.471   4.964  1.00  0.00     0.040 A 
ATOM     86  F   UNL     1      -6.681   6.178   4.889  1.00  0.00    -0.206 F 
ATOM     87  C   UNL     1      -7.407   9.636   5.694  1.00  0.00     0.006 A 
ENDBRANCH  59  80
BRANCH  71  88
ATOM     88  C   UNL     1     -10.515   3.045  11.168  1.00  0.00     0.057 A 
ATOM     89  C   UNL     1     -11.620   2.782  10.349  1.00  0.00     0.134 A 
ATOM     90  C   UNL     1     -10.761   3.343  12.514  1.00  0.00     0.134 A 
ATOM     91  F   UNL     1     -11.450   2.503   9.048  1.00  0.00    -0.206 F 
ATOM     92  C   UNL     1     -12.922   2.830  10.847  1.00  0.00     0.040 A 
ATOM     93  C   UNL     1     -12.057   3.371  13.029  1.00  0.00     0.040 A 
ATOM     94  F   UNL     1      -9.744   3.597  13.352  1.00  0.00    -0.206 F 
ATOM     95  C   UNL     1     -13.143   3.119  12.193  1.00  0.00     0.006 A 
ENDBRANCH  71  88
ENDBRANCH  45  46
ENDBRANCH  37  40
ENDBRANCH  35  36
ENDBRANCH  34  35
ENDBRANCH  33  34
ENDBRANCH   3  33
TORSDOF 16
