REMARK SMILES O=C(COC[C@@H]1CCCCO1)NCCCNC(=O)c1ccc(-c2c3nc(c(-c4c(F)cccc4F)c4ccc([nH]4)c(-c4c(F)cccc4F)c4nc(c(-c5c(F)cccc5F)c5ccc2[nH]5)C=C4)C=C3)cc1
REMARK SMILES IDX 13 1 12 2 1 3 2 4 3 6 4 7 5 8 6 9 7 10 11 11 8 12 10 13 9 14
REMARK SMILES IDX 14 15 15 16 16 17 17 18 18 20 19 21 20 22 72 23 21 24 71 25
REMARK SMILES IDX 22 26 23 27 24 28 65 29 25 30 70 31 64 32 66 33 26 34 69 35
REMARK SMILES IDX 63 36 62 37 27 39 53 40 36 41 52 42 37 43 40 44 51 45 67 46
REMARK SMILES IDX 38 47 39 48 50 50 68 51 41 52 28 53 29 54 34 55 30 56 31 57
REMARK SMILES IDX 33 58 35 59 32 60 54 61 55 62 60 63 56 64 57 65 59 66 61 67
REMARK SMILES IDX 58 68 42 69 43 70 48 71 44 72 45 73 47 74 49 75 46 76
REMARK H PARENT 12 5 16 19 66 38 40 49
REMARK Flexibility Score: inf
ROOT
ATOM      1  C   UNL     1       2.176   1.582  -1.986  1.00  0.00     0.117 C 
ENDROOT
BRANCH   1   2
ATOM      2  N   UNL     1       2.822   0.712  -1.028  1.00  0.00    -0.354 N 
ATOM      3  O   UNL     1       1.089   0.677   0.483  1.00  0.00    -0.272 OA
ATOM      4  C   UNL     1       2.193   0.283   0.121  1.00  0.00     0.246 C 
ATOM      5  H   UNL     1       3.745   0.416  -1.203  1.00  0.00     0.163 HD
BRANCH   4   6
ATOM      6  C   UNL     1       3.026  -0.710   0.940  1.00  0.00     0.260 C 
BRANCH   6   7
ATOM      7  O   UNL     1       3.817  -1.634   0.203  1.00  0.00    -0.369 OA
BRANCH   7   8
ATOM      8  C   UNL     1       3.088  -2.518  -0.654  1.00  0.00     0.192 C 
BRANCH   8   9
ATOM      9  C   UNL     1       2.083  -3.456   0.047  1.00  0.00     0.144 C 
ATOM     10  C   UNL     1       2.699  -4.317   1.153  1.00  0.00     0.034 C 
ATOM     11  O   UNL     1       1.373  -4.266  -0.901  1.00  0.00    -0.376 OA
ATOM     12  C   UNL     1       3.524  -5.468   0.591  1.00  0.00     0.005 C 
ATOM     13  C   UNL     1       2.143  -5.310  -1.494  1.00  0.00     0.160 C 
ATOM     14  C   UNL     1       2.715  -6.245  -0.440  1.00  0.00     0.029 C 
ENDBRANCH   8   9
ENDBRANCH   7   8
ENDBRANCH   6   7
ENDBRANCH   4   6
ENDBRANCH   1   2
BRANCH   1  15
ATOM     15  C   UNL     1       2.425   3.061  -1.712  1.00  0.00     0.042 C 
BRANCH  15  16
ATOM     16  C   UNL     1       3.892   3.479  -1.774  1.00  0.00     0.118 C 
BRANCH  16  17
ATOM     17  N   UNL     1       4.492   3.272  -3.084  1.00  0.00    -0.352 N 
ATOM     18  C   UNL     1       5.199   4.124  -3.891  1.00  0.00     0.251 C 
ATOM     19  H   UNL     1       4.369   2.367  -3.451  1.00  0.00     0.163 HD
ATOM     20  O   UNL     1       5.501   3.755  -5.027  1.00  0.00    -0.269 OA
BRANCH  18  21
ATOM     21  C   UNL     1       5.593   5.478  -3.441  1.00  0.00     0.039 A 
ATOM     22  C   UNL     1       5.560   6.522  -4.373  1.00  0.00     0.014 A 
ATOM     23  C   UNL     1       6.058   5.725  -2.146  1.00  0.00     0.014 A 
ATOM     24  C   UNL     1       5.947   7.812  -3.999  1.00  0.00     0.010 A 
ATOM     25  C   UNL     1       6.381   7.025  -1.754  1.00  0.00     0.010 A 
ATOM     26  C   UNL     1       6.343   8.079  -2.679  1.00  0.00    -0.014 A 
BRANCH  26  27
ATOM     27  C   UNL     1       6.748   9.447  -2.265  1.00  0.00     0.031 A 
ATOM     28  C   UNL     1       8.169   9.726  -1.856  1.00  0.00     0.074 A 
ATOM     29  C   UNL     1       5.831  10.433  -2.217  1.00  0.00     0.049 A 
ATOM     30  N   UNL     1       8.701  10.840  -1.419  1.00  0.00    -0.248 NA
ATOM     31  C   UNL     1       9.110   8.598  -1.924  1.00  0.00     0.031 C 
ATOM     32  C   UNL     1       4.413  10.288  -2.548  1.00  0.00     0.029 A 
ATOM     33  N   UNL     1       5.957  11.753  -1.863  1.00  0.00    -0.354 N 
ATOM     34  C   UNL     1      10.029  10.542  -1.143  1.00  0.00     0.074 A 
ATOM     35  C   UNL     1      10.212   9.134  -1.420  1.00  0.00     0.031 C 
ATOM     36  C   UNL     1       3.805  11.477  -2.401  1.00  0.00     0.029 A 
ATOM     37  C   UNL     1       4.782  12.459  -1.940  1.00  0.00     0.049 A 
ATOM     38  H   UNL     1       6.810  12.156  -1.579  1.00  0.00     0.167 HD
ATOM     39  C   UNL     1      11.014  11.370  -0.717  1.00  0.00     0.037 A 
ATOM     40  C   UNL     1       4.521  13.752  -1.672  1.00  0.00     0.037 A 
ATOM     41  C   UNL     1      10.846  12.778  -0.475  1.00  0.00     0.049 A 
ATOM     42  C   UNL     1       5.636  14.655  -1.224  1.00  0.00     0.074 A 
ATOM     43  C   UNL     1      11.797  13.708  -0.092  1.00  0.00     0.029 A 
ATOM     44  N   UNL     1       9.646  13.461  -0.599  1.00  0.00    -0.354 N 
ATOM     45  N   UNL     1       6.898  14.371  -1.019  1.00  0.00    -0.248 NA
ATOM     46  C   UNL     1       5.290  16.063  -0.980  1.00  0.00     0.031 C 
ATOM     47  C   UNL     1      11.167  14.950   0.041  1.00  0.00     0.029 A 
ATOM     48  C   UNL     1       9.831  14.800  -0.293  1.00  0.00     0.049 A 
ATOM     49  H   UNL     1       8.790  13.056  -0.866  1.00  0.00     0.167 HD
ATOM     50  C   UNL     1       7.503  15.566  -0.653  1.00  0.00     0.074 A 
ATOM     51  C   UNL     1       6.470  16.581  -0.671  1.00  0.00     0.031 C 
ATOM     52  C   UNL     1       8.798  15.801  -0.331  1.00  0.00     0.037 A 
BRANCH  39  53
ATOM     53  C   UNL     1      12.369  10.767  -0.492  1.00  0.00     0.057 A 
ATOM     54  C   UNL     1      13.185  10.369  -1.559  1.00  0.00     0.134 A 
ATOM     55  C   UNL     1      12.876  10.608   0.804  1.00  0.00     0.134 A 
ATOM     56  F   UNL     1      12.752  10.483  -2.824  1.00  0.00    -0.206 F 
ATOM     57  C   UNL     1      14.446   9.810  -1.345  1.00  0.00     0.040 A 
ATOM     58  C   UNL     1      14.146  10.073   1.030  1.00  0.00     0.040 A 
ATOM     59  F   UNL     1      12.149  10.974   1.870  1.00  0.00    -0.206 F 
ATOM     60  C   UNL     1      14.931   9.666  -0.047  1.00  0.00     0.006 A 
ENDBRANCH  39  53
BRANCH  40  61
ATOM     61  C   UNL     1       3.148  14.284  -1.855  1.00  0.00     0.057 A 
ATOM     62  C   UNL     1       2.845  15.140  -2.920  1.00  0.00     0.134 A 
ATOM     63  C   UNL     1       2.114  13.958  -0.972  1.00  0.00     0.134 A 
ATOM     64  F   UNL     1       3.802  15.503  -3.787  1.00  0.00    -0.206 F 
ATOM     65  C   UNL     1       1.565  15.669  -3.090  1.00  0.00     0.040 A 
ATOM     66  C   UNL     1       0.824  14.463  -1.142  1.00  0.00     0.040 A 
ATOM     67  F   UNL     1       2.341  13.138   0.065  1.00  0.00    -0.206 F 
ATOM     68  C   UNL     1       0.549  15.326  -2.201  1.00  0.00     0.006 A 
ENDBRANCH  40  61
BRANCH  52  69
ATOM     69  C   UNL     1       9.180  17.216  -0.016  1.00  0.00     0.057 A 
ATOM     70  C   UNL     1       8.829  17.825   1.195  1.00  0.00     0.134 A 
ATOM     71  C   UNL     1       9.938  17.967  -0.924  1.00  0.00     0.134 A 
ATOM     72  F   UNL     1       8.092  17.162   2.100  1.00  0.00    -0.206 F 
ATOM     73  C   UNL     1       9.201  19.138   1.484  1.00  0.00     0.040 A 
ATOM     74  C   UNL     1      10.335  19.273  -0.637  1.00  0.00     0.040 A 
ATOM     75  F   UNL     1      10.312  17.439  -2.099  1.00  0.00    -0.206 F 
ATOM     76  C   UNL     1       9.961  19.864   0.569  1.00  0.00     0.006 A 
ENDBRANCH  52  69
ENDBRANCH  26  27
ENDBRANCH  18  21
ENDBRANCH  16  17
ENDBRANCH  15  16
ENDBRANCH   1  15
TORSDOF 13
