REMARK SMILES CCCCCCC(=O)N1CCCC[C@H]1C(=O)NCCCNC(=O)c1ccc(-c2c3nc(c(-c4c(F)cccc4F)c4ccc([nH]4)c(-c4c(F)cccc4F)c4nc(c(-c5c(F)cccc5F)c5ccc2[nH]5)C=C4)C=C3)cc1
REMARK SMILES IDX 15 1 16 2 17 3 14 5 9 6 10 7 11 8 13 9 12 10 7 11 8 12 6 13
REMARK SMILES IDX 5 14 4 15 3 16 2 17 1 18 18 19 19 20 20 21 21 22 22 23 23 25
REMARK SMILES IDX 24 26 25 27 77 28 26 29 76 30 27 31 28 32 29 33 70 34 30 35
REMARK SMILES IDX 75 36 69 37 71 38 31 39 74 40 68 41 67 42 32 44 58 45 41 46
REMARK SMILES IDX 57 47 42 48 45 49 56 50 72 51 43 52 44 53 55 55 73 56 46 57
REMARK SMILES IDX 33 58 34 59 39 60 35 61 36 62 38 63 40 64 37 65 59 66 60 67
REMARK SMILES IDX 65 68 61 69 62 70 64 71 66 72 63 73 47 74 48 75 53 76 49 77
REMARK SMILES IDX 50 78 52 79 54 80 51 81
REMARK H PARENT 17 4 21 24 71 43 45 54
REMARK Flexibility Score: inf
ROOT
ATOM      1  C   UNL     1       2.433  -3.052   3.495  1.00  0.00     0.242 C 
ATOM      2  O   UNL     1       2.128  -3.779   2.540  1.00  0.00    -0.273 OA
ATOM      3  N   UNL     1       3.674  -2.512   3.401  1.00  0.00    -0.354 N 
ATOM      4  H   UNL     1       4.085  -2.646   2.516  1.00  0.00     0.163 HD
ENDROOT
BRANCH   1   5
ATOM      5  C   UNL     1       1.382  -2.680   4.583  1.00  0.00     0.174 C 
ATOM      6  N   UNL     1       0.261  -3.641   4.516  1.00  0.00    -0.331 N 
ATOM      7  C   UNL     1       0.488  -4.954   5.109  1.00  0.00     0.120 C 
ATOM      8  C   UNL     1       0.899  -4.843   6.568  1.00  0.00     0.022 C 
ATOM      9  C   UNL     1       1.797  -2.554   6.056  1.00  0.00     0.035 C 
ATOM     10  C   UNL     1       2.084  -3.898   6.718  1.00  0.00     0.004 C 
BRANCH   6  11
ATOM     11  C   UNL     1      -1.017  -3.311   4.114  1.00  0.00     0.223 C 
ATOM     12  O   UNL     1      -1.998  -3.587   4.807  1.00  0.00    -0.275 OA
BRANCH  11  13
ATOM     13  C   UNL     1      -1.192  -2.825   2.681  1.00  0.00     0.100 C 
BRANCH  13  14
ATOM     14  C   UNL     1      -1.047  -1.330   2.405  1.00  0.00     0.010 C 
BRANCH  14  15
ATOM     15  C   UNL     1       0.252  -0.893   1.712  1.00  0.00     0.001 C 
BRANCH  15  16
ATOM     16  C   UNL     1       0.571  -1.570   0.373  1.00  0.00    -0.000 C 
BRANCH  16  17
ATOM     17  C   UNL     1       0.114  -0.796  -0.862  1.00  0.00    -0.003 C 
ATOM     18  C   UNL     1       0.815   0.546  -1.020  1.00  0.00     0.004 C 
ENDBRANCH  16  17
ENDBRANCH  15  16
ENDBRANCH  14  15
ENDBRANCH  13  14
ENDBRANCH  11  13
ENDBRANCH   6  11
ENDBRANCH   1   5
BRANCH   3  19
ATOM     19  C   UNL     1       4.529  -1.781   4.317  1.00  0.00     0.117 C 
BRANCH  19  20
ATOM     20  C   UNL     1       5.408  -2.737   5.122  1.00  0.00     0.042 C 
BRANCH  20  21
ATOM     21  C   UNL     1       6.430  -3.485   4.266  1.00  0.00     0.118 C 
BRANCH  21  22
ATOM     22  N   UNL     1       7.561  -2.643   3.915  1.00  0.00    -0.352 N 
ATOM     23  C   UNL     1       8.871  -2.708   4.321  1.00  0.00     0.251 C 
ATOM     24  H   UNL     1       7.356  -1.912   3.289  1.00  0.00     0.163 HD
ATOM     25  O   UNL     1       9.607  -1.748   4.110  1.00  0.00    -0.269 OA
BRANCH  23  26
ATOM     26  C   UNL     1       9.412  -3.909   5.001  1.00  0.00     0.039 A 
ATOM     27  C   UNL     1      10.382  -3.732   5.994  1.00  0.00     0.014 A 
ATOM     28  C   UNL     1       9.057  -5.203   4.609  1.00  0.00     0.014 A 
ATOM     29  C   UNL     1      10.983  -4.842   6.594  1.00  0.00     0.010 A 
ATOM     30  C   UNL     1       9.596  -6.310   5.267  1.00  0.00     0.010 A 
ATOM     31  C   UNL     1      10.593  -6.143   6.239  1.00  0.00    -0.014 A 
BRANCH  31  32
ATOM     32  C   UNL     1      11.290  -7.329   6.805  1.00  0.00     0.031 A 
ATOM     33  C   UNL     1      12.097  -8.227   5.900  1.00  0.00     0.074 A 
ATOM     34  C   UNL     1      11.202  -7.606   8.120  1.00  0.00     0.049 A 
ATOM     35  N   UNL     1      12.757  -9.321   6.190  1.00  0.00    -0.248 NA
ATOM     36  C   UNL     1      12.147  -7.862   4.474  1.00  0.00     0.031 C 
ATOM     37  C   UNL     1      10.425  -6.843   9.098  1.00  0.00     0.029 A 
ATOM     38  N   UNL     1      11.777  -8.608   8.862  1.00  0.00    -0.354 N 
ATOM     39  C   UNL     1      13.287  -9.774   4.988  1.00  0.00     0.074 A 
ATOM     40  C   UNL     1      12.820  -8.878   3.954  1.00  0.00     0.031 C 
ATOM     41  C   UNL     1      10.596  -7.386  10.316  1.00  0.00     0.029 A 
ATOM     42  C   UNL     1      11.472  -8.548  10.201  1.00  0.00     0.049 A 
ATOM     43  H   UNL     1      12.353  -9.304   8.472  1.00  0.00     0.167 HD
ATOM     44  C   UNL     1      14.117 -10.821   4.763  1.00  0.00     0.037 A 
ATOM     45  C   UNL     1      11.862  -9.338  11.219  1.00  0.00     0.037 A 
ATOM     46  C   UNL     1      14.617 -11.693   5.792  1.00  0.00     0.049 A 
ATOM     47  C   UNL     1      12.798 -10.484  10.944  1.00  0.00     0.074 A 
ATOM     48  C   UNL     1      15.483 -12.766   5.671  1.00  0.00     0.029 A 
ATOM     49  N   UNL     1      14.307 -11.578   7.138  1.00  0.00    -0.354 N 
ATOM     50  N   UNL     1      13.321 -10.872   9.807  1.00  0.00    -0.248 NA
ATOM     51  C   UNL     1      13.208 -11.294  12.101  1.00  0.00     0.031 C 
ATOM     52  C   UNL     1      15.682 -13.312   6.943  1.00  0.00     0.029 A 
ATOM     53  C   UNL     1      14.967 -12.559   7.859  1.00  0.00     0.049 A 
ATOM     54  H   UNL     1      13.708 -10.899   7.524  1.00  0.00     0.167 HD
ATOM     55  C   UNL     1      14.142 -11.950  10.115  1.00  0.00     0.074 A 
ATOM     56  C   UNL     1      14.064 -12.140  11.548  1.00  0.00     0.031 C 
ATOM     57  C   UNL     1      14.890 -12.719   9.286  1.00  0.00     0.037 A 
BRANCH  44  58
ATOM     58  C   UNL     1      14.560 -11.061   3.350  1.00  0.00     0.057 A 
ATOM     59  C   UNL     1      15.471 -10.207   2.714  1.00  0.00     0.134 A 
ATOM     60  C   UNL     1      14.105 -12.171   2.629  1.00  0.00     0.134 A 
ATOM     61  F   UNL     1      15.934  -9.117   3.345  1.00  0.00    -0.206 F 
ATOM     62  C   UNL     1      15.896 -10.436   1.404  1.00  0.00     0.040 A 
ATOM     63  C   UNL     1      14.542 -12.425   1.327  1.00  0.00     0.040 A 
ATOM     64  F   UNL     1      13.235 -13.032   3.180  1.00  0.00    -0.206 F 
ATOM     65  C   UNL     1      15.437 -11.553   0.710  1.00  0.00     0.006 A 
ENDBRANCH  44  58
BRANCH  45  66
ATOM     66  C   UNL     1      11.399  -9.066  12.604  1.00  0.00     0.057 A 
ATOM     67  C   UNL     1      12.288  -8.610  13.585  1.00  0.00     0.134 A 
ATOM     68  C   UNL     1      10.075  -9.298  12.991  1.00  0.00     0.134 A 
ATOM     69  F   UNL     1      13.575  -8.389  13.280  1.00  0.00    -0.206 F 
ATOM     70  C   UNL     1      11.885  -8.427  14.909  1.00  0.00     0.040 A 
ATOM     71  C   UNL     1       9.652  -9.095  14.306  1.00  0.00     0.040 A 
ATOM     72  F   UNL     1       9.173  -9.729  12.097  1.00  0.00    -0.206 F 
ATOM     73  C   UNL     1      10.562  -8.669  15.272  1.00  0.00     0.006 A 
ENDBRANCH  45  66
BRANCH  57  74
ATOM     74  C   UNL     1      15.709 -13.804   9.918  1.00  0.00     0.057 A 
ATOM     75  C   UNL     1      15.122 -14.970  10.427  1.00  0.00     0.134 A 
ATOM     76  C   UNL     1      17.102 -13.690  10.000  1.00  0.00     0.134 A 
ATOM     77  F   UNL     1      13.791 -15.133  10.389  1.00  0.00    -0.206 F 
ATOM     78  C   UNL     1      15.891 -15.971  11.022  1.00  0.00     0.040 A 
ATOM     79  C   UNL     1      17.883 -14.695  10.570  1.00  0.00     0.040 A 
ATOM     80  F   UNL     1      17.726 -12.602   9.522  1.00  0.00    -0.206 F 
ATOM     81  C   UNL     1      17.276 -15.836  11.091  1.00  0.00     0.006 A 
ENDBRANCH  57  74
ENDBRANCH  31  32
ENDBRANCH  23  26
ENDBRANCH  21  22
ENDBRANCH  20  21
ENDBRANCH  19  20
ENDBRANCH   3  19
TORSDOF 16
