REMARK SMILES O=C(Cn1c2ccccc2c(=O)c2ccccc21)N[C@@H](Cc1ccccc1)C(=O)NCCCNC(=O)c1ccc(-c2c3nc(c(-c4c(F)cccc4F)c4ccc([nH]4)c(-c4c(F)cccc4F)c4nc(c(-c5c(F)cccc5F)c5ccc2[nH]5)C=C4)C=C3)cc1
REMARK SMILES IDX 31 1 30 2 28 3 29 4 20 6 19 7 1 8 2 9 3 11 4 12 5 13 18 14
REMARK SMILES IDX 6 15 10 16 13 17 17 18 7 19 9 20 11 21 14 22 16 23 8 24
REMARK SMILES IDX 12 25 15 26 21 27 22 28 23 29 27 30 24 31 26 32 25 33 32 34
REMARK SMILES IDX 33 35 34 36 35 37 36 39 37 40 38 41 90 42 39 43 89 44 40 45
REMARK SMILES IDX 41 46 42 47 83 48 43 49 88 50 82 51 84 52 44 53 87 54 81 55
REMARK SMILES IDX 80 56 45 58 71 59 54 60 70 61 55 62 58 63 69 64 85 65 56 66
REMARK SMILES IDX 57 67 68 69 86 70 59 71 46 72 47 73 52 74 48 75 49 76 51 77
REMARK SMILES IDX 53 78 50 79 72 80 73 81 78 82 74 83 75 84 77 85 79 86 76 87
REMARK SMILES IDX 60 88 61 89 66 90 62 91 63 92 65 93 67 94 64 95
REMARK H PARENT 30 5 19 10 34 38 84 57 58 68
REMARK Flexibility Score: inf
ROOT
ATOM      1  C   UNL     1       5.024   2.207   2.370  1.00  0.00     0.117 C 
ENDROOT
BRANCH   1   2
ATOM      2  N   UNL     1       3.721   2.814   2.191  1.00  0.00    -0.354 N 
ATOM      3  C   UNL     1       2.492   2.273   2.451  1.00  0.00     0.242 C 
ATOM      4  O   UNL     1       1.593   3.052   2.784  1.00  0.00    -0.273 OA
ATOM      5  H   UNL     1       3.720   3.733   1.837  1.00  0.00     0.163 HD
BRANCH   3   6
ATOM      6  C   UNL     1       2.244   0.751   2.398  1.00  0.00     0.175 C 
BRANCH   6   7
ATOM      7  N   UNL     1       2.865   0.175   1.198  1.00  0.00    -0.342 N 
ATOM      8  O   UNL     1       0.941  -0.740   0.361  1.00  0.00    -0.273 OA
ATOM      9  C   UNL     1       2.101  -0.368   0.191  1.00  0.00     0.240 C 
ATOM     10  H   UNL     1       3.845   0.178   1.113  1.00  0.00     0.164 HD
BRANCH   9  11
ATOM     11  C   UNL     1       2.800  -0.530  -1.165  1.00  0.00     0.222 C 
BRANCH  11  12
ATOM     12  N   UNL     1       3.654   0.613  -1.613  1.00  0.00    -0.331 N 
ATOM     13  C   UNL     1       3.167   1.947  -1.558  1.00  0.00     0.053 A 
ATOM     14  C   UNL     1       4.829   0.295  -2.361  1.00  0.00     0.053 A 
ATOM     15  C   UNL     1       1.878   2.309  -1.136  1.00  0.00     0.027 A 
ATOM     16  C   UNL     1       4.002   3.017  -1.945  1.00  0.00     0.046 A 
ATOM     17  C   UNL     1       5.669   1.331  -2.823  1.00  0.00     0.046 A 
ATOM     18  C   UNL     1       5.216  -1.011  -2.716  1.00  0.00     0.027 A 
ATOM     19  C   UNL     1       1.487   3.652  -1.006  1.00  0.00     0.002 A 
ATOM     20  C   UNL     1       3.613   4.362  -1.835  1.00  0.00     0.014 A 
ATOM     21  C   UNL     1       5.335   2.728  -2.502  1.00  0.00     0.197 A 
ATOM     22  C   UNL     1       6.811   1.086  -3.602  1.00  0.00     0.014 A 
ATOM     23  C   UNL     1       6.361  -1.263  -3.488  1.00  0.00     0.002 A 
ATOM     24  C   UNL     1       2.356   4.680  -1.345  1.00  0.00     0.001 A 
ATOM     25  O   UNL     1       6.141   3.632  -2.698  1.00  0.00    -0.288 OA
ATOM     26  C   UNL     1       7.151  -0.216  -3.939  1.00  0.00     0.001 A 
ENDBRANCH  11  12
ENDBRANCH   9  11
ENDBRANCH   6   7
BRANCH   6  27
ATOM     27  C   UNL     1       2.473   0.004   3.730  1.00  0.00     0.070 C 
BRANCH  27  28
ATOM     28  C   UNL     1       3.887  -0.118   4.244  1.00  0.00    -0.045 A 
ATOM     29  C   UNL     1       4.384   0.789   5.194  1.00  0.00     0.004 A 
ATOM     30  C   UNL     1       4.742  -1.109   3.743  1.00  0.00     0.004 A 
ATOM     31  C   UNL     1       5.729   0.754   5.571  1.00  0.00     0.000 A 
ATOM     32  C   UNL     1       6.085  -1.146   4.127  1.00  0.00     0.000 A 
ATOM     33  C   UNL     1       6.582  -0.203   5.025  1.00  0.00     0.000 A 
ENDBRANCH  27  28
ENDBRANCH   6  27
ENDBRANCH   3   6
ENDBRANCH   1   2
BRANCH   1  34
ATOM     34  C   UNL     1       6.084   2.714   1.420  1.00  0.00     0.042 C 
BRANCH  34  35
ATOM     35  C   UNL     1       6.553   4.109   1.794  1.00  0.00     0.118 C 
BRANCH  35  36
ATOM     36  N   UNL     1       7.314   4.131   3.047  1.00  0.00    -0.352 N 
ATOM     37  C   UNL     1       8.671   4.145   3.283  1.00  0.00     0.251 C 
ATOM     38  H   UNL     1       6.760   4.136   3.860  1.00  0.00     0.163 HD
ATOM     39  O   UNL     1       9.099   3.945   4.416  1.00  0.00    -0.269 OA
BRANCH  37  40
ATOM     40  C   UNL     1       9.611   4.358   2.164  1.00  0.00     0.039 A 
ATOM     41  C   UNL     1       9.300   5.271   1.164  1.00  0.00     0.014 A 
ATOM     42  C   UNL     1      10.786   3.606   2.080  1.00  0.00     0.014 A 
ATOM     43  C   UNL     1       9.982   5.220  -0.038  1.00  0.00     0.010 A 
ATOM     44  C   UNL     1      11.572   3.679   0.924  1.00  0.00     0.010 A 
ATOM     45  C   UNL     1      11.132   4.427  -0.178  1.00  0.00    -0.014 A 
BRANCH  45  46
ATOM     46  C   UNL     1      11.816   4.397  -1.499  1.00  0.00     0.031 A 
ATOM     47  C   UNL     1      11.968   3.108  -2.265  1.00  0.00     0.074 A 
ATOM     48  C   UNL     1      12.197   5.561  -2.062  1.00  0.00     0.049 A 
ATOM     49  N   UNL     1      12.522   2.906  -3.435  1.00  0.00    -0.248 NA
ATOM     50  C   UNL     1      11.444   1.885  -1.637  1.00  0.00     0.031 C 
ATOM     51  C   UNL     1      12.086   6.879  -1.430  1.00  0.00     0.029 A 
ATOM     52  N   UNL     1      12.699   5.835  -3.307  1.00  0.00    -0.354 N 
ATOM     53  C   UNL     1      12.444   1.538  -3.665  1.00  0.00     0.074 A 
ATOM     54  C   UNL     1      11.812   0.951  -2.503  1.00  0.00     0.031 C 
ATOM     55  C   UNL     1      12.408   7.825  -2.322  1.00  0.00     0.029 A 
ATOM     56  C   UNL     1      12.841   7.179  -3.555  1.00  0.00     0.049 A 
ATOM     57  H   UNL     1      12.934   5.138  -3.961  1.00  0.00     0.167 HD
ATOM     58  C   UNL     1      12.848   0.836  -4.752  1.00  0.00     0.037 A 
ATOM     59  C   UNL     1      13.284   7.826  -4.647  1.00  0.00     0.037 A 
ATOM     60  C   UNL     1      13.431   1.428  -5.928  1.00  0.00     0.049 A 
ATOM     61  C   UNL     1      13.731   7.026  -5.832  1.00  0.00     0.074 A 
ATOM     62  C   UNL     1      13.885   0.803  -7.076  1.00  0.00     0.029 A 
ATOM     63  N   UNL     1      13.616   2.790  -6.114  1.00  0.00    -0.354 N 
ATOM     64  N   UNL     1      13.710   5.727  -6.005  1.00  0.00    -0.248 NA
ATOM     65  C   UNL     1      14.285   7.779  -6.964  1.00  0.00     0.031 C 
ATOM     66  C   UNL     1      14.364   1.786  -7.950  1.00  0.00     0.029 A 
ATOM     67  C   UNL     1      14.179   3.025  -7.358  1.00  0.00     0.049 A 
ATOM     68  H   UNL     1      13.382   3.487  -5.459  1.00  0.00     0.167 HD
ATOM     69  C   UNL     1      14.253   5.504  -7.261  1.00  0.00     0.074 A 
ATOM     70  C   UNL     1      14.562   6.805  -7.820  1.00  0.00     0.031 C 
ATOM     71  C   UNL     1      14.488   4.327  -7.890  1.00  0.00     0.037 A 
BRANCH  58  72
ATOM     72  C   UNL     1      12.671  -0.654  -4.718  1.00  0.00     0.057 A 
ATOM     73  C   UNL     1      13.771  -1.507  -4.575  1.00  0.00     0.134 A 
ATOM     74  C   UNL     1      11.410  -1.246  -4.859  1.00  0.00     0.134 A 
ATOM     75  F   UNL     1      15.009  -1.007  -4.448  1.00  0.00    -0.206 F 
ATOM     76  C   UNL     1      13.622  -2.896  -4.570  1.00  0.00     0.040 A 
ATOM     77  C   UNL     1      11.244  -2.632  -4.830  1.00  0.00     0.040 A 
ATOM     78  F   UNL     1      10.318  -0.482  -4.998  1.00  0.00    -0.206 F 
ATOM     79  C   UNL     1      12.354  -3.462  -4.690  1.00  0.00     0.006 A 
ENDBRANCH  58  72
BRANCH  59  80
ATOM     80  C   UNL     1      13.347   9.308  -4.649  1.00  0.00     0.057 A 
ATOM     81  C   UNL     1      14.252   9.997  -3.831  1.00  0.00     0.134 A 
ATOM     82  C   UNL     1      12.486  10.071  -5.445  1.00  0.00     0.134 A 
ATOM     83  F   UNL     1      15.098   9.322  -3.039  1.00  0.00    -0.206 F 
ATOM     84  C   UNL     1      14.281  11.391  -3.785  1.00  0.00     0.040 A 
ATOM     85  C   UNL     1      12.524  11.466  -5.430  1.00  0.00     0.040 A 
ATOM     86  F   UNL     1      11.611   9.468  -6.263  1.00  0.00    -0.206 F 
ATOM     87  C   UNL     1      13.418  12.129  -4.591  1.00  0.00     0.006 A 
ENDBRANCH  59  80
BRANCH  71  88
ATOM     88  C   UNL     1      15.107   4.407  -9.251  1.00  0.00     0.057 A 
ATOM     89  C   UNL     1      14.346   4.157 -10.399  1.00  0.00     0.134 A 
ATOM     90  C   UNL     1      16.460   4.726  -9.422  1.00  0.00     0.134 A 
ATOM     91  F   UNL     1      13.046   3.841 -10.300  1.00  0.00    -0.206 F 
ATOM     92  C   UNL     1      14.910   4.225 -11.673  1.00  0.00     0.040 A 
ATOM     93  C   UNL     1      17.030   4.819 -10.692  1.00  0.00     0.040 A 
ATOM     94  F   UNL     1      17.235   4.991  -8.360  1.00  0.00    -0.206 F 
ATOM     95  C   UNL     1      16.254   4.564 -11.822  1.00  0.00     0.006 A 
ENDBRANCH  71  88
ENDBRANCH  45  46
ENDBRANCH  37  40
ENDBRANCH  35  36
ENDBRANCH  34  35
ENDBRANCH   1  34
TORSDOF 15
