REMARK SMILES O=C(NCCCNC(=O)[C@H]1CC2=c3ccccc3=N[C@H]2[C@@H](c2ccccc2)[NH2+]1)c1ccc(-c2c3nc(c(-c4c(F)cccc4F)c4ccc([nH]4)c(-c4c(F)cccc4F)c4nc(c(-c5c(F)cccc5F)c5ccc2[nH]5)C=C4)C=C3)cc1
REMARK SMILES IDX 4 1 3 2 1 3 2 4 29 6 30 7 82 8 31 9 81 10 32 11 33 12 34 13
REMARK SMILES IDX 75 14 35 15 80 16 74 17 76 18 36 19 79 20 73 21 72 22 37 24
REMARK SMILES IDX 63 25 46 26 62 27 47 28 50 29 61 30 77 31 48 32 49 33 60 35
REMARK SMILES IDX 78 36 51 37 38 38 39 39 44 40 40 41 41 42 43 43 45 44 42 45
REMARK SMILES IDX 64 46 65 47 70 48 66 49 67 50 69 51 71 52 68 53 52 54 53 55
REMARK SMILES IDX 58 56 54 57 55 58 57 59 59 60 56 61 5 62 6 63 7 64 8 65 9 67
REMARK SMILES IDX 10 68 11 69 28 70 12 71 21 72 13 75 20 76 14 77 18 78 19 79
REMARK SMILES IDX 15 80 17 81 16 82 22 83 23 84 27 85 24 86 26 87 25 88
REMARK H PARENT 3 5 76 23 50 34 7 66 28 73 28 74
REMARK Flexibility Score: inf
ROOT
ATOM      1  C   UNL     1       4.353  -0.408   1.187  1.00  0.00     0.118 C 
ENDROOT
BRANCH   1   2
ATOM      2  N   UNL     1       2.982  -0.670   0.778  1.00  0.00    -0.352 N 
ATOM      3  O   UNL     1       0.998  -0.162  -0.146  1.00  0.00    -0.269 OA
ATOM      4  C   UNL     1       2.224  -0.047  -0.175  1.00  0.00     0.251 C 
ATOM      5  H   UNL     1       2.533  -1.404   1.258  1.00  0.00     0.163 HD
BRANCH   4   6
ATOM      6  C   UNL     1       2.855   0.737  -1.258  1.00  0.00     0.039 A 
ATOM      7  C   UNL     1       2.227   1.906  -1.700  1.00  0.00     0.014 A 
ATOM      8  C   UNL     1       3.978   0.249  -1.933  1.00  0.00     0.014 A 
ATOM      9  C   UNL     1       2.713   2.579  -2.824  1.00  0.00     0.010 A 
ATOM     10  C   UNL     1       4.496   0.950  -3.019  1.00  0.00     0.010 A 
ATOM     11  C   UNL     1       3.842   2.095  -3.500  1.00  0.00    -0.014 A 
BRANCH  11  12
ATOM     12  C   UNL     1       4.273   2.672  -4.797  1.00  0.00     0.031 A 
ATOM     13  C   UNL     1       4.101   1.853  -6.049  1.00  0.00     0.074 A 
ATOM     14  C   UNL     1       4.854   3.884  -4.854  1.00  0.00     0.049 A 
ATOM     15  N   UNL     1       4.541   2.082  -7.260  1.00  0.00    -0.248 NA
ATOM     16  C   UNL     1       3.357   0.589  -5.910  1.00  0.00     0.031 C 
ATOM     17  C   UNL     1       5.078   4.774  -3.715  1.00  0.00     0.029 A 
ATOM     18  N   UNL     1       5.383   4.565  -5.921  1.00  0.00    -0.354 N 
ATOM     19  C   UNL     1       4.165   0.976  -8.012  1.00  0.00     0.074 A 
ATOM     20  C   UNL     1       3.484   0.064  -7.120  1.00  0.00     0.031 C 
ATOM     21  C   UNL     1       5.700   5.885  -4.144  1.00  0.00     0.029 A 
ATOM     22  C   UNL     1       5.951   5.768  -5.578  1.00  0.00     0.049 A 
ATOM     23  H   UNL     1       5.357   4.225  -6.844  1.00  0.00     0.167 HD
ATOM     24  C   UNL     1       4.358   0.745  -9.332  1.00  0.00     0.037 A 
ATOM     25  C   UNL     1       6.616   6.660  -6.336  1.00  0.00     0.037 A 
ATOM     26  C   UNL     1       4.979   1.679 -10.231  1.00  0.00     0.049 A 
ATOM     27  C   UNL     1       6.817   6.380  -7.801  1.00  0.00     0.074 A 
ATOM     28  C   UNL     1       5.152   1.575 -11.600  1.00  0.00     0.029 A 
ATOM     29  N   UNL     1       5.521   2.895  -9.848  1.00  0.00    -0.354 N 
ATOM     30  N   UNL     1       6.423   5.349  -8.508  1.00  0.00    -0.248 NA
ATOM     31  C   UNL     1       7.559   7.388  -8.573  1.00  0.00     0.031 C 
ATOM     32  C   UNL     1       5.827   2.718 -12.041  1.00  0.00     0.029 A 
ATOM     33  C   UNL     1       6.045   3.545 -10.951  1.00  0.00     0.049 A 
ATOM     34  H   UNL     1       5.532   3.245  -8.927  1.00  0.00     0.167 HD
ATOM     35  C   UNL     1       6.846   5.595  -9.809  1.00  0.00     0.074 A 
ATOM     36  C   UNL     1       7.517   6.878  -9.795  1.00  0.00     0.031 C 
ATOM     37  C   UNL     1       6.693   4.830 -10.916  1.00  0.00     0.037 A 
BRANCH  24  38
ATOM     38  C   UNL     1       3.893  -0.570  -9.882  1.00  0.00     0.057 A 
ATOM     39  C   UNL     1       4.820  -1.551 -10.255  1.00  0.00     0.134 A 
ATOM     40  C   UNL     1       2.536  -0.857 -10.070  1.00  0.00     0.134 A 
ATOM     41  F   UNL     1       6.136  -1.338 -10.104  1.00  0.00    -0.206 F 
ATOM     42  C   UNL     1       4.413  -2.771 -10.796  1.00  0.00     0.040 A 
ATOM     43  C   UNL     1       2.115  -2.082 -10.589  1.00  0.00     0.040 A 
ATOM     44  F   UNL     1       1.598   0.036  -9.719  1.00  0.00    -0.206 F 
ATOM     45  C   UNL     1       3.056  -3.041 -10.960  1.00  0.00     0.006 A 
ENDBRANCH  24  38
BRANCH  25  46
ATOM     46  C   UNL     1       7.154   7.904  -5.732  1.00  0.00     0.057 A 
ATOM     47  C   UNL     1       8.260   7.883  -4.875  1.00  0.00     0.134 A 
ATOM     48  C   UNL     1       6.593   9.151  -6.032  1.00  0.00     0.134 A 
ATOM     49  F   UNL     1       8.841   6.719  -4.548  1.00  0.00    -0.206 F 
ATOM     50  C   UNL     1       8.791   9.057  -4.339  1.00  0.00     0.040 A 
ATOM     51  C   UNL     1       7.126  10.335  -5.521  1.00  0.00     0.040 A 
ATOM     52  F   UNL     1       5.546   9.236  -6.866  1.00  0.00    -0.206 F 
ATOM     53  C   UNL     1       8.229  10.289  -4.669  1.00  0.00     0.006 A 
ENDBRANCH  25  46
BRANCH  37  54
ATOM     54  C   UNL     1       7.227   5.376 -12.205  1.00  0.00     0.057 A 
ATOM     55  C   UNL     1       6.355   5.869 -13.184  1.00  0.00     0.134 A 
ATOM     56  C   UNL     1       8.596   5.374 -12.493  1.00  0.00     0.134 A 
ATOM     57  F   UNL     1       5.031   5.891 -12.969  1.00  0.00    -0.206 F 
ATOM     58  C   UNL     1       6.829   6.337 -14.410  1.00  0.00     0.040 A 
ATOM     59  C   UNL     1       9.084   5.858 -13.707  1.00  0.00     0.040 A 
ATOM     60  F   UNL     1       9.481   4.927 -11.588  1.00  0.00    -0.206 F 
ATOM     61  C   UNL     1       8.197   6.335 -14.672  1.00  0.00     0.006 A 
ENDBRANCH  37  54
ENDBRANCH  11  12
ENDBRANCH   4   6
ENDBRANCH   1   2
BRANCH   1  62
ATOM     62  C   UNL     1       4.407   0.467   2.444  1.00  0.00     0.042 C 
BRANCH  62  63
ATOM     63  C   UNL     1       3.776  -0.193   3.675  1.00  0.00     0.118 C 
BRANCH  63  64
ATOM     64  N   UNL     1       4.448  -1.437   3.980  1.00  0.00    -0.351 N 
ATOM     65  C   UNL     1       5.638  -1.629   4.608  1.00  0.00     0.278 C 
ATOM     66  H   UNL     1       3.980  -2.254   3.694  1.00  0.00     0.163 HD
ATOM     67  O   UNL     1       6.376  -2.495   4.124  1.00  0.00    -0.268 OA
BRANCH  65  68
ATOM     68  C   UNL     1       5.985  -0.961   5.954  1.00  0.00     0.277 C 
ATOM     69  C   UNL     1       6.061   0.580   6.060  1.00  0.00     0.109 C 
ATOM     70  N   UNL     1       5.116  -1.575   6.997  1.00  0.00    -0.327 N 
ATOM     71  C   UNL     1       6.608   0.939   7.416  1.00  0.00    -0.024 C 
ATOM     72  C   UNL     1       5.350  -1.039   8.378  1.00  0.00     0.243 C 
ATOM     73  H   UNL     1       5.291  -2.580   7.009  1.00  0.00     0.347 HD
ATOM     74  H   UNL     1       4.153  -1.347   6.752  1.00  0.00     0.347 HD
ATOM     75  C   UNL     1       6.965   2.086   7.984  1.00  0.00     0.002 A 
ATOM     76  C   UNL     1       6.651  -0.176   8.428  1.00  0.00     0.196 C 
ATOM     77  C   UNL     1       6.994   3.459   7.596  1.00  0.00     0.010 A 
ATOM     78  C   UNL     1       7.236   1.680   9.384  1.00  0.00     0.066 A 
ATOM     79  N   UNL     1       6.985   0.452   9.727  1.00  0.00    -0.270 NA
ATOM     80  C   UNL     1       7.393   4.373   8.498  1.00  0.00     0.001 A 
ATOM     81  C   UNL     1       7.748   2.729  10.288  1.00  0.00     0.028 A 
ATOM     82  C   UNL     1       7.828   3.990   9.833  1.00  0.00     0.002 A 
BRANCH  72  83
ATOM     83  C   UNL     1       4.021  -0.481   8.904  1.00  0.00     0.012 A 
ATOM     84  C   UNL     1       2.987  -1.401   9.178  1.00  0.00     0.010 A 
ATOM     85  C   UNL     1       3.730   0.879   9.060  1.00  0.00     0.010 A 
ATOM     86  C   UNL     1       1.717  -0.976   9.576  1.00  0.00     0.001 A 
ATOM     87  C   UNL     1       2.460   1.308   9.463  1.00  0.00     0.001 A 
ATOM     88  C   UNL     1       1.453   0.382   9.716  1.00  0.00     0.000 A 
ENDBRANCH  72  83
ENDBRANCH  65  68
ENDBRANCH  63  64
ENDBRANCH  62  63
ENDBRANCH   1  62
TORSDOF 11
