REMARK SMILES Cc1coc2c(C)c3oc(=O)c(CC(=O)NCC(=O)N[C@H](C(=O)NCCCNC(=O)c4ccc(-c5c6nc(c(-c7c(F)cccc7F)c7ccc([nH]7)c(-c7c(F)cccc7F)c7nc(c(-c8c(F)cccc8F)c8ccc5[nH]8)C=C7)C=C6)cc4)C(C)C)c(C)c3cc12
REMARK SMILES IDX 22 1 23 2 24 3 21 5 20 6 18 7 19 8 17 10 16 11 14 12 15 13
REMARK SMILES IDX 13 15 12 16 1 17 2 18 3 19 92 20 4 21 5 22 91 23 6 24 90 25
REMARK SMILES IDX 7 26 8 27 88 28 9 29 89 30 10 31 11 32 85 33 86 34 87 35
REMARK SMILES IDX 25 36 26 37 27 38 28 39 29 40 30 42 31 43 32 44 84 45 33 46
REMARK SMILES IDX 83 47 34 48 35 49 36 50 77 51 37 52 82 53 76 54 78 55 38 56
REMARK SMILES IDX 81 57 75 58 74 59 39 61 65 62 48 63 64 64 49 65 52 66 63 67
REMARK SMILES IDX 79 68 50 69 51 70 62 72 80 73 53 74 40 75 41 76 46 77 42 78
REMARK SMILES IDX 43 79 45 80 47 81 44 82 66 83 67 84 72 85 68 86 69 87 71 88
REMARK SMILES IDX 73 89 70 90 54 91 55 92 60 93 56 94 57 95 59 96 61 97 58 98
REMARK H PARENT 24 4 20 9 16 14 28 41 78 60 52 71
REMARK Flexibility Score: inf
ROOT
ATOM      1  C   UNL     1      -2.010  -0.659   5.396  1.00  0.00     0.242 C 
ATOM      2  O   UNL     1      -1.603  -1.724   5.867  1.00  0.00    -0.273 OA
ATOM      3  N   UNL     1      -2.940   0.043   6.129  1.00  0.00    -0.354 N 
ATOM      4  H   UNL     1      -3.284  -0.426   6.923  1.00  0.00     0.163 HD
ENDROOT
BRANCH   1   5
ATOM      5  C   UNL     1      -1.599  -0.179   3.969  1.00  0.00     0.173 C 
BRANCH   5   6
ATOM      6  N   UNL     1      -0.368  -0.861   3.542  1.00  0.00    -0.343 N 
ATOM      7  C   UNL     1      -0.095  -2.038   2.903  1.00  0.00     0.240 C 
ATOM      8  O   UNL     1       1.119  -2.265   2.777  1.00  0.00    -0.273 OA
ATOM      9  H   UNL     1       0.445  -0.354   3.769  1.00  0.00     0.164 HD
BRANCH   7  10
ATOM     10  C   UNL     1      -1.125  -2.982   2.127  1.00  0.00     0.216 C 
BRANCH  10  11
ATOM     11  N   UNL     1      -2.364  -3.498   2.760  1.00  0.00    -0.347 N 
ATOM     12  C   UNL     1      -3.638  -3.844   2.385  1.00  0.00     0.225 C 
ATOM     13  O   UNL     1      -4.240  -4.527   3.229  1.00  0.00    -0.275 OA
ATOM     14  H   UNL     1      -2.234  -3.630   3.727  1.00  0.00     0.164 HD
BRANCH  12  15
ATOM     15  C   UNL     1      -4.396  -3.491   1.056  1.00  0.00     0.143 C 
BRANCH  15  16
ATOM     16  C   UNL     1      -5.368  -2.271   0.963  1.00  0.00     0.051 A 
ATOM     17  C   UNL     1      -8.714   2.361   5.270  1.00  0.00     0.048 C 
ATOM     18  C   UNL     1      -7.976   2.605   4.007  1.00  0.00    -0.005 A 
ATOM     19  C   UNL     1      -7.645   3.848   3.505  1.00  0.00     0.199 A 
ATOM     20  C   UNL     1      -7.455   1.649   3.064  1.00  0.00     0.024 A 
ATOM     21  O   UNL     1      -6.937   3.732   2.358  1.00  0.00    -0.464 OA
ATOM     22  C   UNL     1      -6.821   2.403   2.086  1.00  0.00     0.140 A 
ATOM     23  C   UNL     1      -7.404   0.231   2.946  1.00  0.00     0.024 A 
ATOM     24  C   UNL     1      -6.135   1.875   0.991  1.00  0.00     0.036 A 
ATOM     25  C   UNL     1      -6.724  -0.388   1.861  1.00  0.00     0.022 A 
ATOM     26  C   UNL     1      -5.400   2.759   0.031  1.00  0.00     0.052 C 
ATOM     27  C   UNL     1      -6.149   0.461   0.908  1.00  0.00     0.145 A 
ATOM     28  C   UNL     1      -6.343  -1.855   1.830  1.00  0.00    -0.029 A 
ATOM     29  O   UNL     1      -5.469  -0.102  -0.192  1.00  0.00    -0.422 OA
ATOM     30  C   UNL     1      -6.812  -2.677   3.005  1.00  0.00     0.046 C 
ATOM     31  C   UNL     1      -5.094  -1.432  -0.237  1.00  0.00     0.340 A 
ATOM     32  O   UNL     1      -4.526  -1.888  -1.223  1.00  0.00    -0.246 OA
ENDBRANCH  15  16
ENDBRANCH  12  15
ENDBRANCH  10  11
ENDBRANCH   7  10
ENDBRANCH   5   6
BRANCH   5  33
ATOM     33  C   UNL     1      -2.665  -0.347   2.909  1.00  0.00     0.015 C 
ATOM     34  C   UNL     1      -3.953  -0.828   3.507  1.00  0.00     0.010 C 
ATOM     35  C   UNL     1      -2.786   0.781   1.894  1.00  0.00     0.010 C 
ENDBRANCH   5  33
ENDBRANCH   1   5
BRANCH   3  36
ATOM     36  C   UNL     1      -3.497   1.375   5.910  1.00  0.00     0.117 C 
BRANCH  36  37
ATOM     37  C   UNL     1      -4.963   1.545   6.340  1.00  0.00     0.042 C 
BRANCH  37  38
ATOM     38  C   UNL     1      -5.235   1.255   7.806  1.00  0.00     0.118 C 
BRANCH  38  39
ATOM     39  N   UNL     1      -4.457   2.068   8.739  1.00  0.00    -0.352 N 
ATOM     40  C   UNL     1      -4.523   2.082  10.130  1.00  0.00     0.251 C 
ATOM     41  H   UNL     1      -3.804   2.683   8.333  1.00  0.00     0.163 HD
ATOM     42  O   UNL     1      -4.013   2.955  10.784  1.00  0.00    -0.269 OA
BRANCH  40  43
ATOM     43  C   UNL     1      -5.258   0.977  10.779  1.00  0.00     0.039 A 
ATOM     44  C   UNL     1      -6.197   1.206  11.788  1.00  0.00     0.014 A 
ATOM     45  C   UNL     1      -5.042  -0.297  10.275  1.00  0.00     0.014 A 
ATOM     46  C   UNL     1      -6.978   0.138  12.227  1.00  0.00     0.010 A 
ATOM     47  C   UNL     1      -5.952  -1.278  10.543  1.00  0.00     0.010 A 
ATOM     48  C   UNL     1      -6.856  -1.101  11.585  1.00  0.00    -0.014 A 
BRANCH  48  49
ATOM     49  C   UNL     1      -7.649  -2.255  11.984  1.00  0.00     0.031 A 
ATOM     50  C   UNL     1      -9.133  -2.115  11.937  1.00  0.00     0.074 A 
ATOM     51  C   UNL     1      -7.063  -3.461  12.148  1.00  0.00     0.049 A 
ATOM     52  N   UNL     1      -9.976  -2.251  12.907  1.00  0.00    -0.248 NA
ATOM     53  C   UNL     1      -9.755  -1.707  10.667  1.00  0.00     0.031 C 
ATOM     54  C   UNL     1      -5.663  -3.856  11.921  1.00  0.00     0.029 A 
ATOM     55  N   UNL     1      -7.657  -4.644  12.431  1.00  0.00    -0.354 N 
ATOM     56  C   UNL     1     -11.248  -2.095  12.357  1.00  0.00     0.074 A 
ATOM     57  C   UNL     1     -11.046  -1.643  11.003  1.00  0.00     0.031 C 
ATOM     58  C   UNL     1      -5.585  -5.198  11.810  1.00  0.00     0.029 A 
ATOM     59  C   UNL     1      -6.876  -5.754  12.158  1.00  0.00     0.049 A 
ATOM     60  H   UNL     1      -8.568  -4.710  12.799  1.00  0.00     0.167 HD
ATOM     61  C   UNL     1     -12.375  -2.501  13.008  1.00  0.00     0.037 A 
ATOM     62  C   UNL     1      -7.290  -7.041  12.171  1.00  0.00     0.037 A 
ATOM     63  C   UNL     1     -12.112  -2.776  14.396  1.00  0.00     0.049 A 
ATOM     64  C   UNL     1      -8.525  -7.089  13.000  1.00  0.00     0.074 A 
ATOM     65  C   UNL     1     -11.671  -2.012  15.459  1.00  0.00     0.029 A 
ATOM     66  N   UNL     1     -11.922  -4.083  14.777  1.00  0.00    -0.354 N 
ATOM     67  N   UNL     1      -8.542  -6.831  14.283  1.00  0.00    -0.248 NA
ATOM     68  C   UNL     1      -9.801  -6.926  12.319  1.00  0.00     0.031 C 
ATOM     69  C   UNL     1     -10.770  -2.861  16.164  1.00  0.00     0.029 A 
ATOM     70  C   UNL     1     -10.774  -4.106  15.530  1.00  0.00     0.049 A 
ATOM     71  H   UNL     1     -12.496  -4.852  14.555  1.00  0.00     0.167 HD
ATOM     72  C   UNL     1      -9.701  -6.094  14.491  1.00  0.00     0.074 A 
ATOM     73  C   UNL     1     -10.473  -6.251  13.258  1.00  0.00     0.031 C 
ATOM     74  C   UNL     1      -9.809  -5.186  15.508  1.00  0.00     0.037 A 
BRANCH  61  75
ATOM     75  C   UNL     1     -13.668  -2.903  12.350  1.00  0.00     0.057 A 
ATOM     76  C   UNL     1     -14.839  -3.035  13.120  1.00  0.00     0.134 A 
ATOM     77  C   UNL     1     -13.751  -3.411  11.040  1.00  0.00     0.134 A 
ATOM     78  F   UNL     1     -14.880  -2.610  14.392  1.00  0.00    -0.206 F 
ATOM     79  C   UNL     1     -15.991  -3.667  12.634  1.00  0.00     0.040 A 
ATOM     80  C   UNL     1     -14.912  -4.000  10.528  1.00  0.00     0.040 A 
ATOM     81  F   UNL     1     -12.688  -3.449  10.226  1.00  0.00    -0.206 F 
ATOM     82  C   UNL     1     -16.029  -4.154  11.334  1.00  0.00     0.006 A 
ENDBRANCH  61  75
BRANCH  62  83
ATOM     83  C   UNL     1      -6.864  -8.095  11.225  1.00  0.00     0.057 A 
ATOM     84  C   UNL     1      -7.052  -9.451  11.505  1.00  0.00     0.134 A 
ATOM     85  C   UNL     1      -6.453  -7.786   9.912  1.00  0.00     0.134 A 
ATOM     86  F   UNL     1      -7.489  -9.839  12.712  1.00  0.00    -0.206 F 
ATOM     87  C   UNL     1      -6.842 -10.445  10.538  1.00  0.00     0.040 A 
ATOM     88  C   UNL     1      -6.230  -8.766   8.941  1.00  0.00     0.040 A 
ATOM     89  F   UNL     1      -6.329  -6.514   9.504  1.00  0.00    -0.206 F 
ATOM     90  C   UNL     1      -6.433 -10.103   9.251  1.00  0.00     0.006 A 
ENDBRANCH  62  83
BRANCH  74  91
ATOM     91  C   UNL     1      -8.703  -5.101  16.532  1.00  0.00     0.057 A 
ATOM     92  C   UNL     1      -7.387  -4.720  16.226  1.00  0.00     0.134 A 
ATOM     93  C   UNL     1      -9.025  -5.180  17.892  1.00  0.00     0.134 A 
ATOM     94  F   UNL     1      -7.003  -4.510  14.965  1.00  0.00    -0.206 F 
ATOM     95  C   UNL     1      -6.434  -4.458  17.215  1.00  0.00     0.040 A 
ATOM     96  C   UNL     1      -8.091  -4.890  18.893  1.00  0.00     0.040 A 
ATOM     97  F   UNL     1     -10.278  -5.473  18.273  1.00  0.00    -0.206 F 
ATOM     98  C   UNL     1      -6.789  -4.532  18.556  1.00  0.00     0.006 A 
ENDBRANCH  74  91
ENDBRANCH  48  49
ENDBRANCH  40  43
ENDBRANCH  38  39
ENDBRANCH  37  38
ENDBRANCH  36  37
ENDBRANCH   3  36
TORSDOF 16
