REMARK SMILES O=C(CCc1cc2n(n1)CCCN(S(=O)(=O)CCC(F)(F)F)C2)NCCCNC(=O)c1ccc(-c2c3nc(c(-c4c(F)cccc4F)c4ccc([nH]4)c(-c4c(F)cccc4F)c4nc(c(-c5c(F)cccc5F)c5ccc2[nH]5)C=C4)C=C3)cc1
REMARK SMILES IDX 3 1 2 2 1 3 24 4 25 6 26 7 27 8 28 9 29 10 30 12 31 13 32 14
REMARK SMILES IDX 84 15 33 16 83 17 34 18 35 19 36 20 77 21 37 22 82 23 76 24
REMARK SMILES IDX 78 25 38 26 81 27 75 28 74 29 39 31 65 32 48 33 64 34 49 35
REMARK SMILES IDX 52 36 63 37 79 38 50 39 51 40 62 42 80 43 53 44 40 45 41 46
REMARK SMILES IDX 46 47 42 48 43 49 45 50 47 51 44 52 66 53 67 54 72 55 68 56
REMARK SMILES IDX 69 57 71 58 73 59 70 60 54 61 55 62 60 63 56 64 57 65 59 66
REMARK SMILES IDX 61 67 58 68 4 69 5 70 6 71 9 72 7 73 8 74 23 75 13 76 12 77
REMARK SMILES IDX 14 79 15 80 16 81 17 82 18 83 19 84 20 85 21 86 22 87 10 88
REMARK SMILES IDX 11 89
REMARK H PARENT 24 5 28 11 78 30 52 41
REMARK Flexibility Score: 90.00
ROOT
ATOM      1  C   UNL     1       2.955  -0.889   0.120  1.00  0.00     0.106 C 
ENDROOT
BRANCH   1   2
ATOM      2  C   UNL     1       1.821   0.130   0.021  1.00  0.00     0.220 C 
ATOM      3  O   UNL     1       0.662  -0.162   0.303  1.00  0.00    -0.275 OA
ATOM      4  N   UNL     1       2.217   1.396  -0.317  1.00  0.00    -0.356 N 
ATOM      5  H   UNL     1       3.176   1.530  -0.492  1.00  0.00     0.163 HD
BRANCH   4   6
ATOM      6  C   UNL     1       1.356   2.561  -0.443  1.00  0.00     0.117 C 
BRANCH   6   7
ATOM      7  C   UNL     1       1.513   3.562   0.711  1.00  0.00     0.042 C 
BRANCH   7   8
ATOM      8  C   UNL     1       2.964   3.947   0.975  1.00  0.00     0.118 C 
BRANCH   8   9
ATOM      9  N   UNL     1       3.464   5.132   0.307  1.00  0.00    -0.352 N 
ATOM     10  C   UNL     1       4.703   5.733   0.406  1.00  0.00     0.251 C 
ATOM     11  H   UNL     1       2.829   5.571  -0.305  1.00  0.00     0.163 HD
ATOM     12  O   UNL     1       4.875   6.797  -0.189  1.00  0.00    -0.269 OA
BRANCH  10  13
ATOM     13  C   UNL     1       5.850   5.150   1.174  1.00  0.00     0.039 A 
ATOM     14  C   UNL     1       6.952   5.978   1.457  1.00  0.00     0.014 A 
ATOM     15  C   UNL     1       5.924   3.815   1.573  1.00  0.00     0.014 A 
ATOM     16  C   UNL     1       8.057   5.487   2.166  1.00  0.00     0.010 A 
ATOM     17  C   UNL     1       7.015   3.318   2.259  1.00  0.00     0.010 A 
ATOM     18  C   UNL     1       8.080   4.151   2.575  1.00  0.00    -0.014 A 
BRANCH  18  19
ATOM     19  C   UNL     1       9.022   3.653   3.583  1.00  0.00     0.031 A 
ATOM     20  C   UNL     1       8.937   4.345   4.864  1.00  0.00     0.074 A 
ATOM     21  C   UNL     1       9.674   2.474   3.517  1.00  0.00     0.049 A 
ATOM     22  N   UNL     1       9.879   5.040   5.395  1.00  0.00    -0.248 NA
ATOM     23  C   UNL     1       7.665   4.358   5.595  1.00  0.00     0.031 C 
ATOM     24  C   UNL     1       9.688   1.662   2.329  1.00  0.00     0.029 A 
ATOM     25  N   UNL     1      10.350   1.694   4.416  1.00  0.00    -0.354 N 
ATOM     26  C   UNL     1       9.440   5.266   6.683  1.00  0.00     0.074 A 
ATOM     27  C   UNL     1       8.013   5.060   6.676  1.00  0.00     0.031 C 
ATOM     28  C   UNL     1      10.132   0.425   2.571  1.00  0.00     0.029 A 
ATOM     29  C   UNL     1      10.566   0.396   3.949  1.00  0.00     0.049 A 
ATOM     30  H   UNL     1      10.651   2.014   5.297  1.00  0.00     0.167 HD
ATOM     31  C   UNL     1      10.339   5.190   7.697  1.00  0.00     0.037 A 
ATOM     32  C   UNL     1      11.169  -0.671   4.519  1.00  0.00     0.037 A 
ATOM     33  C   UNL     1      11.700   5.253   7.213  1.00  0.00     0.049 A 
ATOM     34  C   UNL     1      12.226  -0.114   5.387  1.00  0.00     0.074 A 
ATOM     35  C   UNL     1      12.436   6.165   6.485  1.00  0.00     0.029 A 
ATOM     36  N   UNL     1      12.375   4.058   7.159  1.00  0.00    -0.354 N 
ATOM     37  N   UNL     1      13.238   0.580   4.929  1.00  0.00    -0.248 NA
ATOM     38  C   UNL     1      11.959   0.053   6.810  1.00  0.00     0.031 C 
ATOM     39  C   UNL     1      13.427   5.414   5.792  1.00  0.00     0.029 A 
ATOM     40  C   UNL     1      13.293   4.069   6.138  1.00  0.00     0.049 A 
ATOM     41  H   UNL     1      12.221   3.299   7.767  1.00  0.00     0.167 HD
ATOM     42  C   UNL     1      13.396   1.595   5.857  1.00  0.00     0.074 A 
ATOM     43  C   UNL     1      12.730   1.116   7.059  1.00  0.00     0.031 C 
ATOM     44  C   UNL     1      13.760   2.856   5.483  1.00  0.00     0.037 A 
BRANCH  31  45
ATOM     45  C   UNL     1      10.008   4.604   9.040  1.00  0.00     0.057 A 
ATOM     46  C   UNL     1      10.878   4.843  10.112  1.00  0.00     0.134 A 
ATOM     47  C   UNL     1       9.041   3.598   9.250  1.00  0.00     0.134 A 
ATOM     48  F   UNL     1      11.871   5.738  10.001  1.00  0.00    -0.206 F 
ATOM     49  C   UNL     1      10.808   4.113  11.302  1.00  0.00     0.040 A 
ATOM     50  C   UNL     1       8.924   2.905  10.455  1.00  0.00     0.040 A 
ATOM     51  F   UNL     1       8.238   3.158   8.273  1.00  0.00    -0.206 F 
ATOM     52  C   UNL     1       9.825   3.145  11.479  1.00  0.00     0.006 A 
ENDBRANCH  31  45
BRANCH  32  53
ATOM     53  C   UNL     1      10.910  -2.093   4.186  1.00  0.00     0.057 A 
ATOM     54  C   UNL     1      11.840  -3.118   4.372  1.00  0.00     0.134 A 
ATOM     55  C   UNL     1       9.618  -2.509   3.786  1.00  0.00     0.134 A 
ATOM     56  F   UNL     1      13.078  -2.842   4.804  1.00  0.00    -0.206 F 
ATOM     57  C   UNL     1      11.515  -4.468   4.149  1.00  0.00     0.040 A 
ATOM     58  C   UNL     1       9.284  -3.845   3.544  1.00  0.00     0.040 A 
ATOM     59  F   UNL     1       8.614  -1.625   3.667  1.00  0.00    -0.206 F 
ATOM     60  C   UNL     1      10.236  -4.835   3.731  1.00  0.00     0.006 A 
ENDBRANCH  32  53
BRANCH  44  61
ATOM     61  C   UNL     1      14.543   3.031   4.211  1.00  0.00     0.057 A 
ATOM     62  C   UNL     1      14.037   2.839   2.919  1.00  0.00     0.134 A 
ATOM     63  C   UNL     1      15.834   3.572   4.310  1.00  0.00     0.134 A 
ATOM     64  F   UNL     1      12.789   2.403   2.716  1.00  0.00    -0.206 F 
ATOM     65  C   UNL     1      14.792   3.157   1.781  1.00  0.00     0.040 A 
ATOM     66  C   UNL     1      16.582   3.923   3.185  1.00  0.00     0.040 A 
ATOM     67  F   UNL     1      16.368   3.825   5.516  1.00  0.00    -0.206 F 
ATOM     68  C   UNL     1      16.063   3.711   1.912  1.00  0.00     0.006 A 
ENDBRANCH  44  61
ENDBRANCH  18  19
ENDBRANCH  10  13
ENDBRANCH   8   9
ENDBRANCH   7   8
ENDBRANCH   6   7
ENDBRANCH   4   6
ENDBRANCH   1   2
BRANCH   1  69
ATOM     69  C   UNL     1       3.680  -1.204  -1.188  1.00  0.00     0.068 C 
BRANCH  69  70
ATOM     70  C   UNL     1       4.668  -0.172  -1.650  1.00  0.00     0.063 A 
ATOM     71  C   UNL     1       6.081  -0.252  -1.760  1.00  0.00     0.050 A 
ATOM     72  N   UNL     1       4.223   1.012  -2.091  1.00  0.00    -0.178 NA
ATOM     73  C   UNL     1       6.462   0.907  -2.414  1.00  0.00     0.054 A 
ATOM     74  N   UNL     1       5.310   1.613  -2.591  1.00  0.00    -0.268 N 
BRANCH  73  75
ATOM     75  C   UNL     1       7.767   1.409  -2.942  1.00  0.00     0.157 C 
BRANCH  75  76
ATOM     76  N   UNL     1       8.232   2.702  -2.308  1.00  0.00    -0.196 NA
BRANCH  76  77
ATOM     77  C   UNL     1       7.166   3.499  -1.651  1.00  0.00     0.104 CG0
ATOM     78  G   UNL     1       6.106   3.979  -2.638  1.00  0.00     0.000 G0
ENDBRANCH  76  77
BRANCH  76  79
ATOM     79  S   UNL     1       9.635   2.383  -1.416  1.00  0.00     0.214 S 
ATOM     80  O   UNL     1       9.182   1.358  -0.481  1.00  0.00    -0.212 OA
ATOM     81  O   UNL     1      10.689   2.062  -2.328  1.00  0.00    -0.212 OA
BRANCH  79  82
ATOM     82  C   UNL     1      10.098   3.877  -0.495  1.00  0.00     0.163 C 
BRANCH  82  83
ATOM     83  C   UNL     1      11.015   4.824  -1.245  1.00  0.00     0.133 C 
BRANCH  83  84
ATOM     84  C   UNL     1      10.305   5.586  -2.329  1.00  0.00     0.390 C 
ATOM     85  F   UNL     1       9.247   6.256  -1.820  1.00  0.00    -0.171 F 
ATOM     86  F   UNL     1      11.135   6.497  -2.882  1.00  0.00    -0.171 F 
ATOM     87  F   UNL     1       9.857   4.788  -3.310  1.00  0.00    -0.171 F 
ENDBRANCH  83  84
ENDBRANCH  82  83
ENDBRANCH  79  82
ENDBRANCH  76  79
ENDBRANCH  75  76
ENDBRANCH  73  75
BRANCH  74  88
ATOM     88  C   UNL     1       5.203   2.903  -3.233  1.00  0.00     0.146 C 
BRANCH  88  89
ATOM     89  C   UNL     1       6.106   3.979  -2.638  1.00  0.00     0.040 CG0
ATOM     90  G   UNL     1       7.166   3.499  -1.651  1.00  0.00     0.000 G0
ENDBRANCH  88  89
ENDBRANCH  74  88
ENDBRANCH  69  70
ENDBRANCH   1  69
TORSDOF 16
