REMARK SMILES CCc1ccc(N2C(=O)C[C@@H](SC[C@@H](NC(C)=O)C(=O)NCCCNC(=O)c3ccc(-c4c5nc(c(-c6c(F)cccc6F)c6ccc([nH]6)c(-c6c(F)cccc6F)c6nc(c(-c7c(F)cccc7F)c7ccc4[nH]7)C=C6)C=C5)cc3)C2=O)cc1
REMARK SMILES IDX 19 1 20 2 21 3 14 5 13 6 12 7 11 8 7 9 8 10 82 11 9 12 10 13
REMARK SMILES IDX 83 14 6 15 3 16 4 17 85 18 5 19 84 20 2 21 1 22 15 23 16 24
REMARK SMILES IDX 17 26 18 27 22 28 23 29 24 30 25 31 26 32 27 34 28 35 29 36
REMARK SMILES IDX 81 37 30 38 80 39 31 40 32 41 33 42 74 43 34 44 79 45 73 46
REMARK SMILES IDX 75 47 35 48 78 49 72 50 71 51 36 53 62 54 45 55 61 56 46 57
REMARK SMILES IDX 49 58 60 59 76 60 47 61 48 62 59 64 77 65 50 66 37 67 38 68
REMARK SMILES IDX 43 69 39 70 40 71 42 72 44 73 41 74 63 75 64 76 69 77 65 78
REMARK SMILES IDX 66 79 68 80 70 81 67 82 51 83 52 84 57 85 53 86 54 87 56 88
REMARK SMILES IDX 58 89 55 90
REMARK H PARENT 21 4 15 25 25 33 75 52 49 63
REMARK Flexibility Score: inf
ROOT
ATOM      1  C   UNL     1      -0.157  -9.866  -6.335  1.00  0.00     0.243 C 
ATOM      2  O   UNL     1      -1.373  -9.921  -6.540  1.00  0.00    -0.273 OA
ATOM      3  N   UNL     1       0.619 -10.842  -6.889  1.00  0.00    -0.354 N 
ATOM      4  H   UNL     1       0.142 -11.470  -7.479  1.00  0.00     0.163 HD
ENDROOT
BRANCH   1   5
ATOM      5  C   UNL     1       0.426  -8.860  -5.322  1.00  0.00     0.181 C 
BRANCH   5   6
ATOM      6  C   UNL     1       0.645  -9.683  -4.012  1.00  0.00     0.105 C 
BRANCH   6   7
ATOM      7  S   UNL     1       1.090  -8.940  -2.377  1.00  0.00    -0.145 SA
BRANCH   7   8
ATOM      8  C   UNL     1       2.562  -7.936  -2.779  1.00  0.00     0.146 C 
ATOM      9  N   UNL     1       2.554  -5.717  -2.018  1.00  0.00    -0.250 N 
ATOM     10  C   UNL     1       3.568  -6.315  -1.315  1.00  0.00     0.235 C 
ATOM     11  C   UNL     1       2.070  -6.531  -2.995  1.00  0.00     0.247 C 
ATOM     12  O   UNL     1       4.354  -5.810  -0.540  1.00  0.00    -0.274 OA
ATOM     13  C   UNL     1       3.579  -7.784  -1.658  1.00  0.00     0.125 C 
ATOM     14  O   UNL     1       1.395  -6.208  -3.969  1.00  0.00    -0.273 OA
BRANCH   9  15
ATOM     15  C   UNL     1       2.116  -4.389  -1.875  1.00  0.00     0.052 A 
ATOM     16  C   UNL     1       1.150  -1.763  -1.600  1.00  0.00    -0.048 A 
ATOM     17  C   UNL     1       0.257  -2.829  -1.730  1.00  0.00     0.006 A 
ATOM     18  C   UNL     1       2.529  -2.023  -1.621  1.00  0.00     0.006 A 
ATOM     19  C   UNL     1       0.736  -4.127  -1.891  1.00  0.00     0.027 A 
ATOM     20  C   UNL     1       3.010  -3.331  -1.723  1.00  0.00     0.027 A 
BRANCH  16  21
ATOM     21  C   UNL     1       0.633  -0.359  -1.422  1.00  0.00     0.032 C 
ATOM     22  C   UNL     1       0.973   0.198  -0.047  1.00  0.00     0.009 C 
ENDBRANCH  16  21
ENDBRANCH   9  15
ENDBRANCH   7   8
ENDBRANCH   6   7
ENDBRANCH   5   6
BRANCH   5  23
ATOM     23  N   UNL     1       1.637  -8.155  -5.771  1.00  0.00    -0.344 N 
ATOM     24  C   UNL     1       2.020  -7.904  -7.068  1.00  0.00     0.217 C 
ATOM     25  H   UNL     1       2.240  -7.826  -5.066  1.00  0.00     0.164 HD
ATOM     26  C   UNL     1       3.357  -7.208  -7.157  1.00  0.00     0.114 C 
ATOM     27  O   UNL     1       1.426  -8.285  -8.067  1.00  0.00    -0.275 OA
ENDBRANCH   5  23
ENDBRANCH   1   5
BRANCH   3  28
ATOM     28  C   UNL     1       2.039 -11.098  -6.741  1.00  0.00     0.117 C 
BRANCH  28  29
ATOM     29  C   UNL     1       2.291 -12.528  -6.296  1.00  0.00     0.042 C 
BRANCH  29  30
ATOM     30  C   UNL     1       1.948 -13.545  -7.373  1.00  0.00     0.118 C 
BRANCH  30  31
ATOM     31  N   UNL     1       2.824 -13.435  -8.532  1.00  0.00    -0.352 N 
ATOM     32  C   UNL     1       3.616 -14.392  -9.113  1.00  0.00     0.251 C 
ATOM     33  H   UNL     1       2.851 -12.548  -8.958  1.00  0.00     0.163 HD
ATOM     34  O   UNL     1       4.451 -14.079  -9.955  1.00  0.00    -0.269 OA
BRANCH  32  35
ATOM     35  C   UNL     1       3.471 -15.801  -8.699  1.00  0.00     0.039 A 
ATOM     36  C   UNL     1       4.619 -16.561  -8.467  1.00  0.00     0.014 A 
ATOM     37  C   UNL     1       2.203 -16.363  -8.524  1.00  0.00     0.014 A 
ATOM     38  C   UNL     1       4.494 -17.867  -7.995  1.00  0.00     0.010 A 
ATOM     39  C   UNL     1       2.082 -17.631  -7.969  1.00  0.00     0.010 A 
ATOM     40  C   UNL     1       3.226 -18.398  -7.706  1.00  0.00    -0.014 A 
BRANCH  40  41
ATOM     41  C   UNL     1       3.072 -19.756  -7.130  1.00  0.00     0.031 A 
ATOM     42  C   UNL     1       2.333 -20.818  -7.897  1.00  0.00     0.074 A 
ATOM     43  C   UNL     1       3.527 -20.006  -5.887  1.00  0.00     0.049 A 
ATOM     44  N   UNL     1       2.024 -22.035  -7.532  1.00  0.00    -0.248 NA
ATOM     45  C   UNL     1       1.848 -20.453  -9.239  1.00  0.00     0.031 C 
ATOM     46  C   UNL     1       4.200 -19.037  -5.019  1.00  0.00     0.029 A 
ATOM     47  N   UNL     1       3.476 -21.149  -5.130  1.00  0.00    -0.354 N 
ATOM     48  C   UNL     1       1.290 -22.569  -8.583  1.00  0.00     0.074 A 
ATOM     49  C   UNL     1       1.159 -21.532  -9.581  1.00  0.00     0.031 C 
ATOM     50  C   UNL     1       4.512 -19.631  -3.856  1.00  0.00     0.029 A 
ATOM     51  C   UNL     1       4.030 -21.008  -3.881  1.00  0.00     0.049 A 
ATOM     52  H   UNL     1       3.079 -21.991  -5.451  1.00  0.00     0.167 HD
ATOM     53  C   UNL     1       0.788 -23.820  -8.712  1.00  0.00     0.037 A 
ATOM     54  C   UNL     1       4.128 -21.887  -2.866  1.00  0.00     0.037 A 
ATOM     55  C   UNL     1       0.961 -24.862  -7.736  1.00  0.00     0.049 A 
ATOM     56  C   UNL     1       3.590 -23.279  -3.050  1.00  0.00     0.074 A 
ATOM     57  C   UNL     1       0.575 -26.188  -7.815  1.00  0.00     0.029 A 
ATOM     58  N   UNL     1       1.570 -24.694  -6.502  1.00  0.00    -0.354 N 
ATOM     59  N   UNL     1       2.980 -23.799  -4.088  1.00  0.00    -0.248 NA
ATOM     60  C   UNL     1       3.761 -24.211  -1.926  1.00  0.00     0.031 C 
ATOM     61  C   UNL     1       0.909 -26.812  -6.610  1.00  0.00     0.029 A 
ATOM     62  C   UNL     1       1.547 -25.887  -5.799  1.00  0.00     0.049 A 
ATOM     63  H   UNL     1       1.960 -23.852  -6.173  1.00  0.00     0.167 HD
ATOM     64  C   UNL     1       2.719 -25.121  -3.753  1.00  0.00     0.074 A 
ATOM     65  C   UNL     1       3.252 -25.329  -2.423  1.00  0.00     0.031 C 
ATOM     66  C   UNL     1       2.092 -26.077  -4.480  1.00  0.00     0.037 A 
BRANCH  53  67
ATOM     67  C   UNL     1       0.012 -24.138  -9.956  1.00  0.00     0.057 A 
ATOM     68  C   UNL     1       0.633 -24.267 -11.204  1.00  0.00     0.134 A 
ATOM     69  C   UNL     1      -1.367 -24.373  -9.893  1.00  0.00     0.134 A 
ATOM     70  F   UNL     1       1.950 -24.043 -11.335  1.00  0.00    -0.206 F 
ATOM     71  C   UNL     1      -0.092 -24.602 -12.349  1.00  0.00     0.040 A 
ATOM     72  C   UNL     1      -2.099 -24.735 -11.025  1.00  0.00     0.040 A 
ATOM     73  F   UNL     1      -2.024 -24.271  -8.727  1.00  0.00    -0.206 F 
ATOM     74  C   UNL     1      -1.461 -24.847 -12.259  1.00  0.00     0.006 A 
ENDBRANCH  53  67
BRANCH  54  75
ATOM     75  C   UNL     1       4.768 -21.485  -1.588  1.00  0.00     0.057 A 
ATOM     76  C   UNL     1       6.002 -22.017  -1.196  1.00  0.00     0.134 A 
ATOM     77  C   UNL     1       4.153 -20.576  -0.718  1.00  0.00     0.134 A 
ATOM     78  F   UNL     1       6.632 -22.905  -1.978  1.00  0.00    -0.206 F 
ATOM     79  C   UNL     1       6.588 -21.683   0.026  1.00  0.00     0.040 A 
ATOM     80  C   UNL     1       4.740 -20.213   0.495  1.00  0.00     0.040 A 
ATOM     81  F   UNL     1       2.975 -20.022  -1.040  1.00  0.00    -0.206 F 
ATOM     82  C   UNL     1       5.957 -20.775   0.874  1.00  0.00     0.006 A 
ENDBRANCH  54  75
BRANCH  66  83
ATOM     83  C   UNL     1       1.979 -27.441  -3.867  1.00  0.00     0.057 A 
ATOM     84  C   UNL     1       1.102 -27.705  -2.808  1.00  0.00     0.134 A 
ATOM     85  C   UNL     1       2.727 -28.512  -4.372  1.00  0.00     0.134 A 
ATOM     86  F   UNL     1       0.367 -26.719  -2.272  1.00  0.00    -0.206 F 
ATOM     87  C   UNL     1       0.989 -28.983  -2.258  1.00  0.00     0.040 A 
ATOM     88  C   UNL     1       2.603 -29.799  -3.849  1.00  0.00     0.040 A 
ATOM     89  F   UNL     1       3.579 -28.328  -5.393  1.00  0.00    -0.206 F 
ATOM     90  C   UNL     1       1.736 -30.036  -2.784  1.00  0.00     0.006 A 
ENDBRANCH  66  83
ENDBRANCH  40  41
ENDBRANCH  32  35
ENDBRANCH  30  31
ENDBRANCH  29  30
ENDBRANCH  28  29
ENDBRANCH   3  28
TORSDOF 16
