REMARK SMILES CC(C)(Oc1ccc(Cl)cc1)C(=O)N1CCC[C@H](C(=O)NCCCNC(=O)c2ccc(-c3c4nc(c(-c5c(F)cccc5F)c5ccc([nH]5)c(-c5c(F)cccc5F)c5nc(c(-c6c(F)cccc6F)c6ccc3[nH]6)C=C5)C=C4)cc2)C1
REMARK SMILES IDX 22 1 21 2 19 3 20 4 18 6 14 7 15 8 82 9 16 10 17 11 12 12
REMARK SMILES IDX 13 13 2 14 1 15 3 16 4 17 5 18 6 19 11 20 7 21 10 22 8 23
REMARK SMILES IDX 9 24 23 25 24 26 25 27 26 28 27 30 28 31 29 32 81 33 30 34
REMARK SMILES IDX 80 35 31 36 32 37 33 38 74 39 34 40 79 41 73 42 75 43 35 44
REMARK SMILES IDX 78 45 72 46 71 47 36 49 62 50 45 51 61 52 46 53 49 54 60 55
REMARK SMILES IDX 76 56 47 57 48 58 59 60 77 61 50 62 37 63 38 64 43 65 39 66
REMARK SMILES IDX 40 67 42 68 44 69 41 70 63 71 64 72 69 73 65 74 66 75 68 76
REMARK SMILES IDX 70 77 67 78 51 79 52 80 57 81 53 82 54 83 56 84 58 85 55 86
REMARK H PARENT 21 5 25 29 75 48 49 59
REMARK Flexibility Score: inf
ROOT
ATOM      1  C   UNL     1       0.611  -2.040  -4.220  1.00  0.00     0.117 C 
ENDROOT
BRANCH   1   2
ATOM      2  N   UNL     1      -0.647  -2.557  -4.700  1.00  0.00    -0.356 N 
ATOM      3  C   UNL     1      -1.429  -3.553  -4.208  1.00  0.00     0.224 C 
ATOM      4  O   UNL     1      -2.551  -3.667  -4.715  1.00  0.00    -0.275 OA
ATOM      5  H   UNL     1      -0.994  -2.119  -5.511  1.00  0.00     0.163 HD
BRANCH   3   6
ATOM      6  C   UNL     1      -0.985  -4.556  -3.131  1.00  0.00     0.098 C 
ATOM      7  N   UNL     1       0.728  -3.806  -1.428  1.00  0.00    -0.338 N 
ATOM      8  C   UNL     1       1.604  -4.918  -1.800  1.00  0.00     0.119 C 
ATOM      9  C   UNL     1      -0.694  -3.979  -1.731  1.00  0.00     0.133 C 
ATOM     10  C   UNL     1       1.472  -5.306  -3.264  1.00  0.00     0.022 C 
ATOM     11  C   UNL     1       0.027  -5.583  -3.650  1.00  0.00     0.017 C 
BRANCH   7  12
ATOM     12  C   UNL     1       1.317  -2.617  -0.995  1.00  0.00     0.266 C 
ATOM     13  O   UNL     1       2.470  -2.357  -1.367  1.00  0.00    -0.270 OA
BRANCH  12  14
ATOM     14  C   UNL     1       0.616  -1.719   0.096  1.00  0.00     0.181 C 
ATOM     15  C   UNL     1       1.364  -0.367   0.117  1.00  0.00     0.067 C 
ATOM     16  C   UNL     1       0.871  -2.486   1.409  1.00  0.00     0.067 C 
BRANCH  14  17
ATOM     17  O   UNL     1      -0.780  -1.474  -0.163  1.00  0.00    -0.478 OA
BRANCH  17  18
ATOM     18  C   UNL     1      -1.544  -1.075   0.902  1.00  0.00     0.121 A 
ATOM     19  C   UNL     1      -1.479   0.222   1.413  1.00  0.00     0.048 A 
ATOM     20  C   UNL     1      -2.454  -1.987   1.440  1.00  0.00     0.048 A 
ATOM     21  C   UNL     1      -2.233   0.572   2.537  1.00  0.00     0.024 A 
ATOM     22  C   UNL     1      -3.224  -1.633   2.552  1.00  0.00     0.024 A 
ATOM     23  C   UNL     1      -3.093  -0.361   3.110  1.00  0.00     0.041 A 
ATOM     24  Cl  UNL     1      -4.004   0.062   4.506  1.00  0.00    -0.084 Cl
ENDBRANCH  17  18
ENDBRANCH  14  17
ENDBRANCH  12  14
ENDBRANCH   7  12
ENDBRANCH   3   6
ENDBRANCH   1   2
BRANCH   1  25
ATOM     25  C   UNL     1       1.758  -2.166  -5.206  1.00  0.00     0.042 C 
BRANCH  25  26
ATOM     26  C   UNL     1       2.035  -0.884  -5.969  1.00  0.00     0.118 C 
BRANCH  26  27
ATOM     27  N   UNL     1       2.522   0.196  -5.114  1.00  0.00    -0.352 N 
ATOM     28  C   UNL     1       3.681   0.936  -5.166  1.00  0.00     0.251 C 
ATOM     29  H   UNL     1       1.918   0.434  -4.375  1.00  0.00     0.163 HD
ATOM     30  O   UNL     1       3.936   1.728  -4.270  1.00  0.00    -0.269 OA
BRANCH  28  31
ATOM     31  C   UNL     1       4.636   0.756  -6.282  1.00  0.00     0.039 A 
ATOM     32  C   UNL     1       6.007   0.775  -6.009  1.00  0.00     0.014 A 
ATOM     33  C   UNL     1       4.191   0.564  -7.590  1.00  0.00     0.014 A 
ATOM     34  C   UNL     1       6.922   0.515  -7.032  1.00  0.00     0.010 A 
ATOM     35  C   UNL     1       5.091   0.190  -8.579  1.00  0.00     0.010 A 
ATOM     36  C   UNL     1       6.468   0.171  -8.315  1.00  0.00    -0.014 A 
BRANCH  36  37
ATOM     37  C   UNL     1       7.405  -0.182  -9.412  1.00  0.00     0.031 A 
ATOM     38  C   UNL     1       7.412   0.638 -10.675  1.00  0.00     0.074 A 
ATOM     39  C   UNL     1       8.187  -1.275  -9.307  1.00  0.00     0.049 A 
ATOM     40  N   UNL     1       8.044   0.421 -11.800  1.00  0.00    -0.248 NA
ATOM     41  C   UNL     1       6.566   1.844 -10.686  1.00  0.00     0.031 C 
ATOM     42  C   UNL     1       8.240  -2.177  -8.154  1.00  0.00     0.029 A 
ATOM     43  N   UNL     1       9.081  -1.821 -10.194  1.00  0.00    -0.354 N 
ATOM     44  C   UNL     1       7.657   1.448 -12.652  1.00  0.00     0.074 A 
ATOM     45  C   UNL     1       6.685   2.248 -11.941  1.00  0.00     0.031 C 
ATOM     46  C   UNL     1       9.140  -3.145  -8.393  1.00  0.00     0.029 A 
ATOM     47  C   UNL     1       9.693  -2.961  -9.730  1.00  0.00     0.049 A 
ATOM     48  H   UNL     1       9.266  -1.433 -11.079  1.00  0.00     0.167 HD
ATOM     49  C   UNL     1       8.098   1.723 -13.902  1.00  0.00     0.037 A 
ATOM     50  C   UNL     1      10.591  -3.769 -10.323  1.00  0.00     0.037 A 
ATOM     51  C   UNL     1       9.093   0.950 -14.592  1.00  0.00     0.049 A 
ATOM     52  C   UNL     1      11.056  -3.445 -11.717  1.00  0.00     0.074 A 
ATOM     53  C   UNL     1       9.633   1.162 -15.849  1.00  0.00     0.029 A 
ATOM     54  N   UNL     1       9.711  -0.178 -14.074  1.00  0.00    -0.354 N 
ATOM     55  N   UNL     1      10.710  -2.448 -12.495  1.00  0.00    -0.248 NA
ATOM     56  C   UNL     1      12.040  -4.359 -12.315  1.00  0.00     0.031 C 
ATOM     57  C   UNL     1      10.560   0.146 -16.102  1.00  0.00     0.029 A 
ATOM     58  C   UNL     1      10.624  -0.675 -14.988  1.00  0.00     0.049 A 
ATOM     59  H   UNL     1       9.527  -0.567 -13.189  1.00  0.00     0.167 HD
ATOM     60  C   UNL     1      11.456  -2.595 -13.656  1.00  0.00     0.074 A 
ATOM     61  C   UNL     1      12.284  -3.770 -13.477  1.00  0.00     0.031 C 
ATOM     62  C   UNL     1      11.456  -1.831 -14.775  1.00  0.00     0.037 A 
BRANCH  49  63
ATOM     63  C   UNL     1       7.525   2.929 -14.587  1.00  0.00     0.057 A 
ATOM     64  C   UNL     1       7.846   4.228 -14.170  1.00  0.00     0.134 A 
ATOM     65  C   UNL     1       6.675   2.796 -15.691  1.00  0.00     0.134 A 
ATOM     66  F   UNL     1       8.642   4.424 -13.108  1.00  0.00    -0.206 F 
ATOM     67  C   UNL     1       7.324   5.352 -14.813  1.00  0.00     0.040 A 
ATOM     68  C   UNL     1       6.168   3.912 -16.359  1.00  0.00     0.040 A 
ATOM     69  F   UNL     1       6.331   1.581 -16.145  1.00  0.00    -0.206 F 
ATOM     70  C   UNL     1       6.488   5.195 -15.916  1.00  0.00     0.006 A 
ENDBRANCH  49  63
BRANCH  50  71
ATOM     71  C   UNL     1      11.131  -4.954  -9.607  1.00  0.00     0.057 A 
ATOM     72  C   UNL     1      12.472  -5.002  -9.205  1.00  0.00     0.134 A 
ATOM     73  C   UNL     1      10.340  -6.077  -9.344  1.00  0.00     0.134 A 
ATOM     74  F   UNL     1      13.286  -3.964  -9.447  1.00  0.00    -0.206 F 
ATOM     75  C   UNL     1      13.014  -6.135  -8.598  1.00  0.00     0.040 A 
ATOM     76  C   UNL     1      10.862  -7.208  -8.712  1.00  0.00     0.040 A 
ATOM     77  F   UNL     1       9.046  -6.093  -9.696  1.00  0.00    -0.206 F 
ATOM     78  C   UNL     1      12.207  -7.243  -8.348  1.00  0.00     0.006 A 
ENDBRANCH  50  71
BRANCH  62  79
ATOM     79  C   UNL     1      12.412  -2.210 -15.865  1.00  0.00     0.057 A 
ATOM     80  C   UNL     1      12.195  -3.326 -16.681  1.00  0.00     0.134 A 
ATOM     81  C   UNL     1      13.539  -1.421 -16.127  1.00  0.00     0.134 A 
ATOM     82  F   UNL     1      11.140  -4.128 -16.471  1.00  0.00    -0.206 F 
ATOM     83  C   UNL     1      13.079  -3.658 -17.709  1.00  0.00     0.040 A 
ATOM     84  C   UNL     1      14.416  -1.728 -17.167  1.00  0.00     0.040 A 
ATOM     85  F   UNL     1      13.797  -0.333 -15.386  1.00  0.00    -0.206 F 
ATOM     86  C   UNL     1      14.190  -2.852 -17.958  1.00  0.00     0.006 A 
ENDBRANCH  62  79
ENDBRANCH  36  37
ENDBRANCH  28  31
ENDBRANCH  26  27
ENDBRANCH  25  26
ENDBRANCH   1  25
TORSDOF 14
