REMARK SMILES Cc1cc(Br)cc([N+](=O)[O-])c1OCCC(=O)NCCCNC(=O)c1ccc(-c2c3nc(c(-c4c(F)cccc4F)c4ccc([nH]4)c(-c4c(F)cccc4F)c4nc(c(-c5c(F)cccc5F)c5ccc2[nH]5)C=C4)C=C3)cc1
REMARK SMILES IDX 18 1 17 2 15 3 16 4 14 6 13 7 12 8 11 9 1 10 2 11 3 12 4 13
REMARK SMILES IDX 7 14 5 15 6 16 8 17 9 18 10 19 19 20 20 21 21 22 22 23 23 25
REMARK SMILES IDX 24 26 25 27 77 28 26 29 76 30 27 31 28 32 29 33 70 34 30 35
REMARK SMILES IDX 75 36 69 37 71 38 31 39 74 40 68 41 67 42 32 44 58 45 41 46
REMARK SMILES IDX 57 47 42 48 45 49 56 50 72 51 43 52 44 53 55 55 73 56 46 57
REMARK SMILES IDX 33 58 34 59 39 60 35 61 36 62 38 63 40 64 37 65 59 66 60 67
REMARK SMILES IDX 65 68 61 69 62 70 64 71 66 72 63 73 47 74 48 75 53 76 49 77
REMARK SMILES IDX 50 78 52 79 54 80 51 81
REMARK H PARENT 17 5 21 24 71 43 45 54
REMARK Flexibility Score: inf
ROOT
ATOM      1  C   UNL     1      -2.292   0.865  -2.857  1.00  0.00     0.117 C 
ENDROOT
BRANCH   1   2
ATOM      2  N   UNL     1      -2.576  -0.476  -2.364  1.00  0.00    -0.356 N 
ATOM      3  C   UNL     1      -3.723  -1.001  -1.847  1.00  0.00     0.223 C 
ATOM      4  O   UNL     1      -3.790  -2.224  -1.702  1.00  0.00    -0.275 OA
ATOM      5  H   UNL     1      -1.818  -1.104  -2.412  1.00  0.00     0.163 HD
BRANCH   3   6
ATOM      6  C   UNL     1      -4.884  -0.116  -1.466  1.00  0.00     0.141 C 
BRANCH   6   7
ATOM      7  C   UNL     1      -5.099  -0.015   0.040  1.00  0.00     0.240 C 
BRANCH   7   8
ATOM      8  O   UNL     1      -4.078   0.713   0.697  1.00  0.00    -0.486 OA
BRANCH   8   9
ATOM      9  C   UNL     1      -2.982   0.225   1.337  1.00  0.00     0.200 A 
ATOM     10  C   UNL     1      -3.243  -2.394   1.212  1.00  0.00     0.049 C 
ATOM     11  C   UNL     1      -2.543  -1.098   1.515  1.00  0.00    -0.001 A 
ATOM     12  C   UNL     1      -1.256  -1.316   2.079  1.00  0.00     0.023 A 
ATOM     13  C   UNL     1      -0.441  -0.278   2.516  1.00  0.00     0.025 A 
ATOM     14  C   UNL     1      -2.141   1.255   1.846  1.00  0.00     0.312 A 
ATOM     15  Br  UNL     1       1.255  -0.677   3.240  1.00  0.00    -0.051 Br
ATOM     16  C   UNL     1      -0.885   1.024   2.425  1.00  0.00     0.105 A 
BRANCH  14  17
ATOM     17  N   UNL     1      -2.540   2.655   1.727  1.00  0.00     0.066 N 
ATOM     18  O   UNL     1      -1.738   3.417   1.166  1.00  0.00    -0.258 OA
ATOM     19  O   UNL     1      -3.619   2.997   2.230  1.00  0.00    -0.258 OA
ENDBRANCH  14  17
ENDBRANCH   8   9
ENDBRANCH   7   8
ENDBRANCH   6   7
ENDBRANCH   3   6
ENDBRANCH   1   2
BRANCH   1  20
ATOM     20  C   UNL     1      -1.648   1.787  -1.821  1.00  0.00     0.042 C 
BRANCH  20  21
ATOM     21  C   UNL     1      -0.225   1.395  -1.393  1.00  0.00     0.118 C 
BRANCH  21  22
ATOM     22  N   UNL     1       0.784   2.191  -2.075  1.00  0.00    -0.352 N 
ATOM     23  C   UNL     1       1.658   3.153  -1.634  1.00  0.00     0.251 C 
ATOM     24  H   UNL     1       0.854   2.003  -3.039  1.00  0.00     0.163 HD
ATOM     25  O   UNL     1       2.230   3.829  -2.498  1.00  0.00    -0.269 OA
BRANCH  23  26
ATOM     26  C   UNL     1       1.983   3.427  -0.203  1.00  0.00     0.039 A 
ATOM     27  C   UNL     1       2.329   4.743   0.140  1.00  0.00     0.014 A 
ATOM     28  C   UNL     1       2.140   2.435   0.767  1.00  0.00     0.014 A 
ATOM     29  C   UNL     1       2.818   5.061   1.419  1.00  0.00     0.010 A 
ATOM     30  C   UNL     1       2.584   2.767   2.068  1.00  0.00     0.010 A 
ATOM     31  C   UNL     1       2.947   4.080   2.414  1.00  0.00    -0.014 A 
BRANCH  31  32
ATOM     32  C   UNL     1       3.468   4.441   3.779  1.00  0.00     0.031 A 
ATOM     33  C   UNL     1       4.738   3.837   4.343  1.00  0.00     0.074 A 
ATOM     34  C   UNL     1       2.809   5.337   4.547  1.00  0.00     0.049 A 
ATOM     35  N   UNL     1       5.341   4.088   5.484  1.00  0.00    -0.248 NA
ATOM     36  C   UNL     1       5.407   2.808   3.536  1.00  0.00     0.031 C 
ATOM     37  C   UNL     1       1.545   5.984   4.199  1.00  0.00     0.029 A 
ATOM     38  N   UNL     1       3.120   5.865   5.783  1.00  0.00    -0.354 N 
ATOM     39  C   UNL     1       6.444   3.241   5.537  1.00  0.00     0.074 A 
ATOM     40  C   UNL     1       6.401   2.437   4.333  1.00  0.00     0.031 C 
ATOM     41  C   UNL     1       1.209   6.847   5.172  1.00  0.00     0.029 A 
ATOM     42  C   UNL     1       2.215   6.798   6.231  1.00  0.00     0.049 A 
ATOM     43  H   UNL     1       3.916   5.598   6.296  1.00  0.00     0.167 HD
ATOM     44  C   UNL     1       7.419   3.149   6.478  1.00  0.00     0.037 A 
ATOM     45  C   UNL     1       2.187   7.542   7.356  1.00  0.00     0.037 A 
ATOM     46  C   UNL     1       7.516   3.961   7.666  1.00  0.00     0.049 A 
ATOM     47  C   UNL     1       3.290   7.441   8.374  1.00  0.00     0.074 A 
ATOM     48  C   UNL     1       8.522   3.971   8.622  1.00  0.00     0.029 A 
ATOM     49  N   UNL     1       6.584   4.901   8.068  1.00  0.00    -0.354 N 
ATOM     50  N   UNL     1       4.364   6.693   8.359  1.00  0.00    -0.248 NA
ATOM     51  C   UNL     1       3.179   8.302   9.563  1.00  0.00     0.031 C 
ATOM     52  C   UNL     1       8.179   4.889   9.620  1.00  0.00     0.029 A 
ATOM     53  C   UNL     1       6.982   5.483   9.264  1.00  0.00     0.049 A 
ATOM     54  H   UNL     1       5.760   5.125   7.578  1.00  0.00     0.167 HD
ATOM     55  C   UNL     1       5.069   7.016   9.514  1.00  0.00     0.074 A 
ATOM     56  C   UNL     1       4.309   8.035  10.203  1.00  0.00     0.031 C 
ATOM     57  C   UNL     1       6.244   6.507   9.956  1.00  0.00     0.037 A 
BRANCH  44  58
ATOM     58  C   UNL     1       8.500   2.126   6.259  1.00  0.00     0.057 A 
ATOM     59  C   UNL     1       9.487   2.297   5.279  1.00  0.00     0.134 A 
ATOM     60  C   UNL     1       8.598   0.999   7.085  1.00  0.00     0.134 A 
ATOM     61  F   UNL     1       9.451   3.355   4.456  1.00  0.00    -0.206 F 
ATOM     62  C   UNL     1      10.517   1.370   5.112  1.00  0.00     0.040 A 
ATOM     63  C   UNL     1       9.640   0.079   6.945  1.00  0.00     0.040 A 
ATOM     64  F   UNL     1       7.698   0.785   8.057  1.00  0.00    -0.206 F 
ATOM     65  C   UNL     1      10.600   0.261   5.952  1.00  0.00     0.006 A 
ENDBRANCH  44  58
BRANCH  45  66
ATOM     66  C   UNL     1       1.072   8.497   7.580  1.00  0.00     0.057 A 
ATOM     67  C   UNL     1       1.278   9.880   7.500  1.00  0.00     0.134 A 
ATOM     68  C   UNL     1      -0.212   8.052   7.912  1.00  0.00     0.134 A 
ATOM     69  F   UNL     1       2.496  10.365   7.215  1.00  0.00    -0.206 F 
ATOM     70  C   UNL     1       0.251  10.787   7.760  1.00  0.00     0.040 A 
ATOM     71  C   UNL     1      -1.255   8.948   8.150  1.00  0.00     0.040 A 
ATOM     72  F   UNL     1      -0.471   6.739   8.007  1.00  0.00    -0.206 F 
ATOM     73  C   UNL     1      -1.022  10.321   8.082  1.00  0.00     0.006 A 
ENDBRANCH  45  66
BRANCH  57  74
ATOM     74  C   UNL     1       6.815   7.073  11.226  1.00  0.00     0.057 A 
ATOM     75  C   UNL     1       6.250   6.804  12.480  1.00  0.00     0.134 A 
ATOM     76  C   UNL     1       7.958   7.883  11.197  1.00  0.00     0.134 A 
ATOM     77  F   UNL     1       5.148   6.047  12.582  1.00  0.00    -0.206 F 
ATOM     78  C   UNL     1       6.786   7.341  13.654  1.00  0.00     0.040 A 
ATOM     79  C   UNL     1       8.517   8.406  12.365  1.00  0.00     0.040 A 
ATOM     80  F   UNL     1       8.555   8.175  10.032  1.00  0.00    -0.206 F 
ATOM     81  C   UNL     1       7.926   8.141  13.599  1.00  0.00     0.006 A 
ENDBRANCH  57  74
ENDBRANCH  31  32
ENDBRANCH  23  26
ENDBRANCH  21  22
ENDBRANCH  20  21
ENDBRANCH   1  20
TORSDOF 14
