REMARK SMILES CC[C@](O)(C(=O)NCCCNC(=O)c1ccc(-c2c3nc(c(-c4c(F)cccc4F)c4ccc([nH]4)c(-c4c(F)cccc4F)c4nc(c(-c5c(F)cccc5F)c5ccc2[nH]5)C=C4)C=C3)cc1)[C@@H](C)c1ccc2c(c1)OCCO2
REMARK SMILES IDX 9 1 8 2 7 3 5 4 6 5 3 7 2 8 1 9 68 10 69 11 70 12 71 13
REMARK SMILES IDX 75 14 72 15 74 16 73 17 76 18 79 19 77 20 78 21 4 22 10 24
REMARK SMILES IDX 11 25 12 26 13 28 14 29 15 30 67 31 16 32 66 33 17 34 18 35
REMARK SMILES IDX 19 36 60 37 20 38 65 39 59 40 61 41 21 42 64 43 58 44 57 45
REMARK SMILES IDX 22 47 48 48 31 49 47 50 32 51 35 52 46 53 62 54 33 55 34 56
REMARK SMILES IDX 45 58 63 59 36 60 23 61 24 62 29 63 25 64 26 65 28 66 30 67
REMARK SMILES IDX 27 68 49 69 50 70 55 71 51 72 52 73 54 74 56 75 53 76 37 77
REMARK SMILES IDX 38 78 43 79 39 80 40 81 42 82 44 83 41 84
REMARK H PARENT 7 6 4 23 11 27 61 46 35 57
REMARK Flexibility Score: inf
ROOT
ATOM      1  C   UNL     1      -2.781   0.617  -2.976  1.00  0.00     0.042 C 
ENDROOT
BRANCH   1   2
ATOM      2  C   UNL     1      -2.085  -0.700  -3.261  1.00  0.00     0.117 C 
BRANCH   2   3
ATOM      3  N   UNL     1      -0.984  -0.587  -4.198  1.00  0.00    -0.354 N 
ATOM      4  C   UNL     1       0.364  -0.706  -3.966  1.00  0.00     0.252 C 
ATOM      5  O   UNL     1       1.106  -0.744  -4.949  1.00  0.00    -0.272 OA
ATOM      6  H   UNL     1      -1.238  -0.399  -5.130  1.00  0.00     0.163 HD
BRANCH   4   7
ATOM      7  C   UNL     1       0.875  -0.817  -2.502  1.00  0.00     0.149 C 
BRANCH   7   8
ATOM      8  C   UNL     1       0.425  -2.211  -1.942  1.00  0.00     0.043 C 
ATOM      9  C   UNL     1      -0.074  -2.269  -0.501  1.00  0.00     0.007 C 
ENDBRANCH   7   8
BRANCH   7  10
ATOM     10  C   UNL     1       2.431  -0.714  -2.432  1.00  0.00     0.058 C 
ATOM     11  C   UNL     1       3.035   0.591  -2.999  1.00  0.00     0.016 C 
BRANCH  10  12
ATOM     12  C   UNL     1       2.922  -0.843  -0.991  1.00  0.00    -0.038 A 
ATOM     13  C   UNL     1       3.749  -1.908  -0.595  1.00  0.00     0.008 A 
ATOM     14  C   UNL     1       2.619   0.172  -0.071  1.00  0.00     0.054 A 
ATOM     15  C   UNL     1       4.392  -1.872   0.643  1.00  0.00     0.051 A 
ATOM     16  C   UNL     1       3.293   0.234   1.124  1.00  0.00     0.161 A 
ATOM     17  C   UNL     1       4.231  -0.746   1.440  1.00  0.00     0.161 A 
ATOM     18  O   UNL     1       3.134   1.373   1.859  1.00  0.00    -0.486 OA
ATOM     19  O   UNL     1       5.171  -0.476   2.409  1.00  0.00    -0.486 OA
ATOM     20  C   UNL     1       4.383   1.833   2.389  1.00  0.00     0.271 C 
ATOM     21  C   UNL     1       5.562   0.886   2.151  1.00  0.00     0.271 C 
ENDBRANCH  10  12
ENDBRANCH   7  10
BRANCH   7  22
ATOM     22  O   UNL     1       0.312   0.323  -1.830  1.00  0.00    -0.379 OA
ATOM     23  H   UNL     1       0.644   1.137  -2.241  1.00  0.00     0.212 HD
ENDBRANCH   7  22
ENDBRANCH   4   7
ENDBRANCH   2   3
ENDBRANCH   1   2
BRANCH   1  24
ATOM     24  C   UNL     1      -3.529   1.162  -4.178  1.00  0.00     0.118 C 
BRANCH  24  25
ATOM     25  N   UNL     1      -4.484   0.196  -4.714  1.00  0.00    -0.352 N 
ATOM     26  C   UNL     1      -5.850   0.227  -4.749  1.00  0.00     0.251 C 
ATOM     27  H   UNL     1      -4.079  -0.606  -5.114  1.00  0.00     0.163 HD
ATOM     28  O   UNL     1      -6.476  -0.806  -5.000  1.00  0.00    -0.269 OA
BRANCH  26  29
ATOM     29  C   UNL     1      -6.573   1.483  -4.484  1.00  0.00     0.039 A 
ATOM     30  C   UNL     1      -7.777   1.440  -3.780  1.00  0.00     0.014 A 
ATOM     31  C   UNL     1      -6.071   2.702  -4.946  1.00  0.00     0.014 A 
ATOM     32  C   UNL     1      -8.441   2.630  -3.481  1.00  0.00     0.010 A 
ATOM     33  C   UNL     1      -6.672   3.890  -4.555  1.00  0.00     0.010 A 
ATOM     34  C   UNL     1      -7.870   3.865  -3.829  1.00  0.00    -0.014 A 
BRANCH  34  35
ATOM     35  C   UNL     1      -8.512   5.144  -3.442  1.00  0.00     0.031 A 
ATOM     36  C   UNL     1      -8.969   6.110  -4.499  1.00  0.00     0.074 A 
ATOM     37  C   UNL     1      -8.627   5.454  -2.136  1.00  0.00     0.049 A 
ATOM     38  N   UNL     1      -9.503   7.296  -4.357  1.00  0.00    -0.248 NA
ATOM     39  C   UNL     1      -8.775   5.706  -5.902  1.00  0.00     0.031 C 
ATOM     40  C   UNL     1      -8.164   4.622  -1.023  1.00  0.00     0.029 A 
ATOM     41  N   UNL     1      -9.163   6.557  -1.524  1.00  0.00    -0.354 N 
ATOM     42  C   UNL     1      -9.702   7.777  -5.644  1.00  0.00     0.074 A 
ATOM     43  C   UNL     1      -9.172   6.788  -6.555  1.00  0.00     0.031 C 
ATOM     44  C   UNL     1      -8.465   5.229   0.135  1.00  0.00     0.029 A 
ATOM     45  C   UNL     1      -9.100   6.510  -0.152  1.00  0.00     0.049 A 
ATOM     46  H   UNL     1      -9.556   7.311  -2.020  1.00  0.00     0.167 HD
ATOM     47  C   UNL     1     -10.301   8.927  -6.032  1.00  0.00     0.037 A 
ATOM     48  C   UNL     1      -9.501   7.405   0.769  1.00  0.00     0.037 A 
ATOM     49  C   UNL     1     -10.843   9.900  -5.121  1.00  0.00     0.049 A 
ATOM     50  C   UNL     1     -10.151   8.681   0.308  1.00  0.00     0.074 A 
ATOM     51  C   UNL     1     -11.514  11.074  -5.413  1.00  0.00     0.029 A 
ATOM     52  N   UNL     1     -10.773   9.811  -3.739  1.00  0.00    -0.354 N 
ATOM     53  N   UNL     1     -10.400   9.089  -0.913  1.00  0.00    -0.248 NA
ATOM     54  C   UNL     1     -10.584   9.617   1.354  1.00  0.00     0.031 C 
ATOM     55  C   UNL     1     -11.807  11.720  -4.208  1.00  0.00     0.029 A 
ATOM     56  C   UNL     1     -11.369  10.921  -3.164  1.00  0.00     0.049 A 
ATOM     57  H   UNL     1     -10.361   9.069  -3.240  1.00  0.00     0.167 HD
ATOM     58  C   UNL     1     -11.042  10.313  -0.781  1.00  0.00     0.074 A 
ATOM     59  C   UNL     1     -11.165  10.569   0.639  1.00  0.00     0.031 C 
ATOM     60  C   UNL     1     -11.487  11.154  -1.747  1.00  0.00     0.037 A 
BRANCH  47  61
ATOM     61  C   UNL     1     -10.414   9.191  -7.506  1.00  0.00     0.057 A 
ATOM     62  C   UNL     1     -11.269   8.441  -8.326  1.00  0.00     0.134 A 
ATOM     63  C   UNL     1      -9.701  10.237  -8.105  1.00  0.00     0.134 A 
ATOM     64  F   UNL     1     -11.971   7.416  -7.819  1.00  0.00    -0.206 F 
ATOM     65  C   UNL     1     -11.396   8.710  -9.690  1.00  0.00     0.040 A 
ATOM     66  C   UNL     1      -9.841  10.533  -9.462  1.00  0.00     0.040 A 
ATOM     67  F   UNL     1      -8.867  10.997  -7.379  1.00  0.00    -0.206 F 
ATOM     68  C   UNL     1     -10.687   9.765 -10.259  1.00  0.00     0.006 A 
ENDBRANCH  47  61
BRANCH  48  69
ATOM     69  C   UNL     1      -9.313   7.129   2.216  1.00  0.00     0.057 A 
ATOM     70  C   UNL     1     -10.409   6.918   3.062  1.00  0.00     0.134 A 
ATOM     71  C   UNL     1      -8.038   7.095   2.794  1.00  0.00     0.134 A 
ATOM     72  F   UNL     1     -11.657   6.953   2.571  1.00  0.00    -0.206 F 
ATOM     73  C   UNL     1     -10.247   6.717   4.434  1.00  0.00     0.040 A 
ATOM     74  C   UNL     1      -7.860   6.864   4.159  1.00  0.00     0.040 A 
ATOM     75  F   UNL     1      -6.946   7.277   2.037  1.00  0.00    -0.206 F 
ATOM     76  C   UNL     1      -8.967   6.686   4.985  1.00  0.00     0.006 A 
ENDBRANCH  48  69
BRANCH  60  77
ATOM     77  C   UNL     1     -12.177  12.409  -1.296  1.00  0.00     0.057 A 
ATOM     78  C   UNL     1     -11.481  13.458  -0.683  1.00  0.00     0.134 A 
ATOM     79  C   UNL     1     -13.553  12.577  -1.501  1.00  0.00     0.134 A 
ATOM     80  F   UNL     1     -10.165  13.355  -0.446  1.00  0.00    -0.206 F 
ATOM     81  C   UNL     1     -12.134  14.617  -0.261  1.00  0.00     0.040 A 
ATOM     82  C   UNL     1     -14.211  13.744  -1.113  1.00  0.00     0.040 A 
ATOM     83  F   UNL     1     -14.277  11.615  -2.093  1.00  0.00    -0.206 F 
ATOM     84  C   UNL     1     -13.502  14.765  -0.482  1.00  0.00     0.006 A 
ENDBRANCH  60  77
ENDBRANCH  34  35
ENDBRANCH  26  29
ENDBRANCH  24  25
ENDBRANCH   1  24
TORSDOF 14
