REMARK SMILES O=C(NCCCNC(=O)[C@@H]1C[C@@H]1C(=O)N1CCN(c2ncc(C(F)(F)F)cc2Cl)CC1)c1ccc(-c2c3nc(c(-c4c(F)cccc4F)c4ccc([nH]4)c(-c4c(F)cccc4F)c4nc(c(-c5c(F)cccc5F)c5ccc2[nH]5)C=C4)C=C3)cc1
REMARK SMILES IDX 5 1 4 2 3 3 1 4 2 5 32 7 33 8 85 9 34 10 84 11 35 12 36 13
REMARK SMILES IDX 37 14 78 15 38 16 83 17 77 18 79 19 39 20 82 21 76 22 75 23
REMARK SMILES IDX 40 25 66 26 49 27 65 28 50 29 53 30 64 31 80 32 51 33 52 34
REMARK SMILES IDX 63 36 81 37 54 38 41 39 42 40 47 41 43 42 44 43 46 44 48 45
REMARK SMILES IDX 45 46 67 47 68 48 73 49 69 50 70 51 72 52 74 53 71 54 55 55
REMARK SMILES IDX 56 56 61 57 57 58 58 59 60 60 62 61 59 62 6 63 7 64 8 65
REMARK SMILES IDX 9 67 10 68 11 69 12 70 13 71 14 72 15 73 16 74 31 75 17 76
REMARK SMILES IDX 30 77 18 78 19 79 20 80 28 81 21 82 27 83 29 84 22 85 23 86
REMARK SMILES IDX 24 87 25 88 26 89
REMARK H PARENT 3 6 79 24 53 35 7 66
REMARK Flexibility Score: inf
ROOT
ATOM      1  C   UNL     1       5.051   2.092  -1.531  1.00  0.00     0.042 C 
ENDROOT
BRANCH   1   2
ATOM      2  C   UNL     1       4.334   2.159  -0.192  1.00  0.00     0.118 C 
BRANCH   2   3
ATOM      3  N   UNL     1       3.012   1.540  -0.219  1.00  0.00    -0.352 N 
ATOM      4  O   UNL     1       1.360   0.051  -0.212  1.00  0.00    -0.269 OA
ATOM      5  C   UNL     1       2.521   0.300   0.118  1.00  0.00     0.251 C 
ATOM      6  H   UNL     1       2.314   2.148  -0.554  1.00  0.00     0.163 HD
BRANCH   5   7
ATOM      7  C   UNL     1       3.304  -0.753   0.825  1.00  0.00     0.039 A 
ATOM      8  C   UNL     1       4.397  -0.474   1.633  1.00  0.00     0.014 A 
ATOM      9  C   UNL     1       2.868  -2.088   0.745  1.00  0.00     0.014 A 
ATOM     10  C   UNL     1       5.149  -1.503   2.194  1.00  0.00     0.010 A 
ATOM     11  C   UNL     1       3.542  -3.116   1.430  1.00  0.00     0.010 A 
ATOM     12  C   UNL     1       4.713  -2.836   2.140  1.00  0.00    -0.014 A 
BRANCH  12  13
ATOM     13  C   UNL     1       5.480  -3.851   2.917  1.00  0.00     0.031 A 
ATOM     14  C   UNL     1       6.167  -5.011   2.250  1.00  0.00     0.074 A 
ATOM     15  C   UNL     1       5.648  -3.646   4.241  1.00  0.00     0.049 A 
ATOM     16  N   UNL     1       6.995  -5.882   2.773  1.00  0.00    -0.248 NA
ATOM     17  C   UNL     1       5.885  -5.236   0.826  1.00  0.00     0.031 C 
ATOM     18  C   UNL     1       4.998  -2.583   5.014  1.00  0.00     0.029 A 
ATOM     19  N   UNL     1       6.463  -4.264   5.156  1.00  0.00    -0.354 N 
ATOM     20  C   UNL     1       7.317  -6.766   1.751  1.00  0.00     0.074 A 
ATOM     21  C   UNL     1       6.577  -6.341   0.582  1.00  0.00     0.031 C 
ATOM     22  C   UNL     1       5.522  -2.549   6.247  1.00  0.00     0.029 A 
ATOM     23  C   UNL     1       6.491  -3.630   6.377  1.00  0.00     0.049 A 
ATOM     24  H   UNL     1       6.976  -5.080   4.959  1.00  0.00     0.167 HD
ATOM     25  C   UNL     1       8.159  -7.827   1.783  1.00  0.00     0.037 A 
ATOM     26  C   UNL     1       7.222  -3.878   7.480  1.00  0.00     0.037 A 
ATOM     27  C   UNL     1       8.915  -8.235   2.940  1.00  0.00     0.049 A 
ATOM     28  C   UNL     1       8.187  -5.025   7.468  1.00  0.00     0.074 A 
ATOM     29  C   UNL     1       9.792  -9.300   3.069  1.00  0.00     0.029 A 
ATOM     30  N   UNL     1       8.896  -7.585   4.165  1.00  0.00    -0.354 N 
ATOM     31  N   UNL     1       8.476  -5.847   6.490  1.00  0.00    -0.248 NA
ATOM     32  C   UNL     1       8.917  -5.288   8.716  1.00  0.00     0.031 C 
ATOM     33  C   UNL     1      10.284  -9.308   4.379  1.00  0.00     0.029 A 
ATOM     34  C   UNL     1       9.740  -8.229   5.056  1.00  0.00     0.049 A 
ATOM     35  H   UNL     1       8.361  -6.785   4.371  1.00  0.00     0.167 HD
ATOM     36  C   UNL     1       9.407  -6.735   7.006  1.00  0.00     0.074 A 
ATOM     37  C   UNL     1       9.671  -6.321   8.370  1.00  0.00     0.031 C 
ATOM     38  C   UNL     1       9.977  -7.811   6.412  1.00  0.00     0.037 A 
BRANCH  25  39
ATOM     39  C   UNL     1       8.307  -8.635   0.527  1.00  0.00     0.057 A 
ATOM     40  C   UNL     1       9.050  -8.170  -0.565  1.00  0.00     0.134 A 
ATOM     41  C   UNL     1       7.745  -9.915   0.429  1.00  0.00     0.134 A 
ATOM     42  F   UNL     1       9.604  -6.949  -0.539  1.00  0.00    -0.206 F 
ATOM     43  C   UNL     1       9.219  -8.944  -1.715  1.00  0.00     0.040 A 
ATOM     44  C   UNL     1       7.924 -10.706  -0.708  1.00  0.00     0.040 A 
ATOM     45  F   UNL     1       7.027 -10.422   1.441  1.00  0.00    -0.206 F 
ATOM     46  C   UNL     1       8.661 -10.219  -1.786  1.00  0.00     0.006 A 
ENDBRANCH  25  39
BRANCH  26  47
ATOM     47  C   UNL     1       7.063  -3.022   8.683  1.00  0.00     0.057 A 
ATOM     48  C   UNL     1       8.083  -2.161   9.104  1.00  0.00     0.134 A 
ATOM     49  C   UNL     1       5.881  -3.038   9.433  1.00  0.00     0.134 A 
ATOM     50  F   UNL     1       9.246  -2.115   8.438  1.00  0.00    -0.206 F 
ATOM     51  C   UNL     1       7.937  -1.354  10.233  1.00  0.00     0.040 A 
ATOM     52  C   UNL     1       5.711  -2.216  10.547  1.00  0.00     0.040 A 
ATOM     53  F   UNL     1       4.864  -3.836   9.077  1.00  0.00    -0.206 F 
ATOM     54  C   UNL     1       6.744  -1.375  10.954  1.00  0.00     0.006 A 
ENDBRANCH  26  47
BRANCH  38  55
ATOM     55  C   UNL     1      10.925  -8.613   7.249  1.00  0.00     0.057 A 
ATOM     56  C   UNL     1      10.463  -9.460   8.265  1.00  0.00     0.134 A 
ATOM     57  C   UNL     1      12.307  -8.540   7.041  1.00  0.00     0.134 A 
ATOM     58  F   UNL     1       9.150  -9.560   8.522  1.00  0.00    -0.206 F 
ATOM     59  C   UNL     1      11.346 -10.187   9.064  1.00  0.00     0.040 A 
ATOM     60  C   UNL     1      13.199  -9.277   7.821  1.00  0.00     0.040 A 
ATOM     61  F   UNL     1      12.811  -7.749   6.082  1.00  0.00    -0.206 F 
ATOM     62  C   UNL     1      12.719 -10.098   8.840  1.00  0.00     0.006 A 
ENDBRANCH  38  55
ENDBRANCH  12  13
ENDBRANCH   5   7
ENDBRANCH   2   3
ENDBRANCH   1   2
BRANCH   1  63
ATOM     63  C   UNL     1       4.424   2.971  -2.615  1.00  0.00     0.117 C 
BRANCH  63  64
ATOM     64  N   UNL     1       5.384   3.937  -3.104  1.00  0.00    -0.356 N 
ATOM     65  C   UNL     1       6.240   3.996  -4.162  1.00  0.00     0.223 C 
ATOM     66  H   UNL     1       5.430   4.741  -2.538  1.00  0.00     0.163 HD
ATOM     67  O   UNL     1       7.034   4.940  -4.142  1.00  0.00    -0.275 OA
BRANCH  65  68
ATOM     68  C   UNL     1       6.266   3.135  -5.372  1.00  0.00     0.091 C 
ATOM     69  C   UNL     1       4.996   2.900  -6.150  1.00  0.00     0.028 C 
ATOM     70  C   UNL     1       5.846   1.730  -5.712  1.00  0.00     0.092 C 
BRANCH  70  71
ATOM     71  C   UNL     1       5.357   0.733  -4.747  1.00  0.00     0.226 C 
ATOM     72  O   UNL     1       6.048   0.458  -3.773  1.00  0.00    -0.275 OA
ATOM     73  N   UNL     1       4.118   0.184  -5.005  1.00  0.00    -0.339 N 
ATOM     74  C   UNL     1       3.291  -0.334  -3.909  1.00  0.00     0.141 C 
ATOM     75  C   UNL     1       3.662  -0.187  -6.355  1.00  0.00     0.141 C 
ATOM     76  C   UNL     1       1.828   0.100  -4.106  1.00  0.00     0.139 C 
ATOM     77  C   UNL     1       2.150   0.033  -6.583  1.00  0.00     0.139 C 
ATOM     78  N   UNL     1       1.399  -0.389  -5.409  1.00  0.00    -0.352 N 
BRANCH  78  79
ATOM     79  C   UNL     1       0.172  -0.993  -5.501  1.00  0.00     0.147 A 
ATOM     80  N   UNL     1      -0.921  -0.213  -5.332  1.00  0.00    -0.237 NA
ATOM     81  C   UNL     1       0.060  -2.384  -5.641  1.00  0.00     0.084 A 
ATOM     82  C   UNL     1      -2.134  -0.814  -5.290  1.00  0.00     0.126 A 
ATOM     83  C   UNL     1      -1.198  -2.980  -5.583  1.00  0.00     0.039 A 
ATOM     84  Cl  UNL     1       1.443  -3.407  -5.812  1.00  0.00    -0.080 Cl
ATOM     85  C   UNL     1      -2.328  -2.183  -5.395  1.00  0.00     0.075 A 
BRANCH  85  86
ATOM     86  C   UNL     1      -3.706  -2.755  -5.296  1.00  0.00     0.417 C 
ATOM     87  F   UNL     1      -4.340  -2.397  -4.146  1.00  0.00    -0.166 F 
ATOM     88  F   UNL     1      -4.512  -2.348  -6.313  1.00  0.00    -0.166 F 
ATOM     89  F   UNL     1      -3.728  -4.117  -5.325  1.00  0.00    -0.166 F 
ENDBRANCH  85  86
ENDBRANCH  78  79
ENDBRANCH  70  71
ENDBRANCH  65  68
ENDBRANCH  63  64
ENDBRANCH   1  63
TORSDOF 13
