REMARK SMILES O=C(NCCCNC(=O)c1ccc(-c2c3nc(c(-c4c(F)cccc4F)c4ccc([nH]4)c(-c4c(F)cccc4F)c4nc(c(-c5c(F)cccc5F)c5ccc2[nH]5)C=C4)C=C3)cc1)c1ccc(NC(=O)[C@@H]2CC=CC[C@H]2C(=O)Nc2cccc([N+](=O)[O-])c2)cc1
REMARK SMILES IDX 1 1 2 2 3 3 64 5 65 6 90 7 66 8 89 9 67 10 68 11 69 12 70 14
REMARK SMILES IDX 71 15 72 16 76 17 73 18 75 19 74 20 77 21 78 22 79 23 80 25
REMARK SMILES IDX 81 26 88 27 82 28 84 29 83 30 85 31 86 32 87 33 4 34 5 35
REMARK SMILES IDX 6 36 7 37 8 38 9 40 10 41 11 42 63 43 12 44 62 45 13 46
REMARK SMILES IDX 14 47 15 48 56 49 16 50 61 51 55 52 57 53 17 54 60 55 54 56
REMARK SMILES IDX 53 57 18 59 44 60 27 61 43 62 28 63 31 64 42 65 58 66 29 67
REMARK SMILES IDX 30 68 41 70 59 71 32 72 19 73 20 74 25 75 21 76 22 77 24 78
REMARK SMILES IDX 26 79 23 80 45 81 46 82 51 83 47 84 48 85 50 86 52 87 49 88
REMARK SMILES IDX 33 89 34 90 39 91 35 92 36 93 38 94 40 95 37 96
REMARK H PARENT 3 4 68 13 79 24 7 39 57 58 31 69
REMARK Flexibility Score: inf
ROOT
ATOM      1  O   UNL     1      13.656   1.267   4.887  1.00  0.00    -0.269 OA
ATOM      2  C   UNL     1      12.942   0.273   4.817  1.00  0.00     0.251 C 
ATOM      3  N   UNL     1      13.288  -0.907   5.441  1.00  0.00    -0.352 N 
ATOM      4  H   UNL     1      14.086  -0.864   6.016  1.00  0.00     0.163 HD
ENDROOT
BRANCH   2   5
ATOM      5  C   UNL     1      11.707   0.292   4.016  1.00  0.00     0.039 A 
ATOM      6  C   UNL     1      10.514  -0.116   4.603  1.00  0.00     0.016 A 
ATOM      7  C   UNL     1      11.782   0.510   2.644  1.00  0.00     0.016 A 
ATOM      8  C   UNL     1       9.473  -0.547   3.788  1.00  0.00     0.027 A 
ATOM      9  C   UNL     1      10.700   0.139   1.843  1.00  0.00     0.027 A 
ATOM     10  C   UNL     1       9.567  -0.478   2.403  1.00  0.00     0.041 A 
BRANCH  10  11
ATOM     11  N   UNL     1       8.664  -1.054   1.498  1.00  0.00    -0.326 N 
ATOM     12  C   UNL     1       7.535  -1.801   1.573  1.00  0.00     0.228 C 
ATOM     13  H   UNL     1       8.915  -0.867   0.564  1.00  0.00     0.169 HD
ATOM     14  O   UNL     1       7.122  -2.255   0.495  1.00  0.00    -0.274 OA
BRANCH  12  15
ATOM     15  C   UNL     1       6.752  -2.140   2.834  1.00  0.00     0.095 C 
ATOM     16  C   UNL     1       6.262  -0.893   3.586  1.00  0.00     0.041 C 
ATOM     17  C   UNL     1       7.380  -3.300   3.627  1.00  0.00     0.095 C 
ATOM     18  C   UNL     1       6.160  -1.034   5.072  1.00  0.00    -0.030 C 
ATOM     19  C   UNL     1       7.004  -3.390   5.119  1.00  0.00     0.041 C 
ATOM     20  C   UNL     1       6.495  -2.136   5.749  1.00  0.00    -0.030 C 
BRANCH  17  21
ATOM     21  C   UNL     1       7.255  -4.700   2.975  1.00  0.00     0.228 C 
ATOM     22  O   UNL     1       8.273  -5.234   2.515  1.00  0.00    -0.274 OA
ATOM     23  N   UNL     1       6.120  -5.472   3.027  1.00  0.00    -0.326 N 
ATOM     24  H   UNL     1       6.257  -6.421   2.803  1.00  0.00     0.169 HD
BRANCH  23  25
ATOM     25  C   UNL     1       4.802  -5.129   3.347  1.00  0.00     0.048 A 
ATOM     26  C   UNL     1       4.133  -5.840   4.345  1.00  0.00     0.026 A 
ATOM     27  C   UNL     1       4.132  -4.123   2.662  1.00  0.00     0.111 A 
ATOM     28  C   UNL     1       2.866  -5.425   4.772  1.00  0.00     0.009 A 
ATOM     29  C   UNL     1       2.894  -3.669   3.124  1.00  0.00     0.271 A 
ATOM     30  C   UNL     1       2.257  -4.312   4.189  1.00  0.00     0.086 A 
BRANCH  29  31
ATOM     31  N   UNL     1       2.297  -2.474   2.517  1.00  0.00     0.062 N 
ATOM     32  O   UNL     1       1.172  -2.132   2.905  1.00  0.00    -0.258 OA
ATOM     33  O   UNL     1       2.969  -1.860   1.676  1.00  0.00    -0.258 OA
ENDBRANCH  29  31
ENDBRANCH  23  25
ENDBRANCH  17  21
ENDBRANCH  12  15
ENDBRANCH  10  11
ENDBRANCH   2   5
BRANCH   3  34
ATOM     34  C   UNL     1      12.633  -2.213   5.370  1.00  0.00     0.118 C 
BRANCH  34  35
ATOM     35  C   UNL     1      13.466  -3.264   4.656  1.00  0.00     0.042 C 
BRANCH  35  36
ATOM     36  C   UNL     1      14.697  -3.695   5.432  1.00  0.00     0.118 C 
BRANCH  36  37
ATOM     37  N   UNL     1      14.374  -4.367   6.685  1.00  0.00    -0.352 N 
ATOM     38  C   UNL     1      14.783  -5.589   7.162  1.00  0.00     0.251 C 
ATOM     39  H   UNL     1      13.771  -3.868   7.282  1.00  0.00     0.163 HD
ATOM     40  O   UNL     1      14.287  -6.040   8.191  1.00  0.00    -0.269 OA
BRANCH  38  41
ATOM     41  C   UNL     1      15.791  -6.378   6.421  1.00  0.00     0.039 A 
ATOM     42  C   UNL     1      15.603  -7.756   6.283  1.00  0.00     0.014 A 
ATOM     43  C   UNL     1      16.908  -5.764   5.851  1.00  0.00     0.014 A 
ATOM     44  C   UNL     1      16.488  -8.501   5.502  1.00  0.00     0.010 A 
ATOM     45  C   UNL     1      17.735  -6.488   5.000  1.00  0.00     0.010 A 
ATOM     46  C   UNL     1      17.533  -7.863   4.815  1.00  0.00    -0.014 A 
BRANCH  46  47
ATOM     47  C   UNL     1      18.435  -8.604   3.900  1.00  0.00     0.031 A 
ATOM     48  C   UNL     1      19.908  -8.670   4.192  1.00  0.00     0.074 A 
ATOM     49  C   UNL     1      17.947  -9.137   2.763  1.00  0.00     0.049 A 
ATOM     50  N   UNL     1      20.879  -9.138   3.451  1.00  0.00    -0.248 NA
ATOM     51  C   UNL     1      20.352  -8.102   5.476  1.00  0.00     0.031 C 
ATOM     52  C   UNL     1      16.545  -9.105   2.342  1.00  0.00     0.029 A 
ATOM     53  N   UNL     1      18.584  -9.798   1.743  1.00  0.00    -0.354 N 
ATOM     54  C   UNL     1      22.047  -8.897   4.163  1.00  0.00     0.074 A 
ATOM     55  C   UNL     1      21.669  -8.203   5.375  1.00  0.00     0.031 C 
ATOM     56  C   UNL     1      16.425  -9.737   1.163  1.00  0.00     0.029 A 
ATOM     57  C   UNL     1      17.744 -10.181   0.726  1.00  0.00     0.049 A 
ATOM     58  H   UNL     1      19.552  -9.981   1.741  1.00  0.00     0.167 HD
ATOM     59  C   UNL     1      23.317  -9.242   3.847  1.00  0.00     0.037 A 
ATOM     60  C   UNL     1      18.011 -10.809  -0.435  1.00  0.00     0.037 A 
ATOM     61  C   UNL     1      23.688  -9.970   2.664  1.00  0.00     0.049 A 
ATOM     62  C   UNL     1      19.428 -11.186  -0.759  1.00  0.00     0.074 A 
ATOM     63  C   UNL     1      24.940 -10.421   2.285  1.00  0.00     0.029 A 
ATOM     64  N   UNL     1      22.803 -10.363   1.671  1.00  0.00    -0.354 N 
ATOM     65  N   UNL     1      20.517 -10.989  -0.057  1.00  0.00    -0.248 NA
ATOM     66  C   UNL     1      19.654 -11.871  -2.040  1.00  0.00     0.031 C 
ATOM     67  C   UNL     1      24.817 -11.065   1.049  1.00  0.00     0.029 A 
ATOM     68  C   UNL     1      23.483 -11.041   0.675  1.00  0.00     0.049 A 
ATOM     69  H   UNL     1      21.834 -10.185   1.675  1.00  0.00     0.167 HD
ATOM     70  C   UNL     1      21.552 -11.544  -0.797  1.00  0.00     0.074 A 
ATOM     71  C   UNL     1      20.960 -12.095  -1.998  1.00  0.00     0.031 C 
ATOM     72  C   UNL     1      22.874 -11.592  -0.507  1.00  0.00     0.037 A 
BRANCH  59  73
ATOM     73  C   UNL     1      24.397  -8.843   4.807  1.00  0.00     0.057 A 
ATOM     74  C   UNL     1      24.552  -9.482   6.043  1.00  0.00     0.134 A 
ATOM     75  C   UNL     1      25.305  -7.829   4.482  1.00  0.00     0.134 A 
ATOM     76  F   UNL     1      23.704 -10.451   6.419  1.00  0.00    -0.206 F 
ATOM     77  C   UNL     1      25.560  -9.110   6.934  1.00  0.00     0.040 A 
ATOM     78  C   UNL     1      26.332  -7.464   5.355  1.00  0.00     0.040 A 
ATOM     79  F   UNL     1      25.213  -7.179   3.312  1.00  0.00    -0.206 F 
ATOM     80  C   UNL     1      26.457  -8.102   6.588  1.00  0.00     0.006 A 
ENDBRANCH  59  73
BRANCH  60  81
ATOM     81  C   UNL     1      16.909 -11.139  -1.371  1.00  0.00     0.057 A 
ATOM     82  C   UNL     1      16.478 -12.461  -1.530  1.00  0.00     0.134 A 
ATOM     83  C   UNL     1      16.269 -10.153  -2.129  1.00  0.00     0.134 A 
ATOM     84  F   UNL     1      17.069 -13.450  -0.844  1.00  0.00    -0.206 F 
ATOM     85  C   UNL     1      15.459 -12.794  -2.423  1.00  0.00     0.040 A 
ATOM     86  C   UNL     1      15.234 -10.469  -3.011  1.00  0.00     0.040 A 
ATOM     87  F   UNL     1      16.634  -8.868  -2.016  1.00  0.00    -0.206 F 
ATOM     88  C   UNL     1      14.831 -11.795  -3.163  1.00  0.00     0.006 A 
ENDBRANCH  60  81
BRANCH  72  89
ATOM     89  C   UNL     1      23.764 -12.290  -1.489  1.00  0.00     0.057 A 
ATOM     90  C   UNL     1      24.137 -11.691  -2.697  1.00  0.00     0.134 A 
ATOM     91  C   UNL     1      24.285 -13.558  -1.202  1.00  0.00     0.134 A 
ATOM     92  F   UNL     1      23.659 -10.484  -3.034  1.00  0.00    -0.206 F 
ATOM     93  C   UNL     1      24.991 -12.335  -3.594  1.00  0.00     0.040 A 
ATOM     94  C   UNL     1      25.154 -14.203  -2.082  1.00  0.00     0.040 A 
ATOM     95  F   UNL     1      23.968 -14.181  -0.057  1.00  0.00    -0.206 F 
ATOM     96  C   UNL     1      25.507 -13.592  -3.284  1.00  0.00     0.006 A 
ENDBRANCH  72  89
ENDBRANCH  46  47
ENDBRANCH  38  41
ENDBRANCH  36  37
ENDBRANCH  35  36
ENDBRANCH  34  35
ENDBRANCH   3  34
TORSDOF 15
