REMARK SMILES C#CCN(CC(=O)NCCCNC(=O)c1ccc(-c2c3nc(c(-c4c(F)cccc4F)c4ccc([nH]4)c(-c4c(F)cccc4F)c4nc(c(-c5c(F)cccc5F)c5ccc2[nH]5)C=C4)C=C3)cc1)C(=O)NCc1ccnc(C)n1
REMARK SMILES IDX 9 1 8 2 6 3 7 4 5 6 4 7 3 8 2 9 1 10 69 11 70 12 71 13 72 15
REMARK SMILES IDX 73 16 74 17 79 18 75 19 77 20 76 21 78 22 10 23 11 24 12 25
REMARK SMILES IDX 13 26 14 28 15 29 16 30 68 31 17 32 67 33 18 34 19 35 20 36
REMARK SMILES IDX 61 37 21 38 66 39 60 40 62 41 22 42 65 43 59 44 58 45 23 47
REMARK SMILES IDX 49 48 32 49 48 50 33 51 36 52 47 53 63 54 34 55 35 56 46 58
REMARK SMILES IDX 64 59 37 60 24 61 25 62 30 63 26 64 27 65 29 66 31 67 28 68
REMARK SMILES IDX 50 69 51 70 56 71 52 72 53 73 55 74 57 75 54 76 38 77 39 78
REMARK SMILES IDX 44 79 40 80 41 81 43 82 45 83 42 84
REMARK H PARENT 8 5 71 14 12 27 62 46 36 57
REMARK Flexibility Score: inf
ROOT
ATOM      1  C   UNL     1      -5.096   0.244   0.194  1.00  0.00     0.117 C 
ENDROOT
BRANCH   1   2
ATOM      2  N   UNL     1      -5.367  -1.176   0.116  1.00  0.00    -0.354 N 
ATOM      3  C   UNL     1      -4.568  -2.236   0.424  1.00  0.00     0.239 C 
ATOM      4  O   UNL     1      -5.133  -3.312   0.642  1.00  0.00    -0.273 OA
ATOM      5  H   UNL     1      -6.266  -1.412  -0.210  1.00  0.00     0.163 HD
BRANCH   3   6
ATOM      6  C   UNL     1      -3.054  -2.096   0.644  1.00  0.00     0.222 C 
BRANCH   6   7
ATOM      7  N   UNL     1      -2.340  -1.332  -0.376  1.00  0.00    -0.304 N 
BRANCH   7   8
ATOM      8  C   UNL     1      -1.771  -0.059   0.061  1.00  0.00     0.211 C 
BRANCH   8   9
ATOM      9  C   UNL     1      -0.251  -0.059   0.061  1.00  0.00    -0.085 C 
ATOM     10  C   UNL     1       1.053  -0.059   0.061  1.00  0.00     0.006 C 
ENDBRANCH   8   9
ENDBRANCH   7   8
BRANCH   7  11
ATOM     11  C   UNL     1      -2.095  -1.690  -1.669  1.00  0.00     0.318 C 
ATOM     12  O   UNL     1      -1.564  -0.903  -2.462  1.00  0.00    -0.249 OA
ATOM     13  N   UNL     1      -2.414  -2.872  -2.208  1.00  0.00    -0.332 N 
ATOM     14  H   UNL     1      -2.075  -2.933  -3.131  1.00  0.00     0.165 HD
BRANCH  13  15
ATOM     15  C   UNL     1      -3.113  -4.097  -1.842  1.00  0.00     0.174 C 
BRANCH  15  16
ATOM     16  C   UNL     1      -4.476  -4.230  -2.489  1.00  0.00     0.063 A 
ATOM     17  C   UNL     1      -5.220  -3.124  -2.861  1.00  0.00     0.046 A 
ATOM     18  N   UNL     1      -4.950  -5.487  -2.646  1.00  0.00    -0.236 NA
ATOM     19  C   UNL     1      -6.464  -3.370  -3.391  1.00  0.00     0.115 A 
ATOM     20  C   UNL     1      -6.186  -5.623  -3.168  1.00  0.00     0.125 A 
ATOM     21  N   UNL     1      -6.971  -4.602  -3.555  1.00  0.00    -0.242 NA
ATOM     22  C   UNL     1      -6.721  -7.011  -3.321  1.00  0.00     0.089 C 
ENDBRANCH  15  16
ENDBRANCH  13  15
ENDBRANCH   7  11
ENDBRANCH   6   7
ENDBRANCH   3   6
ENDBRANCH   1   2
BRANCH   1  23
ATOM     23  C   UNL     1      -4.927   0.908  -1.167  1.00  0.00     0.042 C 
BRANCH  23  24
ATOM     24  C   UNL     1      -6.195   0.934  -2.014  1.00  0.00     0.118 C 
BRANCH  24  25
ATOM     25  N   UNL     1      -7.287   1.653  -1.372  1.00  0.00    -0.352 N 
ATOM     26  C   UNL     1      -7.909   2.825  -1.723  1.00  0.00     0.251 C 
ATOM     27  H   UNL     1      -7.636   1.230  -0.554  1.00  0.00     0.163 HD
ATOM     28  O   UNL     1      -8.667   3.373  -0.926  1.00  0.00    -0.269 OA
BRANCH  26  29
ATOM     29  C   UNL     1      -7.663   3.436  -3.044  1.00  0.00     0.039 A 
ATOM     30  C   UNL     1      -7.481   4.819  -3.132  1.00  0.00     0.014 A 
ATOM     31  C   UNL     1      -7.633   2.651  -4.198  1.00  0.00     0.014 A 
ATOM     32  C   UNL     1      -7.187   5.403  -4.367  1.00  0.00     0.010 A 
ATOM     33  C   UNL     1      -7.263   3.220  -5.412  1.00  0.00     0.010 A 
ATOM     34  C   UNL     1      -7.032   4.601  -5.508  1.00  0.00    -0.014 A 
BRANCH  34  35
ATOM     35  C   UNL     1      -6.621   5.168  -6.818  1.00  0.00     0.031 A 
ATOM     36  C   UNL     1      -7.538   5.053  -8.004  1.00  0.00     0.074 A 
ATOM     37  C   UNL     1      -5.386   5.686  -6.964  1.00  0.00     0.049 A 
ATOM     38  N   UNL     1      -7.303   5.329  -9.261  1.00  0.00    -0.248 NA
ATOM     39  C   UNL     1      -8.888   4.528  -7.745  1.00  0.00     0.031 C 
ATOM     40  C   UNL     1      -4.393   5.825  -5.897  1.00  0.00     0.029 A 
ATOM     41  N   UNL     1      -4.746   6.169  -8.078  1.00  0.00    -0.354 N 
ATOM     42  C   UNL     1      -8.465   4.990  -9.944  1.00  0.00     0.074 A 
ATOM     43  C   UNL     1      -9.385   4.446  -8.970  1.00  0.00     0.031 C 
ATOM     44  C   UNL     1      -3.273   6.362  -6.407  1.00  0.00     0.029 A 
ATOM     45  C   UNL     1      -3.448   6.556  -7.842  1.00  0.00     0.049 A 
ATOM     46  H   UNL     1      -5.175   6.231  -8.962  1.00  0.00     0.167 HD
ATOM     47  C   UNL     1      -8.743   5.136 -11.261  1.00  0.00     0.037 A 
ATOM     48  C   UNL     1      -2.498   6.993  -8.691  1.00  0.00     0.037 A 
ATOM     49  C   UNL     1      -7.830   5.698 -12.221  1.00  0.00     0.049 A 
ATOM     50  C   UNL     1      -2.822   7.117 -10.155  1.00  0.00     0.074 A 
ATOM     51  C   UNL     1      -8.038   5.941 -13.567  1.00  0.00     0.029 A 
ATOM     52  N   UNL     1      -6.533   6.100 -11.937  1.00  0.00    -0.354 N 
ATOM     53  N   UNL     1      -3.943   6.848 -10.779  1.00  0.00    -0.248 NA
ATOM     54  C   UNL     1      -1.749   7.604 -11.034  1.00  0.00     0.031 C 
ATOM     55  C   UNL     1      -6.850   6.440 -14.110  1.00  0.00     0.029 A 
ATOM     56  C   UNL     1      -5.921   6.564 -13.089  1.00  0.00     0.049 A 
ATOM     57  H   UNL     1      -6.111   6.061 -11.049  1.00  0.00     0.167 HD
ATOM     58  C   UNL     1      -3.723   7.166 -12.113  1.00  0.00     0.074 A 
ATOM     59  C   UNL     1      -2.363   7.654 -12.208  1.00  0.00     0.031 C 
ATOM     60  C   UNL     1      -4.572   7.066 -13.164  1.00  0.00     0.037 A 
BRANCH  47  61
ATOM     61  C   UNL     1     -10.089   4.676 -11.743  1.00  0.00     0.057 A 
ATOM     62  C   UNL     1     -11.270   5.345 -11.394  1.00  0.00     0.134 A 
ATOM     63  C   UNL     1     -10.202   3.575 -12.601  1.00  0.00     0.134 A 
ATOM     64  F   UNL     1     -11.234   6.402 -10.568  1.00  0.00    -0.206 F 
ATOM     65  C   UNL     1     -12.515   4.919 -11.858  1.00  0.00     0.040 A 
ATOM     66  C   UNL     1     -11.439   3.157 -13.096  1.00  0.00     0.040 A 
ATOM     67  F   UNL     1      -9.111   2.892 -12.982  1.00  0.00    -0.206 F 
ATOM     68  C   UNL     1     -12.601   3.826 -12.718  1.00  0.00     0.006 A 
ENDBRANCH  47  61
BRANCH  48  69
ATOM     69  C   UNL     1      -1.149   7.348  -8.181  1.00  0.00     0.057 A 
ATOM     70  C   UNL     1      -0.705   8.676  -8.179  1.00  0.00     0.134 A 
ATOM     71  C   UNL     1      -0.267   6.374  -7.698  1.00  0.00     0.134 A 
ATOM     72  F   UNL     1      -1.497   9.652  -8.646  1.00  0.00    -0.206 F 
ATOM     73  C   UNL     1       0.574   9.020  -7.737  1.00  0.00     0.040 A 
ATOM     74  C   UNL     1       1.004   6.707  -7.226  1.00  0.00     0.040 A 
ATOM     75  F   UNL     1      -0.633   5.084  -7.666  1.00  0.00    -0.206 F 
ATOM     76  C   UNL     1       1.431   8.033  -7.254  1.00  0.00     0.006 A 
ENDBRANCH  48  69
BRANCH  60  77
ATOM     77  C   UNL     1      -4.082   7.539 -14.502  1.00  0.00     0.057 A 
ATOM     78  C   UNL     1      -3.140   6.819 -15.245  1.00  0.00     0.134 A 
ATOM     79  C   UNL     1      -4.615   8.698 -15.081  1.00  0.00     0.134 A 
ATOM     80  F   UNL     1      -2.581   5.707 -14.742  1.00  0.00    -0.206 F 
ATOM     81  C   UNL     1      -2.736   7.241 -16.513  1.00  0.00     0.040 A 
ATOM     82  C   UNL     1      -4.241   9.115 -16.358  1.00  0.00     0.040 A 
ATOM     83  F   UNL     1      -5.529   9.430 -14.425  1.00  0.00    -0.206 F 
ATOM     84  C   UNL     1      -3.295   8.387 -17.077  1.00  0.00     0.006 A 
ENDBRANCH  60  77
ENDBRANCH  34  35
ENDBRANCH  26  29
ENDBRANCH  24  25
ENDBRANCH  23  24
ENDBRANCH   1  23
TORSDOF 16
