REMARK SMILES C[C@@H](C(=O)NCCCNC(=O)c1ccc(-c2c3nc(c(-c4c(F)cccc4F)c4ccc([nH]4)c(-c4c(F)cccc4F)c4nc(c(-c5c(F)cccc5F)c5ccc2[nH]5)C=C4)C=C3)cc1)c1ccc(C[C@H]2CCCC2=O)cc1
REMARK SMILES IDX 6 1 5 2 3 3 4 4 2 6 1 7 66 8 67 9 78 10 68 11 77 12 69 13
REMARK SMILES IDX 70 14 71 15 72 16 75 17 73 18 74 19 76 20 7 21 8 22 9 23
REMARK SMILES IDX 10 24 11 26 12 27 13 28 65 29 14 30 64 31 15 32 16 33 17 34
REMARK SMILES IDX 58 35 18 36 63 37 57 38 59 39 19 40 62 41 56 42 55 43 20 45
REMARK SMILES IDX 46 46 29 47 45 48 30 49 33 50 44 51 60 52 31 53 32 54 43 56
REMARK SMILES IDX 61 57 34 58 21 59 22 60 27 61 23 62 24 63 26 64 28 65 25 66
REMARK SMILES IDX 47 67 48 68 53 69 49 70 50 71 52 72 54 73 51 74 35 75 36 76
REMARK SMILES IDX 41 77 37 78 38 79 40 80 42 81 39 82
REMARK H PARENT 5 5 9 25 59 44 33 55
REMARK Flexibility Score: inf
ROOT
ATOM      1  C   UNL     1       3.396  -0.905   1.885  1.00  0.00     0.117 C 
ENDROOT
BRANCH   1   2
ATOM      2  N   UNL     1       2.324  -0.398   2.717  1.00  0.00    -0.356 N 
ATOM      3  C   UNL     1       1.007  -0.191   2.427  1.00  0.00     0.227 C 
ATOM      4  O   UNL     1       0.341   0.381   3.292  1.00  0.00    -0.274 OA
ATOM      5  H   UNL     1       2.588  -0.165   3.636  1.00  0.00     0.163 HD
BRANCH   3   6
ATOM      6  C   UNL     1       0.423  -0.695   1.096  1.00  0.00     0.105 C 
ATOM      7  C   UNL     1       0.910   0.123  -0.105  1.00  0.00     0.023 C 
BRANCH   6   8
ATOM      8  C   UNL     1      -1.101  -0.722   1.133  1.00  0.00    -0.036 A 
ATOM      9  C   UNL     1      -1.844   0.461   1.026  1.00  0.00     0.005 A 
ATOM     10  C   UNL     1      -1.786  -1.932   1.310  1.00  0.00     0.005 A 
ATOM     11  C   UNL     1      -3.234   0.437   1.081  1.00  0.00     0.004 A 
ATOM     12  C   UNL     1      -3.181  -1.951   1.396  1.00  0.00     0.004 A 
ATOM     13  C   UNL     1      -3.917  -0.763   1.300  1.00  0.00    -0.047 A 
BRANCH  13  14
ATOM     14  C   UNL     1      -5.418  -0.765   1.457  1.00  0.00     0.047 C 
BRANCH  14  15
ATOM     15  C   UNL     1      -5.962  -0.207   2.779  1.00  0.00     0.060 C 
ATOM     16  C   UNL     1      -5.443  -0.868   4.060  1.00  0.00     0.012 C 
ATOM     17  C   UNL     1      -5.598   1.243   3.003  1.00  0.00     0.136 C 
ATOM     18  C   UNL     1      -4.320   0.022   4.582  1.00  0.00     0.009 C 
ATOM     19  C   UNL     1      -4.704   1.444   4.198  1.00  0.00     0.076 C 
ATOM     20  O   UNL     1      -5.999   2.160   2.295  1.00  0.00    -0.299 OA
ENDBRANCH  14  15
ENDBRANCH  13  14
ENDBRANCH   6   8
ENDBRANCH   3   6
ENDBRANCH   1   2
BRANCH   1  21
ATOM     21  C   UNL     1       4.259   0.232   1.347  1.00  0.00     0.042 C 
BRANCH  21  22
ATOM     22  C   UNL     1       5.003   1.002   2.432  1.00  0.00     0.118 C 
BRANCH  22  23
ATOM     23  N   UNL     1       5.997   0.185   3.114  1.00  0.00    -0.352 N 
ATOM     24  C   UNL     1       7.352   0.369   3.223  1.00  0.00     0.251 C 
ATOM     25  H   UNL     1       5.645  -0.618   3.562  1.00  0.00     0.163 HD
ATOM     26  O   UNL     1       8.060  -0.531   3.669  1.00  0.00    -0.269 OA
BRANCH  24  27
ATOM     27  C   UNL     1       7.962   1.642   2.792  1.00  0.00     0.039 A 
ATOM     28  C   UNL     1       9.146   1.614   2.051  1.00  0.00     0.014 A 
ATOM     29  C   UNL     1       7.371   2.863   3.129  1.00  0.00     0.014 A 
ATOM     30  C   UNL     1       9.706   2.810   1.595  1.00  0.00     0.010 A 
ATOM     31  C   UNL     1       7.882   4.044   2.604  1.00  0.00     0.010 A 
ATOM     32  C   UNL     1       9.060   4.031   1.841  1.00  0.00    -0.014 A 
BRANCH  32  33
ATOM     33  C   UNL     1       9.602   5.320   1.344  1.00  0.00     0.031 A 
ATOM     34  C   UNL     1      10.012   6.382   2.326  1.00  0.00     0.074 A 
ATOM     35  C   UNL     1       9.635   5.573   0.022  1.00  0.00     0.049 A 
ATOM     36  N   UNL     1      10.363   7.623   2.108  1.00  0.00    -0.248 NA
ATOM     37  C   UNL     1       9.988   6.003   3.748  1.00  0.00     0.031 C 
ATOM     38  C   UNL     1       9.235   4.638  -1.030  1.00  0.00     0.029 A 
ATOM     39  N   UNL     1      10.001   6.706  -0.660  1.00  0.00    -0.354 N 
ATOM     40  C   UNL     1      10.576   8.178   3.364  1.00  0.00     0.074 A 
ATOM     41  C   UNL     1      10.260   7.157   4.338  1.00  0.00     0.031 C 
ATOM     42  C   UNL     1       9.384   5.233  -2.225  1.00  0.00     0.029 A 
ATOM     43  C   UNL     1       9.844   6.604  -2.021  1.00  0.00     0.049 A 
ATOM     44  H   UNL     1      10.343   7.516  -0.217  1.00  0.00     0.167 HD
ATOM     45  C   UNL     1      11.013   9.421   3.676  1.00  0.00     0.037 A 
ATOM     46  C   UNL     1      10.028   7.518  -2.992  1.00  0.00     0.037 A 
ATOM     47  C   UNL     1      11.342  10.427   2.701  1.00  0.00     0.049 A 
ATOM     48  C   UNL     1      10.496   8.899  -2.624  1.00  0.00     0.074 A 
ATOM     49  C   UNL     1      11.842  11.700   2.910  1.00  0.00     0.029 A 
ATOM     50  N   UNL     1      11.197  10.274   1.330  1.00  0.00    -0.354 N 
ATOM     51  N   UNL     1      10.745   9.398  -1.437  1.00  0.00    -0.248 NA
ATOM     52  C   UNL     1      10.714   9.842  -3.729  1.00  0.00     0.031 C 
ATOM     53  C   UNL     1      11.950  12.336   1.669  1.00  0.00     0.029 A 
ATOM     54  C   UNL     1      11.577  11.437   0.682  1.00  0.00     0.049 A 
ATOM     55  H   UNL     1      10.872   9.459   0.884  1.00  0.00     0.167 HD
ATOM     56  C   UNL     1      11.183  10.698  -1.654  1.00  0.00     0.074 A 
ATOM     57  C   UNL     1      11.167  10.910  -3.087  1.00  0.00     0.031 C 
ATOM     58  C   UNL     1      11.570  11.629  -0.748  1.00  0.00     0.037 A 
BRANCH  45  59
ATOM     59  C   UNL     1      11.145   9.758   5.135  1.00  0.00     0.057 A 
ATOM     60  C   UNL     1      12.104   9.146   5.955  1.00  0.00     0.134 A 
ATOM     61  C   UNL     1      10.303  10.707   5.728  1.00  0.00     0.134 A 
ATOM     62  F   UNL     1      12.935   8.219   5.456  1.00  0.00    -0.206 F 
ATOM     63  C   UNL     1      12.191   9.434   7.319  1.00  0.00     0.040 A 
ATOM     64  C   UNL     1      10.404  11.028   7.083  1.00  0.00     0.040 A 
ATOM     65  F   UNL     1       9.368  11.338   5.002  1.00  0.00    -0.206 F 
ATOM     66  C   UNL     1      11.342  10.382   7.885  1.00  0.00     0.006 A 
ENDBRANCH  45  59
BRANCH  46  67
ATOM     67  C   UNL     1       9.786   7.145  -4.409  1.00  0.00     0.057 A 
ATOM     68  C   UNL     1      10.848   7.003  -5.309  1.00  0.00     0.134 A 
ATOM     69  C   UNL     1       8.494   6.906  -4.893  1.00  0.00     0.134 A 
ATOM     70  F   UNL     1      12.107   7.235  -4.909  1.00  0.00    -0.206 F 
ATOM     71  C   UNL     1      10.634   6.650  -6.643  1.00  0.00     0.040 A 
ATOM     72  C   UNL     1       8.267   6.528  -6.218  1.00  0.00     0.040 A 
ATOM     73  F   UNL     1       7.434   7.016  -4.079  1.00  0.00    -0.206 F 
ATOM     74  C   UNL     1       9.340   6.404  -7.098  1.00  0.00     0.006 A 
ENDBRANCH  46  67
BRANCH  58  75
ATOM     75  C   UNL     1      12.065  12.946  -1.273  1.00  0.00     0.057 A 
ATOM     76  C   UNL     1      11.204  13.898  -1.831  1.00  0.00     0.134 A 
ATOM     77  C   UNL     1      13.420  13.288  -1.156  1.00  0.00     0.134 A 
ATOM     78  F   UNL     1       9.899  13.629  -1.983  1.00  0.00    -0.206 F 
ATOM     79  C   UNL     1      11.675  15.137  -2.269  1.00  0.00     0.040 A 
ATOM     80  C   UNL     1      13.897  14.533  -1.564  1.00  0.00     0.040 A 
ATOM     81  F   UNL     1      14.297  12.424  -0.622  1.00  0.00    -0.206 F 
ATOM     82  C   UNL     1      13.024  15.461  -2.127  1.00  0.00     0.006 A 
ENDBRANCH  58  75
ENDBRANCH  32  33
ENDBRANCH  24  27
ENDBRANCH  22  23
ENDBRANCH  21  22
ENDBRANCH   1  21
TORSDOF 13
