REMARK SMILES COc1ccc([C@H](C(=O)NCCCNC(=O)c2ccc(-c3c4nc(c(-c5c(F)cccc5F)c5ccc([nH]5)c(-c5c(F)cccc5F)c5nc(c(-c6c(F)cccc6F)c6ccc3[nH]6)C=C5)C=C4)cc2)[NH+]2CCOCC2)c(OC)n1
REMARK SMILES IDX 12 1 11 2 10 3 8 4 9 5 7 7 6 8 3 9 4 10 80 11 5 12 77 13
REMARK SMILES IDX 2 14 1 15 78 16 79 17 71 18 72 19 76 20 73 22 75 23 74 24
REMARK SMILES IDX 13 25 14 26 15 27 16 29 17 30 18 31 70 32 19 33 69 34 20 35
REMARK SMILES IDX 21 36 22 37 63 38 23 39 68 40 62 41 64 42 24 43 67 44 61 45
REMARK SMILES IDX 60 46 25 48 51 49 34 50 50 51 35 52 38 53 49 54 65 55 36 56
REMARK SMILES IDX 37 57 48 59 66 60 39 61 26 62 27 63 32 64 28 65 29 66 31 67
REMARK SMILES IDX 33 68 30 69 52 70 53 71 58 72 54 73 55 74 57 75 59 76 56 77
REMARK SMILES IDX 40 78 41 79 46 80 42 81 43 82 45 83 47 84 44 85
REMARK H PARENT 10 6 71 21 14 28 64 47 38 58
REMARK Flexibility Score: inf
ROOT
ATOM      1  C   UNL     1      -1.102   0.841  -6.471  1.00  0.00     0.042 C 
ENDROOT
BRANCH   1   2
ATOM      2  C   UNL     1      -1.022   2.044  -5.545  1.00  0.00     0.118 C 
BRANCH   2   3
ATOM      3  N   UNL     1      -0.087   1.853  -4.446  1.00  0.00    -0.351 N 
ATOM      4  C   UNL     1       1.124   2.406  -4.151  1.00  0.00     0.283 C 
ATOM      5  O   UNL     1       1.682   1.965  -3.137  1.00  0.00    -0.268 OA
ATOM      6  H   UNL     1      -0.390   1.191  -3.783  1.00  0.00     0.163 HD
BRANCH   4   7
ATOM      7  C   UNL     1       1.772   3.553  -4.975  1.00  0.00     0.311 C 
BRANCH   7   8
ATOM      8  C   UNL     1       1.804   3.262  -6.471  1.00  0.00     0.081 A 
ATOM      9  C   UNL     1       1.508   2.333  -9.027  1.00  0.00     0.216 A 
ATOM     10  C   UNL     1       1.097   3.625  -8.743  1.00  0.00     0.069 A 
ATOM     11  N   UNL     1       2.147   1.526  -8.155  1.00  0.00    -0.177 NA
ATOM     12  C   UNL     1       1.277   4.107  -7.451  1.00  0.00     0.022 A 
ATOM     13  C   UNL     1       2.304   2.025  -6.909  1.00  0.00     0.226 A 
BRANCH   9  14
ATOM     14  O   UNL     1       1.037   1.761 -10.186  1.00  0.00    -0.481 OA
ATOM     15  C   UNL     1       2.065   1.717 -11.165  1.00  0.00     0.280 C 
ENDBRANCH   9  14
BRANCH  13  16
ATOM     16  O   UNL     1       3.084   1.319  -6.017  1.00  0.00    -0.481 OA
ATOM     17  C   UNL     1       2.694  -0.041  -5.892  1.00  0.00     0.280 C 
ENDBRANCH  13  16
ENDBRANCH   7   8
BRANCH   7  18
ATOM     18  N   UNL     1       1.313   4.907  -4.542  1.00  0.00    -0.317 N 
ATOM     19  C   UNL     1       1.841   5.290  -3.209  1.00  0.00     0.292 C 
ATOM     20  C   UNL     1      -0.122   5.231  -4.600  1.00  0.00     0.292 C 
ATOM     21  H   UNL     1       1.722   5.468  -5.289  1.00  0.00     0.349 HD
ATOM     22  C   UNL     1       0.953   4.921  -2.004  1.00  0.00     0.221 C 
ATOM     23  C   UNL     1      -0.962   4.889  -3.355  1.00  0.00     0.221 C 
ATOM     24  O   UNL     1      -0.375   5.429  -2.170  1.00  0.00    -0.370 OA
ENDBRANCH   7  18
ENDBRANCH   4   7
ENDBRANCH   2   3
ENDBRANCH   1   2
BRANCH   1  25
ATOM     25  C   UNL     1      -1.449  -0.455  -5.759  1.00  0.00     0.118 C 
BRANCH  25  26
ATOM     26  N   UNL     1      -2.833  -0.479  -5.314  1.00  0.00    -0.352 N 
ATOM     27  C   UNL     1      -3.843  -1.315  -5.715  1.00  0.00     0.251 C 
ATOM     28  H   UNL     1      -3.076   0.192  -4.636  1.00  0.00     0.163 HD
ATOM     29  O   UNL     1      -5.010  -1.058  -5.421  1.00  0.00    -0.269 OA
BRANCH  27  30
ATOM     30  C   UNL     1      -3.526  -2.518  -6.511  1.00  0.00     0.039 A 
ATOM     31  C   UNL     1      -4.322  -2.834  -7.614  1.00  0.00     0.014 A 
ATOM     32  C   UNL     1      -2.448  -3.338  -6.161  1.00  0.00     0.014 A 
ATOM     33  C   UNL     1      -4.013  -3.954  -8.388  1.00  0.00     0.010 A 
ATOM     34  C   UNL     1      -2.089  -4.398  -6.984  1.00  0.00     0.010 A 
ATOM     35  C   UNL     1      -2.883  -4.734  -8.091  1.00  0.00    -0.014 A 
BRANCH  35  36
ATOM     36  C   UNL     1      -2.549  -5.941  -8.885  1.00  0.00     0.031 A 
ATOM     37  C   UNL     1      -2.578  -7.295  -8.228  1.00  0.00     0.074 A 
ATOM     38  C   UNL     1      -2.175  -5.822 -10.173  1.00  0.00     0.049 A 
ATOM     39  N   UNL     1      -2.257  -8.464  -8.723  1.00  0.00    -0.248 NA
ATOM     40  C   UNL     1      -2.993  -7.338  -6.816  1.00  0.00     0.031 C 
ATOM     41  C   UNL     1      -2.061  -4.563 -10.910  1.00  0.00     0.029 A 
ATOM     42  N   UNL     1      -1.812  -6.778 -11.088  1.00  0.00    -0.354 N 
ATOM     43  C   UNL     1      -2.409  -9.369  -7.680  1.00  0.00     0.074 A 
ATOM     44  C   UNL     1      -2.795  -8.611  -6.512  1.00  0.00     0.031 C 
ATOM     45  C   UNL     1      -1.682  -4.826 -12.172  1.00  0.00     0.029 A 
ATOM     46  C   UNL     1      -1.493  -6.266 -12.322  1.00  0.00     0.049 A 
ATOM     47  H   UNL     1      -1.784  -7.739 -10.880  1.00  0.00     0.167 HD
ATOM     48  C   UNL     1      -2.268 -10.715  -7.700  1.00  0.00     0.037 A 
ATOM     49  C   UNL     1      -1.092  -6.889 -13.445  1.00  0.00     0.037 A 
ATOM     50  C   UNL     1      -1.924 -11.473  -8.873  1.00  0.00     0.049 A 
ATOM     51  C   UNL     1      -0.955  -8.387 -13.446  1.00  0.00     0.074 A 
ATOM     52  C   UNL     1      -1.819 -12.845  -9.012  1.00  0.00     0.029 A 
ATOM     53  N   UNL     1      -1.636 -10.919 -10.111  1.00  0.00    -0.354 N 
ATOM     54  N   UNL     1      -1.163  -9.237 -12.470  1.00  0.00    -0.248 NA
ATOM     55  C   UNL     1      -0.535  -9.013 -14.708  1.00  0.00     0.031 C 
ATOM     56  C   UNL     1      -1.431 -13.121 -10.328  1.00  0.00     0.029 A 
ATOM     57  C   UNL     1      -1.337 -11.922 -11.017  1.00  0.00     0.049 A 
ATOM     58  H   UNL     1      -1.642  -9.956 -10.315  1.00  0.00     0.167 HD
ATOM     59  C   UNL     1      -0.928 -10.497 -13.005  1.00  0.00     0.074 A 
ATOM     60  C   UNL     1      -0.573 -10.301 -14.396  1.00  0.00     0.031 C 
ATOM     61  C   UNL     1      -0.999 -11.708 -12.400  1.00  0.00     0.037 A 
BRANCH  48  62
ATOM     62  C   UNL     1      -2.495 -11.452  -6.412  1.00  0.00     0.057 A 
ATOM     63  C   UNL     1      -3.772 -11.581  -5.851  1.00  0.00     0.134 A 
ATOM     64  C   UNL     1      -1.429 -12.061  -5.738  1.00  0.00     0.134 A 
ATOM     65  F   UNL     1      -4.834 -11.009  -6.438  1.00  0.00    -0.206 F 
ATOM     66  C   UNL     1      -3.977 -12.264  -4.651  1.00  0.00     0.040 A 
ATOM     67  C   UNL     1      -1.625 -12.770  -4.552  1.00  0.00     0.040 A 
ATOM     68  F   UNL     1      -0.181 -11.980  -6.223  1.00  0.00    -0.206 F 
ATOM     69  C   UNL     1      -2.902 -12.867  -4.002  1.00  0.00     0.006 A 
ENDBRANCH  48  62
BRANCH  49  70
ATOM     70  C   UNL     1      -0.818  -6.104 -14.674  1.00  0.00     0.057 A 
ATOM     71  C   UNL     1      -1.674  -6.173 -15.779  1.00  0.00     0.134 A 
ATOM     72  C   UNL     1       0.305  -5.274 -14.778  1.00  0.00     0.134 A 
ATOM     73  F   UNL     1      -2.756  -6.965 -15.745  1.00  0.00    -0.206 F 
ATOM     74  C   UNL     1      -1.415  -5.462 -16.951  1.00  0.00     0.040 A 
ATOM     75  C   UNL     1       0.564  -4.539 -15.936  1.00  0.00     0.040 A 
ATOM     76  F   UNL     1       1.160  -5.160 -13.752  1.00  0.00    -0.206 F 
ATOM     77  C   UNL     1      -0.294  -4.638 -17.030  1.00  0.00     0.006 A 
ENDBRANCH  49  70
BRANCH  61  78
ATOM     78  C   UNL     1      -0.726 -12.915 -13.247  1.00  0.00     0.057 A 
ATOM     79  C   UNL     1       0.568 -13.246 -13.667  1.00  0.00     0.134 A 
ATOM     80  C   UNL     1      -1.766 -13.780 -13.609  1.00  0.00     0.134 A 
ATOM     81  F   UNL     1       1.606 -12.451 -13.363  1.00  0.00    -0.206 F 
ATOM     82  C   UNL     1       0.815 -14.384 -14.435  1.00  0.00     0.040 A 
ATOM     83  C   UNL     1      -1.529 -14.934 -14.355  1.00  0.00     0.040 A 
ATOM     84  F   UNL     1      -3.028 -13.524 -13.230  1.00  0.00    -0.206 F 
ATOM     85  C   UNL     1      -0.235 -15.236 -14.775  1.00  0.00     0.006 A 
ENDBRANCH  61  78
ENDBRANCH  35  36
ENDBRANCH  27  30
ENDBRANCH  25  26
ENDBRANCH   1  25
TORSDOF 14
