REMARK SMILES O=C(NCCCNC(=O)[C@@H]1CN(c2nc(-c3ccccc3)no2)CC[NH2+]1)c1ccc(-c2c3nc(c(-c4c(F)cccc4F)c4ccc([nH]4)c(-c4c(F)cccc4F)c4nc(c(-c5c(F)cccc5F)c5ccc2[nH]5)C=C4)C=C3)cc1
REMARK SMILES IDX 5 1 4 2 3 3 1 4 2 5 27 7 28 8 80 9 29 10 79 11 30 12 31 13
REMARK SMILES IDX 32 14 73 15 33 16 78 17 72 18 74 19 34 20 77 21 71 22 70 23
REMARK SMILES IDX 35 25 61 26 44 27 60 28 45 29 48 30 59 31 75 32 46 33 47 34
REMARK SMILES IDX 58 36 76 37 49 38 36 39 37 40 42 41 38 42 39 43 41 44 43 45
REMARK SMILES IDX 40 46 62 47 63 48 68 49 64 50 65 51 67 52 69 53 66 54 50 55
REMARK SMILES IDX 51 56 56 57 52 58 53 59 55 60 57 61 54 62 6 63 7 64 8 65
REMARK SMILES IDX 9 67 10 68 11 69 26 70 12 71 25 72 24 75 13 76 14 77 23 78
REMARK SMILES IDX 15 79 22 80 16 81 17 82 21 83 18 84 20 85 19 86
REMARK H PARENT 3 6 74 24 48 35 7 66 26 73 26 74
REMARK Flexibility Score: inf
ROOT
ATOM      1  C   UNL     1       4.740   1.935  -1.175  1.00  0.00     0.042 C 
ENDROOT
BRANCH   1   2
ATOM      2  C   UNL     1       4.409   1.300   0.165  1.00  0.00     0.118 C 
BRANCH   2   3
ATOM      3  N   UNL     1       2.977   1.050   0.315  1.00  0.00    -0.352 N 
ATOM      4  O   UNL     1       1.031  -0.057   0.067  1.00  0.00    -0.269 OA
ATOM      5  C   UNL     1       2.257  -0.107   0.161  1.00  0.00     0.251 C 
ATOM      6  H   UNL     1       2.445   1.839   0.568  1.00  0.00     0.163 HD
BRANCH   5   7
ATOM      7  C   UNL     1       2.949  -1.408   0.101  1.00  0.00     0.039 A 
ATOM      8  C   UNL     1       4.047  -1.653   0.925  1.00  0.00     0.014 A 
ATOM      9  C   UNL     1       2.482  -2.409  -0.756  1.00  0.00     0.014 A 
ATOM     10  C   UNL     1       4.788  -2.811   0.763  1.00  0.00     0.010 A 
ATOM     11  C   UNL     1       3.153  -3.633  -0.821  1.00  0.00     0.010 A 
ATOM     12  C   UNL     1       4.329  -3.832  -0.082  1.00  0.00    -0.014 A 
BRANCH  12  13
ATOM     13  C   UNL     1       5.054  -5.125  -0.086  1.00  0.00     0.031 A 
ATOM     14  C   UNL     1       5.708  -5.650  -1.331  1.00  0.00     0.074 A 
ATOM     15  C   UNL     1       5.147  -5.805   1.074  1.00  0.00     0.049 A 
ATOM     16  N   UNL     1       6.390  -6.755  -1.495  1.00  0.00    -0.248 NA
ATOM     17  C   UNL     1       5.576  -4.840  -2.551  1.00  0.00     0.031 C 
ATOM     18  C   UNL     1       4.543  -5.388   2.345  1.00  0.00     0.029 A 
ATOM     19  N   UNL     1       5.799  -6.968   1.387  1.00  0.00    -0.354 N 
ATOM     20  C   UNL     1       6.750  -6.785  -2.835  1.00  0.00     0.074 A 
ATOM     21  C   UNL     1       6.191  -5.599  -3.448  1.00  0.00     0.031 C 
ATOM     22  C   UNL     1       4.900  -6.248   3.307  1.00  0.00     0.029 A 
ATOM     23  C   UNL     1       5.685  -7.320   2.710  1.00  0.00     0.049 A 
ATOM     24  H   UNL     1       6.301  -7.500   0.728  1.00  0.00     0.167 HD
ATOM     25  C   UNL     1       7.487  -7.717  -3.488  1.00  0.00     0.037 A 
ATOM     26  C   UNL     1       6.137  -8.401   3.369  1.00  0.00     0.037 A 
ATOM     27  C   UNL     1       8.047  -8.887  -2.861  1.00  0.00     0.049 A 
ATOM     28  C   UNL     1       6.917  -9.432   2.610  1.00  0.00     0.074 A 
ATOM     29  C   UNL     1       8.831  -9.877  -3.429  1.00  0.00     0.029 A 
ATOM     30  N   UNL     1       7.878  -9.230  -1.527  1.00  0.00    -0.354 N 
ATOM     31  N   UNL     1       7.273  -9.433   1.348  1.00  0.00    -0.248 NA
ATOM     32  C   UNL     1       7.353 -10.614   3.363  1.00  0.00     0.031 C 
ATOM     33  C   UNL     1       9.092 -10.844  -2.452  1.00  0.00     0.029 A 
ATOM     34  C   UNL     1       8.521 -10.428  -1.260  1.00  0.00     0.049 A 
ATOM     35  H   UNL     1       7.375  -8.700  -0.867  1.00  0.00     0.167 HD
ATOM     36  C   UNL     1       7.992 -10.604   1.159  1.00  0.00     0.074 A 
ATOM     37  C   UNL     1       8.038 -11.276   2.442  1.00  0.00     0.031 C 
ATOM     38  C   UNL     1       8.559 -11.081   0.025  1.00  0.00     0.037 A 
BRANCH  25  39
ATOM     39  C   UNL     1       7.711  -7.524  -4.961  1.00  0.00     0.057 A 
ATOM     40  C   UNL     1       8.553  -6.523  -5.461  1.00  0.00     0.134 A 
ATOM     41  C   UNL     1       7.114  -8.386  -5.890  1.00  0.00     0.134 A 
ATOM     42  F   UNL     1       9.148  -5.656  -4.628  1.00  0.00    -0.206 F 
ATOM     43  C   UNL     1       8.778  -6.374  -6.832  1.00  0.00     0.040 A 
ATOM     44  C   UNL     1       7.351  -8.264  -7.261  1.00  0.00     0.040 A 
ATOM     45  F   UNL     1       6.301  -9.372  -5.481  1.00  0.00    -0.206 F 
ATOM     46  C   UNL     1       8.182  -7.252  -7.735  1.00  0.00     0.006 A 
ENDBRANCH  25  39
BRANCH  26  47
ATOM     47  C   UNL     1       5.842  -8.564   4.814  1.00  0.00     0.057 A 
ATOM     48  C   UNL     1       6.858  -8.504   5.774  1.00  0.00     0.134 A 
ATOM     49  C   UNL     1       4.534  -8.774   5.270  1.00  0.00     0.134 A 
ATOM     50  F   UNL     1       8.132  -8.318   5.399  1.00  0.00    -0.206 F 
ATOM     51  C   UNL     1       6.587  -8.665   7.134  1.00  0.00     0.040 A 
ATOM     52  C   UNL     1       4.245  -8.905   6.628  1.00  0.00     0.040 A 
ATOM     53  F   UNL     1       3.514  -8.829   4.402  1.00  0.00    -0.206 F 
ATOM     54  C   UNL     1       5.276  -8.859   7.564  1.00  0.00     0.006 A 
ENDBRANCH  26  47
BRANCH  38  55
ATOM     55  C   UNL     1       9.312 -12.374   0.135  1.00  0.00     0.057 A 
ATOM     56  C   UNL     1       8.657 -13.599   0.318  1.00  0.00     0.134 A 
ATOM     57  C   UNL     1      10.708 -12.394   0.033  1.00  0.00     0.134 A 
ATOM     58  F   UNL     1       7.322 -13.645   0.440  1.00  0.00    -0.206 F 
ATOM     59  C   UNL     1       9.368 -14.795   0.422  1.00  0.00     0.040 A 
ATOM     60  C   UNL     1      11.428 -13.587   0.106  1.00  0.00     0.040 A 
ATOM     61  F   UNL     1      11.395 -11.256  -0.149  1.00  0.00    -0.206 F 
ATOM     62  C   UNL     1      10.758 -14.791   0.308  1.00  0.00     0.006 A 
ENDBRANCH  38  55
ENDBRANCH  12  13
ENDBRANCH   5   7
ENDBRANCH   2   3
ENDBRANCH   1   2
BRANCH   1  63
ATOM     63  C   UNL     1       4.143   3.323  -1.316  1.00  0.00     0.118 C 
BRANCH  63  64
ATOM     64  N   UNL     1       4.793   4.280  -0.432  1.00  0.00    -0.351 N 
ATOM     65  C   UNL     1       5.619   5.341  -0.632  1.00  0.00     0.280 C 
ATOM     66  H   UNL     1       4.589   4.126   0.519  1.00  0.00     0.163 HD
ATOM     67  O   UNL     1       6.053   5.871   0.400  1.00  0.00    -0.268 OA
BRANCH  65  68
ATOM     68  C   UNL     1       6.025   5.896  -2.016  1.00  0.00     0.292 C 
ATOM     69  C   UNL     1       5.958   7.448  -1.907  1.00  0.00     0.197 C 
ATOM     70  N   UNL     1       5.184   5.361  -3.120  1.00  0.00    -0.333 N 
ATOM     71  N   UNL     1       5.976   8.113  -3.213  1.00  0.00    -0.312 N 
ATOM     72  C   UNL     1       5.516   6.030  -4.383  1.00  0.00     0.283 C 
ATOM     73  H   UNL     1       4.201   5.523  -2.901  1.00  0.00     0.347 HD
ATOM     74  H   UNL     1       5.361   4.362  -3.217  1.00  0.00     0.347 HD
ATOM     75  C   UNL     1       5.194   7.530  -4.295  1.00  0.00     0.183 C 
BRANCH  71  76
ATOM     76  C   UNL     1       6.907   9.038  -3.504  1.00  0.00     0.324 A 
ATOM     77  N   UNL     1       8.134   9.160  -3.065  1.00  0.00    -0.171 NA
ATOM     78  O   UNL     1       6.569   9.995  -4.423  1.00  0.00    -0.315 OA
ATOM     79  C   UNL     1       8.595  10.232  -3.788  1.00  0.00     0.204 A 
ATOM     80  N   UNL     1       7.688  10.801  -4.594  1.00  0.00    -0.055 NA
BRANCH  79  81
ATOM     81  C   UNL     1       9.977  10.653  -3.769  1.00  0.00     0.023 A 
ATOM     82  C   UNL     1      10.329  11.899  -3.242  1.00  0.00     0.012 A 
ATOM     83  C   UNL     1      10.957   9.838  -4.350  1.00  0.00     0.012 A 
ATOM     84  C   UNL     1      11.654  12.332  -3.305  1.00  0.00     0.001 A 
ATOM     85  C   UNL     1      12.278  10.280  -4.423  1.00  0.00     0.001 A 
ATOM     86  C   UNL     1      12.624  11.527  -3.902  1.00  0.00     0.000 A 
ENDBRANCH  79  81
ENDBRANCH  71  76
ENDBRANCH  65  68
ENDBRANCH  63  64
ENDBRANCH   1  63
TORSDOF 12
