REMARK SMILES CCC(CC)(NC(=O)N1CC[C@@H]2CC[C@H](C1)[N@H+]2C)C(=O)NCCCNC(=O)c1ccc(-c2c3nc(c(-c4c(F)cccc4F)c4ccc([nH]4)c(-c4c(F)cccc4F)c4nc(c(-c5c(F)cccc5F)c5ccc2[nH]5)C=C4)C=C3)cc1
REMARK SMILES IDX 22 1 21 2 19 3 20 4 3 6 2 7 1 8 4 9 5 10 6 11 7 12 8 14 9 15
REMARK SMILES IDX 10 16 11 17 16 19 15 20 14 21 17 22 13 23 12 24 18 25 23 28
REMARK SMILES IDX 24 29 25 30 26 31 27 33 28 34 29 35 81 36 30 37 80 38 31 39
REMARK SMILES IDX 32 40 33 41 74 42 34 43 79 44 73 45 75 46 35 47 78 48 72 49
REMARK SMILES IDX 71 50 36 52 62 53 45 54 61 55 46 56 49 57 60 58 76 59 47 60
REMARK SMILES IDX 48 61 59 63 77 64 50 65 37 66 38 67 43 68 39 69 40 70 42 71
REMARK SMILES IDX 44 72 41 73 63 74 64 75 69 76 65 77 66 78 68 79 70 80 67 81
REMARK SMILES IDX 51 82 52 83 57 84 53 85 54 86 56 87 58 88 55 89
REMARK H PARENT 21 5 6 13 17 26 25 32 75 51 49 62
REMARK Flexibility Score: 90.00
ROOT
ATOM      1  C   UNL     1       1.947  -4.952   2.688  1.00  0.00     0.117 C 
ENDROOT
BRANCH   1   2
ATOM      2  N   UNL     1       2.474  -3.610   2.471  1.00  0.00    -0.354 N 
ATOM      3  C   UNL     1       2.044  -2.525   1.741  1.00  0.00     0.245 C 
ATOM      4  O   UNL     1       2.602  -1.456   2.008  1.00  0.00    -0.272 OA
ATOM      5  H   UNL     1       3.320  -3.445   2.948  1.00  0.00     0.163 HD
BRANCH   3   6
ATOM      6  C   UNL     1       0.832  -2.600   0.763  1.00  0.00     0.120 C 
BRANCH   6   7
ATOM      7  C   UNL     1       0.649  -1.422  -0.233  1.00  0.00     0.035 C 
ATOM      8  C   UNL     1       0.781   0.005   0.273  1.00  0.00     0.007 C 
ENDBRANCH   6   7
BRANCH   6   9
ATOM      9  C   UNL     1      -0.404  -2.609   1.740  1.00  0.00     0.035 C 
ATOM     10  C   UNL     1      -1.801  -2.638   1.133  1.00  0.00     0.007 C 
ENDBRANCH   6   9
BRANCH   6  11
ATOM     11  N   UNL     1       0.907  -3.842  -0.057  1.00  0.00    -0.323 N 
ATOM     12  C   UNL     1       1.619  -4.236  -1.142  1.00  0.00     0.318 C 
ATOM     13  H   UNL     1       0.295  -4.543   0.265  1.00  0.00     0.166 HD
ATOM     14  O   UNL     1       1.005  -5.028  -1.869  1.00  0.00    -0.249 OA
BRANCH  12  15
ATOM     15  N   UNL     1       2.906  -3.853  -1.439  1.00  0.00    -0.319 N 
BRANCH  15  16
ATOM     16  C   UNL     1       3.936  -3.380  -0.525  1.00  0.00     0.128 C 
BRANCH  16  17
ATOM     17  C   UNL     1       4.394  -1.938  -0.702  1.00  0.00     0.086 CG0
ATOM     18  G   UNL     1       4.762  -1.532  -2.132  1.00  0.00     0.000 G0
ENDBRANCH  16  17
ENDBRANCH  15  16
BRANCH  15  19
ATOM     19  C   UNL     1       3.485  -4.353  -2.710  1.00  0.00     0.186 C 
BRANCH  19  20
ATOM     20  C   UNL     1       4.302  -3.334  -3.563  1.00  0.00     0.204 C 
ATOM     21  C   UNL     1       3.411  -2.198  -4.047  1.00  0.00     0.073 C 
ATOM     22  N   UNL     1       5.407  -2.660  -2.831  1.00  0.00    -0.331 N 
ATOM     23  C   UNL     1       3.553  -1.129  -2.981  1.00  0.00     0.071 C 
ATOM     24  C   UNL     1       4.762  -1.532  -2.132  1.00  0.00     0.186 CG0
ATOM     25  C   UNL     1       6.442  -2.161  -3.743  1.00  0.00     0.333 C 
ATOM     26  H   UNL     1       5.878  -3.305  -2.196  1.00  0.00     0.348 HD
ATOM     27  G   UNL     1       4.394  -1.938  -0.702  1.00  0.00     0.000 G0
ENDBRANCH  19  20
ENDBRANCH  15  19
ENDBRANCH  12  15
ENDBRANCH   6  11
ENDBRANCH   3   6
ENDBRANCH   1   2
BRANCH   1  28
ATOM     28  C   UNL     1       2.413  -6.087   1.776  1.00  0.00     0.042 C 
BRANCH  28  29
ATOM     29  C   UNL     1       3.906  -6.332   1.619  1.00  0.00     0.118 C 
BRANCH  29  30
ATOM     30  N   UNL     1       4.625  -6.489   2.867  1.00  0.00    -0.352 N 
ATOM     31  C   UNL     1       5.453  -7.503   3.289  1.00  0.00     0.251 C 
ATOM     32  H   UNL     1       4.501  -5.757   3.513  1.00  0.00     0.163 HD
ATOM     33  O   UNL     1       5.950  -7.458   4.401  1.00  0.00    -0.269 OA
BRANCH  31  34
ATOM     34  C   UNL     1       5.702  -8.677   2.420  1.00  0.00     0.039 A 
ATOM     35  C   UNL     1       5.500  -9.947   2.967  1.00  0.00     0.014 A 
ATOM     36  C   UNL     1       6.139  -8.545   1.099  1.00  0.00     0.014 A 
ATOM     37  C   UNL     1       5.663 -11.082   2.171  1.00  0.00     0.010 A 
ATOM     38  C   UNL     1       6.258  -9.679   0.290  1.00  0.00     0.010 A 
ATOM     39  C   UNL     1       6.008 -10.957   0.816  1.00  0.00    -0.014 A 
BRANCH  39  40
ATOM     40  C   UNL     1       6.066 -12.155  -0.061  1.00  0.00     0.031 A 
ATOM     41  C   UNL     1       7.375 -12.648  -0.607  1.00  0.00     0.074 A 
ATOM     42  C   UNL     1       4.923 -12.785  -0.395  1.00  0.00     0.049 A 
ATOM     43  N   UNL     1       7.608 -13.663  -1.401  1.00  0.00    -0.248 NA
ATOM     44  C   UNL     1       8.578 -11.896  -0.221  1.00  0.00     0.031 C 
ATOM     45  C   UNL     1       3.582 -12.388   0.040  1.00  0.00     0.029 A 
ATOM     46  N   UNL     1       4.704 -13.886  -1.185  1.00  0.00    -0.354 N 
ATOM     47  C   UNL     1       8.980 -13.671  -1.613  1.00  0.00     0.074 A 
ATOM     48  C   UNL     1       9.523 -12.536  -0.897  1.00  0.00     0.031 C 
ATOM     49  C   UNL     1       2.683 -13.242  -0.476  1.00  0.00     0.029 A 
ATOM     50  C   UNL     1       3.377 -14.224  -1.303  1.00  0.00     0.049 A 
ATOM     51  H   UNL     1       5.428 -14.387  -1.625  1.00  0.00     0.167 HD
ATOM     52  C   UNL     1       9.722 -14.554  -2.325  1.00  0.00     0.037 A 
ATOM     53  C   UNL     1       2.785 -15.208  -2.005  1.00  0.00     0.037 A 
ATOM     54  C   UNL     1       9.186 -15.691  -3.030  1.00  0.00     0.049 A 
ATOM     55  C   UNL     1       3.628 -16.155  -2.812  1.00  0.00     0.074 A 
ATOM     56  C   UNL     1       9.870 -16.672  -3.728  1.00  0.00     0.029 A 
ATOM     57  N   UNL     1       7.838 -15.993  -3.135  1.00  0.00    -0.354 N 
ATOM     58  N   UNL     1       4.931 -16.192  -2.946  1.00  0.00    -0.248 NA
ATOM     59  C   UNL     1       2.917 -17.199  -3.564  1.00  0.00     0.031 C 
ATOM     60  C   UNL     1       8.931 -17.544  -4.292  1.00  0.00     0.029 A 
ATOM     61  C   UNL     1       7.666 -17.129  -3.910  1.00  0.00     0.049 A 
ATOM     62  H   UNL     1       7.109 -15.477  -2.720  1.00  0.00     0.167 HD
ATOM     63  C   UNL     1       5.197 -17.270  -3.780  1.00  0.00     0.074 A 
ATOM     64  C   UNL     1       3.922 -17.872  -4.107  1.00  0.00     0.031 C 
ATOM     65  C   UNL     1       6.392 -17.719  -4.234  1.00  0.00     0.037 A 
BRANCH  52  66
ATOM     66  C   UNL     1      11.204 -14.325  -2.379  1.00  0.00     0.057 A 
ATOM     67  C   UNL     1      12.025 -14.560  -1.270  1.00  0.00     0.134 A 
ATOM     68  C   UNL     1      11.821 -13.908  -3.565  1.00  0.00     0.134 A 
ATOM     69  F   UNL     1      11.495 -14.953  -0.102  1.00  0.00    -0.206 F 
ATOM     70  C   UNL     1      13.406 -14.366  -1.330  1.00  0.00     0.040 A 
ATOM     71  C   UNL     1      13.204 -13.733  -3.645  1.00  0.00     0.040 A 
ATOM     72  F   UNL     1      11.092 -13.673  -4.667  1.00  0.00    -0.206 F 
ATOM     73  C   UNL     1      14.000 -13.957  -2.523  1.00  0.00     0.006 A 
ENDBRANCH  52  66
BRANCH  53  74
ATOM     74  C   UNL     1       1.308 -15.355  -1.973  1.00  0.00     0.057 A 
ATOM     75  C   UNL     1       0.704 -16.429  -1.309  1.00  0.00     0.134 A 
ATOM     76  C   UNL     1       0.469 -14.436  -2.614  1.00  0.00     0.134 A 
ATOM     77  F   UNL     1       1.458 -17.353  -0.696  1.00  0.00    -0.206 F 
ATOM     78  C   UNL     1      -0.682 -16.592  -1.296  1.00  0.00     0.040 A 
ATOM     79  C   UNL     1      -0.919 -14.575  -2.590  1.00  0.00     0.040 A 
ATOM     80  F   UNL     1       0.989 -13.385  -3.265  1.00  0.00    -0.206 F 
ATOM     81  C   UNL     1      -1.498 -15.660  -1.934  1.00  0.00     0.006 A 
ENDBRANCH  53  74
BRANCH  65  82
ATOM     82  C   UNL     1       6.379 -18.930  -5.119  1.00  0.00     0.057 A 
ATOM     83  C   UNL     1       5.940 -18.865  -6.448  1.00  0.00     0.134 A 
ATOM     84  C   UNL     1       6.839 -20.166  -4.649  1.00  0.00     0.134 A 
ATOM     85  F   UNL     1       5.473 -17.713  -6.954  1.00  0.00    -0.206 F 
ATOM     86  C   UNL     1       5.942 -19.992  -7.272  1.00  0.00     0.040 A 
ATOM     87  C   UNL     1       6.867 -21.294  -5.470  1.00  0.00     0.040 A 
ATOM     88  F   UNL     1       7.278 -20.295  -3.388  1.00  0.00    -0.206 F 
ATOM     89  C   UNL     1       6.413 -21.210  -6.785  1.00  0.00     0.006 A 
ENDBRANCH  65  82
ENDBRANCH  39  40
ENDBRANCH  31  34
ENDBRANCH  29  30
ENDBRANCH  28  29
ENDBRANCH   1  28
TORSDOF 14
