REMARK SMILES C[C@]12C(=O)N(c3ccc(C(=O)NCCCNC(=O)c4ccc(-c5c6nc(c(-c7c(F)cccc7F)c7ccc([nH]7)c(-c7c(F)cccc7F)c7nc(c(-c8c(F)cccc8F)c8ccc5[nH]8)C=C7)C=C6)cc4)cc3)C(=O)[C@H]1[C@H]1c3ccccc3[C@@H]2c2ccccc21
REMARK SMILES IDX 14 1 13 2 12 3 10 4 11 5 9 7 6 8 7 9 74 10 8 11 73 12 5 13
REMARK SMILES IDX 1 14 2 15 3 16 77 17 85 18 4 19 75 20 78 21 84 22 86 23
REMARK SMILES IDX 76 24 79 25 91 26 83 27 87 28 80 29 90 30 82 31 88 32 81 33
REMARK SMILES IDX 89 34 15 35 16 36 17 37 18 39 19 40 20 41 72 42 21 43 71 44
REMARK SMILES IDX 22 45 23 46 24 47 65 48 25 49 70 50 64 51 66 52 26 53 69 54
REMARK SMILES IDX 63 55 62 56 27 58 53 59 36 60 52 61 37 62 40 63 51 64 67 65
REMARK SMILES IDX 38 66 39 67 50 69 68 70 41 71 28 72 29 73 34 74 30 75 31 76
REMARK SMILES IDX 33 77 35 78 32 79 54 80 55 81 60 82 56 83 57 84 59 85 61 86
REMARK SMILES IDX 58 87 42 88 43 89 48 90 44 91 45 92 47 93 49 94 46 95
REMARK H PARENT 12 6 16 38 66 57 40 68
REMARK Flexibility Score: inf
ROOT
ATOM      1  C   UNL     1      -1.833  10.376  -1.162  1.00  0.00     0.042 C 
ENDROOT
BRANCH   1   2
ATOM      2  C   UNL     1      -1.958   9.492  -2.394  1.00  0.00     0.118 C 
BRANCH   2   3
ATOM      3  N   UNL     1      -0.699   9.354  -3.109  1.00  0.00    -0.352 N 
ATOM      4  C   UNL     1       0.283   8.399  -3.077  1.00  0.00     0.251 C 
ATOM      5  O   UNL     1       1.343   8.641  -3.655  1.00  0.00    -0.269 OA
ATOM      6  H   UNL     1      -0.518  10.089  -3.739  1.00  0.00     0.163 HD
BRANCH   4   7
ATOM      7  C   UNL     1       0.126   7.100  -2.378  1.00  0.00     0.039 A 
ATOM      8  C   UNL     1       0.004   4.482  -1.259  1.00  0.00     0.052 A 
ATOM      9  C   UNL     1       1.210   5.201  -1.317  1.00  0.00     0.027 A 
ATOM     10  C   UNL     1      -1.143   5.129  -1.741  1.00  0.00     0.027 A 
ATOM     11  C   UNL     1       1.272   6.490  -1.864  1.00  0.00     0.016 A 
ATOM     12  C   UNL     1      -1.073   6.395  -2.337  1.00  0.00     0.016 A 
BRANCH   8  13
ATOM     13  N   UNL     1      -0.024   3.085  -0.959  1.00  0.00    -0.250 N 
ATOM     14  C   UNL     1       1.357  -0.081  -0.206  1.00  0.00     0.024 C 
ATOM     15  C   UNL     1       0.807   0.916  -1.235  1.00  0.00     0.071 C 
ATOM     16  C   UNL     1       1.106   2.321  -0.772  1.00  0.00     0.241 C 
ATOM     17  C   UNL     1      -0.744   0.866  -1.306  1.00  0.00     0.107 C 
ATOM     18  C   UNL     1       1.411   0.735  -2.675  1.00  0.00     0.066 C 
ATOM     19  O   UNL     1       2.200   2.651  -0.343  1.00  0.00    -0.273 OA
ATOM     20  C   UNL     1      -1.152   2.287  -0.988  1.00  0.00     0.238 C 
ATOM     21  C   UNL     1      -1.214   0.469  -2.745  1.00  0.00     0.063 C 
ATOM     22  C   UNL     1       0.714   1.728  -3.624  1.00  0.00    -0.036 A 
ATOM     23  C   UNL     1       0.956  -0.653  -3.117  1.00  0.00    -0.036 A 
ATOM     24  O   UNL     1      -2.324   2.602  -0.813  1.00  0.00    -0.274 OA
ATOM     25  C   UNL     1      -0.697   1.564  -3.680  1.00  0.00    -0.036 A 
ATOM     26  C   UNL     1      -0.458  -0.808  -3.125  1.00  0.00    -0.036 A 
ATOM     27  C   UNL     1       1.325   2.755  -4.329  1.00  0.00     0.005 A 
ATOM     28  C   UNL     1       1.797  -1.688  -3.497  1.00  0.00     0.005 A 
ATOM     29  C   UNL     1      -1.488   2.409  -4.447  1.00  0.00     0.004 A 
ATOM     30  C   UNL     1      -1.023  -2.009  -3.522  1.00  0.00     0.004 A 
ATOM     31  C   UNL     1       0.524   3.613  -5.090  1.00  0.00     0.000 A 
ATOM     32  C   UNL     1       1.221  -2.894  -3.891  1.00  0.00     0.000 A 
ATOM     33  C   UNL     1      -0.867   3.438  -5.154  1.00  0.00     0.000 A 
ATOM     34  C   UNL     1      -0.174  -3.053  -3.903  1.00  0.00     0.000 A 
ENDBRANCH   8  13
ENDBRANCH   4   7
ENDBRANCH   2   3
ENDBRANCH   1   2
BRANCH   1  35
ATOM     35  C   UNL     1      -1.569  11.838  -1.499  1.00  0.00     0.118 C 
BRANCH  35  36
ATOM     36  N   UNL     1      -2.696  12.471  -2.180  1.00  0.00    -0.352 N 
ATOM     37  C   UNL     1      -3.752  13.212  -1.705  1.00  0.00     0.251 C 
ATOM     38  H   UNL     1      -2.699  12.344  -3.156  1.00  0.00     0.163 HD
ATOM     39  O   UNL     1      -4.701  13.447  -2.448  1.00  0.00    -0.269 OA
BRANCH  37  40
ATOM     40  C   UNL     1      -3.779  13.702  -0.308  1.00  0.00     0.039 A 
ATOM     41  C   UNL     1      -2.628  14.183   0.311  1.00  0.00     0.014 A 
ATOM     42  C   UNL     1      -4.993  13.717   0.389  1.00  0.00     0.014 A 
ATOM     43  C   UNL     1      -2.640  14.473   1.670  1.00  0.00     0.010 A 
ATOM     44  C   UNL     1      -5.027  14.118   1.730  1.00  0.00     0.010 A 
ATOM     45  C   UNL     1      -3.838  14.440   2.401  1.00  0.00    -0.014 A 
BRANCH  45  46
ATOM     46  C   UNL     1      -3.805  14.728   3.861  1.00  0.00     0.031 A 
ATOM     47  C   UNL     1      -4.206  13.675   4.862  1.00  0.00     0.074 A 
ATOM     48  C   UNL     1      -3.345  15.920   4.290  1.00  0.00     0.049 A 
ATOM     49  N   UNL     1      -4.200  13.737   6.171  1.00  0.00    -0.248 NA
ATOM     50  C   UNL     1      -4.683  12.389   4.331  1.00  0.00     0.031 C 
ATOM     51  C   UNL     1      -2.933  17.029   3.426  1.00  0.00     0.029 A 
ATOM     52  N   UNL     1      -3.118  16.390   5.560  1.00  0.00    -0.354 N 
ATOM     53  C   UNL     1      -4.699  12.518   6.614  1.00  0.00     0.074 A 
ATOM     54  C   UNL     1      -5.019  11.741   5.438  1.00  0.00     0.031 C 
ATOM     55  C   UNL     1      -2.451  18.025   4.186  1.00  0.00     0.029 A 
ATOM     56  C   UNL     1      -2.575  17.652   5.590  1.00  0.00     0.049 A 
ATOM     57  H   UNL     1      -3.324  15.872   6.371  1.00  0.00     0.167 HD
ATOM     58  C   UNL     1      -4.865  12.080   7.886  1.00  0.00     0.037 A 
ATOM     59  C   UNL     1      -2.226  18.429   6.632  1.00  0.00     0.037 A 
ATOM     60  C   UNL     1      -4.502  12.829   9.059  1.00  0.00     0.049 A 
ATOM     61  C   UNL     1      -2.422  17.914   8.029  1.00  0.00     0.074 A 
ATOM     62  C   UNL     1      -4.583  12.445  10.387  1.00  0.00     0.029 A 
ATOM     63  N   UNL     1      -3.983  14.114   9.046  1.00  0.00    -0.354 N 
ATOM     64  N   UNL     1      -2.866  16.747   8.425  1.00  0.00    -0.248 NA
ATOM     65  C   UNL     1      -2.074  18.831   9.124  1.00  0.00     0.031 C 
ATOM     66  C   UNL     1      -4.146  13.512  11.180  1.00  0.00     0.029 A 
ATOM     67  C   UNL     1      -3.760  14.546  10.343  1.00  0.00     0.049 A 
ATOM     68  H   UNL     1      -3.801  14.642   8.235  1.00  0.00     0.167 HD
ATOM     69  C   UNL     1      -2.841  16.785   9.812  1.00  0.00     0.074 A 
ATOM     70  C   UNL     1      -2.311  18.079  10.188  1.00  0.00     0.031 C 
ATOM     71  C   UNL     1      -3.230  15.836  10.698  1.00  0.00     0.037 A 
BRANCH  58  72
ATOM     72  C   UNL     1      -5.477  10.724   8.082  1.00  0.00     0.057 A 
ATOM     73  C   UNL     1      -6.784  10.600   8.570  1.00  0.00     0.134 A 
ATOM     74  C   UNL     1      -4.761   9.545   7.844  1.00  0.00     0.134 A 
ATOM     75  F   UNL     1      -7.523  11.691   8.823  1.00  0.00    -0.206 F 
ATOM     76  C   UNL     1      -7.354   9.351   8.822  1.00  0.00     0.040 A 
ATOM     77  C   UNL     1      -5.327   8.289   8.073  1.00  0.00     0.040 A 
ATOM     78  F   UNL     1      -3.509   9.595   7.364  1.00  0.00    -0.206 F 
ATOM     79  C   UNL     1      -6.626   8.191   8.571  1.00  0.00     0.006 A 
ENDBRANCH  58  72
BRANCH  59  80
ATOM     80  C   UNL     1      -1.676  19.788   6.401  1.00  0.00     0.057 A 
ATOM     81  C   UNL     1      -2.478  20.819   5.898  1.00  0.00     0.134 A 
ATOM     82  C   UNL     1      -0.347  20.096   6.712  1.00  0.00     0.134 A 
ATOM     83  F   UNL     1      -3.760  20.586   5.577  1.00  0.00    -0.206 F 
ATOM     84  C   UNL     1      -1.979  22.108   5.710  1.00  0.00     0.040 A 
ATOM     85  C   UNL     1       0.159  21.388   6.554  1.00  0.00     0.040 A 
ATOM     86  F   UNL     1       0.464  19.156   7.217  1.00  0.00    -0.206 F 
ATOM     87  C   UNL     1      -0.659  22.397   6.048  1.00  0.00     0.006 A 
ENDBRANCH  59  80
BRANCH  71  88
ATOM     88  C   UNL     1      -3.074  16.164  12.152  1.00  0.00     0.057 A 
ATOM     89  C   UNL     1      -2.065  15.565  12.915  1.00  0.00     0.134 A 
ATOM     90  C   UNL     1      -3.925  17.071  12.796  1.00  0.00     0.134 A 
ATOM     91  F   UNL     1      -1.221  14.683  12.359  1.00  0.00    -0.206 F 
ATOM     92  C   UNL     1      -1.906  15.859  14.270  1.00  0.00     0.040 A 
ATOM     93  C   UNL     1      -3.761  17.391  14.143  1.00  0.00     0.040 A 
ATOM     94  F   UNL     1      -4.900  17.690  12.113  1.00  0.00    -0.206 F 
ATOM     95  C   UNL     1      -2.751  16.781  14.885  1.00  0.00     0.006 A 
ENDBRANCH  71  88
ENDBRANCH  45  46
ENDBRANCH  37  40
ENDBRANCH  35  36
ENDBRANCH   1  35
TORSDOF 11
