REMARK SMILES CCC1(C(=O)NCCCNC(=O)c2ccc(-c3c4nc(c(-c5c(F)cccc5F)c5ccc([nH]5)c(-c5c(F)cccc5F)c5nc(c(-c6c(F)cccc6F)c6ccc3[nH]6)C=C5)C=C4)cc2)CCN(c2ncnc3c2CCCC3)CC1
REMARK SMILES IDX 8 1 7 2 6 3 4 4 5 5 3 7 67 8 81 9 68 10 80 11 69 12 2 13
REMARK SMILES IDX 1 14 70 15 71 16 75 17 72 18 74 19 76 20 73 21 79 22 77 23
REMARK SMILES IDX 78 24 9 25 10 26 11 27 12 29 13 30 14 31 66 32 15 33 65 34
REMARK SMILES IDX 16 35 17 36 18 37 59 38 19 39 64 40 58 41 60 42 20 43 63 44
REMARK SMILES IDX 57 45 56 46 21 48 47 49 30 50 46 51 31 52 34 53 45 54 61 55
REMARK SMILES IDX 32 56 33 57 44 59 62 60 35 61 22 62 23 63 28 64 24 65 25 66
REMARK SMILES IDX 27 67 29 68 26 69 48 70 49 71 54 72 50 73 51 74 53 75 55 76
REMARK SMILES IDX 52 77 36 78 37 79 42 80 38 81 39 82 41 83 43 84 40 85
REMARK H PARENT 6 6 10 28 60 47 34 58
REMARK Flexibility Score: inf
ROOT
ATOM      1  C   UNL     1       1.115   1.756   6.123  1.00  0.00     0.042 C 
ENDROOT
BRANCH   1   2
ATOM      2  C   UNL     1       1.818   0.646   5.342  1.00  0.00     0.117 C 
BRANCH   2   3
ATOM      3  N   UNL     1       0.900  -0.376   4.862  1.00  0.00    -0.356 N 
ATOM      4  C   UNL     1       0.529  -0.782   3.616  1.00  0.00     0.226 C 
ATOM      5  O   UNL     1      -0.262  -1.733   3.598  1.00  0.00    -0.274 OA
ATOM      6  H   UNL     1       0.458  -0.875   5.585  1.00  0.00     0.163 HD
BRANCH   4   7
ATOM      7  C   UNL     1       1.026  -0.113   2.297  1.00  0.00     0.052 C 
ATOM      8  C   UNL     1       0.489   1.345   2.272  1.00  0.00     0.038 C 
ATOM      9  C   UNL     1       2.574  -0.256   2.210  1.00  0.00     0.038 C 
ATOM     10  C   UNL     1       1.367   2.352   1.538  1.00  0.00     0.119 C 
ATOM     11  C   UNL     1       3.328   0.909   1.564  1.00  0.00     0.119 C 
ATOM     12  N   UNL     1       2.738   2.172   1.991  1.00  0.00    -0.356 N 
BRANCH   7  13
ATOM     13  C   UNL     1       0.371  -0.928   1.125  1.00  0.00     0.013 C 
ATOM     14  C   UNL     1       0.665  -0.472  -0.297  1.00  0.00     0.005 C 
ENDBRANCH   7  13
BRANCH  12  15
ATOM     15  C   UNL     1       3.562   3.297   1.895  1.00  0.00     0.135 A 
ATOM     16  N   UNL     1       4.496   3.320   0.928  1.00  0.00    -0.219 NA
ATOM     17  C   UNL     1       3.458   4.333   2.829  1.00  0.00     0.016 A 
ATOM     18  C   UNL     1       5.308   4.384   0.891  1.00  0.00     0.224 A 
ATOM     19  C   UNL     1       4.373   5.375   2.715  1.00  0.00     0.049 A 
ATOM     20  C   UNL     1       2.412   4.348   3.906  1.00  0.00     0.041 C 
ATOM     21  N   UNL     1       5.304   5.417   1.742  1.00  0.00    -0.241 NA
ATOM     22  C   UNL     1       4.464   6.465   3.756  1.00  0.00     0.057 C 
ATOM     23  C   UNL     1       2.797   5.189   5.119  1.00  0.00     0.005 C 
ATOM     24  C   UNL     1       3.239   6.571   4.661  1.00  0.00     0.007 C 
ENDBRANCH  12  15
ENDBRANCH   4   7
ENDBRANCH   2   3
ENDBRANCH   1   2
BRANCH   1  25
ATOM     25  C   UNL     1       0.487   1.325   7.442  1.00  0.00     0.118 C 
BRANCH  25  26
ATOM     26  N   UNL     1       1.482   1.067   8.472  1.00  0.00    -0.352 N 
ATOM     27  C   UNL     1       1.848   1.778   9.588  1.00  0.00     0.251 C 
ATOM     28  H   UNL     1       1.984   0.229   8.345  1.00  0.00     0.163 HD
ATOM     29  O   UNL     1       2.870   1.447  10.185  1.00  0.00    -0.269 OA
BRANCH  27  30
ATOM     30  C   UNL     1       1.066   2.938  10.089  1.00  0.00     0.039 A 
ATOM     31  C   UNL     1       1.761   3.992  10.697  1.00  0.00     0.014 A 
ATOM     32  C   UNL     1      -0.330   2.975  10.058  1.00  0.00     0.014 A 
ATOM     33  C   UNL     1       1.069   5.092  11.217  1.00  0.00     0.010 A 
ATOM     34  C   UNL     1      -1.016   4.108  10.505  1.00  0.00     0.010 A 
ATOM     35  C   UNL     1      -0.327   5.175  11.099  1.00  0.00    -0.014 A 
BRANCH  35  36
ATOM     36  C   UNL     1      -1.071   6.366  11.589  1.00  0.00     0.031 A 
ATOM     37  C   UNL     1      -2.073   6.246  12.706  1.00  0.00     0.074 A 
ATOM     38  C   UNL     1      -0.895   7.556  10.982  1.00  0.00     0.049 A 
ATOM     39  N   UNL     1      -2.853   7.164  13.220  1.00  0.00    -0.248 NA
ATOM     40  C   UNL     1      -2.243   4.913  13.302  1.00  0.00     0.031 C 
ATOM     41  C   UNL     1      -0.005   7.804   9.847  1.00  0.00     0.029 A 
ATOM     42  N   UNL     1      -1.470   8.779  11.228  1.00  0.00    -0.354 N 
ATOM     43  C   UNL     1      -3.625   6.516  14.176  1.00  0.00     0.074 A 
ATOM     44  C   UNL     1      -3.244   5.120  14.146  1.00  0.00     0.031 C 
ATOM     45  C   UNL     1      -0.082   9.100   9.504  1.00  0.00     0.029 A 
ATOM     46  C   UNL     1      -1.043   9.768  10.376  1.00  0.00     0.049 A 
ATOM     47  H   UNL     1      -2.125   8.932  11.946  1.00  0.00     0.167 HD
ATOM     48  C   UNL     1      -4.554   7.036  15.014  1.00  0.00     0.037 A 
ATOM     49  C   UNL     1      -1.387  11.067  10.300  1.00  0.00     0.037 A 
ATOM     50  C   UNL     1      -4.903   8.431  15.083  1.00  0.00     0.049 A 
ATOM     51  C   UNL     1      -2.380  11.633  11.272  1.00  0.00     0.074 A 
ATOM     52  C   UNL     1      -5.755   9.065  15.971  1.00  0.00     0.029 A 
ATOM     53  N   UNL     1      -4.419   9.409  14.228  1.00  0.00    -0.354 N 
ATOM     54  N   UNL     1      -3.042  11.022  12.224  1.00  0.00    -0.248 NA
ATOM     55  C   UNL     1      -2.668  13.070  11.165  1.00  0.00     0.031 C 
ATOM     56  C   UNL     1      -5.813  10.422  15.631  1.00  0.00     0.029 A 
ATOM     57  C   UNL     1      -4.972  10.638  14.552  1.00  0.00     0.049 A 
ATOM     58  H   UNL     1      -3.777   9.253  13.498  1.00  0.00     0.167 HD
ATOM     59  C   UNL     1      -3.817  11.999  12.835  1.00  0.00     0.074 A 
ATOM     60  C   UNL     1      -3.528  13.247  12.158  1.00  0.00     0.031 C 
ATOM     61  C   UNL     1      -4.690  11.870  13.863  1.00  0.00     0.037 A 
BRANCH  48  62
ATOM     62  C   UNL     1      -5.262   6.083  15.932  1.00  0.00     0.057 A 
ATOM     63  C   UNL     1      -4.622   5.502  17.034  1.00  0.00     0.134 A 
ATOM     64  C   UNL     1      -6.608   5.757  15.720  1.00  0.00     0.134 A 
ATOM     65  F   UNL     1      -3.330   5.765  17.285  1.00  0.00    -0.206 F 
ATOM     66  C   UNL     1      -5.285   4.608  17.876  1.00  0.00     0.040 A 
ATOM     67  C   UNL     1      -7.289   4.883  16.569  1.00  0.00     0.040 A 
ATOM     68  F   UNL     1      -7.282   6.284  14.687  1.00  0.00    -0.206 F 
ATOM     69  C   UNL     1      -6.625   4.300  17.646  1.00  0.00     0.006 A 
ENDBRANCH  48  62
BRANCH  49  70
ATOM     70  C   UNL     1      -0.759  11.927   9.269  1.00  0.00     0.057 A 
ATOM     71  C   UNL     1       0.241  12.844   9.610  1.00  0.00     0.134 A 
ATOM     72  C   UNL     1      -1.119  11.830   7.921  1.00  0.00     0.134 A 
ATOM     73  F   UNL     1       0.614  12.990  10.890  1.00  0.00    -0.206 F 
ATOM     74  C   UNL     1       0.858  13.641   8.646  1.00  0.00     0.040 A 
ATOM     75  C   UNL     1      -0.498  12.608   6.943  1.00  0.00     0.040 A 
ATOM     76  F   UNL     1      -2.066  10.962   7.533  1.00  0.00    -0.206 F 
ATOM     77  C   UNL     1       0.493  13.519   7.306  1.00  0.00     0.006 A 
ENDBRANCH  49  70
BRANCH  61  78
ATOM     78  C   UNL     1      -5.395  13.113  14.316  1.00  0.00     0.057 A 
ATOM     79  C   UNL     1      -6.440  13.675  13.572  1.00  0.00     0.134 A 
ATOM     80  C   UNL     1      -5.042  13.741  15.517  1.00  0.00     0.134 A 
ATOM     81  F   UNL     1      -6.814  13.128  12.406  1.00  0.00    -0.206 F 
ATOM     82  C   UNL     1      -7.096  14.832  13.997  1.00  0.00     0.040 A 
ATOM     83  C   UNL     1      -5.704  14.886  15.961  1.00  0.00     0.040 A 
ATOM     84  F   UNL     1      -4.053  13.249  16.278  1.00  0.00    -0.206 F 
ATOM     85  C   UNL     1      -6.731  15.438  15.197  1.00  0.00     0.006 A 
ENDBRANCH  61  78
ENDBRANCH  35  36
ENDBRANCH  27  30
ENDBRANCH  25  26
ENDBRANCH   1  25
TORSDOF 12
