REMARK SMILES CC1(C)CC[C@@]2(C(=O)NCCCNC(=O)c3ccc(-c4c5nc(c(-c6c(F)cccc6F)c6ccc([nH]6)c(-c6c(F)cccc6F)c6nc(c(-c7c(F)cccc7F)c7ccc4[nH]7)C=C6)C=C5)cc3)CC[C@@]3(C)C(=CC[C@H]4[C@@]5(C)CC[C@H](O)C(C)(C)[C@@H]5CC[C@]43C)[C@@H]2C1
REMARK SMILES IDX 11 1 10 2 9 3 7 4 8 5 6 7 1 8 2 9 3 10 4 11 93 12 5 13 92 14
REMARK SMILES IDX 74 15 70 16 72 17 75 18 71 19 73 20 90 21 76 22 77 23 89 24
REMARK SMILES IDX 91 25 78 26 88 27 79 28 80 29 87 30 81 31 84 32 82 33 85 34
REMARK SMILES IDX 86 35 83 36 12 38 13 39 14 40 15 42 16 43 17 44 69 45 18 46
REMARK SMILES IDX 68 47 19 48 20 49 21 50 62 51 22 52 67 53 61 54 63 55 23 56
REMARK SMILES IDX 66 57 60 58 59 59 24 61 50 62 33 63 49 64 34 65 37 66 48 67
REMARK SMILES IDX 64 68 35 69 36 70 47 72 65 73 38 74 25 75 26 76 31 77 27 78
REMARK SMILES IDX 28 79 30 80 32 81 29 82 51 83 52 84 57 85 53 86 54 87 56 88
REMARK SMILES IDX 58 89 55 90 39 91 40 92 45 93 41 94 42 95 44 96 46 97 43 98
REMARK H PARENT 9 6 83 37 13 41 63 60 37 71
REMARK Flexibility Score: inf
ROOT
ATOM      1  C   UNL     1      -1.056   1.590  -2.772  1.00  0.00     0.042 C 
ENDROOT
BRANCH   1   2
ATOM      2  C   UNL     1      -0.216   1.417  -1.528  1.00  0.00     0.117 C 
BRANCH   2   3
ATOM      3  N   UNL     1      -0.397   2.369  -0.467  1.00  0.00    -0.356 N 
ATOM      4  C   UNL     1      -0.649   2.109   0.856  1.00  0.00     0.226 C 
ATOM      5  O   UNL     1      -1.737   1.663   1.216  1.00  0.00    -0.274 OA
ATOM      6  H   UNL     1      -0.332   3.318  -0.719  1.00  0.00     0.163 HD
BRANCH   4   7
ATOM      7  C   UNL     1       0.537   2.332   1.852  1.00  0.00     0.056 C 
ATOM      8  C   UNL     1       3.394  -0.580   1.314  1.00  0.00     0.011 C 
ATOM      9  C   UNL     1       2.263   0.178   0.577  1.00  0.00    -0.035 C 
ATOM     10  C   UNL     1       2.169  -0.532  -0.812  1.00  0.00     0.011 C 
ATOM     11  C   UNL     1       0.992  -0.109   1.407  1.00  0.00     0.007 C 
ATOM     12  C   UNL     1       2.623   1.729   0.407  1.00  0.00     0.015 C 
ATOM     13  C   UNL     1       0.757   0.940   2.484  1.00  0.00     0.018 C 
ATOM     14  C   UNL     1       1.859   2.857   1.229  1.00  0.00     0.031 C 
ATOM     15  C   UNL     1       1.558   4.307   0.624  1.00  0.00    -0.064 C 
ATOM     16  C   UNL     1       0.169   3.302   2.993  1.00  0.00     0.018 C 
ATOM     17  C   UNL     1       0.960   5.390   1.595  1.00  0.00    -0.006 C 
ATOM     18  C   UNL     1       1.648   4.569  -0.695  1.00  0.00    -0.027 C 
ATOM     19  C   UNL     1      -0.098   4.731   2.521  1.00  0.00     0.013 C 
ATOM     20  C   UNL     1       2.152   5.829   2.503  1.00  0.00     0.017 C 
ATOM     21  C   UNL     1       0.327   6.742   0.835  1.00  0.00    -0.020 C 
ATOM     22  C   UNL     1       0.892   5.656  -1.412  1.00  0.00     0.032 C 
ATOM     23  C   UNL     1      -0.202   6.413  -0.606  1.00  0.00     0.006 C 
ATOM     24  C   UNL     1      -0.767   7.554   1.640  1.00  0.00     0.008 C 
ATOM     25  C   UNL     1       1.478   7.800   0.607  1.00  0.00     0.012 C 
ATOM     26  C   UNL     1      -1.771   6.047  -0.839  1.00  0.00    -0.025 C 
ATOM     27  C   UNL     1      -2.101   7.848   0.898  1.00  0.00     0.005 C 
ATOM     28  C   UNL     1      -2.121   6.698  -2.209  1.00  0.00     0.012 C 
ATOM     29  C   UNL     1      -2.122   4.566  -0.933  1.00  0.00     0.010 C 
ATOM     30  C   UNL     1      -2.653   6.535   0.357  1.00  0.00     0.003 C 
ATOM     31  C   UNL     1      -3.596   4.181  -1.073  1.00  0.00     0.033 C 
ATOM     32  C   UNL     1      -4.215   6.299   0.233  1.00  0.00    -0.006 C 
ATOM     33  C   UNL     1      -4.428   4.757   0.067  1.00  0.00     0.120 C 
ATOM     34  C   UNL     1      -4.920   7.063  -0.902  1.00  0.00     0.014 C 
ATOM     35  C   UNL     1      -4.930   6.717   1.541  1.00  0.00     0.014 C 
BRANCH  33  36
ATOM     36  O   UNL     1      -5.798   4.430  -0.149  1.00  0.00    -0.393 OA
ATOM     37  H   UNL     1      -6.097   4.825  -0.983  1.00  0.00     0.210 HD
ENDBRANCH  33  36
ENDBRANCH   4   7
ENDBRANCH   2   3
ENDBRANCH   1   2
BRANCH   1  38
ATOM     38  C   UNL     1      -0.649   2.704  -3.726  1.00  0.00     0.118 C 
BRANCH  38  39
ATOM     39  N   UNL     1       0.634   2.572  -4.400  1.00  0.00    -0.352 N 
ATOM     40  C   UNL     1       0.887   2.916  -5.714  1.00  0.00     0.251 C 
ATOM     41  H   UNL     1       1.384   2.207  -3.877  1.00  0.00     0.163 HD
ATOM     42  O   UNL     1       2.012   2.861  -6.198  1.00  0.00    -0.269 OA
BRANCH  40  43
ATOM     43  C   UNL     1      -0.274   3.304  -6.536  1.00  0.00     0.039 A 
ATOM     44  C   UNL     1      -0.760   2.381  -7.463  1.00  0.00     0.014 A 
ATOM     45  C   UNL     1      -1.009   4.444  -6.193  1.00  0.00     0.014 A 
ATOM     46  C   UNL     1      -2.030   2.570  -8.007  1.00  0.00     0.010 A 
ATOM     47  C   UNL     1      -2.309   4.577  -6.671  1.00  0.00     0.010 A 
ATOM     48  C   UNL     1      -2.830   3.645  -7.587  1.00  0.00    -0.014 A 
BRANCH  48  49
ATOM     49  C   UNL     1      -4.200   3.828  -8.133  1.00  0.00     0.031 A 
ATOM     50  C   UNL     1      -4.511   5.056  -8.944  1.00  0.00     0.074 A 
ATOM     51  C   UNL     1      -5.169   2.925  -7.875  1.00  0.00     0.049 A 
ATOM     52  N   UNL     1      -5.640   5.422  -9.493  1.00  0.00    -0.248 NA
ATOM     53  C   UNL     1      -3.414   6.020  -9.134  1.00  0.00     0.031 C 
ATOM     54  C   UNL     1      -5.020   1.729  -7.043  1.00  0.00     0.029 A 
ATOM     55  N   UNL     1      -6.478   2.877  -8.287  1.00  0.00    -0.354 N 
ATOM     56  C   UNL     1      -5.396   6.665 -10.061  1.00  0.00     0.074 A 
ATOM     57  C   UNL     1      -4.031   7.019  -9.744  1.00  0.00     0.031 C 
ATOM     58  C   UNL     1      -6.182   1.053  -7.029  1.00  0.00     0.029 A 
ATOM     59  C   UNL     1      -7.164   1.776  -7.831  1.00  0.00     0.049 A 
ATOM     60  H   UNL     1      -6.888   3.567  -8.857  1.00  0.00     0.167 HD
ATOM     61  C   UNL     1      -6.222   7.432 -10.809  1.00  0.00     0.037 A 
ATOM     62  C   UNL     1      -8.439   1.393  -8.043  1.00  0.00     0.037 A 
ATOM     63  C   UNL     1      -7.555   7.049 -11.182  1.00  0.00     0.049 A 
ATOM     64  C   UNL     1      -9.321   2.237  -8.926  1.00  0.00     0.074 A 
ATOM     65  C   UNL     1      -8.435   7.706 -12.023  1.00  0.00     0.029 A 
ATOM     66  N   UNL     1      -8.196   5.902 -10.741  1.00  0.00    -0.354 N 
ATOM     67  N   UNL     1      -9.041   3.360  -9.543  1.00  0.00    -0.248 NA
ATOM     68  C   UNL     1     -10.692   1.756  -9.152  1.00  0.00     0.031 C 
ATOM     69  C   UNL     1      -9.625   6.973 -12.063  1.00  0.00     0.029 A 
ATOM     70  C   UNL     1      -9.470   5.841 -11.279  1.00  0.00     0.049 A 
ATOM     71  H   UNL     1      -7.804   5.232 -10.136  1.00  0.00     0.167 HD
ATOM     72  C   UNL     1     -10.187   3.703 -10.249  1.00  0.00     0.074 A 
ATOM     73  C   UNL     1     -11.161   2.661 -10.000  1.00  0.00     0.031 C 
ATOM     74  C   UNL     1     -10.416   4.784 -11.033  1.00  0.00     0.037 A 
BRANCH  61  75
ATOM     75  C   UNL     1      -5.698   8.752 -11.287  1.00  0.00     0.057 A 
ATOM     76  C   UNL     1      -4.716   8.842 -12.282  1.00  0.00     0.134 A 
ATOM     77  C   UNL     1      -6.206   9.949 -10.768  1.00  0.00     0.134 A 
ATOM     78  F   UNL     1      -4.177   7.732 -12.807  1.00  0.00    -0.206 F 
ATOM     79  C   UNL     1      -4.239  10.076 -12.726  1.00  0.00     0.040 A 
ATOM     80  C   UNL     1      -5.756  11.190 -11.223  1.00  0.00     0.040 A 
ATOM     81  F   UNL     1      -7.150   9.933  -9.815  1.00  0.00    -0.206 F 
ATOM     82  C   UNL     1      -4.766  11.255 -12.201  1.00  0.00     0.006 A 
ENDBRANCH  61  75
BRANCH  62  83
ATOM     83  C   UNL     1      -8.963   0.141  -7.438  1.00  0.00     0.057 A 
ATOM     84  C   UNL     1      -9.269  -0.974  -8.229  1.00  0.00     0.134 A 
ATOM     85  C   UNL     1      -9.207   0.040  -6.064  1.00  0.00     0.134 A 
ATOM     86  F   UNL     1      -9.078  -0.933  -9.556  1.00  0.00    -0.206 F 
ATOM     87  C   UNL     1      -9.826  -2.132  -7.681  1.00  0.00     0.040 A 
ATOM     88  C   UNL     1      -9.740  -1.121  -5.498  1.00  0.00     0.040 A 
ATOM     89  F   UNL     1      -8.931   1.069  -5.250  1.00  0.00    -0.206 F 
ATOM     90  C   UNL     1     -10.061  -2.208  -6.310  1.00  0.00     0.006 A 
ENDBRANCH  62  83
BRANCH  74  91
ATOM     91  C   UNL     1     -11.752   4.880 -11.704  1.00  0.00     0.057 A 
ATOM     92  C   UNL     1     -12.912   5.210 -10.993  1.00  0.00     0.134 A 
ATOM     93  C   UNL     1     -11.868   4.696 -13.088  1.00  0.00     0.134 A 
ATOM     94  F   UNL     1     -12.868   5.388  -9.665  1.00  0.00    -0.206 F 
ATOM     95  C   UNL     1     -14.146   5.336 -11.633  1.00  0.00     0.040 A 
ATOM     96  C   UNL     1     -13.091   4.844 -13.742  1.00  0.00     0.040 A 
ATOM     97  F   UNL     1     -10.791   4.389 -13.827  1.00  0.00    -0.206 F 
ATOM     98  C   UNL     1     -14.235   5.161 -13.013  1.00  0.00     0.006 A 
ENDBRANCH  74  91
ENDBRANCH  48  49
ENDBRANCH  40  43
ENDBRANCH  38  39
ENDBRANCH   1  38
TORSDOF 11
