REMARK SMILES CC(C)n1c2c(c3ccccc31)[C@@H](c1ccccc1)N(CC(=O)NCCCNC(=O)c1ccc(-c3c4nc(c(-c5c(F)cccc5F)c5ccc([nH]5)c(-c5c(F)cccc5F)c5nc(c(-c6c(F)cccc6F)c6ccc3[nH]6)C=C5)C=C4)cc1)C2=O
REMARK SMILES IDX 26 1 25 2 24 3 22 4 23 5 21 7 20 8 4 9 5 10 12 11 6 12 85 13
REMARK SMILES IDX 7 14 11 15 13 16 86 17 8 18 10 19 9 20 2 21 1 22 3 23 14 24
REMARK SMILES IDX 15 25 19 26 16 27 18 28 17 29 27 30 28 31 29 32 30 34 31 35
REMARK SMILES IDX 32 36 84 37 33 38 83 39 34 40 35 41 36 42 77 43 37 44 82 45
REMARK SMILES IDX 76 46 78 47 38 48 81 49 75 50 74 51 39 53 65 54 48 55 64 56
REMARK SMILES IDX 49 57 52 58 63 59 79 60 50 61 51 62 62 64 80 65 53 66 40 67
REMARK SMILES IDX 41 68 46 69 42 70 43 71 45 72 47 73 44 74 66 75 67 76 72 77
REMARK SMILES IDX 68 78 69 79 71 80 73 81 70 82 54 83 55 84 60 85 56 86 57 87
REMARK SMILES IDX 59 88 61 89 58 90
REMARK H PARENT 24 6 28 33 78 52 52 63
REMARK Flexibility Score: inf
ROOT
ATOM      1  C   UNL     1      -2.261  -3.219   3.405  1.00  0.00     0.042 C 
ENDROOT
BRANCH   1   2
ATOM      2  C   UNL     1      -2.472  -4.724   3.223  1.00  0.00     0.117 C 
BRANCH   2   3
ATOM      3  N   UNL     1      -3.871  -5.064   3.030  1.00  0.00    -0.354 N 
ATOM      4  C   UNL     1      -4.519  -5.461   1.897  1.00  0.00     0.239 C 
ATOM      5  O   UNL     1      -5.741  -5.624   1.954  1.00  0.00    -0.273 OA
ATOM      6  H   UNL     1      -4.434  -4.997   3.834  1.00  0.00     0.163 HD
BRANCH   4   7
ATOM      7  C   UNL     1      -3.761  -5.637   0.577  1.00  0.00     0.220 C 
BRANCH   7   8
ATOM      8  N   UNL     1      -3.388  -4.354   0.011  1.00  0.00    -0.317 N 
ATOM      9  N   UNL     1      -1.330  -1.423  -0.104  1.00  0.00    -0.334 N 
ATOM     10  C   UNL     1      -2.153  -2.514  -0.179  1.00  0.00     0.114 A 
ATOM     11  C   UNL     1      -2.158  -0.289  -0.063  1.00  0.00     0.049 A 
ATOM     12  C   UNL     1      -3.462  -2.120  -0.212  1.00  0.00     0.018 A 
ATOM     13  C   UNL     1      -2.062  -3.938  -0.107  1.00  0.00     0.272 C 
ATOM     14  C   UNL     1      -3.503  -0.728  -0.114  1.00  0.00     0.006 A 
ATOM     15  C   UNL     1      -1.895   1.093   0.015  1.00  0.00     0.027 A 
ATOM     16  C   UNL     1      -4.383  -3.284  -0.250  1.00  0.00     0.150 C 
ATOM     17  O   UNL     1      -1.061  -4.634  -0.035  1.00  0.00    -0.267 OA
ATOM     18  C   UNL     1      -4.561   0.201  -0.069  1.00  0.00     0.011 A 
ATOM     19  C   UNL     1      -2.964   1.999   0.036  1.00  0.00     0.002 A 
ATOM     20  C   UNL     1      -4.280   1.562   0.000  1.00  0.00     0.001 A 
BRANCH   9  21
ATOM     21  C   UNL     1       0.134  -1.535  -0.097  1.00  0.00     0.082 C 
ATOM     22  C   UNL     1       0.930  -0.245  -0.311  1.00  0.00     0.031 C 
ATOM     23  C   UNL     1       0.674  -2.204   1.175  1.00  0.00     0.031 C 
ENDBRANCH   9  21
BRANCH  16  24
ATOM     24  C   UNL     1      -5.005  -3.419  -1.633  1.00  0.00    -0.021 A 
ATOM     25  C   UNL     1      -5.976  -4.422  -1.825  1.00  0.00     0.006 A 
ATOM     26  C   UNL     1      -4.650  -2.645  -2.755  1.00  0.00     0.006 A 
ATOM     27  C   UNL     1      -6.533  -4.664  -3.084  1.00  0.00     0.000 A 
ATOM     28  C   UNL     1      -5.223  -2.873  -4.009  1.00  0.00     0.000 A 
ATOM     29  C   UNL     1      -6.155  -3.890  -4.176  1.00  0.00     0.000 A 
ENDBRANCH  16  24
ENDBRANCH   7   8
ENDBRANCH   4   7
ENDBRANCH   2   3
ENDBRANCH   1   2
BRANCH   1  30
ATOM     30  C   UNL     1      -2.889  -2.648   4.674  1.00  0.00     0.118 C 
BRANCH  30  31
ATOM     31  N   UNL     1      -2.428  -3.298   5.882  1.00  0.00    -0.352 N 
ATOM     32  C   UNL     1      -1.411  -3.096   6.766  1.00  0.00     0.251 C 
ATOM     33  H   UNL     1      -2.983  -4.075   6.123  1.00  0.00     0.163 HD
ATOM     34  O   UNL     1      -1.399  -3.850   7.744  1.00  0.00    -0.269 OA
BRANCH  32  35
ATOM     35  C   UNL     1      -0.300  -2.123   6.607  1.00  0.00     0.039 A 
ATOM     36  C   UNL     1      -0.102  -1.269   5.521  1.00  0.00     0.014 A 
ATOM     37  C   UNL     1       0.685  -2.177   7.613  1.00  0.00     0.014 A 
ATOM     38  C   UNL     1       1.120  -0.625   5.358  1.00  0.00     0.010 A 
ATOM     39  C   UNL     1       1.892  -1.516   7.470  1.00  0.00     0.010 A 
ATOM     40  C   UNL     1       2.139  -0.822   6.294  1.00  0.00    -0.014 A 
BRANCH  40  41
ATOM     41  C   UNL     1       3.462  -0.281   6.011  1.00  0.00     0.031 A 
ATOM     42  C   UNL     1       3.514   1.200   5.868  1.00  0.00     0.074 A 
ATOM     43  C   UNL     1       4.561  -1.066   5.971  1.00  0.00     0.049 A 
ATOM     44  N   UNL     1       3.820   1.895   4.820  1.00  0.00    -0.248 NA
ATOM     45  C   UNL     1       3.035   2.008   7.001  1.00  0.00     0.031 C 
ATOM     46  C   UNL     1       4.691  -2.483   6.334  1.00  0.00     0.029 A 
ATOM     47  N   UNL     1       5.840  -0.725   5.656  1.00  0.00    -0.354 N 
ATOM     48  C   UNL     1       3.759   3.231   5.215  1.00  0.00     0.074 A 
ATOM     49  C   UNL     1       3.133   3.244   6.511  1.00  0.00     0.031 C 
ATOM     50  C   UNL     1       6.000  -2.804   6.448  1.00  0.00     0.029 A 
ATOM     51  C   UNL     1       6.795  -1.672   6.012  1.00  0.00     0.049 A 
ATOM     52  H   UNL     1       6.072   0.124   5.214  1.00  0.00     0.167 HD
ATOM     53  C   UNL     1       4.429   4.207   4.542  1.00  0.00     0.037 A 
ATOM     54  C   UNL     1       8.141  -1.499   5.997  1.00  0.00     0.037 A 
ATOM     55  C   UNL     1       4.785   3.782   3.214  1.00  0.00     0.049 A 
ATOM     56  C   UNL     1       8.429  -0.346   5.109  1.00  0.00     0.074 A 
ATOM     57  C   UNL     1       4.086   3.431   2.077  1.00  0.00     0.029 A 
ATOM     58  N   UNL     1       6.066   3.335   3.011  1.00  0.00    -0.354 N 
ATOM     59  N   UNL     1       8.229  -0.366   3.820  1.00  0.00    -0.248 NA
ATOM     60  C   UNL     1       8.466   0.975   5.717  1.00  0.00     0.031 C 
ATOM     61  C   UNL     1       4.841   2.368   1.496  1.00  0.00     0.029 A 
ATOM     62  C   UNL     1       5.980   2.180   2.279  1.00  0.00     0.049 A 
ATOM     63  H   UNL     1       6.893   3.764   3.330  1.00  0.00     0.167 HD
ATOM     64  C   UNL     1       7.699   0.881   3.523  1.00  0.00     0.074 A 
ATOM     65  C   UNL     1       7.923   1.685   4.724  1.00  0.00     0.031 C 
ATOM     66  C   UNL     1       6.878   1.063   2.447  1.00  0.00     0.037 A 
BRANCH  53  67
ATOM     67  C   UNL     1       5.107   5.380   5.209  1.00  0.00     0.057 A 
ATOM     68  C   UNL     1       5.504   5.391   6.561  1.00  0.00     0.134 A 
ATOM     69  C   UNL     1       5.679   6.388   4.410  1.00  0.00     0.134 A 
ATOM     70  F   UNL     1       5.093   4.468   7.438  1.00  0.00    -0.206 F 
ATOM     71  C   UNL     1       6.439   6.297   7.068  1.00  0.00     0.040 A 
ATOM     72  C   UNL     1       6.651   7.270   4.897  1.00  0.00     0.040 A 
ATOM     73  F   UNL     1       5.377   6.487   3.106  1.00  0.00    -0.206 F 
ATOM     74  C   UNL     1       7.046   7.215   6.228  1.00  0.00     0.006 A 
ENDBRANCH  53  67
BRANCH  54  75
ATOM     75  C   UNL     1       9.119  -1.994   6.994  1.00  0.00     0.057 A 
ATOM     76  C   UNL     1       8.762  -2.134   8.347  1.00  0.00     0.134 A 
ATOM     77  C   UNL     1      10.488  -2.077   6.707  1.00  0.00     0.134 A 
ATOM     78  F   UNL     1       7.490  -1.982   8.744  1.00  0.00    -0.206 F 
ATOM     79  C   UNL     1       9.708  -2.341   9.357  1.00  0.00     0.040 A 
ATOM     80  C   UNL     1      11.448  -2.283   7.709  1.00  0.00     0.040 A 
ATOM     81  F   UNL     1      10.931  -1.901   5.454  1.00  0.00    -0.206 F 
ATOM     82  C   UNL     1      11.059  -2.407   9.041  1.00  0.00     0.006 A 
ENDBRANCH  54  75
BRANCH  66  83
ATOM     83  C   UNL     1       6.727  -0.085   1.488  1.00  0.00     0.057 A 
ATOM     84  C   UNL     1       7.082   0.100   0.150  1.00  0.00     0.134 A 
ATOM     85  C   UNL     1       6.122  -1.308   1.820  1.00  0.00     0.134 A 
ATOM     86  F   UNL     1       7.605   1.268  -0.254  1.00  0.00    -0.206 F 
ATOM     87  C   UNL     1       6.867  -0.889  -0.813  1.00  0.00     0.040 A 
ATOM     88  C   UNL     1       5.928  -2.318   0.873  1.00  0.00     0.040 A 
ATOM     89  F   UNL     1       5.651  -1.534   3.052  1.00  0.00    -0.206 F 
ATOM     90  C   UNL     1       6.300  -2.108  -0.451  1.00  0.00     0.006 A 
ENDBRANCH  66  83
ENDBRANCH  40  41
ENDBRANCH  32  35
ENDBRANCH  30  31
ENDBRANCH   1  30
TORSDOF 13
