REMARK SMILES CSc1nc(N)cc(Nc2cccc(C(=O)NCCCNC(=O)c3ccc(-c4c5nc(c(-c6c(F)cccc6F)c6ccc([nH]6)c(-c6c(F)cccc6F)c6nc(c(-c7c(F)cccc7F)c7ccc4[nH]7)C=C6)C=C5)cc3)c2)n1
REMARK SMILES IDX 18 1 17 2 15 3 16 4 14 6 10 7 11 8 78 9 12 10 13 11 9 12
REMARK SMILES IDX 8 14 3 15 4 16 79 17 5 18 7 19 2 20 1 21 6 22 19 25 20 26
REMARK SMILES IDX 21 27 22 28 23 30 24 31 25 32 77 33 26 34 76 35 27 36 28 37
REMARK SMILES IDX 29 38 70 39 30 40 75 41 69 42 71 43 31 44 74 45 68 46 67 47
REMARK SMILES IDX 32 49 58 50 41 51 57 52 42 53 45 54 56 55 72 56 43 57 44 58
REMARK SMILES IDX 55 60 73 61 46 62 33 63 34 64 39 65 35 66 36 67 38 68 40 69
REMARK SMILES IDX 37 70 59 71 60 72 65 73 61 74 62 75 64 76 66 77 63 78 47 79
REMARK SMILES IDX 48 80 53 81 49 82 50 83 52 84 54 85 51 86
REMARK H PARENT 17 5 9 13 6 23 6 24 21 29 71 48 45 59
REMARK Flexibility Score: inf
ROOT
ATOM      1  C   UNL     1      -0.244   3.100   2.003  1.00  0.00     0.118 C 
ENDROOT
BRANCH   1   2
ATOM      2  N   UNL     1      -1.653   3.189   2.352  1.00  0.00    -0.352 N 
ATOM      3  C   UNL     1      -2.770   3.724   1.755  1.00  0.00     0.251 C 
ATOM      4  O   UNL     1      -3.829   3.625   2.379  1.00  0.00    -0.269 OA
ATOM      5  H   UNL     1      -1.855   2.766   3.218  1.00  0.00     0.163 HD
BRANCH   3   6
ATOM      6  C   UNL     1      -2.773   4.459   0.458  1.00  0.00     0.041 A 
ATOM      7  C   UNL     1      -1.728   5.133  -1.653  1.00  0.00     0.040 A 
ATOM      8  C   UNL     1      -2.775   6.033  -1.868  1.00  0.00     0.026 A 
ATOM      9  C   UNL     1      -1.805   4.301  -0.530  1.00  0.00     0.040 A 
ATOM     10  C   UNL     1      -3.841   6.109  -0.967  1.00  0.00     0.003 A 
ATOM     11  C   UNL     1      -3.825   5.346   0.203  1.00  0.00     0.014 A 
BRANCH   7  12
ATOM     12  N   UNL     1      -0.630   5.090  -2.533  1.00  0.00    -0.340 N 
ATOM     13  H   UNL     1      -0.533   5.873  -3.122  1.00  0.00     0.168 HD
BRANCH  12  14
ATOM     14  C   UNL     1       0.352   4.092  -2.693  1.00  0.00     0.137 A 
ATOM     15  C   UNL     1       1.050   1.916  -2.508  1.00  0.00     0.191 A 
ATOM     16  N   UNL     1       2.296   2.182  -2.914  1.00  0.00    -0.206 NA
ATOM     17  N   UNL     1       0.073   2.819  -2.375  1.00  0.00    -0.205 NA
ATOM     18  C   UNL     1       2.553   3.451  -3.235  1.00  0.00     0.130 A 
ATOM     19  C   UNL     1       1.613   4.454  -3.125  1.00  0.00     0.093 A 
BRANCH  15  20
ATOM     20  S   UNL     1       0.643   0.231  -2.142  1.00  0.00    -0.090 SA
ATOM     21  C   UNL     1       1.207   0.197  -0.429  1.00  0.00     0.094 C 
ENDBRANCH  15  20
BRANCH  18  22
ATOM     22  N   UNL     1       3.847   3.731  -3.635  1.00  0.00    -0.383 N 
ATOM     23  H   UNL     1       4.507   3.004  -3.709  1.00  0.00     0.158 HD
ATOM     24  H   UNL     1       4.108   4.656  -3.845  1.00  0.00     0.158 HD
ENDBRANCH  18  22
ENDBRANCH  12  14
ENDBRANCH   7  12
ENDBRANCH   3   6
ENDBRANCH   1   2
BRANCH   1  25
ATOM     25  C   UNL     1       0.647   4.036   2.802  1.00  0.00     0.042 C 
BRANCH  25  26
ATOM     26  C   UNL     1       0.952   3.527   4.201  1.00  0.00     0.118 C 
BRANCH  26  27
ATOM     27  N   UNL     1       1.662   2.250   4.186  1.00  0.00    -0.352 N 
ATOM     28  C   UNL     1       2.943   1.920   4.549  1.00  0.00     0.251 C 
ATOM     29  H   UNL     1       1.126   1.492   3.858  1.00  0.00     0.163 HD
ATOM     30  O   UNL     1       3.397   0.830   4.217  1.00  0.00    -0.269 OA
BRANCH  28  31
ATOM     31  C   UNL     1       3.774   2.851   5.341  1.00  0.00     0.039 A 
ATOM     32  C   UNL     1       5.161   2.856   5.153  1.00  0.00     0.014 A 
ATOM     33  C   UNL     1       3.207   3.667   6.321  1.00  0.00     0.014 A 
ATOM     34  C   UNL     1       5.965   3.701   5.921  1.00  0.00     0.010 A 
ATOM     35  C   UNL     1       3.990   4.589   7.001  1.00  0.00     0.010 A 
ATOM     36  C   UNL     1       5.381   4.588   6.839  1.00  0.00    -0.014 A 
BRANCH  36  37
ATOM     37  C   UNL     1       6.203   5.474   7.696  1.00  0.00     0.031 A 
ATOM     38  C   UNL     1       6.149   5.323   9.193  1.00  0.00     0.074 A 
ATOM     39  C   UNL     1       6.929   6.461   7.139  1.00  0.00     0.049 A 
ATOM     40  N   UNL     1       6.718   6.049  10.122  1.00  0.00    -0.248 NA
ATOM     41  C   UNL     1       5.303   4.238   9.717  1.00  0.00     0.031 C 
ATOM     42  C   UNL     1       7.004   6.753   5.707  1.00  0.00     0.029 A 
ATOM     43  N   UNL     1       7.731   7.410   7.717  1.00  0.00    -0.354 N 
ATOM     44  C   UNL     1       6.269   5.532  11.331  1.00  0.00     0.074 A 
ATOM     45  C   UNL     1       5.332   4.476  11.019  1.00  0.00     0.031 C 
ATOM     46  C   UNL     1       7.827   7.795   5.516  1.00  0.00     0.029 A 
ATOM     47  C   UNL     1       8.312   8.262   6.811  1.00  0.00     0.049 A 
ATOM     48  H   UNL     1       7.876   7.476   8.688  1.00  0.00     0.167 HD
ATOM     49  C   UNL     1       6.626   5.883  12.589  1.00  0.00     0.037 A 
ATOM     50  C   UNL     1       9.146   9.299   7.006  1.00  0.00     0.037 A 
ATOM     51  C   UNL     1       7.595   6.902  12.890  1.00  0.00     0.049 A 
ATOM     52  C   UNL     1       9.582   9.634   8.404  1.00  0.00     0.074 A 
ATOM     53  C   UNL     1       8.095   7.285  14.121  1.00  0.00     0.029 A 
ATOM     54  N   UNL     1       8.216   7.700  11.939  1.00  0.00    -0.354 N 
ATOM     55  N   UNL     1       9.213   9.087   9.537  1.00  0.00    -0.248 NA
ATOM     56  C   UNL     1      10.565  10.715   8.549  1.00  0.00     0.031 C 
ATOM     57  C   UNL     1       8.991   8.341  13.918  1.00  0.00     0.029 A 
ATOM     58  C   UNL     1       9.086   8.582  12.556  1.00  0.00     0.049 A 
ATOM     59  H   UNL     1       8.061   7.646  10.968  1.00  0.00     0.167 HD
ATOM     60  C   UNL     1       9.937   9.736  10.528  1.00  0.00     0.074 A 
ATOM     61  C   UNL     1      10.776  10.711   9.858  1.00  0.00     0.031 C 
ATOM     62  C   UNL     1       9.914   9.542  11.870  1.00  0.00     0.037 A 
BRANCH  49  63
ATOM     63  C   UNL     1       5.960   5.152  13.721  1.00  0.00     0.057 A 
ATOM     64  C   UNL     1       6.192   3.791  13.967  1.00  0.00     0.134 A 
ATOM     65  C   UNL     1       5.061   5.813  14.567  1.00  0.00     0.134 A 
ATOM     66  F   UNL     1       7.031   3.092  13.186  1.00  0.00    -0.206 F 
ATOM     67  C   UNL     1       5.519   3.104  14.979  1.00  0.00     0.040 A 
ATOM     68  C   UNL     1       4.407   5.145  15.604  1.00  0.00     0.040 A 
ATOM     69  F   UNL     1       4.795   7.117  14.396  1.00  0.00    -0.206 F 
ATOM     70  C   UNL     1       4.626   3.783  15.804  1.00  0.00     0.006 A 
ENDBRANCH  49  63
BRANCH  50  71
ATOM     71  C   UNL     1       9.661  10.052   5.836  1.00  0.00     0.057 A 
ATOM     72  C   UNL     1      10.984   9.898   5.406  1.00  0.00     0.134 A 
ATOM     73  C   UNL     1       8.838  10.911   5.099  1.00  0.00     0.134 A 
ATOM     74  F   UNL     1      11.823   9.097   6.079  1.00  0.00    -0.206 F 
ATOM     75  C   UNL     1      11.474  10.578   4.290  1.00  0.00     0.040 A 
ATOM     76  C   UNL     1       9.308  11.581   3.968  1.00  0.00     0.040 A 
ATOM     77  F   UNL     1       7.556  11.090   5.453  1.00  0.00    -0.206 F 
ATOM     78  C   UNL     1      10.632  11.418   3.563  1.00  0.00     0.006 A 
ENDBRANCH  50  71
BRANCH  62  79
ATOM     79  C   UNL     1      10.850  10.374  12.696  1.00  0.00     0.057 A 
ATOM     80  C   UNL     1      10.635  11.741  12.911  1.00  0.00     0.134 A 
ATOM     81  C   UNL     1      11.963   9.788  13.312  1.00  0.00     0.134 A 
ATOM     82  F   UNL     1       9.593  12.363  12.339  1.00  0.00    -0.206 F 
ATOM     83  C   UNL     1      11.510  12.502  13.687  1.00  0.00     0.040 A 
ATOM     84  C   UNL     1      12.830  10.533  14.113  1.00  0.00     0.040 A 
ATOM     85  F   UNL     1      12.220   8.481  13.155  1.00  0.00    -0.206 F 
ATOM     86  C   UNL     1      12.607  11.896  14.296  1.00  0.00     0.006 A 
ENDBRANCH  62  79
ENDBRANCH  36  37
ENDBRANCH  28  31
ENDBRANCH  26  27
ENDBRANCH  25  26
ENDBRANCH   1  25
TORSDOF 14
