REMARK SMILES Cc1cc(C(=O)NCCCNC(=O)c2ccc(-c3c4nc(c(-c5c(F)cccc5F)c5ccc([nH]5)c(-c5c(F)cccc5F)c5nc(c(-c6c(F)cccc6F)c6ccc3[nH]6)C=C5)C=C4)cc2)ccc1NS(=O)(=O)c1c(F)cccc1F
REMARK SMILES IDX 8 1 7 2 5 3 6 4 4 6 1 7 2 8 3 9 70 10 69 11 68 12 71 13
REMARK SMILES IDX 72 15 73 16 74 17 75 18 76 19 81 20 77 21 78 22 80 23 82 24
REMARK SMILES IDX 79 25 9 26 10 27 11 28 12 29 13 31 14 32 15 33 67 34 16 35
REMARK SMILES IDX 66 36 17 37 18 38 19 39 60 40 20 41 65 42 59 43 61 44 21 45
REMARK SMILES IDX 64 46 58 47 57 48 22 50 48 51 31 52 47 53 32 54 35 55 46 56
REMARK SMILES IDX 62 57 33 58 34 59 45 61 63 62 36 63 23 64 24 65 29 66 25 67
REMARK SMILES IDX 26 68 28 69 30 70 27 71 49 72 50 73 55 74 51 75 52 76 54 77
REMARK SMILES IDX 56 78 53 79 37 80 38 81 43 82 39 83 40 84 42 85 44 86 41 87
REMARK H PARENT 7 5 71 14 11 30 61 49 35 60
REMARK Flexibility Score: inf
ROOT
ATOM      1  C   UNL     1      -4.298  -1.645   0.401  1.00  0.00     0.118 C 
ENDROOT
BRANCH   1   2
ATOM      2  N   UNL     1      -3.175  -2.555   0.220  1.00  0.00    -0.352 N 
ATOM      3  C   UNL     1      -1.807  -2.432   0.253  1.00  0.00     0.251 C 
ATOM      4  O   UNL     1      -1.159  -3.457   0.030  1.00  0.00    -0.269 OA
ATOM      5  H   UNL     1      -3.464  -3.476   0.028  1.00  0.00     0.163 HD
BRANCH   3   6
ATOM      6  C   UNL     1      -1.066  -1.153   0.451  1.00  0.00     0.040 A 
ATOM      7  C   UNL     1       2.454   0.033  -0.401  1.00  0.00     0.046 C 
ATOM      8  C   UNL     1       0.997   0.094  -0.028  1.00  0.00    -0.026 A 
ATOM      9  C   UNL     1       0.263  -1.106  -0.009  1.00  0.00     0.019 A 
ATOM     10  C   UNL     1       0.352   1.279   0.348  1.00  0.00     0.052 A 
ATOM     11  C   UNL     1      -0.848   1.186   1.051  1.00  0.00     0.028 A 
ATOM     12  C   UNL     1      -1.563  -0.019   1.084  1.00  0.00     0.016 A 
BRANCH  10  13
ATOM     13  N   UNL     1       0.857   2.508  -0.170  1.00  0.00    -0.279 N 
ATOM     14  H   UNL     1       1.649   2.439  -0.750  1.00  0.00     0.180 HD
BRANCH  13  15
ATOM     15  S   UNL     1       0.269   4.050   0.086  1.00  0.00     0.267 S 
ATOM     16  O   UNL     1       0.450   4.312   1.506  1.00  0.00    -0.201 OA
ATOM     17  O   UNL     1       0.892   4.877  -0.916  1.00  0.00    -0.201 OA
BRANCH  15  18
ATOM     18  C   UNL     1      -1.454   4.077  -0.240  1.00  0.00     0.158 A 
ATOM     19  C   UNL     1      -2.234   4.977   0.478  1.00  0.00     0.146 A 
ATOM     20  C   UNL     1      -2.078   3.154  -1.065  1.00  0.00     0.146 A 
ATOM     21  F   UNL     1      -1.675   5.947   1.213  1.00  0.00    -0.205 F 
ATOM     22  C   UNL     1      -3.625   4.897   0.455  1.00  0.00     0.041 A 
ATOM     23  C   UNL     1      -3.472   3.053  -1.083  1.00  0.00     0.041 A 
ATOM     24  F   UNL     1      -1.380   2.304  -1.828  1.00  0.00    -0.205 F 
ATOM     25  C   UNL     1      -4.249   3.909  -0.302  1.00  0.00     0.006 A 
ENDBRANCH  15  18
ENDBRANCH  13  15
ENDBRANCH  10  13
ENDBRANCH   3   6
ENDBRANCH   1   2
BRANCH   1  26
ATOM     26  C   UNL     1      -4.577  -0.767  -0.820  1.00  0.00     0.042 C 
BRANCH  26  27
ATOM     27  C   UNL     1      -5.872  -1.149  -1.537  1.00  0.00     0.118 C 
BRANCH  27  28
ATOM     28  N   UNL     1      -7.055  -0.383  -1.133  1.00  0.00    -0.352 N 
ATOM     29  C   UNL     1      -8.391  -0.628  -1.424  1.00  0.00     0.251 C 
ATOM     30  H   UNL     1      -6.879   0.413  -0.581  1.00  0.00     0.163 HD
ATOM     31  O   UNL     1      -9.267   0.127  -1.020  1.00  0.00    -0.269 OA
BRANCH  29  32
ATOM     32  C   UNL     1      -8.747  -1.898  -2.099  1.00  0.00     0.039 A 
ATOM     33  C   UNL     1      -9.593  -2.766  -1.403  1.00  0.00     0.014 A 
ATOM     34  C   UNL     1      -7.970  -2.354  -3.159  1.00  0.00     0.014 A 
ATOM     35  C   UNL     1      -9.401  -4.136  -1.537  1.00  0.00     0.010 A 
ATOM     36  C   UNL     1      -7.716  -3.709  -3.232  1.00  0.00     0.010 A 
ATOM     37  C   UNL     1      -8.361  -4.585  -2.350  1.00  0.00    -0.014 A 
BRANCH  37  38
ATOM     38  C   UNL     1      -7.820  -5.935  -2.258  1.00  0.00     0.031 A 
ATOM     39  C   UNL     1      -8.188  -6.939  -3.268  1.00  0.00     0.074 A 
ATOM     40  C   UNL     1      -6.970  -6.275  -1.263  1.00  0.00     0.049 A 
ATOM     41  N   UNL     1      -8.212  -8.208  -3.048  1.00  0.00    -0.248 NA
ATOM     42  C   UNL     1      -8.603  -6.571  -4.612  1.00  0.00     0.031 C 
ATOM     43  C   UNL     1      -6.196  -7.508  -1.143  1.00  0.00     0.029 A 
ATOM     44  N   UNL     1      -6.804  -5.642  -0.027  1.00  0.00    -0.354 N 
ATOM     45  C   UNL     1      -8.368  -8.836  -4.260  1.00  0.00     0.074 A 
ATOM     46  C   UNL     1      -8.679  -7.772  -5.190  1.00  0.00     0.031 C 
ATOM     47  C   UNL     1      -5.888  -7.703   0.148  1.00  0.00     0.029 A 
ATOM     48  C   UNL     1      -6.548  -6.666   0.917  1.00  0.00     0.049 A 
ATOM     49  H   UNL     1      -6.855  -4.676   0.152  1.00  0.00     0.167 HD
ATOM     50  C   UNL     1      -8.086 -10.167  -4.362  1.00  0.00     0.037 A 
ATOM     51  C   UNL     1      -7.397  -6.870   1.966  1.00  0.00     0.037 A 
ATOM     52  C   UNL     1      -7.717 -10.742  -3.066  1.00  0.00     0.049 A 
ATOM     53  C   UNL     1      -8.126  -8.197   1.927  1.00  0.00     0.074 A 
ATOM     54  C   UNL     1      -6.514 -11.065  -2.456  1.00  0.00     0.029 A 
ATOM     55  N   UNL     1      -8.668 -10.790  -2.061  1.00  0.00    -0.354 N 
ATOM     56  N   UNL     1      -7.934  -9.122   1.027  1.00  0.00    -0.248 NA
ATOM     57  C   UNL     1      -9.213  -8.537   2.847  1.00  0.00     0.031 C 
ATOM     58  C   UNL     1      -6.761 -11.308  -1.073  1.00  0.00     0.029 A 
ATOM     59  C   UNL     1      -8.113 -11.140  -0.843  1.00  0.00     0.049 A 
ATOM     60  H   UNL     1      -9.624 -10.597  -2.197  1.00  0.00     0.167 HD
ATOM     61  C   UNL     1      -8.868 -10.112   1.183  1.00  0.00     0.074 A 
ATOM     62  C   UNL     1      -9.646  -9.702   2.337  1.00  0.00     0.031 C 
ATOM     63  C   UNL     1      -8.972 -11.175   0.331  1.00  0.00     0.037 A 
BRANCH  50  64
ATOM     64  C   UNL     1      -7.887 -10.870  -5.687  1.00  0.00     0.057 A 
ATOM     65  C   UNL     1      -7.009 -11.964  -5.800  1.00  0.00     0.134 A 
ATOM     66  C   UNL     1      -8.484 -10.485  -6.900  1.00  0.00     0.134 A 
ATOM     67  F   UNL     1      -6.460 -12.543  -4.724  1.00  0.00    -0.206 F 
ATOM     68  C   UNL     1      -6.647 -12.528  -7.031  1.00  0.00     0.040 A 
ATOM     69  C   UNL     1      -8.086 -10.994  -8.145  1.00  0.00     0.040 A 
ATOM     70  F   UNL     1      -9.527  -9.646  -6.933  1.00  0.00    -0.206 F 
ATOM     71  C   UNL     1      -7.147 -12.010  -8.214  1.00  0.00     0.006 A 
ENDBRANCH  50  64
BRANCH  51  72
ATOM     72  C   UNL     1      -7.946  -5.586   2.479  1.00  0.00     0.057 A 
ATOM     73  C   UNL     1      -7.033  -4.652   3.006  1.00  0.00     0.134 A 
ATOM     74  C   UNL     1      -9.180  -5.100   2.045  1.00  0.00     0.134 A 
ATOM     75  F   UNL     1      -5.837  -5.059   3.461  1.00  0.00    -0.206 F 
ATOM     76  C   UNL     1      -7.263  -3.278   2.926  1.00  0.00     0.040 A 
ATOM     77  C   UNL     1      -9.431  -3.726   1.990  1.00  0.00     0.040 A 
ATOM     78  F   UNL     1     -10.103  -5.929   1.537  1.00  0.00    -0.206 F 
ATOM     79  C   UNL     1      -8.448  -2.811   2.369  1.00  0.00     0.006 A 
ENDBRANCH  51  72
BRANCH  63  80
ATOM     80  C   UNL     1      -9.930 -12.322   0.536  1.00  0.00     0.057 A 
ATOM     81  C   UNL     1     -10.202 -12.865   1.802  1.00  0.00     0.134 A 
ATOM     82  C   UNL     1     -10.524 -13.002  -0.547  1.00  0.00     0.134 A 
ATOM     83  F   UNL     1      -9.608 -12.387   2.905  1.00  0.00    -0.206 F 
ATOM     84  C   UNL     1     -11.073 -13.947   1.985  1.00  0.00     0.040 A 
ATOM     85  C   UNL     1     -11.354 -14.116  -0.381  1.00  0.00     0.040 A 
ATOM     86  F   UNL     1     -10.342 -12.613  -1.816  1.00  0.00    -0.206 F 
ATOM     87  C   UNL     1     -11.650 -14.579   0.891  1.00  0.00     0.006 A 
ENDBRANCH  63  80
ENDBRANCH  37  38
ENDBRANCH  29  32
ENDBRANCH  27  28
ENDBRANCH  26  27
ENDBRANCH   1  26
TORSDOF 13
