REMARK SMILES O=C(NCCCNC(=O)[C@]1(NC(=O)C2CCN(C(=O)C3CC3)CC2)CCCc2ccccc21)c1ccc(-c2c3nc(c(-c4c(F)cccc4F)c4ccc([nH]4)c(-c4c(F)cccc4F)c4nc(c(-c5c(F)cccc5F)c5ccc2[nH]5)C=C4)C=C3)cc1
REMARK SMILES IDX 5 1 4 2 3 3 1 4 2 5 34 7 35 8 87 9 36 10 86 11 37 12 38 13
REMARK SMILES IDX 39 14 80 15 40 16 85 17 79 18 81 19 41 20 84 21 78 22 77 23
REMARK SMILES IDX 42 25 68 26 51 27 67 28 52 29 55 30 66 31 82 32 53 33 54 34
REMARK SMILES IDX 65 36 83 37 56 38 43 39 44 40 49 41 45 42 46 43 48 44 50 45
REMARK SMILES IDX 47 46 69 47 70 48 75 49 71 50 72 51 74 52 76 53 73 54 57 55
REMARK SMILES IDX 58 56 63 57 59 58 60 59 62 60 64 61 61 62 6 63 7 64 8 65
REMARK SMILES IDX 9 67 10 68 25 69 33 70 26 71 28 72 32 73 27 74 29 75 31 76
REMARK SMILES IDX 30 77 11 78 12 79 13 81 14 82 15 83 24 84 16 85 23 86 17 87
REMARK SMILES IDX 18 88 19 89 20 90 21 91 22 92
REMARK H PARENT 3 6 81 24 55 35 7 66 11 80
REMARK Flexibility Score: inf
ROOT
ATOM      1  C   UNL     1       4.318  -1.915   1.734  1.00  0.00     0.042 C 
ENDROOT
BRANCH   1   2
ATOM      2  C   UNL     1       4.277  -1.353   0.316  1.00  0.00     0.118 C 
BRANCH   2   3
ATOM      3  N   UNL     1       2.908  -1.081  -0.105  1.00  0.00    -0.352 N 
ATOM      4  O   UNL     1       1.032   0.136  -0.313  1.00  0.00    -0.269 OA
ATOM      5  C   UNL     1       2.259   0.113  -0.282  1.00  0.00     0.251 C 
ATOM      6  H   UNL     1       2.365  -1.881  -0.292  1.00  0.00     0.163 HD
BRANCH   5   7
ATOM      7  C   UNL     1       3.023   1.366  -0.457  1.00  0.00     0.039 A 
ATOM      8  C   UNL     1       4.193   1.387  -1.220  1.00  0.00     0.014 A 
ATOM      9  C   UNL     1       2.509   2.556   0.069  1.00  0.00     0.014 A 
ATOM     10  C   UNL     1       4.904   2.571  -1.369  1.00  0.00     0.010 A 
ATOM     11  C   UNL     1       3.181   3.760  -0.151  1.00  0.00     0.010 A 
ATOM     12  C   UNL     1       4.391   3.774  -0.861  1.00  0.00    -0.014 A 
BRANCH  12  13
ATOM     13  C   UNL     1       5.096   5.046  -1.151  1.00  0.00     0.031 A 
ATOM     14  C   UNL     1       5.712   5.857  -0.049  1.00  0.00     0.074 A 
ATOM     15  C   UNL     1       5.181   5.460  -2.431  1.00  0.00     0.049 A 
ATOM     16  N   UNL     1       6.354   6.995  -0.125  1.00  0.00    -0.248 NA
ATOM     17  C   UNL     1       5.584   5.327   1.317  1.00  0.00     0.031 C 
ATOM     18  C   UNL     1       4.608   4.758  -3.582  1.00  0.00     0.029 A 
ATOM     19  N   UNL     1       5.788   6.559  -2.981  1.00  0.00    -0.354 N 
ATOM     20  C   UNL     1       6.692   7.327   1.181  1.00  0.00     0.074 A 
ATOM     21  C   UNL     1       6.160   6.284   2.032  1.00  0.00     0.031 C 
ATOM     22  C   UNL     1       4.923   5.422  -4.703  1.00  0.00     0.029 A 
ATOM     23  C   UNL     1       5.663   6.626  -4.347  1.00  0.00     0.049 A 
ATOM     24  H   UNL     1       6.266   7.234  -2.448  1.00  0.00     0.167 HD
ATOM     25  C   UNL     1       7.388   8.401   1.624  1.00  0.00     0.037 A 
ATOM     26  C   UNL     1       6.081   7.564  -5.216  1.00  0.00     0.037 A 
ATOM     27  C   UNL     1       7.920   9.430   0.766  1.00  0.00     0.049 A 
ATOM     28  C   UNL     1       6.824   8.758  -4.695  1.00  0.00     0.074 A 
ATOM     29  C   UNL     1       8.666  10.543   1.114  1.00  0.00     0.029 A 
ATOM     30  N   UNL     1       7.754   9.476  -0.611  1.00  0.00    -0.354 N 
ATOM     31  N   UNL     1       7.165   9.043  -3.462  1.00  0.00    -0.248 NA
ATOM     32  C   UNL     1       7.239   9.761  -5.684  1.00  0.00     0.031 C 
ATOM     33  C   UNL     1       8.913  11.285  -0.046  1.00  0.00     0.029 A 
ATOM     34  C   UNL     1       8.364  10.609  -1.125  1.00  0.00     0.049 A 
ATOM     35  H   UNL     1       7.274   8.802  -1.145  1.00  0.00     0.167 HD
ATOM     36  C   UNL     1       7.849  10.248  -3.526  1.00  0.00     0.074 A 
ATOM     37  C   UNL     1       7.889  10.631  -4.924  1.00  0.00     0.031 C 
ATOM     38  C   UNL     1       8.395  10.973  -2.519  1.00  0.00     0.037 A 
BRANCH  25  39
ATOM     39  C   UNL     1       7.595   8.530   3.105  1.00  0.00     0.057 A 
ATOM     40  C   UNL     1       8.460   7.684   3.811  1.00  0.00     0.134 A 
ATOM     41  C   UNL     1       6.940   9.533   3.832  1.00  0.00     0.134 A 
ATOM     42  F   UNL     1       9.108   6.694   3.179  1.00  0.00    -0.206 F 
ATOM     43  C   UNL     1       8.649   7.816   5.189  1.00  0.00     0.040 A 
ATOM     44  C   UNL     1       7.140   9.691   5.205  1.00  0.00     0.040 A 
ATOM     45  F   UNL     1       6.101  10.382   3.219  1.00  0.00    -0.206 F 
ATOM     46  C   UNL     1       7.992   8.826   5.888  1.00  0.00     0.006 A 
ENDBRANCH  25  39
BRANCH  26  47
ATOM     47  C   UNL     1       5.796   7.404  -6.664  1.00  0.00     0.057 A 
ATOM     48  C   UNL     1       6.819   7.131  -7.578  1.00  0.00     0.134 A 
ATOM     49  C   UNL     1       4.490   7.496  -7.163  1.00  0.00     0.134 A 
ATOM     50  F   UNL     1       8.091   7.046  -7.162  1.00  0.00    -0.206 F 
ATOM     51  C   UNL     1       6.556   6.965  -8.939  1.00  0.00     0.040 A 
ATOM     52  C   UNL     1       4.210   7.306  -8.516  1.00  0.00     0.040 A 
ATOM     53  F   UNL     1       3.465   7.747  -6.336  1.00  0.00    -0.206 F 
ATOM     54  C   UNL     1       5.247   7.045  -9.410  1.00  0.00     0.006 A 
ENDBRANCH  26  47
BRANCH  38  55
ATOM     55  C   UNL     1       9.109  12.236  -2.899  1.00  0.00     0.057 A 
ATOM     56  C   UNL     1       8.417  13.381  -3.312  1.00  0.00     0.134 A 
ATOM     57  C   UNL     1      10.505  12.314  -2.822  1.00  0.00     0.134 A 
ATOM     58  F   UNL     1       7.080  13.366  -3.422  1.00  0.00    -0.206 F 
ATOM     59  C   UNL     1       9.091  14.554  -3.655  1.00  0.00     0.040 A 
ATOM     60  C   UNL     1      11.188  13.488  -3.137  1.00  0.00     0.040 A 
ATOM     61  F   UNL     1      11.226  11.253  -2.427  1.00  0.00    -0.206 F 
ATOM     62  C   UNL     1      10.481  14.611  -3.562  1.00  0.00     0.006 A 
ENDBRANCH  38  55
ENDBRANCH  12  13
ENDBRANCH   5   7
ENDBRANCH   2   3
ENDBRANCH   1   2
BRANCH   1  63
ATOM     63  C   UNL     1       3.703  -3.308   1.829  1.00  0.00     0.117 C 
BRANCH  63  64
ATOM     64  N   UNL     1       4.554  -4.340   1.263  1.00  0.00    -0.354 N 
ATOM     65  C   UNL     1       5.508  -5.170   1.769  1.00  0.00     0.250 C 
ATOM     66  H   UNL     1       4.410  -4.467   0.297  1.00  0.00     0.163 HD
ATOM     67  O   UNL     1       5.995  -5.933   0.920  1.00  0.00    -0.272 OA
BRANCH  65  68
ATOM     68  C   UNL     1       6.092  -5.130   3.239  1.00  0.00     0.145 C 
ATOM     69  C   UNL     1       6.371  -6.628   3.597  1.00  0.00     0.044 C 
ATOM     70  C   UNL     1       5.116  -4.603   4.303  1.00  0.00    -0.010 A 
ATOM     71  C   UNL     1       5.093  -7.460   3.614  1.00  0.00     0.008 C 
ATOM     72  C   UNL     1       4.104  -5.439   4.830  1.00  0.00    -0.042 A 
ATOM     73  C   UNL     1       5.160  -3.260   4.736  1.00  0.00     0.007 A 
ATOM     74  C   UNL     1       4.106  -6.939   4.646  1.00  0.00     0.036 C 
ATOM     75  C   UNL     1       3.099  -4.891   5.646  1.00  0.00     0.004 A 
ATOM     76  C   UNL     1       4.162  -2.734   5.561  1.00  0.00     0.000 A 
ATOM     77  C   UNL     1       3.114  -3.541   5.988  1.00  0.00     0.000 A 
BRANCH  68  78
ATOM     78  N   UNL     1       7.429  -4.483   3.381  1.00  0.00    -0.338 N 
ATOM     79  C   UNL     1       8.092  -3.501   2.721  1.00  0.00     0.224 C 
ATOM     80  H   UNL     1       7.952  -4.856   4.128  1.00  0.00     0.164 HD
ATOM     81  O   UNL     1       8.899  -2.841   3.380  1.00  0.00    -0.275 OA
BRANCH  79  82
ATOM     82  C   UNL     1       7.934  -3.289   1.221  1.00  0.00     0.082 C 
ATOM     83  C   UNL     1       8.609  -4.428   0.432  1.00  0.00     0.035 C 
ATOM     84  C   UNL     1       8.452  -1.902   0.788  1.00  0.00     0.035 C 
ATOM     85  C   UNL     1      10.117  -4.240   0.271  1.00  0.00     0.120 C 
ATOM     86  C   UNL     1       9.975  -1.856   0.657  1.00  0.00     0.120 C 
ATOM     87  N   UNL     1      10.402  -2.907  -0.254  1.00  0.00    -0.342 N 
ATOM     88  C   UNL     1      10.873  -2.804  -1.563  1.00  0.00     0.225 C 
ATOM     89  O   UNL     1      11.064  -3.814  -2.241  1.00  0.00    -0.275 OA
BRANCH  88  90
ATOM     90  C   UNL     1      11.188  -1.516  -2.255  1.00  0.00     0.079 C 
ATOM     91  C   UNL     1      10.494  -0.194  -2.100  1.00  0.00     0.014 C 
ATOM     92  C   UNL     1      11.910  -0.367  -1.605  1.00  0.00     0.014 C 
ENDBRANCH  88  90
ENDBRANCH  79  82
ENDBRANCH  68  78
ENDBRANCH  65  68
ENDBRANCH  63  64
ENDBRANCH   1  63
TORSDOF 13
