REMARK SMILES O=C(NCCCNC(=O)[C@H]1COCCN1C(=O)c1ccc(Br)nc1)c1ccc(-c2c3nc(c(-c4c(F)cccc4F)c4ccc([nH]4)c(-c4c(F)cccc4F)c4nc(c(-c5c(F)cccc5F)c5ccc2[nH]5)C=C4)C=C3)cc1
REMARK SMILES IDX 5 1 4 2 3 3 1 4 2 5 25 7 26 8 78 9 27 10 77 11 28 12 29 13
REMARK SMILES IDX 30 14 71 15 31 16 76 17 70 18 72 19 32 20 75 21 69 22 68 23
REMARK SMILES IDX 33 25 59 26 42 27 58 28 43 29 46 30 57 31 73 32 44 33 45 34
REMARK SMILES IDX 56 36 74 37 47 38 34 39 35 40 40 41 36 42 37 43 39 44 41 45
REMARK SMILES IDX 38 46 60 47 61 48 66 49 62 50 63 51 65 52 67 53 64 54 48 55
REMARK SMILES IDX 49 56 54 57 50 58 51 59 53 60 55 61 52 62 6 63 7 64 8 65
REMARK SMILES IDX 9 67 10 68 11 69 15 70 12 71 14 72 13 73 16 74 17 75 18 76
REMARK SMILES IDX 19 77 24 78 20 79 23 80 21 81 22 82
REMARK H PARENT 3 6 72 24 46 35 7 66
REMARK Flexibility Score: inf
ROOT
ATOM      1  C   UNL     1       7.034  -2.291   3.259  1.00  0.00     0.042 C 
ENDROOT
BRANCH   1   2
ATOM      2  C   UNL     1       6.108  -1.379   4.049  1.00  0.00     0.118 C 
BRANCH   2   3
ATOM      3  N   UNL     1       6.538  -1.241   5.438  1.00  0.00    -0.352 N 
ATOM      4  O   UNL     1       7.619  -0.311   7.182  1.00  0.00    -0.269 OA
ATOM      5  C   UNL     1       7.083  -0.163   6.091  1.00  0.00     0.251 C 
ATOM      6  H   UNL     1       6.419  -2.046   5.992  1.00  0.00     0.163 HD
BRANCH   5   7
ATOM      7  C   UNL     1       7.019   1.173   5.468  1.00  0.00     0.039 A 
ATOM      8  C   UNL     1       5.863   1.577   4.799  1.00  0.00     0.014 A 
ATOM      9  C   UNL     1       8.109   2.040   5.577  1.00  0.00     0.014 A 
ATOM     10  C   UNL     1       5.855   2.770   4.097  1.00  0.00     0.010 A 
ATOM     11  C   UNL     1       8.053   3.297   4.971  1.00  0.00     0.010 A 
ATOM     12  C   UNL     1       6.934   3.660   4.206  1.00  0.00    -0.014 A 
BRANCH  12  13
ATOM     13  C   UNL     1       6.811   5.000   3.587  1.00  0.00     0.031 A 
ATOM     14  C   UNL     1       7.737   5.442   2.492  1.00  0.00     0.074 A 
ATOM     15  C   UNL     1       5.819   5.806   4.012  1.00  0.00     0.049 A 
ATOM     16  N   UNL     1       7.751   6.575   1.837  1.00  0.00    -0.248 NA
ATOM     17  C   UNL     1       8.787   4.498   2.082  1.00  0.00     0.031 C 
ATOM     18  C   UNL     1       4.866   5.477   5.078  1.00  0.00     0.029 A 
ATOM     19  N   UNL     1       5.428   7.050   3.594  1.00  0.00    -0.354 N 
ATOM     20  C   UNL     1       8.817   6.491   0.953  1.00  0.00     0.074 A 
ATOM     21  C   UNL     1       9.446   5.205   1.173  1.00  0.00     0.031 C 
ATOM     22  C   UNL     1       3.971   6.467   5.191  1.00  0.00     0.029 A 
ATOM     23  C   UNL     1       4.333   7.534   4.267  1.00  0.00     0.049 A 
ATOM     24  H   UNL     1       5.887   7.549   2.880  1.00  0.00     0.167 HD
ATOM     25  C   UNL     1       9.226   7.403   0.038  1.00  0.00     0.037 A 
ATOM     26  C   UNL     1       3.704   8.718   4.173  1.00  0.00     0.037 A 
ATOM     27  C   UNL     1       8.587   8.678  -0.171  1.00  0.00     0.049 A 
ATOM     28  C   UNL     1       4.208   9.724   3.183  1.00  0.00     0.074 A 
ATOM     29  C   UNL     1       8.904   9.661  -1.092  1.00  0.00     0.029 A 
ATOM     30  N   UNL     1       7.506   9.152   0.560  1.00  0.00    -0.354 N 
ATOM     31  N   UNL     1       5.196   9.617   2.329  1.00  0.00    -0.248 NA
ATOM     32  C   UNL     1       3.514  11.017   3.148  1.00  0.00     0.031 C 
ATOM     33  C   UNL     1       8.054  10.751  -0.880  1.00  0.00     0.029 A 
ATOM     34  C   UNL     1       7.164  10.425   0.131  1.00  0.00     0.049 A 
ATOM     35  H   UNL     1       7.049   8.656   1.278  1.00  0.00     0.167 HD
ATOM     36  C   UNL     1       5.233  10.821   1.640  1.00  0.00     0.074 A 
ATOM     37  C   UNL     1       4.151  11.632   2.163  1.00  0.00     0.031 C 
ATOM     38  C   UNL     1       6.086  11.219   0.665  1.00  0.00     0.037 A 
BRANCH  25  39
ATOM     39  C   UNL     1      10.437   7.069  -0.787  1.00  0.00     0.057 A 
ATOM     40  C   UNL     1      10.415   6.075  -1.774  1.00  0.00     0.134 A 
ATOM     41  C   UNL     1      11.633   7.779  -0.616  1.00  0.00     0.134 A 
ATOM     42  F   UNL     1       9.308   5.347  -1.983  1.00  0.00    -0.206 F 
ATOM     43  C   UNL     1      11.544   5.785  -2.545  1.00  0.00     0.040 A 
ATOM     44  C   UNL     1      12.759   7.518  -1.399  1.00  0.00     0.040 A 
ATOM     45  F   UNL     1      11.724   8.749   0.306  1.00  0.00    -0.206 F 
ATOM     46  C   UNL     1      12.718   6.513  -2.363  1.00  0.00     0.006 A 
ENDBRANCH  25  39
BRANCH  26  47
ATOM     47  C   UNL     1       2.547   9.011   5.055  1.00  0.00     0.057 A 
ATOM     48  C   UNL     1       1.255   9.148   4.535  1.00  0.00     0.134 A 
ATOM     49  C   UNL     1       2.703   9.147   6.441  1.00  0.00     0.134 A 
ATOM     50  F   UNL     1       1.044   9.040   3.215  1.00  0.00    -0.206 F 
ATOM     51  C   UNL     1       0.163   9.427   5.359  1.00  0.00     0.040 A 
ATOM     52  C   UNL     1       1.616   9.395   7.279  1.00  0.00     0.040 A 
ATOM     53  F   UNL     1       3.913   9.014   7.002  1.00  0.00    -0.206 F 
ATOM     54  C   UNL     1       0.342   9.544   6.736  1.00  0.00     0.006 A 
ENDBRANCH  26  47
BRANCH  38  55
ATOM     55  C   UNL     1       5.859  12.584   0.082  1.00  0.00     0.057 A 
ATOM     56  C   UNL     1       6.124  13.753   0.806  1.00  0.00     0.134 A 
ATOM     57  C   UNL     1       5.388  12.727  -1.230  1.00  0.00     0.134 A 
ATOM     58  F   UNL     1       6.561  13.685   2.073  1.00  0.00    -0.206 F 
ATOM     59  C   UNL     1       5.902  15.016   0.256  1.00  0.00     0.040 A 
ATOM     60  C   UNL     1       5.192  13.984  -1.801  1.00  0.00     0.040 A 
ATOM     61  F   UNL     1       5.121  11.647  -1.980  1.00  0.00    -0.206 F 
ATOM     62  C   UNL     1       5.441  15.134  -1.054  1.00  0.00     0.006 A 
ENDBRANCH  38  55
ENDBRANCH  12  13
ENDBRANCH   5   7
ENDBRANCH   2   3
ENDBRANCH   1   2
BRANCH   1  63
ATOM     63  C   UNL     1       6.983  -3.723   3.763  1.00  0.00     0.117 C 
BRANCH  63  64
ATOM     64  N   UNL     1       5.742  -4.369   3.380  1.00  0.00    -0.354 N 
ATOM     65  C   UNL     1       5.400  -5.269   2.428  1.00  0.00     0.245 C 
ATOM     66  H   UNL     1       4.978  -4.092   3.937  1.00  0.00     0.163 HD
ATOM     67  O   UNL     1       4.188  -5.527   2.370  1.00  0.00    -0.273 OA
BRANCH  65  68
ATOM     68  C   UNL     1       6.371  -5.953   1.433  1.00  0.00     0.200 C 
ATOM     69  C   UNL     1       7.881  -5.850   1.612  1.00  0.00     0.195 C 
ATOM     70  N   UNL     1       6.070  -7.408   1.431  1.00  0.00    -0.322 N 
ATOM     71  O   UNL     1       8.306  -6.429   2.858  1.00  0.00    -0.377 OA
ATOM     72  C   UNL     1       6.464  -8.077   2.674  1.00  0.00     0.149 C 
ATOM     73  C   UNL     1       7.952  -7.821   2.955  1.00  0.00     0.181 C 
BRANCH  70  74
ATOM     74  C   UNL     1       5.516  -8.143   0.397  1.00  0.00     0.256 C 
ATOM     75  O   UNL     1       5.269  -9.343   0.470  1.00  0.00    -0.269 OA
BRANCH  74  76
ATOM     76  C   UNL     1       5.231  -7.475  -0.883  1.00  0.00     0.058 A 
ATOM     77  C   UNL     1       6.230  -6.883  -1.657  1.00  0.00     0.018 A 
ATOM     78  C   UNL     1       3.930  -7.465  -1.358  1.00  0.00     0.126 A 
ATOM     79  C   UNL     1       5.874  -6.235  -2.838  1.00  0.00     0.037 A 
ATOM     80  N   UNL     1       3.561  -6.850  -2.508  1.00  0.00    -0.249 NA
ATOM     81  C   UNL     1       4.537  -6.239  -3.217  1.00  0.00     0.106 A 
ATOM     82  Br  UNL     1       4.037  -5.333  -4.805  1.00  0.00    -0.029 Br
ENDBRANCH  74  76
ENDBRANCH  70  74
ENDBRANCH  65  68
ENDBRANCH  63  64
ENDBRANCH   1  63
TORSDOF 12
