REMARK SMILES C[C@H](C(=O)NCC(=O)NCCCNC(=O)c1ccc(-c2c3nc(c(-c4c(F)cccc4F)c4ccc([nH]4)c(-c4c(F)cccc4F)c4nc(c(-c5c(F)cccc5F)c5ccc2[nH]5)C=C4)C=C3)cc1)N1C(=O)/C(=C/c2ccc(O)cc2)SC1=S
REMARK SMILES IDX 7 1 8 2 9 3 6 5 5 6 3 7 4 8 2 10 1 11 70 12 71 13 83 14
REMARK SMILES IDX 72 15 73 16 82 17 84 18 74 19 75 20 76 21 81 22 77 23 80 24
REMARK SMILES IDX 78 25 79 26 10 28 11 29 12 30 13 31 14 32 15 34 16 35 17 36
REMARK SMILES IDX 69 37 18 38 68 39 19 40 20 41 21 42 62 43 22 44 67 45 61 46
REMARK SMILES IDX 63 47 23 48 66 49 60 50 59 51 24 53 50 54 33 55 49 56 34 57
REMARK SMILES IDX 37 58 48 59 64 60 35 61 36 62 47 64 65 65 38 66 25 67 26 68
REMARK SMILES IDX 31 69 27 70 28 71 30 72 32 73 29 74 51 75 52 76 57 77 53 78
REMARK SMILES IDX 54 79 56 80 58 81 55 82 39 83 40 84 45 85 41 86 42 87 44 88
REMARK SMILES IDX 46 89 43 90
REMARK H PARENT 9 4 5 9 79 27 13 33 63 52 37 63
REMARK Flexibility Score: inf
ROOT
ATOM      1  C   UNL     1       1.462  -1.963  -3.193  1.00  0.00     0.239 C 
ATOM      2  O   UNL     1       1.240  -3.062  -3.702  1.00  0.00    -0.273 OA
ATOM      3  N   UNL     1       2.471  -1.202  -3.717  1.00  0.00    -0.355 N 
ATOM      4  H   UNL     1       3.116  -1.655  -4.307  1.00  0.00     0.163 HD
ENDROOT
BRANCH   1   5
ATOM      5  C   UNL     1       0.551  -1.370  -2.101  1.00  0.00     0.216 C 
BRANCH   5   6
ATOM      6  N   UNL     1       1.267  -0.860  -0.926  1.00  0.00    -0.345 N 
ATOM      7  C   UNL     1       1.059   0.201  -0.095  1.00  0.00     0.243 C 
ATOM      8  O   UNL     1       1.647   0.150   0.995  1.00  0.00    -0.273 OA
ATOM      9  H   UNL     1       2.060  -1.393  -0.689  1.00  0.00     0.164 HD
BRANCH   7  10
ATOM     10  C   UNL     1       0.168   1.444  -0.411  1.00  0.00     0.178 C 
ATOM     11  C   UNL     1       0.466   2.131  -1.743  1.00  0.00     0.042 C 
BRANCH  10  12
ATOM     12  N   UNL     1      -1.281   1.393  -0.142  1.00  0.00    -0.281 N 
ATOM     13  C   UNL     1      -1.994   0.229  -0.307  1.00  0.00     0.266 C 
ATOM     14  C   UNL     1      -2.043   2.523   0.126  1.00  0.00     0.149 C 
ATOM     15  O   UNL     1      -1.545  -0.904  -0.413  1.00  0.00    -0.268 OA
ATOM     16  C   UNL     1      -3.446   0.492  -0.327  1.00  0.00     0.081 C 
ATOM     17  S   UNL     1      -3.755   2.141  -0.005  1.00  0.00    -0.054 SA
ATOM     18  S   UNL     1      -1.538   4.075   0.486  1.00  0.00    -0.052 S 
ATOM     19  C   UNL     1      -4.315  -0.489  -0.599  1.00  0.00     0.029 C 
BRANCH  19  20
ATOM     20  C   UNL     1      -5.758  -0.307  -0.709  1.00  0.00    -0.024 A 
ATOM     21  C   UNL     1      -6.595  -0.811   0.289  1.00  0.00     0.012 A 
ATOM     22  C   UNL     1      -6.304   0.378  -1.803  1.00  0.00     0.012 A 
ATOM     23  C   UNL     1      -7.971  -0.606   0.207  1.00  0.00     0.047 A 
ATOM     24  C   UNL     1      -7.680   0.585  -1.882  1.00  0.00     0.047 A 
ATOM     25  C   UNL     1      -8.501   0.096  -0.871  1.00  0.00     0.115 A 
BRANCH  25  26
ATOM     26  O   UNL     1      -9.849   0.292  -0.898  1.00  0.00    -0.508 OA
ATOM     27  H   UNL     1     -10.386  -0.044  -0.208  1.00  0.00     0.293 HD
ENDBRANCH  25  26
ENDBRANCH  19  20
ENDBRANCH  10  12
ENDBRANCH   7  10
ENDBRANCH   5   6
ENDBRANCH   1   5
BRANCH   3  28
ATOM     28  C   UNL     1       2.670   0.200  -3.481  1.00  0.00     0.117 C 
BRANCH  28  29
ATOM     29  C   UNL     1       3.902   0.509  -2.655  1.00  0.00     0.042 C 
BRANCH  29  30
ATOM     30  C   UNL     1       5.093   0.817  -3.539  1.00  0.00     0.118 C 
BRANCH  30  31
ATOM     31  N   UNL     1       4.902   2.034  -4.329  1.00  0.00    -0.352 N 
ATOM     32  C   UNL     1       5.702   3.143  -4.451  1.00  0.00     0.251 C 
ATOM     33  H   UNL     1       4.069   2.062  -4.853  1.00  0.00     0.163 HD
ATOM     34  O   UNL     1       5.291   4.133  -5.048  1.00  0.00    -0.269 OA
BRANCH  32  35
ATOM     35  C   UNL     1       7.039   3.144  -3.830  1.00  0.00     0.039 A 
ATOM     36  C   UNL     1       7.474   4.284  -3.151  1.00  0.00     0.014 A 
ATOM     37  C   UNL     1       7.835   2.000  -3.873  1.00  0.00     0.014 A 
ATOM     38  C   UNL     1       8.670   4.239  -2.435  1.00  0.00     0.010 A 
ATOM     39  C   UNL     1       8.954   1.916  -3.062  1.00  0.00     0.010 A 
ATOM     40  C   UNL     1       9.390   3.037  -2.341  1.00  0.00    -0.014 A 
BRANCH  40  41
ATOM     41  C   UNL     1      10.609   2.914  -1.507  1.00  0.00     0.031 A 
ATOM     42  C   UNL     1      11.908   2.510  -2.147  1.00  0.00     0.074 A 
ATOM     43  C   UNL     1      10.525   3.068  -0.171  1.00  0.00     0.049 A 
ATOM     44  N   UNL     1      13.052   2.217  -1.585  1.00  0.00    -0.248 NA
ATOM     45  C   UNL     1      11.910   2.376  -3.615  1.00  0.00     0.031 C 
ATOM     46  C   UNL     1       9.308   3.404   0.572  1.00  0.00     0.029 A 
ATOM     47  N   UNL     1      11.483   2.943   0.803  1.00  0.00    -0.354 N 
ATOM     48  C   UNL     1      13.894   1.842  -2.623  1.00  0.00     0.074 A 
ATOM     49  C   UNL     1      13.115   1.879  -3.840  1.00  0.00     0.031 C 
ATOM     50  C   UNL     1       9.600   3.485   1.880  1.00  0.00     0.029 A 
ATOM     51  C   UNL     1      11.008   3.159   2.074  1.00  0.00     0.049 A 
ATOM     52  H   UNL     1      12.422   2.719   0.609  1.00  0.00     0.167 HD
ATOM     53  C   UNL     1      15.209   1.524  -2.571  1.00  0.00     0.037 A 
ATOM     54  C   UNL     1      11.637   3.087   3.262  1.00  0.00     0.037 A 
ATOM     55  C   UNL     1      15.985   1.523  -1.361  1.00  0.00     0.049 A 
ATOM     56  C   UNL     1      13.096   2.725   3.294  1.00  0.00     0.074 A 
ATOM     57  C   UNL     1      17.338   1.282  -1.207  1.00  0.00     0.029 A 
ATOM     58  N   UNL     1      15.474   1.776  -0.097  1.00  0.00    -0.354 N 
ATOM     59  N   UNL     1      13.900   2.442   2.298  1.00  0.00    -0.248 NA
ATOM     60  C   UNL     1      13.737   2.676   4.616  1.00  0.00     0.031 C 
ATOM     61  C   UNL     1      17.637   1.339   0.157  1.00  0.00     0.029 A 
ATOM     62  C   UNL     1      16.482   1.672   0.847  1.00  0.00     0.049 A 
ATOM     63  H   UNL     1      14.535   1.996   0.100  1.00  0.00     0.167 HD
ATOM     64  C   UNL     1      15.146   2.213   2.867  1.00  0.00     0.074 A 
ATOM     65  C   UNL     1      14.994   2.402   4.295  1.00  0.00     0.031 C 
ATOM     66  C   UNL     1      16.312   1.878   2.263  1.00  0.00     0.037 A 
BRANCH  53  67
ATOM     67  C   UNL     1      15.885   1.158  -3.861  1.00  0.00     0.057 A 
ATOM     68  C   UNL     1      16.108   2.101  -4.874  1.00  0.00     0.134 A 
ATOM     69  C   UNL     1      16.343  -0.146  -4.083  1.00  0.00     0.134 A 
ATOM     70  F   UNL     1      15.681   3.365  -4.733  1.00  0.00    -0.206 F 
ATOM     71  C   UNL     1      16.733   1.753  -6.073  1.00  0.00     0.040 A 
ATOM     72  C   UNL     1      16.998  -0.499  -5.264  1.00  0.00     0.040 A 
ATOM     73  F   UNL     1      16.166  -1.099  -3.155  1.00  0.00    -0.206 F 
ATOM     74  C   UNL     1      17.187   0.450  -6.266  1.00  0.00     0.006 A 
ENDBRANCH  53  67
BRANCH  54  75
ATOM     75  C   UNL     1      10.898   3.382   4.516  1.00  0.00     0.057 A 
ATOM     76  C   UNL     1      11.179   4.530   5.266  1.00  0.00     0.134 A 
ATOM     77  C   UNL     1       9.902   2.525   5.001  1.00  0.00     0.134 A 
ATOM     78  F   UNL     1      12.133   5.382   4.862  1.00  0.00    -0.206 F 
ATOM     79  C   UNL     1      10.515   4.805   6.463  1.00  0.00     0.040 A 
ATOM     80  C   UNL     1       9.211   2.801   6.182  1.00  0.00     0.040 A 
ATOM     81  F   UNL     1       9.578   1.413   4.326  1.00  0.00    -0.206 F 
ATOM     82  C   UNL     1       9.524   3.940   6.921  1.00  0.00     0.006 A 
ENDBRANCH  54  75
BRANCH  66  83
ATOM     83  C   UNL     1      17.525   1.736   3.134  1.00  0.00     0.057 A 
ATOM     84  C   UNL     1      17.692   0.652   4.004  1.00  0.00     0.134 A 
ATOM     85  C   UNL     1      18.566   2.671   3.058  1.00  0.00     0.134 A 
ATOM     86  F   UNL     1      16.727  -0.272   4.133  1.00  0.00    -0.206 F 
ATOM     87  C   UNL     1      18.843   0.511   4.780  1.00  0.00     0.040 A 
ATOM     88  C   UNL     1      19.734   2.526   3.807  1.00  0.00     0.040 A 
ATOM     89  F   UNL     1      18.474   3.728   2.236  1.00  0.00    -0.206 F 
ATOM     90  C   UNL     1      19.872   1.446   4.675  1.00  0.00     0.006 A 
ENDBRANCH  66  83
ENDBRANCH  40  41
ENDBRANCH  32  35
ENDBRANCH  30  31
ENDBRANCH  29  30
ENDBRANCH  28  29
ENDBRANCH   3  28
TORSDOF 15
