REMARK SMILES CC(=O)NCC(=O)N[C@H]1CCCCC[C@@H]1C(=O)NCCCNC(=O)c1ccc(-c2c3nc(c(-c4c(F)cccc4F)c4ccc([nH]4)c(-c4c(F)cccc4F)c4nc(c(-c5c(F)cccc5F)c5ccc2[nH]5)C=C4)C=C3)cc1
REMARK SMILES IDX 19 1 18 2 16 3 17 4 15 6 9 7 8 8 6 9 7 10 5 12 4 13 1 14
REMARK SMILES IDX 2 15 3 16 10 18 11 19 14 21 13 22 12 23 20 25 21 26 22 27
REMARK SMILES IDX 23 28 24 30 25 31 26 32 78 33 27 34 77 35 28 36 29 37 30 38
REMARK SMILES IDX 71 39 31 40 76 41 70 42 72 43 32 44 75 45 69 46 68 47 33 49
REMARK SMILES IDX 59 50 42 51 58 52 43 53 46 54 57 55 73 56 44 57 45 58 56 60
REMARK SMILES IDX 74 61 47 62 34 63 35 64 40 65 36 66 37 67 39 68 41 69 38 70
REMARK SMILES IDX 60 71 61 72 66 73 62 74 63 75 65 76 67 77 64 78 48 79 49 80
REMARK SMILES IDX 54 81 50 82 51 83 53 84 55 85 52 86
REMARK H PARENT 18 5 8 11 4 17 22 29 72 48 46 59
REMARK Flexibility Score: 100.00
ROOT
ATOM      1  C   UNL     1       6.891   2.000   0.548  1.00  0.00     0.117 C 
ENDROOT
BRANCH   1   2
ATOM      2  N   UNL     1       6.243   1.692   1.807  1.00  0.00    -0.356 N 
ATOM      3  C   UNL     1       5.042   1.077   2.029  1.00  0.00     0.225 C 
ATOM      4  O   UNL     1       4.732   0.835   3.196  1.00  0.00    -0.275 OA
ATOM      5  H   UNL     1       6.737   1.962   2.615  1.00  0.00     0.163 HD
BRANCH   3   6
ATOM      6  C   UNL     1       4.107   0.737   0.848  1.00  0.00     0.101 C 
BRANCH   6   7
ATOM      7  C   UNL     1       3.467   2.034   0.306  1.00  0.00     0.094 C 
BRANCH   7   8
ATOM      8  N   UNL     1       4.011   2.586  -0.961  1.00  0.00    -0.351 N 
ATOM      9  C   UNL     1       4.485   2.123  -2.150  1.00  0.00     0.239 C 
ATOM     10  O   UNL     1       4.921   2.977  -2.930  1.00  0.00    -0.273 OA
ATOM     11  H   UNL     1       4.037   3.570  -0.933  1.00  0.00     0.163 HD
BRANCH   9  12
ATOM     12  C   UNL     1       4.629   0.637  -2.491  1.00  0.00     0.216 C 
BRANCH  12  13
ATOM     13  N   UNL     1       5.918   0.096  -2.075  1.00  0.00    -0.347 N 
ATOM     14  C   UNL     1       5.204  -2.241  -1.657  1.00  0.00     0.114 C 
ATOM     15  C   UNL     1       6.216  -1.132  -1.569  1.00  0.00     0.217 C 
ATOM     16  O   UNL     1       7.306  -1.302  -1.026  1.00  0.00    -0.275 OA
ATOM     17  H   UNL     1       6.683   0.708  -2.175  1.00  0.00     0.164 HD
ENDBRANCH  12  13
ENDBRANCH   9  12
ENDBRANCH   7   8
BRANCH   7  18
ATOM     18  C   UNL     1       1.934   2.129   0.320  1.00  0.00     0.026 C 
BRANCH  18  19
ATOM     19  C   UNL     1       1.213   1.221  -0.665  1.00  0.00     0.002 CG0
ATOM     20  G   UNL     1       0.992  -0.191  -0.143  1.00  0.00     0.000 G0
ENDBRANCH  18  19
ENDBRANCH   7  18
ENDBRANCH   6   7
BRANCH   6  21
ATOM     21  C   UNL     1       3.118  -0.361   1.302  1.00  0.00     0.015 C 
BRANCH  21  22
ATOM     22  C   UNL     1       2.258  -0.965   0.193  1.00  0.00     0.001 C 
BRANCH  22  23
ATOM     23  C   UNL     1       0.992  -0.191  -0.143  1.00  0.00     0.000 CG0
ATOM     24  G   UNL     1       1.213   1.221  -0.665  1.00  0.00     0.000 G0
ENDBRANCH  22  23
ENDBRANCH  21  22
ENDBRANCH   6  21
ENDBRANCH   3   6
ENDBRANCH   1   2
BRANCH   1  25
ATOM     25  C   UNL     1       7.146   3.487   0.348  1.00  0.00     0.042 C 
BRANCH  25  26
ATOM     26  C   UNL     1       8.574   3.889   0.679  1.00  0.00     0.118 C 
BRANCH  26  27
ATOM     27  N   UNL     1       9.553   3.391  -0.285  1.00  0.00    -0.352 N 
ATOM     28  C   UNL     1      10.596   4.047  -0.905  1.00  0.00     0.251 C 
ATOM     29  H   UNL     1       9.452   2.443  -0.529  1.00  0.00     0.163 HD
ATOM     30  O   UNL     1      11.248   3.483  -1.770  1.00  0.00    -0.269 OA
BRANCH  28  31
ATOM     31  C   UNL     1      10.897   5.455  -0.552  1.00  0.00     0.039 A 
ATOM     32  C   UNL     1      11.207   6.360  -1.572  1.00  0.00     0.014 A 
ATOM     33  C   UNL     1      10.836   5.891   0.771  1.00  0.00     0.014 A 
ATOM     34  C   UNL     1      11.350   7.718  -1.272  1.00  0.00     0.010 A 
ATOM     35  C   UNL     1      10.865   7.251   1.050  1.00  0.00     0.010 A 
ATOM     36  C   UNL     1      11.120   8.182   0.033  1.00  0.00    -0.014 A 
BRANCH  36  37
ATOM     37  C   UNL     1      11.130   9.630   0.367  1.00  0.00     0.031 A 
ATOM     38  C   UNL     1      12.081  10.156   1.409  1.00  0.00     0.074 A 
ATOM     39  C   UNL     1      10.218  10.453  -0.189  1.00  0.00     0.049 A 
ATOM     40  N   UNL     1      12.159  11.353   1.932  1.00  0.00    -0.248 NA
ATOM     41  C   UNL     1      13.046   9.194   1.970  1.00  0.00     0.031 C 
ATOM     42  C   UNL     1       9.197  10.057  -1.162  1.00  0.00     0.029 A 
ATOM     43  N   UNL     1       9.992  11.794  -0.004  1.00  0.00    -0.354 N 
ATOM     44  C   UNL     1      13.155  11.278   2.898  1.00  0.00     0.074 A 
ATOM     45  C   UNL     1      13.608   9.906   2.934  1.00  0.00     0.031 C 
ATOM     46  C   UNL     1       8.477  11.135  -1.510  1.00  0.00     0.029 A 
ATOM     47  C   UNL     1       8.953  12.289  -0.755  1.00  0.00     0.049 A 
ATOM     48  H   UNL     1      10.525  12.350   0.610  1.00  0.00     0.167 HD
ATOM     49  C   UNL     1      13.667  12.269   3.666  1.00  0.00     0.037 A 
ATOM     50  C   UNL     1       8.438  13.531  -0.823  1.00  0.00     0.037 A 
ATOM     51  C   UNL     1      13.244  13.642   3.596  1.00  0.00     0.049 A 
ATOM     52  C   UNL     1       9.039  14.619   0.023  1.00  0.00     0.074 A 
ATOM     53  C   UNL     1      13.750  14.736   4.276  1.00  0.00     0.029 A 
ATOM     54  N   UNL     1      12.216  14.110   2.791  1.00  0.00    -0.354 N 
ATOM     55  N   UNL     1      10.027  14.549   0.881  1.00  0.00    -0.248 NA
ATOM     56  C   UNL     1       8.456  15.962  -0.113  1.00  0.00     0.031 C 
ATOM     57  C   UNL     1      13.002  15.860   3.911  1.00  0.00     0.029 A 
ATOM     58  C   UNL     1      12.061  15.474   2.969  1.00  0.00     0.049 A 
ATOM     59  H   UNL     1      11.677  13.554   2.183  1.00  0.00     0.167 HD
ATOM     60  C   UNL     1      10.204  15.838   1.365  1.00  0.00     0.074 A 
ATOM     61  C   UNL     1       9.230  16.674   0.694  1.00  0.00     0.031 C 
ATOM     62  C   UNL     1      11.092  16.290   2.284  1.00  0.00     0.037 A 
BRANCH  49  63
ATOM     63  C   UNL     1      14.752  11.901   4.638  1.00  0.00     0.057 A 
ATOM     64  C   UNL     1      16.031  11.522   4.209  1.00  0.00     0.134 A 
ATOM     65  C   UNL     1      14.523  11.948   6.019  1.00  0.00     0.134 A 
ATOM     66  F   UNL     1      16.313  11.443   2.899  1.00  0.00    -0.206 F 
ATOM     67  C   UNL     1      17.033  11.172   5.115  1.00  0.00     0.040 A 
ATOM     68  C   UNL     1      15.526  11.630   6.936  1.00  0.00     0.040 A 
ATOM     69  F   UNL     1      13.324  12.309   6.500  1.00  0.00    -0.206 F 
ATOM     70  C   UNL     1      16.783  11.232   6.485  1.00  0.00     0.006 A 
ENDBRANCH  49  63
BRANCH  50  71
ATOM     71  C   UNL     1       7.313  13.823  -1.748  1.00  0.00     0.057 A 
ATOM     72  C   UNL     1       7.506  14.610  -2.890  1.00  0.00     0.134 A 
ATOM     73  C   UNL     1       6.022  13.334  -1.514  1.00  0.00     0.134 A 
ATOM     74  F   UNL     1       8.716  15.122  -3.158  1.00  0.00    -0.206 F 
ATOM     75  C   UNL     1       6.454  14.917  -3.754  1.00  0.00     0.040 A 
ATOM     76  C   UNL     1       4.966  13.613  -2.383  1.00  0.00     0.040 A 
ATOM     77  F   UNL     1       5.772  12.567  -0.442  1.00  0.00    -0.206 F 
ATOM     78  C   UNL     1       5.179  14.414  -3.504  1.00  0.00     0.006 A 
ENDBRANCH  50  71
BRANCH  62  79
ATOM     79  C   UNL     1      11.076  17.759   2.588  1.00  0.00     0.057 A 
ATOM     80  C   UNL     1      10.047  18.349   3.332  1.00  0.00     0.134 A 
ATOM     81  C   UNL     1      12.127  18.584   2.167  1.00  0.00     0.134 A 
ATOM     82  F   UNL     1       9.005  17.616   3.753  1.00  0.00    -0.206 F 
ATOM     83  C   UNL     1      10.053  19.713   3.627  1.00  0.00     0.040 A 
ATOM     84  C   UNL     1      12.158  19.943   2.479  1.00  0.00     0.040 A 
ATOM     85  F   UNL     1      13.148  18.078   1.459  1.00  0.00    -0.206 F 
ATOM     86  C   UNL     1      11.115  20.512   3.207  1.00  0.00     0.006 A 
ENDBRANCH  62  79
ENDBRANCH  36  37
ENDBRANCH  28  31
ENDBRANCH  26  27
ENDBRANCH  25  26
ENDBRANCH   1  25
TORSDOF 13
