REMARK SMILES Cc1nc(Oc2ccc(F)cc2)c(C(=O)NCCCNC(=O)c2ccc(-c3c4nc(c(-c5c(F)cccc5F)c5ccc([nH]5)c(-c5c(F)cccc5F)c5nc(c(-c6c(F)cccc6F)c6ccc3[nH]6)C=C5)C=C4)cc2)c(C)c1Cl
REMARK SMILES IDX 18 1 17 2 16 3 14 4 15 5 13 7 1 8 2 9 3 10 79 11 4 12 77 13
REMARK SMILES IDX 80 14 78 15 5 16 6 17 7 18 12 19 8 20 11 21 9 22 10 23 19 24
REMARK SMILES IDX 20 25 21 26 22 28 23 29 24 30 76 31 25 32 75 33 26 34 27 35
REMARK SMILES IDX 28 36 69 37 29 38 74 39 68 40 70 41 30 42 73 43 67 44 66 45
REMARK SMILES IDX 31 47 57 48 40 49 56 50 41 51 44 52 55 53 71 54 42 55 43 56
REMARK SMILES IDX 54 58 72 59 45 60 32 61 33 62 38 63 34 64 35 65 37 66 39 67
REMARK SMILES IDX 36 68 58 69 59 70 64 71 60 72 61 73 63 74 65 75 62 76 46 77
REMARK SMILES IDX 47 78 52 79 48 80 49 81 51 82 53 83 50 84
REMARK H PARENT 16 6 20 27 70 46 44 57
REMARK Flexibility Score: inf
ROOT
ATOM      1  C   UNL     1      -2.300   1.276   6.558  1.00  0.00     0.042 C 
ENDROOT
BRANCH   1   2
ATOM      2  C   UNL     1      -0.933   0.622   6.696  1.00  0.00     0.118 C 
BRANCH   2   3
ATOM      3  N   UNL     1      -0.833  -0.470   5.759  1.00  0.00    -0.352 N 
ATOM      4  C   UNL     1       0.332  -0.674   5.068  1.00  0.00     0.257 C 
ATOM      5  O   UNL     1       1.444  -0.646   5.576  1.00  0.00    -0.269 OA
ATOM      6  H   UNL     1      -1.601  -1.069   5.617  1.00  0.00     0.163 HD
BRANCH   4   7
ATOM      7  C   UNL     1       0.184  -0.718   3.603  1.00  0.00     0.106 A 
ATOM      8  C   UNL     1       1.018  -0.783  -0.542  1.00  0.00     0.068 C 
ATOM      9  C   UNL     1       0.575  -0.704   0.891  1.00  0.00     0.060 A 
ATOM     10  N   UNL     1       0.517  -1.893   1.547  1.00  0.00    -0.216 NA
ATOM     11  C   UNL     1       0.356   0.519   1.526  1.00  0.00     0.066 A 
ATOM     12  C   UNL     1       0.334  -1.907   2.891  1.00  0.00     0.232 A 
ATOM     13  C   UNL     1       0.126   0.525   2.909  1.00  0.00    -0.012 A 
ATOM     14  Cl  UNL     1       0.440   1.993   0.618  1.00  0.00    -0.082 Cl
ATOM     15  C   UNL     1      -0.142   1.809   3.652  1.00  0.00     0.047 C 
BRANCH  12  16
ATOM     16  O   UNL     1       0.422  -3.188   3.376  1.00  0.00    -0.438 OA
BRANCH  16  17
ATOM     17  C   UNL     1      -0.090  -3.531   4.596  1.00  0.00     0.129 A 
ATOM     18  C   UNL     1       0.823  -3.991   5.549  1.00  0.00     0.050 A 
ATOM     19  C   UNL     1      -1.461  -3.541   4.868  1.00  0.00     0.050 A 
ATOM     20  C   UNL     1       0.379  -4.388   6.808  1.00  0.00     0.043 A 
ATOM     21  C   UNL     1      -1.904  -3.935   6.136  1.00  0.00     0.043 A 
ATOM     22  C   UNL     1      -0.979  -4.344   7.096  1.00  0.00     0.123 A 
ATOM     23  F   UNL     1      -1.407  -4.700   8.314  1.00  0.00    -0.207 F 
ENDBRANCH  16  17
ENDBRANCH  12  16
ENDBRANCH   4   7
ENDBRANCH   2   3
ENDBRANCH   1   2
BRANCH   1  24
ATOM     24  C   UNL     1      -3.056   1.247   7.868  1.00  0.00     0.118 C 
BRANCH  24  25
ATOM     25  N   UNL     1      -2.415   2.095   8.862  1.00  0.00    -0.352 N 
ATOM     26  C   UNL     1      -2.879   3.256   9.432  1.00  0.00     0.251 C 
ATOM     27  H   UNL     1      -1.529   1.796   9.168  1.00  0.00     0.163 HD
ATOM     28  O   UNL     1      -2.131   3.987  10.060  1.00  0.00    -0.269 OA
BRANCH  26  29
ATOM     29  C   UNL     1      -4.302   3.607   9.260  1.00  0.00     0.039 A 
ATOM     30  C   UNL     1      -4.648   4.916   8.921  1.00  0.00     0.014 A 
ATOM     31  C   UNL     1      -5.284   2.627   9.427  1.00  0.00     0.014 A 
ATOM     32  C   UNL     1      -5.988   5.233   8.708  1.00  0.00     0.010 A 
ATOM     33  C   UNL     1      -6.602   2.919   9.120  1.00  0.00     0.010 A 
ATOM     34  C   UNL     1      -6.968   4.232   8.791  1.00  0.00    -0.014 A 
BRANCH  34  35
ATOM     35  C   UNL     1      -8.404   4.547   8.643  1.00  0.00     0.031 A 
ATOM     36  C   UNL     1      -9.300   4.414   9.841  1.00  0.00     0.074 A 
ATOM     37  C   UNL     1      -8.900   4.888   7.442  1.00  0.00     0.049 A 
ATOM     38  N   UNL     1     -10.594   4.574   9.931  1.00  0.00    -0.248 NA
ATOM     39  C   UNL     1      -8.655   4.012  11.103  1.00  0.00     0.031 C 
ATOM     40  C   UNL     1      -8.125   5.006   6.205  1.00  0.00     0.029 A 
ATOM     41  N   UNL     1     -10.182   5.188   7.064  1.00  0.00    -0.354 N 
ATOM     42  C   UNL     1     -10.914   4.290  11.252  1.00  0.00     0.074 A 
ATOM     43  C   UNL     1      -9.696   3.866  11.905  1.00  0.00     0.031 C 
ATOM     44  C   UNL     1      -8.947   5.374   5.208  1.00  0.00     0.029 A 
ATOM     45  C   UNL     1     -10.306   5.488   5.731  1.00  0.00     0.049 A 
ATOM     46  H   UNL     1     -10.942   5.189   7.690  1.00  0.00     0.167 HD
ATOM     47  C   UNL     1     -12.108   4.407  11.877  1.00  0.00     0.037 A 
ATOM     48  C   UNL     1     -11.399   5.816   5.019  1.00  0.00     0.037 A 
ATOM     49  C   UNL     1     -13.312   4.835  11.219  1.00  0.00     0.049 A 
ATOM     50  C   UNL     1     -12.725   5.904   5.724  1.00  0.00     0.074 A 
ATOM     51  C   UNL     1     -14.571   5.026  11.755  1.00  0.00     0.029 A 
ATOM     52  N   UNL     1     -13.400   5.133   9.866  1.00  0.00    -0.354 N 
ATOM     53  N   UNL     1     -13.006   5.699   6.989  1.00  0.00    -0.248 NA
ATOM     54  C   UNL     1     -13.884   6.277   4.904  1.00  0.00     0.031 C 
ATOM     55  C   UNL     1     -15.433   5.397  10.717  1.00  0.00     0.029 A 
ATOM     56  C   UNL     1     -14.700   5.484   9.543  1.00  0.00     0.049 A 
ATOM     57  H   UNL     1     -12.650   5.099   9.230  1.00  0.00     0.167 HD
ATOM     58  C   UNL     1     -14.367   5.944   7.122  1.00  0.00     0.074 A 
ATOM     59  C   UNL     1     -14.849   6.329   5.811  1.00  0.00     0.031 C 
ATOM     60  C   UNL     1     -15.150   5.860   8.226  1.00  0.00     0.037 A 
BRANCH  47  61
ATOM     61  C   UNL     1     -12.146   4.061  13.337  1.00  0.00     0.057 A 
ATOM     62  C   UNL     1     -12.818   2.919  13.788  1.00  0.00     0.134 A 
ATOM     63  C   UNL     1     -11.485   4.842  14.297  1.00  0.00     0.134 A 
ATOM     64  F   UNL     1     -13.471   2.127  12.925  1.00  0.00    -0.206 F 
ATOM     65  C   UNL     1     -12.819   2.558  15.137  1.00  0.00     0.040 A 
ATOM     66  C   UNL     1     -11.453   4.474  15.643  1.00  0.00     0.040 A 
ATOM     67  F   UNL     1     -10.805   5.939  13.931  1.00  0.00    -0.206 F 
ATOM     68  C   UNL     1     -12.124   3.330  16.067  1.00  0.00     0.006 A 
ENDBRANCH  47  61
BRANCH  48  69
ATOM     69  C   UNL     1     -11.285   6.116   3.570  1.00  0.00     0.057 A 
ATOM     70  C   UNL     1     -11.014   5.113   2.632  1.00  0.00     0.134 A 
ATOM     71  C   UNL     1     -11.460   7.419   3.088  1.00  0.00     0.134 A 
ATOM     72  F   UNL     1     -10.828   3.846   3.030  1.00  0.00    -0.206 F 
ATOM     73  C   UNL     1     -10.921   5.394   1.268  1.00  0.00     0.040 A 
ATOM     74  C   UNL     1     -11.393   7.710   1.725  1.00  0.00     0.040 A 
ATOM     75  F   UNL     1     -11.738   8.419   3.937  1.00  0.00    -0.206 F 
ATOM     76  C   UNL     1     -11.120   6.695   0.810  1.00  0.00     0.006 A 
ENDBRANCH  48  69
BRANCH  60  77
ATOM     77  C   UNL     1     -16.598   6.217   8.060  1.00  0.00     0.057 A 
ATOM     78  C   UNL     1     -17.109   7.395   8.619  1.00  0.00     0.134 A 
ATOM     79  C   UNL     1     -17.490   5.386   7.370  1.00  0.00     0.134 A 
ATOM     80  F   UNL     1     -16.310   8.229   9.300  1.00  0.00    -0.206 F 
ATOM     81  C   UNL     1     -18.457   7.734   8.498  1.00  0.00     0.040 A 
ATOM     82  C   UNL     1     -18.834   5.729   7.217  1.00  0.00     0.040 A 
ATOM     83  F   UNL     1     -17.059   4.251   6.799  1.00  0.00    -0.206 F 
ATOM     84  C   UNL     1     -19.322   6.903   7.788  1.00  0.00     0.006 A 
ENDBRANCH  60  77
ENDBRANCH  34  35
ENDBRANCH  26  29
ENDBRANCH  24  25
ENDBRANCH   1  24
TORSDOF 12
