REMARK SMILES COc1ccc(NC(=O)N[C@@H]2C=C[C@H](C(=O)NCCCNC(=O)c3ccc(-c4c5nc(c(-c6c(F)cccc6F)c6ccc([nH]6)c(-c6c(F)cccc6F)c6nc(c(-c7c(F)cccc7F)c7ccc4[nH]7)C=C6)C=C5)cc3)C2)c(C)c1
REMARK SMILES IDX 18 1 17 2 15 3 16 4 14 6 11 7 12 8 78 9 13 10 10 11 7 12
REMARK SMILES IDX 8 13 9 15 6 17 3 18 4 19 81 20 5 21 79 22 80 23 2 24 1 25
REMARK SMILES IDX 19 26 20 27 21 28 22 29 23 31 24 32 25 33 77 34 26 35 76 36
REMARK SMILES IDX 27 37 28 38 29 39 70 40 30 41 75 42 69 43 71 44 31 45 74 46
REMARK SMILES IDX 68 47 67 48 32 50 58 51 41 52 57 53 42 54 45 55 56 56 72 57
REMARK SMILES IDX 43 58 44 59 55 61 73 62 46 63 33 64 34 65 39 66 35 67 36 68
REMARK SMILES IDX 38 69 40 70 37 71 59 72 60 73 65 74 61 75 62 76 64 77 66 78
REMARK SMILES IDX 63 79 47 80 48 81 53 82 49 83 50 84 52 85 54 86 51 87
REMARK H PARENT 17 5 7 14 10 16 21 30 71 49 45 60
REMARK Flexibility Score: inf
ROOT
ATOM      1  C   UNL     1       4.517   2.534   1.702  1.00  0.00     0.117 C 
ENDROOT
BRANCH   1   2
ATOM      2  N   UNL     1       3.289   2.202   0.999  1.00  0.00    -0.356 N 
ATOM      3  C   UNL     1       2.191   1.459   1.278  1.00  0.00     0.227 C 
ATOM      4  O   UNL     1       1.378   1.371   0.344  1.00  0.00    -0.274 OA
ATOM      5  H   UNL     1       3.244   2.617   0.107  1.00  0.00     0.163 HD
BRANCH   3   6
ATOM      6  C   UNL     1       1.876   0.700   2.582  1.00  0.00     0.103 C 
ATOM      7  C   UNL     1       3.312  -0.118   4.460  1.00  0.00     0.107 C 
ATOM      8  C   UNL     1       2.857  -1.215   3.538  1.00  0.00    -0.006 C 
ATOM      9  C   UNL     1       2.489   1.077   3.923  1.00  0.00     0.047 C 
ATOM     10  C   UNL     1       2.129  -0.772   2.506  1.00  0.00    -0.016 C 
BRANCH   7  11
ATOM     11  N   UNL     1       4.752  -0.021   4.281  1.00  0.00    -0.332 N 
ATOM     12  N   UNL     1       5.897   0.864   6.199  1.00  0.00    -0.308 N 
ATOM     13  C   UNL     1       5.839   0.319   4.978  1.00  0.00     0.319 C 
ATOM     14  H   UNL     1       6.815   0.898   6.553  1.00  0.00     0.171 HD
ATOM     15  O   UNL     1       6.922   0.028   4.453  1.00  0.00    -0.248 OA
ATOM     16  H   UNL     1       5.001  -0.288   3.366  1.00  0.00     0.165 HD
BRANCH  12  17
ATOM     17  C   UNL     1       4.962   1.394   7.090  1.00  0.00     0.046 A 
ATOM     18  C   UNL     1       2.820   1.855   8.794  1.00  0.00     0.119 A 
ATOM     19  C   UNL     1       2.718   2.212   7.461  1.00  0.00     0.048 A 
ATOM     20  C   UNL     1       4.065   1.528   9.323  1.00  0.00     0.052 A 
ATOM     21  C   UNL     1       3.809   2.008   6.629  1.00  0.00     0.030 A 
ATOM     22  C   UNL     1       5.171   1.329   8.475  1.00  0.00    -0.024 A 
ATOM     23  C   UNL     1       6.521   1.142   9.113  1.00  0.00     0.047 C 
BRANCH  18  24
ATOM     24  O   UNL     1       1.738   1.882   9.627  1.00  0.00    -0.497 OA
ATOM     25  C   UNL     1       0.730   0.975   9.164  1.00  0.00     0.278 C 
ENDBRANCH  18  24
ENDBRANCH  12  17
ENDBRANCH   7  11
ENDBRANCH   3   6
ENDBRANCH   1   2
BRANCH   1  26
ATOM     26  C   UNL     1       5.521   1.400   1.668  1.00  0.00     0.042 C 
BRANCH  26  27
ATOM     27  C   UNL     1       6.495   1.439   0.509  1.00  0.00     0.118 C 
BRANCH  27  28
ATOM     28  N   UNL     1       7.817   1.977   0.874  1.00  0.00    -0.352 N 
ATOM     29  C   UNL     1       8.965   2.035   0.113  1.00  0.00     0.251 C 
ATOM     30  H   UNL     1       7.891   2.345   1.784  1.00  0.00     0.163 HD
ATOM     31  O   UNL     1       9.973   2.586   0.509  1.00  0.00    -0.269 OA
BRANCH  29  32
ATOM     32  C   UNL     1       8.888   1.513  -1.274  1.00  0.00     0.039 A 
ATOM     33  C   UNL     1       9.014   2.442  -2.308  1.00  0.00     0.014 A 
ATOM     34  C   UNL     1       8.317   0.262  -1.490  1.00  0.00     0.014 A 
ATOM     35  C   UNL     1       8.297   2.231  -3.477  1.00  0.00     0.010 A 
ATOM     36  C   UNL     1       7.510   0.110  -2.600  1.00  0.00     0.010 A 
ATOM     37  C   UNL     1       7.438   1.133  -3.554  1.00  0.00    -0.014 A 
BRANCH  37  38
ATOM     38  C   UNL     1       6.330   1.085  -4.503  1.00  0.00     0.031 A 
ATOM     39  C   UNL     1       6.345   0.132  -5.629  1.00  0.00     0.074 A 
ATOM     40  C   UNL     1       5.280   1.932  -4.387  1.00  0.00     0.049 A 
ATOM     41  N   UNL     1       5.852   0.401  -6.793  1.00  0.00    -0.248 NA
ATOM     42  C   UNL     1       6.955  -1.191  -5.544  1.00  0.00     0.031 C 
ATOM     43  C   UNL     1       4.024   1.878  -5.132  1.00  0.00     0.029 A 
ATOM     44  N   UNL     1       5.225   3.152  -3.700  1.00  0.00    -0.354 N 
ATOM     45  C   UNL     1       5.837  -0.770  -7.506  1.00  0.00     0.074 A 
ATOM     46  C   UNL     1       6.598  -1.715  -6.720  1.00  0.00     0.031 C 
ATOM     47  C   UNL     1       3.448   3.089  -5.101  1.00  0.00     0.029 A 
ATOM     48  C   UNL     1       4.369   3.995  -4.439  1.00  0.00     0.049 A 
ATOM     49  H   UNL     1       5.694   3.377  -2.863  1.00  0.00     0.167 HD
ATOM     50  C   UNL     1       5.067  -0.891  -8.622  1.00  0.00     0.037 A 
ATOM     51  C   UNL     1       4.773   5.201  -4.928  1.00  0.00     0.037 A 
ATOM     52  C   UNL     1       4.292   0.309  -8.895  1.00  0.00     0.049 A 
ATOM     53  C   UNL     1       4.637   5.337  -6.425  1.00  0.00     0.074 A 
ATOM     54  C   UNL     1       2.990   0.661  -8.579  1.00  0.00     0.029 A 
ATOM     55  N   UNL     1       4.929   1.478  -9.295  1.00  0.00    -0.354 N 
ATOM     56  N   UNL     1       4.494   4.325  -7.232  1.00  0.00    -0.248 NA
ATOM     57  C   UNL     1       4.708   6.612  -7.136  1.00  0.00     0.031 C 
ATOM     58  C   UNL     1       2.846   2.053  -8.773  1.00  0.00     0.029 A 
ATOM     59  C   UNL     1       4.059   2.549  -9.214  1.00  0.00     0.049 A 
ATOM     60  H   UNL     1       5.865   1.534  -9.593  1.00  0.00     0.167 HD
ATOM     61  C   UNL     1       4.518   4.769  -8.531  1.00  0.00     0.074 A 
ATOM     62  C   UNL     1       4.619   6.210  -8.416  1.00  0.00     0.031 C 
ATOM     63  C   UNL     1       4.477   3.894  -9.579  1.00  0.00     0.037 A 
BRANCH  50  64
ATOM     64  C   UNL     1       4.811  -2.239  -9.230  1.00  0.00     0.057 A 
ATOM     65  C   UNL     1       3.519  -2.651  -9.598  1.00  0.00     0.134 A 
ATOM     66  C   UNL     1       5.820  -3.200  -9.409  1.00  0.00     0.134 A 
ATOM     67  F   UNL     1       2.471  -1.820  -9.549  1.00  0.00    -0.206 F 
ATOM     68  C   UNL     1       3.234  -3.958 -10.008  1.00  0.00     0.040 A 
ATOM     69  C   UNL     1       5.543  -4.524  -9.773  1.00  0.00     0.040 A 
ATOM     70  F   UNL     1       7.111  -2.886  -9.217  1.00  0.00    -0.206 F 
ATOM     71  C   UNL     1       4.241  -4.911 -10.060  1.00  0.00     0.006 A 
ENDBRANCH  50  64
BRANCH  51  72
ATOM     72  C   UNL     1       5.838   5.844  -4.121  1.00  0.00     0.057 A 
ATOM     73  C   UNL     1       5.537   6.274  -2.818  1.00  0.00     0.134 A 
ATOM     74  C   UNL     1       7.188   5.712  -4.456  1.00  0.00     0.134 A 
ATOM     75  F   UNL     1       4.259   6.419  -2.434  1.00  0.00    -0.206 F 
ATOM     76  C   UNL     1       6.531   6.458  -1.855  1.00  0.00     0.040 A 
ATOM     77  C   UNL     1       8.193   5.899  -3.501  1.00  0.00     0.040 A 
ATOM     78  F   UNL     1       7.551   5.286  -5.674  1.00  0.00    -0.206 F 
ATOM     79  C   UNL     1       7.864   6.236  -2.188  1.00  0.00     0.006 A 
ENDBRANCH  51  72
BRANCH  63  80
ATOM     80  C   UNL     1       4.724   4.210 -11.035  1.00  0.00     0.057 A 
ATOM     81  C   UNL     1       5.516   5.272 -11.496  1.00  0.00     0.134 A 
ATOM     82  C   UNL     1       4.268   3.328 -12.044  1.00  0.00     0.134 A 
ATOM     83  F   UNL     1       6.105   6.128 -10.652  1.00  0.00    -0.206 F 
ATOM     84  C   UNL     1       5.791   5.471 -12.857  1.00  0.00     0.040 A 
ATOM     85  C   UNL     1       4.581   3.487 -13.398  1.00  0.00     0.040 A 
ATOM     86  F   UNL     1       3.517   2.255 -11.758  1.00  0.00    -0.206 F 
ATOM     87  C   UNL     1       5.336   4.571 -13.812  1.00  0.00     0.006 A 
ENDBRANCH  63  80
ENDBRANCH  37  38
ENDBRANCH  29  32
ENDBRANCH  27  28
ENDBRANCH  26  27
ENDBRANCH   1  26
TORSDOF 13
