REMARK SMILES CC(C)(C)OC(=O)CSc1ccnc(C(=O)NCCCNC(=O)c2ccc(-c3c4nc(c(-c5c(F)cccc5F)c5ccc([nH]5)c(-c5c(F)cccc5F)c5nc(c(-c6c(F)cccc6F)c6ccc3[nH]6)C=C5)C=C4)cc2)c1
REMARK SMILES IDX 15 1 16 2 17 3 14 5 10 6 11 7 78 8 12 9 13 10 9 11 8 12 6 13
REMARK SMILES IDX 7 14 5 15 2 16 1 17 3 18 4 19 18 20 19 21 20 22 21 23 22 24
REMARK SMILES IDX 23 26 24 27 25 28 77 29 26 30 76 31 27 32 28 33 29 34 70 35
REMARK SMILES IDX 30 36 75 37 69 38 71 39 31 40 74 41 68 42 67 43 32 45 58 46
REMARK SMILES IDX 41 47 57 48 42 49 45 50 56 51 72 52 43 53 44 54 55 56 73 57
REMARK SMILES IDX 46 58 33 59 34 60 39 61 35 62 36 63 38 64 40 65 37 66 59 67
REMARK SMILES IDX 60 68 65 69 61 70 62 71 64 72 66 73 63 74 47 75 48 76 53 77
REMARK SMILES IDX 49 78 50 79 52 80 54 81 51 82
REMARK H PARENT 17 4 21 25 71 44 45 55
REMARK Flexibility Score: inf
ROOT
ATOM      1  C   UNL     1      -3.939   0.612   4.646  1.00  0.00     0.269 C 
ATOM      2  O   UNL     1      -5.136   0.671   4.934  1.00  0.00    -0.268 OA
ATOM      3  N   UNL     1      -3.443  -0.647   4.382  1.00  0.00    -0.351 N 
ATOM      4  H   UNL     1      -4.112  -1.362   4.484  1.00  0.00     0.163 HD
ENDROOT
BRANCH   1   5
ATOM      5  C   UNL     1      -3.119   1.871   4.569  1.00  0.00     0.129 A 
ATOM      6  C   UNL     1      -1.069   3.115   4.564  1.00  0.00     0.012 A 
ATOM      7  C   UNL     1      -1.796   4.273   4.320  1.00  0.00     0.035 A 
ATOM      8  C   UNL     1      -1.747   1.910   4.752  1.00  0.00     0.049 A 
ATOM      9  C   UNL     1      -3.169   4.165   4.215  1.00  0.00     0.113 A 
ATOM     10  N   UNL     1      -3.836   2.997   4.313  1.00  0.00    -0.251 NA
BRANCH   6  11
ATOM     11  S   UNL     1       0.713   3.079   4.646  1.00  0.00    -0.114 SA
BRANCH  11  12
ATOM     12  C   UNL     1       1.175   4.005   3.147  1.00  0.00     0.197 C 
BRANCH  12  13
ATOM     13  C   UNL     1       0.494   3.510   1.891  1.00  0.00     0.316 C 
ATOM     14  O   UNL     1      -0.279   4.202   1.243  1.00  0.00    -0.251 OA
BRANCH  13  15
ATOM     15  O   UNL     1       0.899   2.252   1.563  1.00  0.00    -0.459 OA
BRANCH  15  16
ATOM     16  C   UNL     1       0.469   1.642   0.315  1.00  0.00     0.104 C 
ATOM     17  C   UNL     1       1.110   0.245   0.310  1.00  0.00     0.056 C 
ATOM     18  C   UNL     1       1.007   2.426  -0.889  1.00  0.00     0.056 C 
ATOM     19  C   UNL     1      -1.054   1.475   0.254  1.00  0.00     0.056 C 
ENDBRANCH  15  16
ENDBRANCH  13  15
ENDBRANCH  12  13
ENDBRANCH  11  12
ENDBRANCH   6  11
ENDBRANCH   1   5
BRANCH   3  20
ATOM     20  C   UNL     1      -2.135  -1.132   3.983  1.00  0.00     0.118 C 
BRANCH  20  21
ATOM     21  C   UNL     1      -1.360  -1.679   5.184  1.00  0.00     0.042 C 
BRANCH  21  22
ATOM     22  C   UNL     1      -1.837  -3.057   5.641  1.00  0.00     0.118 C 
BRANCH  22  23
ATOM     23  N   UNL     1      -1.522  -4.088   4.664  1.00  0.00    -0.352 N 
ATOM     24  C   UNL     1      -0.792  -5.241   4.782  1.00  0.00     0.251 C 
ATOM     25  H   UNL     1      -1.897  -3.931   3.767  1.00  0.00     0.163 HD
ATOM     26  O   UNL     1      -0.455  -5.836   3.761  1.00  0.00    -0.269 OA
BRANCH  24  27
ATOM     27  C   UNL     1      -0.402  -5.784   6.104  1.00  0.00     0.039 A 
ATOM     28  C   UNL     1       0.830  -6.438   6.213  1.00  0.00     0.014 A 
ATOM     29  C   UNL     1      -1.262  -5.741   7.206  1.00  0.00     0.014 A 
ATOM     30  C   UNL     1       1.209  -7.021   7.423  1.00  0.00     0.010 A 
ATOM     31  C   UNL     1      -0.853  -6.264   8.434  1.00  0.00     0.010 A 
ATOM     32  C   UNL     1       0.379  -6.924   8.551  1.00  0.00    -0.014 A 
BRANCH  32  33
ATOM     33  C   UNL     1       0.794  -7.523   9.846  1.00  0.00     0.031 A 
ATOM     34  C   UNL     1       0.035  -8.680  10.435  1.00  0.00     0.074 A 
ATOM     35  C   UNL     1       1.847  -7.004  10.505  1.00  0.00     0.049 A 
ATOM     36  N   UNL     1       0.259  -9.336  11.546  1.00  0.00    -0.248 NA
ATOM     37  C   UNL     1      -1.145  -9.149   9.691  1.00  0.00     0.031 C 
ATOM     38  C   UNL     1       2.633  -5.849  10.067  1.00  0.00     0.029 A 
ATOM     39  N   UNL     1       2.442  -7.383  11.682  1.00  0.00    -0.354 N 
ATOM     40  C   UNL     1      -0.754 -10.283  11.640  1.00  0.00     0.074 A 
ATOM     41  C   UNL     1      -1.623 -10.083  10.500  1.00  0.00     0.031 C 
ATOM     42  C   UNL     1       3.625  -5.633  10.945  1.00  0.00     0.029 A 
ATOM     43  C   UNL     1       3.530  -6.617  12.020  1.00  0.00     0.049 A 
ATOM     44  H   UNL     1       2.118  -8.133  12.233  1.00  0.00     0.167 HD
ATOM     45  C   UNL     1      -0.932 -11.246  12.577  1.00  0.00     0.037 A 
ATOM     46  C   UNL     1       4.365  -6.703  13.072  1.00  0.00     0.037 A 
ATOM     47  C   UNL     1      -0.054 -11.458  13.699  1.00  0.00     0.049 A 
ATOM     48  C   UNL     1       4.163  -7.797  14.081  1.00  0.00     0.074 A 
ATOM     49  C   UNL     1      -0.120 -12.438  14.675  1.00  0.00     0.029 A 
ATOM     50  N   UNL     1       1.052 -10.676  13.993  1.00  0.00    -0.354 N 
ATOM     51  N   UNL     1       3.240  -8.727  14.120  1.00  0.00    -0.248 NA
ATOM     52  C   UNL     1       5.130  -7.862  15.186  1.00  0.00     0.031 C 
ATOM     53  C   UNL     1       0.928 -12.228  15.578  1.00  0.00     0.029 A 
ATOM     54  C   UNL     1       1.671 -11.144  15.141  1.00  0.00     0.049 A 
ATOM     55  H   UNL     1       1.354  -9.902  13.464  1.00  0.00     0.167 HD
ATOM     56  C   UNL     1       3.527  -9.502  15.236  1.00  0.00     0.074 A 
ATOM     57  C   UNL     1       4.723  -8.944  15.834  1.00  0.00     0.031 C 
ATOM     58  C   UNL     1       2.861 -10.577  15.723  1.00  0.00     0.037 A 
BRANCH  45  59
ATOM     59  C   UNL     1      -2.123 -12.148  12.422  1.00  0.00     0.057 A 
ATOM     60  C   UNL     1      -2.193 -13.109  11.404  1.00  0.00     0.134 A 
ATOM     61  C   UNL     1      -3.200 -12.076  13.315  1.00  0.00     0.134 A 
ATOM     62  F   UNL     1      -1.201 -13.224  10.508  1.00  0.00    -0.206 F 
ATOM     63  C   UNL     1      -3.302 -13.946  11.263  1.00  0.00     0.040 A 
ATOM     64  C   UNL     1      -4.303 -12.925  13.200  1.00  0.00     0.040 A 
ATOM     65  F   UNL     1      -3.196 -11.184  14.316  1.00  0.00    -0.206 F 
ATOM     66  C   UNL     1      -4.358 -13.859  12.167  1.00  0.00     0.006 A 
ENDBRANCH  45  59
BRANCH  46  67
ATOM     67  C   UNL     1       5.496  -5.751  13.200  1.00  0.00     0.057 A 
ATOM     68  C   UNL     1       6.816  -6.171  13.001  1.00  0.00     0.134 A 
ATOM     69  C   UNL     1       5.288  -4.406  13.526  1.00  0.00     0.134 A 
ATOM     70  F   UNL     1       7.079  -7.452  12.703  1.00  0.00    -0.206 F 
ATOM     71  C   UNL     1       7.892  -5.293  13.140  1.00  0.00     0.040 A 
ATOM     72  C   UNL     1       6.352  -3.511  13.645  1.00  0.00     0.040 A 
ATOM     73  F   UNL     1       4.045  -3.941  13.720  1.00  0.00    -0.206 F 
ATOM     74  C   UNL     1       7.660  -3.956  13.459  1.00  0.00     0.006 A 
ENDBRANCH  46  67
BRANCH  58  75
ATOM     75  C   UNL     1       3.434 -11.233  16.945  1.00  0.00     0.057 A 
ATOM     76  C   UNL     1       3.371 -10.628  18.207  1.00  0.00     0.134 A 
ATOM     77  C   UNL     1       4.051 -12.487  16.858  1.00  0.00     0.134 A 
ATOM     78  F   UNL     1       2.805  -9.421  18.355  1.00  0.00    -0.206 F 
ATOM     79  C   UNL     1       3.931 -11.233  19.333  1.00  0.00     0.040 A 
ATOM     80  C   UNL     1       4.591 -13.113  17.982  1.00  0.00     0.040 A 
ATOM     81  F   UNL     1       4.138 -13.124  15.680  1.00  0.00    -0.206 F 
ATOM     82  C   UNL     1       4.541 -12.481  19.222  1.00  0.00     0.006 A 
ENDBRANCH  58  75
ENDBRANCH  32  33
ENDBRANCH  24  27
ENDBRANCH  22  23
ENDBRANCH  21  22
ENDBRANCH  20  21
ENDBRANCH   3  20
TORSDOF 15
