REMARK SMILES O=CN1CC[NH+](C[C@@H](CC(=O)Nc2ccc(C(F)(F)F)nc2)C(=O)NCCCNC(=O)c2ccc(-c3c4nc(c(-c5c(F)cccc5F)c5ccc([nH]5)c(-c5c(F)cccc5F)c5nc(c(-c6c(F)cccc6F)c6ccc3[nH]6)C=C5)C=C4)cc2)CC1
REMARK SMILES IDX 26 1 25 2 23 3 24 4 8 6 7 7 6 8 1 9 2 10 3 11 4 12 87 13
REMARK SMILES IDX 5 14 86 15 9 17 10 18 11 19 12 20 13 22 14 23 22 24 15 25
REMARK SMILES IDX 21 26 16 27 17 28 18 29 19 30 20 31 27 32 28 33 29 34 30 35
REMARK SMILES IDX 31 37 32 38 33 39 85 40 34 41 84 42 35 43 36 44 37 45 78 46
REMARK SMILES IDX 38 47 83 48 77 49 79 50 39 51 82 52 76 53 75 54 40 56 66 57
REMARK SMILES IDX 49 58 65 59 50 60 53 61 64 62 80 63 51 64 52 65 63 67 81 68
REMARK SMILES IDX 54 69 41 70 42 71 47 72 43 73 44 74 46 75 48 76 45 77 67 78
REMARK SMILES IDX 68 79 73 80 69 81 70 82 72 83 74 84 71 85 55 86 56 87 61 88
REMARK SMILES IDX 57 89 58 90 60 91 62 92 59 93
REMARK H PARENT 25 5 6 16 12 21 29 36 79 55 53 66
REMARK Flexibility Score: inf
ROOT
ATOM      1  C   UNL     1       7.977   2.815   3.069  1.00  0.00     0.117 C 
ENDROOT
BRANCH   1   2
ATOM      2  N   UNL     1       7.434   1.746   3.846  1.00  0.00    -0.356 N 
ATOM      3  C   UNL     1       6.385   0.955   3.473  1.00  0.00     0.229 C 
ATOM      4  O   UNL     1       6.122  -0.013   4.191  1.00  0.00    -0.275 OA
ATOM      5  H   UNL     1       7.849   1.564   4.720  1.00  0.00     0.163 HD
BRANCH   3   6
ATOM      6  C   UNL     1       5.474   1.312   2.268  1.00  0.00     0.142 C 
BRANCH   6   7
ATOM      7  C   UNL     1       4.243   2.040   2.827  1.00  0.00     0.276 C 
BRANCH   7   8
ATOM      8  N   UNL     1       3.108   2.512   2.021  1.00  0.00    -0.331 N 
ATOM      9  O   UNL     1       0.199  -1.364   0.386  1.00  0.00    -0.279 OA
ATOM     10  C   UNL     1       1.054  -0.631  -0.081  1.00  0.00     0.340 C 
ATOM     11  N   UNL     1       1.734   0.352   0.602  1.00  0.00    -0.334 N 
ATOM     12  C   UNL     1       2.886   0.994   0.000  1.00  0.00     0.180 C 
ATOM     13  C   UNL     1       1.544   0.527   2.042  1.00  0.00     0.180 C 
ATOM     14  C   UNL     1       3.136   2.399   0.561  1.00  0.00     0.284 C 
ATOM     15  C   UNL     1       1.813   1.974   2.502  1.00  0.00     0.284 C 
ATOM     16  H   UNL     1       3.215   3.513   2.185  1.00  0.00     0.348 HD
ENDBRANCH   7   8
ENDBRANCH   6   7
BRANCH   6  17
ATOM     17  C   UNL     1       6.197   1.686   0.962  1.00  0.00     0.119 C 
BRANCH  17  18
ATOM     18  C   UNL     1       6.771   2.995   0.372  1.00  0.00     0.225 C 
ATOM     19  O   UNL     1       7.769   2.856  -0.359  1.00  0.00    -0.275 OA
ATOM     20  N   UNL     1       6.308   4.267   0.397  1.00  0.00    -0.325 N 
ATOM     21  H   UNL     1       6.814   4.849  -0.215  1.00  0.00     0.169 HD
BRANCH  20  22
ATOM     22  C   UNL     1       5.301   4.973   1.063  1.00  0.00     0.059 A 
ATOM     23  C   UNL     1       5.146   5.048   2.437  1.00  0.00     0.030 A 
ATOM     24  C   UNL     1       4.434   5.752   0.304  1.00  0.00     0.137 A 
ATOM     25  C   UNL     1       4.028   5.684   2.984  1.00  0.00     0.035 A 
ATOM     26  N   UNL     1       3.336   6.375   0.794  1.00  0.00    -0.250 NA
ATOM     27  C   UNL     1       3.094   6.263   2.130  1.00  0.00     0.144 A 
BRANCH  27  28
ATOM     28  C   UNL     1       1.766   6.742   2.701  1.00  0.00     0.433 C 
ATOM     29  F   UNL     1       1.813   8.026   3.155  1.00  0.00    -0.165 F 
ATOM     30  F   UNL     1       0.735   6.690   1.810  1.00  0.00    -0.165 F 
ATOM     31  F   UNL     1       1.356   5.993   3.771  1.00  0.00    -0.165 F 
ENDBRANCH  27  28
ENDBRANCH  20  22
ENDBRANCH  17  18
ENDBRANCH   6  17
ENDBRANCH   3   6
ENDBRANCH   1   2
BRANCH   1  32
ATOM     32  C   UNL     1       8.480   4.023   3.804  1.00  0.00     0.042 C 
BRANCH  32  33
ATOM     33  C   UNL     1       9.895   3.864   4.290  1.00  0.00     0.118 C 
BRANCH  33  34
ATOM     34  N   UNL     1      10.859   3.707   3.204  1.00  0.00    -0.352 N 
ATOM     35  C   UNL     1      11.854   4.534   2.738  1.00  0.00     0.251 C 
ATOM     36  H   UNL     1      10.784   2.853   2.718  1.00  0.00     0.163 HD
ATOM     37  O   UNL     1      12.457   4.237   1.711  1.00  0.00    -0.269 OA
BRANCH  35  38
ATOM     38  C   UNL     1      12.177   5.793   3.441  1.00  0.00     0.039 A 
ATOM     39  C   UNL     1      12.599   6.904   2.707  1.00  0.00     0.014 A 
ATOM     40  C   UNL     1      12.059   5.889   4.825  1.00  0.00     0.014 A 
ATOM     41  C   UNL     1      12.829   8.114   3.364  1.00  0.00     0.010 A 
ATOM     42  C   UNL     1      12.091   7.127   5.439  1.00  0.00     0.010 A 
ATOM     43  C   UNL     1      12.536   8.245   4.731  1.00  0.00    -0.014 A 
BRANCH  43  44
ATOM     44  C   UNL     1      12.766   9.512   5.464  1.00  0.00     0.031 A 
ATOM     45  C   UNL     1      13.694   9.530   6.653  1.00  0.00     0.074 A 
ATOM     46  C   UNL     1      12.111  10.628   5.093  1.00  0.00     0.049 A 
ATOM     47  N   UNL     1      14.017  10.527   7.436  1.00  0.00    -0.248 NA
ATOM     48  C   UNL     1      14.308   8.249   7.044  1.00  0.00     0.031 C 
ATOM     49  C   UNL     1      11.134  10.718   4.005  1.00  0.00     0.029 A 
ATOM     50  N   UNL     1      12.179  11.905   5.586  1.00  0.00    -0.354 N 
ATOM     51  C   UNL     1      14.850   9.986   8.408  1.00  0.00     0.074 A 
ATOM     52  C   UNL     1      14.900   8.562   8.183  1.00  0.00     0.031 C 
ATOM     53  C   UNL     1      10.745  11.996   3.870  1.00  0.00     0.029 A 
ATOM     54  C   UNL     1      11.412  12.803   4.886  1.00  0.00     0.049 A 
ATOM     55  H   UNL     1      12.725  12.154   6.366  1.00  0.00     0.167 HD
ATOM     56  C   UNL     1      15.555  10.621   9.374  1.00  0.00     0.037 A 
ATOM     57  C   UNL     1      11.280  14.133   5.040  1.00  0.00     0.037 A 
ATOM     58  C   UNL     1      15.524  12.043   9.576  1.00  0.00     0.049 A 
ATOM     59  C   UNL     1      12.070  14.821   6.118  1.00  0.00     0.074 A 
ATOM     60  C   UNL     1      16.227  12.803  10.492  1.00  0.00     0.029 A 
ATOM     61  N   UNL     1      14.739  12.922   8.841  1.00  0.00    -0.354 N 
ATOM     62  N   UNL     1      12.911  14.309   6.985  1.00  0.00    -0.248 NA
ATOM     63  C   UNL     1      11.902  16.275   6.228  1.00  0.00     0.031 C 
ATOM     64  C   UNL     1      15.830  14.137  10.345  1.00  0.00     0.029 A 
ATOM     65  C   UNL     1      14.927  14.216   9.296  1.00  0.00     0.049 A 
ATOM     66  H   UNL     1      14.138  12.663   8.106  1.00  0.00     0.167 HD
ATOM     67  C   UNL     1      13.400  15.382   7.720  1.00  0.00     0.074 A 
ATOM     68  C   UNL     1      12.771  16.572   7.182  1.00  0.00     0.031 C 
ATOM     69  C   UNL     1      14.291  15.386   8.743  1.00  0.00     0.037 A 
BRANCH  56  70
ATOM     70  C   UNL     1      16.416   9.769  10.266  1.00  0.00     0.057 A 
ATOM     71  C   UNL     1      17.532   9.073   9.778  1.00  0.00     0.134 A 
ATOM     72  C   UNL     1      16.115   9.623  11.626  1.00  0.00     0.134 A 
ATOM     73  F   UNL     1      17.869   9.150   8.481  1.00  0.00    -0.206 F 
ATOM     74  C   UNL     1      18.286   8.229  10.595  1.00  0.00     0.040 A 
ATOM     75  C   UNL     1      16.884   8.811  12.462  1.00  0.00     0.040 A 
ATOM     76  F   UNL     1      15.064  10.260  12.164  1.00  0.00    -0.206 F 
ATOM     77  C   UNL     1      17.965   8.100  11.944  1.00  0.00     0.006 A 
ENDBRANCH  56  70
BRANCH  57  78
ATOM     78  C   UNL     1      10.417  14.906   4.111  1.00  0.00     0.057 A 
ATOM     79  C   UNL     1      10.976  15.788   3.177  1.00  0.00     0.134 A 
ATOM     80  C   UNL     1       9.023  14.780   4.124  1.00  0.00     0.134 A 
ATOM     81  F   UNL     1      12.305  15.961   3.124  1.00  0.00    -0.206 F 
ATOM     82  C   UNL     1      10.180  16.534   2.307  1.00  0.00     0.040 A 
ATOM     83  C   UNL     1       8.216  15.500   3.240  1.00  0.00     0.040 A 
ATOM     84  F   UNL     1       8.427  13.942   4.984  1.00  0.00    -0.206 F 
ATOM     85  C   UNL     1       8.795  16.386   2.334  1.00  0.00     0.006 A 
ENDBRANCH  57  78
BRANCH  69  86
ATOM     86  C   UNL     1      14.671  16.724   9.309  1.00  0.00     0.057 A 
ATOM     87  C   UNL     1      13.772  17.503  10.048  1.00  0.00     0.134 A 
ATOM     88  C   UNL     1      15.963  17.231   9.121  1.00  0.00     0.134 A 
ATOM     89  F   UNL     1      12.516  17.079  10.257  1.00  0.00    -0.206 F 
ATOM     90  C   UNL     1      14.131  18.758  10.543  1.00  0.00     0.040 A 
ATOM     91  C   UNL     1      16.345  18.468   9.640  1.00  0.00     0.040 A 
ATOM     92  F   UNL     1      16.878  16.530   8.435  1.00  0.00    -0.206 F 
ATOM     93  C   UNL     1      15.423  19.241  10.342  1.00  0.00     0.006 A 
ENDBRANCH  69  86
ENDBRANCH  43  44
ENDBRANCH  35  38
ENDBRANCH  33  34
ENDBRANCH  32  33
ENDBRANCH   1  32
TORSDOF 16
