REMARK SMILES COc1ccc(Cl)c2c1N[C@@H](c1ccc(C(=O)NCCCNC(=O)c3ccc(-c4c5nc(c(-c6c(F)cccc6F)c6ccc([nH]6)c(-c6c(F)cccc6F)c6nc(c(-c7c(F)cccc7F)c7ccc4[nH]7)C=C6)C=C5)cc3)cc1)[C@@H]1CC=C[C@H]21
REMARK SMILES IDX 20 1 19 2 18 3 16 4 17 5 15 7 12 8 13 9 80 10 14 11 79 12
REMARK SMILES IDX 11 13 3 14 4 15 9 16 5 17 8 18 10 19 6 20 85 21 7 23 81 24
REMARK SMILES IDX 84 25 82 26 83 27 2 28 1 29 21 30 22 31 23 32 24 34 25 35
REMARK SMILES IDX 26 36 78 37 27 38 77 39 28 40 29 41 30 42 71 43 31 44 76 45
REMARK SMILES IDX 70 46 72 47 32 48 75 49 69 50 68 51 33 53 59 54 42 55 58 56
REMARK SMILES IDX 43 57 46 58 57 59 73 60 44 61 45 62 56 64 74 65 47 66 34 67
REMARK SMILES IDX 35 68 40 69 36 70 37 71 39 72 41 73 38 74 60 75 61 76 66 77
REMARK SMILES IDX 62 78 63 79 65 80 67 81 64 82 48 83 49 84 54 85 50 86 51 87
REMARK SMILES IDX 53 88 55 89 52 90
REMARK H PARENT 18 6 10 22 22 33 72 52 46 63
REMARK Flexibility Score: inf
ROOT
ATOM      1  C   UNL     1      10.246  -2.365  -0.809  1.00  0.00     0.042 C 
ENDROOT
BRANCH   1   2
ATOM      2  C   UNL     1      10.228  -0.839  -0.884  1.00  0.00     0.118 C 
BRANCH   2   3
ATOM      3  N   UNL     1       9.544  -0.395  -2.083  1.00  0.00    -0.352 N 
ATOM      4  C   UNL     1       8.256   0.015  -2.307  1.00  0.00     0.251 C 
ATOM      5  O   UNL     1       7.957   0.352  -3.452  1.00  0.00    -0.269 OA
ATOM      6  H   UNL     1      10.112  -0.387  -2.888  1.00  0.00     0.163 HD
BRANCH   4   7
ATOM      7  C   UNL     1       7.240   0.129  -1.226  1.00  0.00     0.039 A 
ATOM      8  C   UNL     1       5.291   0.565   0.788  1.00  0.00    -0.025 A 
ATOM      9  C   UNL     1       5.319   1.354  -0.372  1.00  0.00     0.006 A 
ATOM     10  C   UNL     1       6.218  -0.482   0.888  1.00  0.00     0.006 A 
ATOM     11  C   UNL     1       6.266   1.124  -1.375  1.00  0.00     0.014 A 
ATOM     12  C   UNL     1       7.179  -0.696  -0.103  1.00  0.00     0.014 A 
BRANCH   8  13
ATOM     13  C   UNL     1       4.292   0.782   1.919  1.00  0.00     0.114 C 
ATOM     14  C   UNL     1       0.708   1.748   1.739  1.00  0.00     0.142 A 
ATOM     15  C   UNL     1      -0.345   2.166   2.549  1.00  0.00     0.050 A 
ATOM     16  C   UNL     1       2.025   1.673   2.233  1.00  0.00     0.083 A 
ATOM     17  C   UNL     1      -0.099   2.478   3.882  1.00  0.00     0.025 A 
ATOM     18  C   UNL     1       2.276   1.973   3.584  1.00  0.00     0.005 A 
ATOM     19  N   UNL     1       3.063   1.332   1.382  1.00  0.00    -0.375 N 
ATOM     20  C   UNL     1       1.198   2.382   4.397  1.00  0.00     0.047 A 
ATOM     21  C   UNL     1       3.691   1.911   4.110  1.00  0.00     0.051 C 
ATOM     22  H   UNL     1       2.967   1.465   0.412  1.00  0.00     0.161 HD
ATOM     23  Cl  UNL     1       1.415   2.825   6.057  1.00  0.00    -0.084 Cl
ATOM     24  C   UNL     1       4.804   1.710   3.045  1.00  0.00     0.031 C 
ATOM     25  C   UNL     1       3.968   0.755   5.042  1.00  0.00    -0.023 C 
ATOM     26  C   UNL     1       5.955   1.105   3.872  1.00  0.00     0.034 C 
ATOM     27  C   UNL     1       5.226   0.317   4.913  1.00  0.00    -0.030 C 
BRANCH  14  28
ATOM     28  O   UNL     1       0.416   1.481   0.422  1.00  0.00    -0.495 OA
ATOM     29  C   UNL     1       0.471   0.079   0.147  1.00  0.00     0.278 C 
ENDBRANCH  14  28
ENDBRANCH   8  13
ENDBRANCH   4   7
ENDBRANCH   2   3
ENDBRANCH   1   2
BRANCH   1  30
ATOM     30  C   UNL     1      11.192  -2.991  -1.825  1.00  0.00     0.118 C 
BRANCH  30  31
ATOM     31  N   UNL     1      12.584  -2.725  -1.493  1.00  0.00    -0.352 N 
ATOM     32  C   UNL     1      13.540  -3.592  -1.028  1.00  0.00     0.251 C 
ATOM     33  H   UNL     1      12.879  -1.794  -1.618  1.00  0.00     0.163 HD
ATOM     34  O   UNL     1      14.573  -3.167  -0.528  1.00  0.00    -0.269 OA
BRANCH  32  35
ATOM     35  C   UNL     1      13.313  -5.045  -1.141  1.00  0.00     0.039 A 
ATOM     36  C   UNL     1      13.598  -5.870  -0.050  1.00  0.00     0.014 A 
ATOM     37  C   UNL     1      12.851  -5.590  -2.343  1.00  0.00     0.014 A 
ATOM     38  C   UNL     1      13.385  -7.245  -0.154  1.00  0.00     0.010 A 
ATOM     39  C   UNL     1      12.576  -6.948  -2.424  1.00  0.00     0.010 A 
ATOM     40  C   UNL     1      12.864  -7.788  -1.338  1.00  0.00    -0.014 A 
BRANCH  40  41
ATOM     41  C   UNL     1      12.691  -9.249  -1.502  1.00  0.00     0.031 A 
ATOM     42  C   UNL     1      13.588  -9.988  -2.453  1.00  0.00     0.074 A 
ATOM     43  C   UNL     1      11.710  -9.891  -0.843  1.00  0.00     0.049 A 
ATOM     44  N   UNL     1      13.570 -11.249  -2.800  1.00  0.00    -0.248 NA
ATOM     45  C   UNL     1      14.633  -9.194  -3.121  1.00  0.00     0.031 C 
ATOM     46  C   UNL     1      10.768  -9.271   0.090  1.00  0.00     0.029 A 
ATOM     47  N   UNL     1      11.336 -11.209  -0.871  1.00  0.00    -0.354 N 
ATOM     48  C   UNL     1      14.597 -11.398  -3.723  1.00  0.00     0.074 A 
ATOM     49  C   UNL     1      15.173 -10.088  -3.934  1.00  0.00     0.031 C 
ATOM     50  C   UNL     1       9.931 -10.214   0.555  1.00  0.00     0.029 A 
ATOM     51  C   UNL     1      10.256 -11.491  -0.072  1.00  0.00     0.049 A 
ATOM     52  H   UNL     1      11.799 -11.889  -1.412  1.00  0.00     0.167 HD
ATOM     53  C   UNL     1      15.039 -12.529  -4.322  1.00  0.00     0.037 A 
ATOM     54  C   UNL     1       9.601 -12.652   0.119  1.00  0.00     0.037 A 
ATOM     55  C   UNL     1      14.456 -13.827  -4.113  1.00  0.00     0.049 A 
ATOM     56  C   UNL     1      10.070 -13.882  -0.612  1.00  0.00     0.074 A 
ATOM     57  C   UNL     1      14.840 -15.043  -4.647  1.00  0.00     0.029 A 
ATOM     58  N   UNL     1      13.352 -14.072  -3.309  1.00  0.00    -0.354 N 
ATOM     59  N   UNL     1      11.080 -14.025  -1.436  1.00  0.00    -0.248 NA
ATOM     60  C   UNL     1       9.306 -15.116  -0.380  1.00  0.00     0.031 C 
ATOM     61  C   UNL     1      13.937 -16.017  -4.207  1.00  0.00     0.029 A 
ATOM     62  C   UNL     1      13.024 -15.417  -3.353  1.00  0.00     0.049 A 
ATOM     63  H   UNL     1      12.873 -13.391  -2.784  1.00  0.00     0.167 HD
ATOM     64  C   UNL     1      11.094 -15.368  -1.794  1.00  0.00     0.074 A 
ATOM     65  C   UNL     1      10.001 -15.998  -1.082  1.00  0.00     0.031 C 
ATOM     66  C   UNL     1      11.932 -16.023  -2.634  1.00  0.00     0.037 A 
BRANCH  53  67
ATOM     67  C   UNL     1      16.202 -12.395  -5.263  1.00  0.00     0.057 A 
ATOM     68  C   UNL     1      16.037 -12.588  -6.639  1.00  0.00     0.134 A 
ATOM     69  C   UNL     1      17.487 -12.069  -4.806  1.00  0.00     0.134 A 
ATOM     70  F   UNL     1      14.836 -12.905  -7.145  1.00  0.00    -0.206 F 
ATOM     71  C   UNL     1      17.106 -12.455  -7.528  1.00  0.00     0.040 A 
ATOM     72  C   UNL     1      18.556 -11.903  -5.688  1.00  0.00     0.040 A 
ATOM     73  F   UNL     1      17.711 -11.854  -3.500  1.00  0.00    -0.206 F 
ATOM     74  C   UNL     1      18.367 -12.101  -7.053  1.00  0.00     0.006 A 
ENDBRANCH  53  67
BRANCH  54  75
ATOM     75  C   UNL     1       8.442 -12.721   1.044  1.00  0.00     0.057 A 
ATOM     76  C   UNL     1       7.224 -12.101   0.742  1.00  0.00     0.134 A 
ATOM     77  C   UNL     1       8.514 -13.452   2.236  1.00  0.00     0.134 A 
ATOM     78  F   UNL     1       7.090 -11.379  -0.380  1.00  0.00    -0.206 F 
ATOM     79  C   UNL     1       6.118 -12.211   1.588  1.00  0.00     0.040 A 
ATOM     80  C   UNL     1       7.409 -13.593   3.077  1.00  0.00     0.040 A 
ATOM     81  F   UNL     1       9.649 -14.085   2.571  1.00  0.00    -0.206 F 
ATOM     82  C   UNL     1       6.206 -12.969   2.753  1.00  0.00     0.006 A 
ENDBRANCH  54  75
BRANCH  66  83
ATOM     83  C   UNL     1      11.720 -17.502  -2.794  1.00  0.00     0.057 A 
ATOM     84  C   UNL     1      12.650 -18.413  -2.276  1.00  0.00     0.134 A 
ATOM     85  C   UNL     1      10.612 -18.024  -3.473  1.00  0.00     0.134 A 
ATOM     86  F   UNL     1      13.739 -17.980  -1.624  1.00  0.00    -0.206 F 
ATOM     87  C   UNL     1      12.484 -19.790  -2.428  1.00  0.00     0.040 A 
ATOM     88  C   UNL     1      10.419 -19.400  -3.602  1.00  0.00     0.040 A 
ATOM     89  F   UNL     1       9.677 -17.206  -3.980  1.00  0.00    -0.206 F 
ATOM     90  C   UNL     1      11.361 -20.287  -3.084  1.00  0.00     0.006 A 
ENDBRANCH  66  83
ENDBRANCH  40  41
ENDBRANCH  32  35
ENDBRANCH  30  31
ENDBRANCH   1  30
TORSDOF 12
