REMARK SMILES C[C@H]1[C@H](C(=O)NCCCNC(=O)c2ccc(-c3c4nc(c(-c5c(F)cccc5F)c5ccc([nH]5)c(-c5c(F)cccc5F)c5nc(c(-c6c(F)cccc6F)c6ccc3[nH]6)C=C5)C=C4)cc2)CC[N@@H+]1Cc1nnnn1-c1ccccc1
REMARK SMILES IDX 7 1 6 2 4 3 5 4 3 6 1 7 2 8 69 9 67 10 68 11 70 13 71 14
REMARK SMILES IDX 72 15 75 16 73 17 74 18 76 19 77 20 81 21 78 22 80 23 79 24
REMARK SMILES IDX 8 25 9 26 10 27 11 28 12 30 13 31 14 32 66 33 15 34 65 35
REMARK SMILES IDX 16 36 17 37 18 38 59 39 19 40 64 41 58 42 60 43 20 44 63 45
REMARK SMILES IDX 57 46 56 47 21 49 47 50 30 51 46 52 31 53 34 54 45 55 61 56
REMARK SMILES IDX 32 57 33 58 44 60 62 61 35 62 22 63 23 64 28 65 24 66 25 67
REMARK SMILES IDX 27 68 29 69 26 70 48 71 49 72 54 73 50 74 51 75 53 76 55 77
REMARK SMILES IDX 52 78 36 79 37 80 42 81 38 82 39 83 41 84 43 85 40 86
REMARK H PARENT 6 5 69 12 10 29 60 48 34 59
REMARK Flexibility Score: inf
ROOT
ATOM      1  C   UNL     1      -0.402   1.663   3.050  1.00  0.00     0.117 C 
ENDROOT
BRANCH   1   2
ATOM      2  N   UNL     1       0.302   2.594   2.205  1.00  0.00    -0.356 N 
ATOM      3  C   UNL     1       0.595   2.511   0.883  1.00  0.00     0.229 C 
ATOM      4  O   UNL     1       1.061   3.526   0.355  1.00  0.00    -0.275 OA
ATOM      5  H   UNL     1       0.617   3.411   2.653  1.00  0.00     0.163 HD
BRANCH   3   6
ATOM      6  C   UNL     1       0.338   1.269   0.036  1.00  0.00     0.142 C 
ATOM      7  C   UNL     1       2.103  -0.499  -0.176  1.00  0.00     0.076 C 
ATOM      8  C   UNL     1       0.825  -0.093   0.578  1.00  0.00     0.194 C 
ATOM      9  N   UNL     1      -0.233  -1.065   0.240  1.00  0.00    -0.326 N 
ATOM     10  C   UNL     1      -1.110   1.028  -0.367  1.00  0.00     0.081 C 
ATOM     11  C   UNL     1      -1.083  -0.441  -0.760  1.00  0.00     0.263 C 
ATOM     12  H   UNL     1       0.216  -1.890  -0.160  1.00  0.00     0.348 HD
BRANCH   9  13
ATOM     13  C   UNL     1      -0.849  -1.894   1.293  1.00  0.00     0.343 C 
BRANCH  13  14
ATOM     14  C   UNL     1      -1.881  -1.325   2.225  1.00  0.00     0.210 A 
ATOM     15  N   UNL     1      -1.749  -1.163   3.531  1.00  0.00    -0.107 NA
ATOM     16  N   UNL     1      -3.137  -0.845   1.896  1.00  0.00    -0.192 N 
ATOM     17  N   UNL     1      -2.807  -0.392   3.939  1.00  0.00    -0.023 NA
ATOM     18  N   UNL     1      -3.587  -0.085   2.917  1.00  0.00    -0.040 NA
BRANCH  16  19
ATOM     19  C   UNL     1      -3.935  -1.092   0.775  1.00  0.00     0.069 A 
ATOM     20  C   UNL     1      -4.538  -0.020   0.108  1.00  0.00     0.028 A 
ATOM     21  C   UNL     1      -4.066  -2.404   0.311  1.00  0.00     0.028 A 
ATOM     22  C   UNL     1      -5.192  -0.262  -1.098  1.00  0.00     0.002 A 
ATOM     23  C   UNL     1      -4.772  -2.640  -0.863  1.00  0.00     0.002 A 
ATOM     24  C   UNL     1      -5.308  -1.569  -1.581  1.00  0.00     0.000 A 
ENDBRANCH  16  19
ENDBRANCH  13  14
ENDBRANCH   9  13
ENDBRANCH   3   6
ENDBRANCH   1   2
BRANCH   1  25
ATOM     25  C   UNL     1       0.519   0.919   4.010  1.00  0.00     0.042 C 
BRANCH  25  26
ATOM     26  C   UNL     1       0.281   1.260   5.472  1.00  0.00     0.118 C 
BRANCH  26  27
ATOM     27  N   UNL     1      -1.086   1.058   5.936  1.00  0.00    -0.352 N 
ATOM     28  C   UNL     1      -1.581   0.549   7.115  1.00  0.00     0.251 C 
ATOM     29  H   UNL     1      -1.777   1.335   5.292  1.00  0.00     0.163 HD
ATOM     30  O   UNL     1      -2.787   0.468   7.287  1.00  0.00    -0.269 OA
BRANCH  28  31
ATOM     31  C   UNL     1      -0.661   0.042   8.157  1.00  0.00     0.039 A 
ATOM     32  C   UNL     1      -1.029  -1.110   8.861  1.00  0.00     0.014 A 
ATOM     33  C   UNL     1       0.557   0.661   8.427  1.00  0.00     0.014 A 
ATOM     34  C   UNL     1      -0.140  -1.679   9.773  1.00  0.00     0.010 A 
ATOM     35  C   UNL     1       1.490   0.025   9.234  1.00  0.00     0.010 A 
ATOM     36  C   UNL     1       1.147  -1.144   9.926  1.00  0.00    -0.014 A 
BRANCH  36  37
ATOM     37  C   UNL     1       2.151  -1.774  10.817  1.00  0.00     0.031 A 
ATOM     38  C   UNL     1       2.741  -0.986  11.955  1.00  0.00     0.074 A 
ATOM     39  C   UNL     1       2.590  -3.019  10.551  1.00  0.00     0.049 A 
ATOM     40  N   UNL     1       3.703  -1.315  12.779  1.00  0.00    -0.248 NA
ATOM     41  C   UNL     1       2.209   0.370  12.168  1.00  0.00     0.031 C 
ATOM     42  C   UNL     1       2.143  -3.857   9.435  1.00  0.00     0.029 A 
ATOM     43  N   UNL     1       3.521  -3.795  11.193  1.00  0.00    -0.354 N 
ATOM     44  C   UNL     1       3.902  -0.202  13.586  1.00  0.00     0.074 A 
ATOM     45  C   UNL     1       3.017   0.835  13.107  1.00  0.00     0.031 C 
ATOM     46  C   UNL     1       2.777  -5.039   9.490  1.00  0.00     0.029 A 
ATOM     47  C   UNL     1       3.705  -5.027  10.615  1.00  0.00     0.049 A 
ATOM     48  H   UNL     1       4.012  -3.497  11.993  1.00  0.00     0.167 HD
ATOM     49  C   UNL     1       4.723  -0.066  14.654  1.00  0.00     0.037 A 
ATOM     50  C   UNL     1       4.534  -6.032  10.953  1.00  0.00     0.037 A 
ATOM     51  C   UNL     1       5.577  -1.115  15.144  1.00  0.00     0.049 A 
ATOM     52  C   UNL     1       5.425  -5.866  12.152  1.00  0.00     0.074 A 
ATOM     53  C   UNL     1       6.407  -1.107  16.251  1.00  0.00     0.029 A 
ATOM     54  N   UNL     1       5.707  -2.365  14.555  1.00  0.00    -0.354 N 
ATOM     55  N   UNL     1       5.556  -4.832  12.947  1.00  0.00    -0.248 NA
ATOM     56  C   UNL     1       6.274  -7.010  12.507  1.00  0.00     0.031 C 
ATOM     57  C   UNL     1       7.071  -2.337  16.307  1.00  0.00     0.029 A 
ATOM     58  C   UNL     1       6.616  -3.130  15.265  1.00  0.00     0.049 A 
ATOM     59  H   UNL     1       5.224  -2.663  13.750  1.00  0.00     0.167 HD
ATOM     60  C   UNL     1       6.485  -5.207  13.909  1.00  0.00     0.074 A 
ATOM     61  C   UNL     1       6.865  -6.572  13.609  1.00  0.00     0.031 C 
ATOM     62  C   UNL     1       6.981  -4.488  14.947  1.00  0.00     0.037 A 
BRANCH  49  63
ATOM     63  C   UNL     1       4.722   1.259  15.362  1.00  0.00     0.057 A 
ATOM     64  C   UNL     1       3.608   1.710  16.085  1.00  0.00     0.134 A 
ATOM     65  C   UNL     1       5.848   2.091  15.331  1.00  0.00     0.134 A 
ATOM     66  F   UNL     1       2.490   0.970  16.144  1.00  0.00    -0.206 F 
ATOM     67  C   UNL     1       3.601   2.953  16.721  1.00  0.00     0.040 A 
ATOM     68  C   UNL     1       5.865   3.322  15.990  1.00  0.00     0.040 A 
ATOM     69  F   UNL     1       6.950   1.722  14.662  1.00  0.00    -0.206 F 
ATOM     70  C   UNL     1       4.736   3.760  16.679  1.00  0.00     0.006 A 
ENDBRANCH  49  63
BRANCH  50  71
ATOM     71  C   UNL     1       4.539  -7.290  10.162  1.00  0.00     0.057 A 
ATOM     72  C   UNL     1       4.038  -8.482  10.698  1.00  0.00     0.134 A 
ATOM     73  C   UNL     1       5.037  -7.331   8.855  1.00  0.00     0.134 A 
ATOM     74  F   UNL     1       3.561  -8.510  11.952  1.00  0.00    -0.206 F 
ATOM     75  C   UNL     1       4.052  -9.674   9.973  1.00  0.00     0.040 A 
ATOM     76  C   UNL     1       5.032  -8.510   8.107  1.00  0.00     0.040 A 
ATOM     77  F   UNL     1       5.520  -6.221   8.278  1.00  0.00    -0.206 F 
ATOM     78  C   UNL     1       4.546  -9.688   8.670  1.00  0.00     0.006 A 
ENDBRANCH  50  71
BRANCH  62  79
ATOM     79  C   UNL     1       7.966  -5.178  15.844  1.00  0.00     0.057 A 
ATOM     80  C   UNL     1       9.266  -5.482  15.421  1.00  0.00     0.134 A 
ATOM     81  C   UNL     1       7.614  -5.522  17.155  1.00  0.00     0.134 A 
ATOM     82  F   UNL     1       9.661  -5.190  14.173  1.00  0.00    -0.206 F 
ATOM     83  C   UNL     1      10.172  -6.132  16.261  1.00  0.00     0.040 A 
ATOM     84  C   UNL     1       8.521  -6.144  18.014  1.00  0.00     0.040 A 
ATOM     85  F   UNL     1       6.388  -5.249  17.627  1.00  0.00    -0.206 F 
ATOM     86  C   UNL     1       9.801  -6.459  17.564  1.00  0.00     0.006 A 
ENDBRANCH  62  79
ENDBRANCH  36  37
ENDBRANCH  28  31
ENDBRANCH  26  27
ENDBRANCH  25  26
ENDBRANCH   1  25
TORSDOF 13
