REMARK SMILES CC1(C)CCC[C@H]1NS(=O)(=O)c1cccc(C(=O)NCCCNC(=O)c2ccc(-c3c4nc(c(-c5c(F)cccc5F)c5ccc([nH]5)c(-c5c(F)cccc5F)c5nc(c(-c6c(F)cccc6F)c6ccc3[nH]6)C=C5)C=C4)cc2)c1
REMARK SMILES IDX 20 1 19 2 17 3 18 4 16 6 12 7 13 8 80 9 14 10 15 11 9 12
REMARK SMILES IDX 10 13 11 14 8 15 7 17 1 18 2 19 3 20 4 21 5 22 6 23 21 24
REMARK SMILES IDX 22 25 23 26 24 27 25 29 26 30 27 31 79 32 28 33 78 34 29 35
REMARK SMILES IDX 30 36 31 37 72 38 32 39 77 40 71 41 73 42 33 43 76 44 70 45
REMARK SMILES IDX 69 46 34 48 60 49 43 50 59 51 44 52 47 53 58 54 74 55 45 56
REMARK SMILES IDX 46 57 57 59 75 60 48 61 35 62 36 63 41 64 37 65 38 66 40 67
REMARK SMILES IDX 42 68 39 69 61 70 62 71 67 72 63 73 64 74 66 75 68 76 65 77
REMARK SMILES IDX 49 78 50 79 55 80 51 81 52 82 54 83 56 84 53 85
REMARK H PARENT 19 5 8 16 23 28 73 47 47 58
REMARK Flexibility Score: inf
ROOT
ATOM      1  C   UNL     1      -3.037   6.904   2.778  1.00  0.00     0.118 C 
ENDROOT
BRANCH   1   2
ATOM      2  N   UNL     1      -2.788   7.824   1.667  1.00  0.00    -0.352 N 
ATOM      3  C   UNL     1      -2.003   7.733   0.535  1.00  0.00     0.251 C 
ATOM      4  O   UNL     1      -1.944   8.694  -0.229  1.00  0.00    -0.269 OA
ATOM      5  H   UNL     1      -3.276   8.675   1.742  1.00  0.00     0.163 HD
BRANCH   3   6
ATOM      6  C   UNL     1      -1.176   6.534   0.255  1.00  0.00     0.041 A 
ATOM      7  C   UNL     1      -0.682   4.233   0.721  1.00  0.00     0.083 A 
ATOM      8  C   UNL     1       0.611   4.372   0.223  1.00  0.00     0.022 A 
ATOM      9  C   UNL     1      -1.610   5.266   0.604  1.00  0.00     0.035 A 
ATOM     10  C   UNL     1       0.980   5.594  -0.348  1.00  0.00     0.002 A 
ATOM     11  C   UNL     1       0.103   6.686  -0.294  1.00  0.00     0.014 A 
BRANCH   7  12
ATOM     12  S   UNL     1      -1.193   2.873   1.727  1.00  0.00     0.240 S 
ATOM     13  O   UNL     1      -2.580   2.608   1.419  1.00  0.00    -0.207 OA
ATOM     14  O   UNL     1      -0.780   3.195   3.076  1.00  0.00    -0.207 OA
BRANCH  12  15
ATOM     15  N   UNL     1      -0.270   1.563   1.274  1.00  0.00    -0.208 NA
ATOM     16  H   UNL     1       0.701   1.869   1.327  1.00  0.00     0.141 HD
BRANCH  15  17
ATOM     17  C   UNL     1      -0.417   0.905  -0.027  1.00  0.00     0.075 C 
ATOM     18  C   UNL     1       1.973   0.012   0.561  1.00  0.00     0.013 C 
ATOM     19  C   UNL     1       0.654  -0.210  -0.197  1.00  0.00    -0.019 C 
ATOM     20  C   UNL     1       0.995  -0.372  -1.692  1.00  0.00     0.013 C 
ATOM     21  C   UNL     1      -0.071  -1.456   0.339  1.00  0.00     0.008 C 
ATOM     22  C   UNL     1      -1.494  -1.313  -0.172  1.00  0.00     0.002 C 
ATOM     23  C   UNL     1      -1.771   0.185  -0.154  1.00  0.00     0.020 C 
ENDBRANCH  15  17
ENDBRANCH  12  15
ENDBRANCH   7  12
ENDBRANCH   3   6
ENDBRANCH   1   2
BRANCH   1  24
ATOM     24  C   UNL     1      -2.589   7.418   4.136  1.00  0.00     0.042 C 
BRANCH  24  25
ATOM     25  C   UNL     1      -3.348   8.634   4.636  1.00  0.00     0.118 C 
BRANCH  25  26
ATOM     26  N   UNL     1      -4.771   8.382   4.827  1.00  0.00    -0.352 N 
ATOM     27  C   UNL     1      -5.532   8.217   5.958  1.00  0.00     0.251 C 
ATOM     28  H   UNL     1      -5.282   8.319   3.988  1.00  0.00     0.163 HD
ATOM     29  O   UNL     1      -6.698   7.846   5.839  1.00  0.00    -0.269 OA
BRANCH  27  30
ATOM     30  C   UNL     1      -4.983   8.452   7.314  1.00  0.00     0.039 A 
ATOM     31  C   UNL     1      -5.428   7.644   8.368  1.00  0.00     0.014 A 
ATOM     32  C   UNL     1      -4.090   9.490   7.580  1.00  0.00     0.014 A 
ATOM     33  C   UNL     1      -4.927   7.835   9.660  1.00  0.00     0.010 A 
ATOM     34  C   UNL     1      -3.515   9.614   8.842  1.00  0.00     0.010 A 
ATOM     35  C   UNL     1      -3.936   8.798   9.901  1.00  0.00    -0.014 A 
BRANCH  35  36
ATOM     36  C   UNL     1      -3.345   8.992  11.250  1.00  0.00     0.031 A 
ATOM     37  C   UNL     1      -3.485  10.318  11.952  1.00  0.00     0.074 A 
ATOM     38  C   UNL     1      -2.613   8.010  11.811  1.00  0.00     0.049 A 
ATOM     39  N   UNL     1      -2.941  10.724  13.072  1.00  0.00    -0.248 NA
ATOM     40  C   UNL     1      -4.316  11.334  11.287  1.00  0.00     0.031 C 
ATOM     41  C   UNL     1      -2.353   6.699  11.214  1.00  0.00     0.029 A 
ATOM     42  N   UNL     1      -1.940   7.970  13.006  1.00  0.00    -0.354 N 
ATOM     43  C   UNL     1      -3.333  12.049  13.223  1.00  0.00     0.074 A 
ATOM     44  C   UNL     1      -4.124  12.391  12.062  1.00  0.00     0.031 C 
ATOM     45  C   UNL     1      -1.595   5.976  12.054  1.00  0.00     0.029 A 
ATOM     46  C   UNL     1      -1.287   6.782  13.230  1.00  0.00     0.049 A 
ATOM     47  H   UNL     1      -1.926   8.721  13.642  1.00  0.00     0.167 HD
ATOM     48  C   UNL     1      -3.075  12.898  14.246  1.00  0.00     0.037 A 
ATOM     49  C   UNL     1      -0.521   6.390  14.265  1.00  0.00     0.037 A 
ATOM     50  C   UNL     1      -2.336  12.541  15.428  1.00  0.00     0.049 A 
ATOM     51  C   UNL     1      -0.292   7.332  15.413  1.00  0.00     0.074 A 
ATOM     52  C   UNL     1      -2.087  13.306  16.554  1.00  0.00     0.029 A 
ATOM     53  N   UNL     1      -1.738  11.308  15.641  1.00  0.00    -0.354 N 
ATOM     54  N   UNL     1      -0.714   8.563  15.567  1.00  0.00    -0.248 NA
ATOM     55  C   UNL     1       0.513   6.827  16.534  1.00  0.00     0.031 C 
ATOM     56  C   UNL     1      -1.315  12.544  17.439  1.00  0.00     0.029 A 
ATOM     57  C   UNL     1      -1.113  11.294  16.877  1.00  0.00     0.049 A 
ATOM     58  H   UNL     1      -1.755  10.555  15.007  1.00  0.00     0.167 HD
ATOM     59  C   UNL     1      -0.246   8.972  16.808  1.00  0.00     0.074 A 
ATOM     60  C   UNL     1       0.480   7.853  17.372  1.00  0.00     0.031 C 
ATOM     61  C   UNL     1      -0.404  10.168  17.426  1.00  0.00     0.037 A 
BRANCH  48  62
ATOM     62  C   UNL     1      -3.608  14.296  14.135  1.00  0.00     0.057 A 
ATOM     63  C   UNL     1      -4.976  14.576  14.256  1.00  0.00     0.134 A 
ATOM     64  C   UNL     1      -2.742  15.377  13.928  1.00  0.00     0.134 A 
ATOM     65  F   UNL     1      -5.859  13.584  14.441  1.00  0.00    -0.206 F 
ATOM     66  C   UNL     1      -5.466  15.879  14.147  1.00  0.00     0.040 A 
ATOM     67  C   UNL     1      -3.218  16.686  13.844  1.00  0.00     0.040 A 
ATOM     68  F   UNL     1      -1.421  15.179  13.809  1.00  0.00    -0.206 F 
ATOM     69  C   UNL     1      -4.585  16.939  13.946  1.00  0.00     0.006 A 
ENDBRANCH  48  62
BRANCH  49  70
ATOM     70  C   UNL     1       0.058   5.024  14.280  1.00  0.00     0.057 A 
ATOM     71  C   UNL     1      -0.449   4.039  15.134  1.00  0.00     0.134 A 
ATOM     72  C   UNL     1       1.124   4.671  13.444  1.00  0.00     0.134 A 
ATOM     73  F   UNL     1      -1.457   4.325  15.971  1.00  0.00    -0.206 F 
ATOM     74  C   UNL     1       0.093   2.753  15.169  1.00  0.00     0.040 A 
ATOM     75  C   UNL     1       1.661   3.383  13.453  1.00  0.00     0.040 A 
ATOM     76  F   UNL     1       1.648   5.570  12.598  1.00  0.00    -0.206 F 
ATOM     77  C   UNL     1       1.149   2.421  14.322  1.00  0.00     0.006 A 
ENDBRANCH  49  70
BRANCH  61  78
ATOM     78  C   UNL     1       0.191  10.315  18.793  1.00  0.00     0.057 A 
ATOM     79  C   UNL     1       1.570  10.468  18.983  1.00  0.00     0.134 A 
ATOM     80  C   UNL     1      -0.629  10.338  19.928  1.00  0.00     0.134 A 
ATOM     81  F   UNL     1       2.408  10.441  17.936  1.00  0.00    -0.206 F 
ATOM     82  C   UNL     1       2.115  10.620  20.259  1.00  0.00     0.040 A 
ATOM     83  C   UNL     1      -0.097  10.510  21.206  1.00  0.00     0.040 A 
ATOM     84  F   UNL     1      -1.958  10.203  19.811  1.00  0.00    -0.206 F 
ATOM     85  C   UNL     1       1.279  10.647  21.374  1.00  0.00     0.006 A 
ENDBRANCH  61  78
ENDBRANCH  35  36
ENDBRANCH  27  30
ENDBRANCH  25  26
ENDBRANCH  24  25
ENDBRANCH   1  24
TORSDOF 13
