REMARK SMILES CC[C@](C)(NS(=O)(=O)c1ccc(OC)c(F)c1)C(=O)NCCCNC(=O)c1ccc(-c2c3nc(c(-c4c(F)cccc4F)c4ccc([nH]4)c(-c4c(F)cccc4F)c4nc(c(-c5c(F)cccc5F)c5ccc2[nH]5)C=C4)C=C3)cc1
REMARK SMILES IDX 21 1 20 2 18 3 19 4 3 6 4 7 2 8 1 9 5 10 6 12 7 13 8 14 9 15
REMARK SMILES IDX 10 16 17 17 11 18 15 19 12 20 16 21 13 22 14 23 22 24 23 25
REMARK SMILES IDX 24 26 25 27 26 29 27 30 28 31 80 32 29 33 79 34 30 35 31 36
REMARK SMILES IDX 32 37 73 38 33 39 78 40 72 41 74 42 34 43 77 44 71 45 70 46
REMARK SMILES IDX 35 48 61 49 44 50 60 51 45 52 48 53 59 54 75 55 46 56 47 57
REMARK SMILES IDX 58 59 76 60 49 61 36 62 37 63 42 64 38 65 39 66 41 67 43 68
REMARK SMILES IDX 40 69 62 70 63 71 68 72 64 73 65 74 67 75 69 76 66 77 50 78
REMARK SMILES IDX 51 79 56 80 52 81 53 82 55 83 57 84 54 85
REMARK H PARENT 20 5 5 11 24 28 74 47 48 58
REMARK Flexibility Score: inf
ROOT
ATOM      1  C   UNL     1       1.997  -1.196   5.221  1.00  0.00     0.117 C 
ENDROOT
BRANCH   1   2
ATOM      2  N   UNL     1       2.693  -1.046   3.950  1.00  0.00    -0.354 N 
ATOM      3  C   UNL     1       2.276  -0.793   2.677  1.00  0.00     0.241 C 
ATOM      4  O   UNL     1       3.075  -0.096   2.031  1.00  0.00    -0.273 OA
ATOM      5  H   UNL     1       3.670  -1.150   4.027  1.00  0.00     0.163 HD
BRANCH   3   6
ATOM      6  C   UNL     1       1.020  -1.392   1.970  1.00  0.00     0.108 C 
ATOM      7  C   UNL     1       0.983  -0.758   0.537  1.00  0.00     0.040 C 
BRANCH   6   8
ATOM      8  C   UNL     1      -0.290  -1.065   2.737  1.00  0.00     0.030 C 
ATOM      9  C   UNL     1      -1.367  -0.255   2.010  1.00  0.00     0.006 C 
ENDBRANCH   6   8
BRANCH   6  10
ATOM     10  N   UNL     1       1.116  -2.839   1.608  1.00  0.00    -0.196 NA
ATOM     11  H   UNL     1       1.712  -2.849   0.780  1.00  0.00     0.142 HD
BRANCH  10  12
ATOM     12  S   UNL     1       1.643  -4.128   2.499  1.00  0.00     0.241 S 
ATOM     13  O   UNL     1       1.268  -3.910   3.876  1.00  0.00    -0.207 OA
ATOM     14  O   UNL     1       1.146  -5.276   1.776  1.00  0.00    -0.207 OA
BRANCH  12  15
ATOM     15  C   UNL     1       3.415  -4.252   2.420  1.00  0.00     0.085 A 
ATOM     16  C   UNL     1       4.239  -3.195   2.052  1.00  0.00     0.026 A 
ATOM     17  C   UNL     1       4.000  -5.465   2.802  1.00  0.00     0.065 A 
ATOM     18  C   UNL     1       5.621  -3.280   2.244  1.00  0.00     0.051 A 
ATOM     19  C   UNL     1       5.389  -5.567   2.919  1.00  0.00     0.166 A 
ATOM     20  C   UNL     1       6.212  -4.461   2.694  1.00  0.00     0.154 A 
ATOM     21  F   UNL     1       5.897  -6.747   3.300  1.00  0.00    -0.203 F 
BRANCH  20  22
ATOM     22  O   UNL     1       7.561  -4.367   2.883  1.00  0.00    -0.494 OA
ATOM     23  C   UNL     1       8.271  -5.562   3.181  1.00  0.00     0.278 C 
ENDBRANCH  20  22
ENDBRANCH  12  15
ENDBRANCH  10  12
ENDBRANCH   6  10
ENDBRANCH   3   6
ENDBRANCH   1   2
BRANCH   1  24
ATOM     24  C   UNL     1       2.417  -2.346   6.151  1.00  0.00     0.042 C 
BRANCH  24  25
ATOM     25  C   UNL     1       3.814  -2.948   6.006  1.00  0.00     0.118 C 
BRANCH  25  26
ATOM     26  N   UNL     1       4.782  -2.328   6.894  1.00  0.00    -0.352 N 
ATOM     27  C   UNL     1       5.653  -2.903   7.789  1.00  0.00     0.251 C 
ATOM     28  H   UNL     1       4.821  -1.345   6.848  1.00  0.00     0.163 HD
ATOM     29  O   UNL     1       6.277  -2.178   8.562  1.00  0.00    -0.269 OA
BRANCH  27  30
ATOM     30  C   UNL     1       5.854  -4.373   7.869  1.00  0.00     0.039 A 
ATOM     31  C   UNL     1       5.888  -4.967   9.135  1.00  0.00     0.014 A 
ATOM     32  C   UNL     1       6.119  -5.157   6.741  1.00  0.00     0.014 A 
ATOM     33  C   UNL     1       6.154  -6.336   9.271  1.00  0.00     0.010 A 
ATOM     34  C   UNL     1       6.359  -6.536   6.876  1.00  0.00     0.010 A 
ATOM     35  C   UNL     1       6.383  -7.141   8.143  1.00  0.00    -0.014 A 
BRANCH  35  36
ATOM     36  C   UNL     1       6.598  -8.608   8.309  1.00  0.00     0.031 A 
ATOM     37  C   UNL     1       7.954  -9.238   8.135  1.00  0.00     0.074 A 
ATOM     38  C   UNL     1       5.555  -9.392   8.648  1.00  0.00     0.049 A 
ATOM     39  N   UNL     1       8.315 -10.484   8.333  1.00  0.00    -0.248 NA
ATOM     40  C   UNL     1       9.042  -8.364   7.676  1.00  0.00     0.031 C 
ATOM     41  C   UNL     1       4.179  -8.930   8.826  1.00  0.00     0.029 A 
ATOM     42  N   UNL     1       5.492 -10.740   8.914  1.00  0.00    -0.354 N 
ATOM     43  C   UNL     1       9.671 -10.543   8.037  1.00  0.00     0.074 A 
ATOM     44  C   UNL     1      10.059  -9.215   7.603  1.00  0.00     0.031 C 
ATOM     45  C   UNL     1       3.414  -9.968   9.199  1.00  0.00     0.029 A 
ATOM     46  C   UNL     1       4.237 -11.173   9.267  1.00  0.00     0.049 A 
ATOM     47  H   UNL     1       6.273 -11.337   8.858  1.00  0.00     0.167 HD
ATOM     48  C   UNL     1      10.519 -11.597   8.136  1.00  0.00     0.037 A 
ATOM     49  C   UNL     1       3.793 -12.396   9.616  1.00  0.00     0.037 A 
ATOM     50  C   UNL     1      10.148 -12.921   8.570  1.00  0.00     0.049 A 
ATOM     51  C   UNL     1       4.747 -13.555   9.690  1.00  0.00     0.074 A 
ATOM     52  C   UNL     1      10.965 -14.027   8.752  1.00  0.00     0.029 A 
ATOM     53  N   UNL     1       8.860 -13.326   8.881  1.00  0.00    -0.354 N 
ATOM     54  N   UNL     1       6.038 -13.575   9.476  1.00  0.00    -0.248 NA
ATOM     55  C   UNL     1       4.180 -14.861  10.061  1.00  0.00     0.031 C 
ATOM     56  C   UNL     1      10.165 -15.111   9.127  1.00  0.00     0.029 A 
ATOM     57  C   UNL     1       8.856 -14.671   9.223  1.00  0.00     0.049 A 
ATOM     58  H   UNL     1       8.065 -12.745   8.861  1.00  0.00     0.167 HD
ATOM     59  C   UNL     1       6.441 -14.886   9.700  1.00  0.00     0.074 A 
ATOM     60  C   UNL     1       5.261 -15.629  10.085  1.00  0.00     0.031 C 
ATOM     61  C   UNL     1       7.683 -15.418   9.595  1.00  0.00     0.037 A 
BRANCH  48  62
ATOM     62  C   UNL     1      11.961 -11.371   7.780  1.00  0.00     0.057 A 
ATOM     63  C   UNL     1      12.516 -11.948   6.630  1.00  0.00     0.134 A 
ATOM     64  C   UNL     1      12.822 -10.668   8.631  1.00  0.00     0.134 A 
ATOM     65  F   UNL     1      11.750 -12.649   5.781  1.00  0.00    -0.206 F 
ATOM     66  C   UNL     1      13.879 -11.841   6.346  1.00  0.00     0.040 A 
ATOM     67  C   UNL     1      14.182 -10.536   8.346  1.00  0.00     0.040 A 
ATOM     68  F   UNL     1      12.352 -10.092   9.749  1.00  0.00    -0.206 F 
ATOM     69  C   UNL     1      14.716 -11.132   7.205  1.00  0.00     0.006 A 
ENDBRANCH  48  62
BRANCH  49  70
ATOM     70  C   UNL     1       2.361 -12.580   9.959  1.00  0.00     0.057 A 
ATOM     71  C   UNL     1       1.365 -12.537   8.977  1.00  0.00     0.134 A 
ATOM     72  C   UNL     1       1.959 -12.787  11.283  1.00  0.00     0.134 A 
ATOM     73  F   UNL     1       1.690 -12.341   7.691  1.00  0.00    -0.206 F 
ATOM     74  C   UNL     1       0.015 -12.677   9.302  1.00  0.00     0.040 A 
ATOM     75  C   UNL     1       0.614 -12.950  11.619  1.00  0.00     0.040 A 
ATOM     76  F   UNL     1       2.871 -12.860  12.263  1.00  0.00    -0.206 F 
ATOM     77  C   UNL     1      -0.362 -12.886  10.627  1.00  0.00     0.006 A 
ENDBRANCH  49  70
BRANCH  61  78
ATOM     78  C   UNL     1       7.841 -16.880   9.901  1.00  0.00     0.057 A 
ATOM     79  C   UNL     1       8.502 -17.305  11.061  1.00  0.00     0.134 A 
ATOM     80  C   UNL     1       7.385 -17.869   9.019  1.00  0.00     0.134 A 
ATOM     81  F   UNL     1       8.970 -16.411  11.945  1.00  0.00    -0.206 F 
ATOM     82  C   UNL     1       8.710 -18.659  11.329  1.00  0.00     0.040 A 
ATOM     83  C   UNL     1       7.569 -19.227   9.287  1.00  0.00     0.040 A 
ATOM     84  F   UNL     1       6.734 -17.530   7.896  1.00  0.00    -0.206 F 
ATOM     85  C   UNL     1       8.240 -19.625  10.442  1.00  0.00     0.006 A 
ENDBRANCH  61  78
ENDBRANCH  35  36
ENDBRANCH  27  30
ENDBRANCH  25  26
ENDBRANCH  24  25
ENDBRANCH   1  24
TORSDOF 15
