REMARK SMILES C[C@@H]1CC(=O)N([C@@H]2C=C[C@@H](C(=O)NCCCNC(=O)c3ccc(-c4c5nc(c(-c6c(F)cccc6F)c6ccc([nH]6)c(-c6c(F)cccc6F)c6nc(c(-c7c(F)cccc7F)c7ccc4[nH]7)C=C6)C=C5)cc3)C2)C1=O
REMARK SMILES IDX 15 1 14 2 13 3 11 4 12 5 10 7 7 8 8 9 74 10 9 11 6 12 1 13
REMARK SMILES IDX 2 14 3 15 75 16 4 17 76 18 5 19 16 20 17 21 18 22 19 24
REMARK SMILES IDX 20 25 21 26 73 27 22 28 72 29 23 30 24 31 25 32 66 33 26 34
REMARK SMILES IDX 71 35 65 36 67 37 27 38 70 39 64 40 63 41 28 43 54 44 37 45
REMARK SMILES IDX 53 46 38 47 41 48 52 49 68 50 39 51 40 52 51 54 69 55 42 56
REMARK SMILES IDX 29 57 30 58 35 59 31 60 32 61 34 62 36 63 33 64 55 65 56 66
REMARK SMILES IDX 61 67 57 68 58 69 60 70 62 71 59 72 43 73 44 74 49 75 45 76
REMARK SMILES IDX 46 77 48 78 50 79 47 80
REMARK H PARENT 13 6 17 23 67 42 41 53
REMARK Flexibility Score: inf
ROOT
ATOM      1  C   UNL     1       4.346   0.950  -0.935  1.00  0.00     0.042 C 
ENDROOT
BRANCH   1   2
ATOM      2  C   UNL     1       4.312   1.625   0.431  1.00  0.00     0.117 C 
BRANCH   2   3
ATOM      3  N   UNL     1       4.713   3.018   0.366  1.00  0.00    -0.356 N 
ATOM      4  C   UNL     1       4.010   4.169   0.544  1.00  0.00     0.227 C 
ATOM      5  O   UNL     1       4.642   5.226   0.446  1.00  0.00    -0.274 OA
ATOM      6  H   UNL     1       5.665   3.155   0.157  1.00  0.00     0.163 HD
BRANCH   4   7
ATOM      7  C   UNL     1       2.509   4.189   0.835  1.00  0.00     0.103 C 
ATOM      8  C   UNL     1       0.637   2.644   0.443  1.00  0.00     0.117 C 
ATOM      9  C   UNL     1       1.076   2.642   1.875  1.00  0.00    -0.005 C 
ATOM     10  C   UNL     1       1.650   3.559  -0.267  1.00  0.00     0.047 C 
ATOM     11  C   UNL     1       2.111   3.464   2.085  1.00  0.00    -0.016 C 
BRANCH   8  12
ATOM     12  N   UNL     1      -0.734   3.097   0.314  1.00  0.00    -0.275 N 
ATOM     13  C   UNL     1      -3.262   3.289  -1.874  1.00  0.00     0.018 C 
ATOM     14  C   UNL     1      -2.967   3.119  -0.390  1.00  0.00     0.085 C 
ATOM     15  C   UNL     1      -2.645   4.439   0.294  1.00  0.00     0.114 C 
ATOM     16  C   UNL     1      -1.712   2.305  -0.215  1.00  0.00     0.233 C 
ATOM     17  C   UNL     1      -1.181   4.355   0.608  1.00  0.00     0.230 C 
ATOM     18  O   UNL     1      -1.598   1.137  -0.560  1.00  0.00    -0.274 OA
ATOM     19  O   UNL     1      -0.536   5.290   1.051  1.00  0.00    -0.274 OA
ENDBRANCH   8  12
ENDBRANCH   4   7
ENDBRANCH   2   3
ENDBRANCH   1   2
BRANCH   1  20
ATOM     20  C   UNL     1       5.737   0.875  -1.551  1.00  0.00     0.118 C 
BRANCH  20  21
ATOM     21  N   UNL     1       6.641   0.029  -0.785  1.00  0.00    -0.352 N 
ATOM     22  C   UNL     1       7.272  -1.137  -1.144  1.00  0.00     0.251 C 
ATOM     23  H   UNL     1       6.830   0.340   0.130  1.00  0.00     0.163 HD
ATOM     24  O   UNL     1       7.837  -1.815  -0.291  1.00  0.00    -0.269 OA
BRANCH  22  25
ATOM     25  C   UNL     1       7.254  -1.588  -2.551  1.00  0.00     0.039 A 
ATOM     26  C   UNL     1       7.027  -2.939  -2.828  1.00  0.00     0.014 A 
ATOM     27  C   UNL     1       7.468  -0.685  -3.595  1.00  0.00     0.014 A 
ATOM     28  C   UNL     1       6.940  -3.369  -4.154  1.00  0.00     0.010 A 
ATOM     29  C   UNL     1       7.297  -1.098  -4.912  1.00  0.00     0.010 A 
ATOM     30  C   UNL     1       7.032  -2.444  -5.206  1.00  0.00    -0.014 A 
BRANCH  30  31
ATOM     31  C   UNL     1       6.858  -2.853  -6.623  1.00  0.00     0.031 A 
ATOM     32  C   UNL     1       7.987  -2.678  -7.600  1.00  0.00     0.074 A 
ATOM     33  C   UNL     1       5.659  -3.297  -7.047  1.00  0.00     0.049 A 
ATOM     34  N   UNL     1       7.995  -2.854  -8.896  1.00  0.00    -0.248 NA
ATOM     35  C   UNL     1       9.271  -2.213  -7.049  1.00  0.00     0.031 C 
ATOM     36  C   UNL     1       4.474  -3.475  -6.206  1.00  0.00     0.029 A 
ATOM     37  N   UNL     1       5.233  -3.662  -8.300  1.00  0.00    -0.354 N 
ATOM     38  C   UNL     1       9.272  -2.504  -9.317  1.00  0.00     0.074 A 
ATOM     39  C   UNL     1       9.995  -2.056  -8.147  1.00  0.00     0.031 C 
ATOM     40  C   UNL     1       3.462  -3.929  -6.962  1.00  0.00     0.029 A 
ATOM     41  C   UNL     1       3.910  -4.029  -8.347  1.00  0.00     0.049 A 
ATOM     42  H   UNL     1       5.821  -3.661  -9.090  1.00  0.00     0.167 HD
ATOM     43  C   UNL     1       9.800  -2.570 -10.562  1.00  0.00     0.037 A 
ATOM     44  C   UNL     1       3.139  -4.386  -9.392  1.00  0.00     0.037 A 
ATOM     45  C   UNL     1       9.083  -3.039 -11.718  1.00  0.00     0.049 A 
ATOM     46  C   UNL     1       3.743  -4.430 -10.769  1.00  0.00     0.074 A 
ATOM     47  C   UNL     1       9.547  -3.200 -13.012  1.00  0.00     0.029 A 
ATOM     48  N   UNL     1       7.750  -3.419 -11.721  1.00  0.00    -0.354 N 
ATOM     49  N   UNL     1       4.969  -4.156 -11.143  1.00  0.00    -0.248 NA
ATOM     50  C   UNL     1       2.856  -4.835 -11.870  1.00  0.00     0.031 C 
ATOM     51  C   UNL     1       8.481  -3.629 -13.808  1.00  0.00     0.029 A 
ATOM     52  C   UNL     1       7.367  -3.790 -12.999  1.00  0.00     0.049 A 
ATOM     53  H   UNL     1       7.162  -3.425 -10.931  1.00  0.00     0.167 HD
ATOM     54  C   UNL     1       5.010  -4.386 -12.512  1.00  0.00     0.074 A 
ATOM     55  C   UNL     1       3.688  -4.830 -12.902  1.00  0.00     0.031 C 
ATOM     56  C   UNL     1       6.051  -4.244 -13.369  1.00  0.00     0.037 A 
BRANCH  43  57
ATOM     57  C   UNL     1      11.223  -2.123 -10.738  1.00  0.00     0.057 A 
ATOM     58  C   UNL     1      12.298  -2.854 -10.215  1.00  0.00     0.134 A 
ATOM     59  C   UNL     1      11.524  -0.968 -11.470  1.00  0.00     0.134 A 
ATOM     60  F   UNL     1      12.080  -3.964  -9.495  1.00  0.00    -0.206 F 
ATOM     61  C   UNL     1      13.619  -2.437 -10.390  1.00  0.00     0.040 A 
ATOM     62  C   UNL     1      12.841  -0.557 -11.677  1.00  0.00     0.040 A 
ATOM     63  F   UNL     1      10.543  -0.224 -12.004  1.00  0.00    -0.206 F 
ATOM     64  C   UNL     1      13.893  -1.289 -11.130  1.00  0.00     0.006 A 
ENDBRANCH  43  57
BRANCH  44  65
ATOM     65  C   UNL     1       1.713  -4.742  -9.178  1.00  0.00     0.057 A 
ATOM     66  C   UNL     1       1.266  -6.059  -9.339  1.00  0.00     0.134 A 
ATOM     67  C   UNL     1       0.763  -3.780  -8.815  1.00  0.00     0.134 A 
ATOM     68  F   UNL     1       2.124  -7.023  -9.704  1.00  0.00    -0.206 F 
ATOM     69  C   UNL     1      -0.076  -6.402  -9.170  1.00  0.00     0.040 A 
ATOM     70  C   UNL     1      -0.578  -4.114  -8.615  1.00  0.00     0.040 A 
ATOM     71  F   UNL     1       1.128  -2.501  -8.636  1.00  0.00    -0.206 F 
ATOM     72  C   UNL     1      -1.002  -5.428  -8.801  1.00  0.00     0.006 A 
ENDBRANCH  44  65
BRANCH  56  73
ATOM     73  C   UNL     1       5.821  -4.615 -14.805  1.00  0.00     0.057 A 
ATOM     74  C   UNL     1       5.051  -3.820 -15.662  1.00  0.00     0.134 A 
ATOM     75  C   UNL     1       6.429  -5.753 -15.349  1.00  0.00     0.134 A 
ATOM     76  F   UNL     1       4.430  -2.724 -15.200  1.00  0.00    -0.206 F 
ATOM     77  C   UNL     1       4.881  -4.153 -17.007  1.00  0.00     0.040 A 
ATOM     78  C   UNL     1       6.290  -6.081 -16.698  1.00  0.00     0.040 A 
ATOM     79  F   UNL     1       7.188  -6.553 -14.583  1.00  0.00    -0.206 F 
ATOM     80  C   UNL     1       5.510  -5.282 -17.530  1.00  0.00     0.006 A 
ENDBRANCH  56  73
ENDBRANCH  30  31
ENDBRANCH  22  25
ENDBRANCH  20  21
ENDBRANCH   1  20
TORSDOF 11
