REMARK SMILES O=C(NCCCNC(=O)c1c(C(F)(F)F)nn(-c2ccccc2)c1C(F)(F)Cl)c1ccc(-c2c3nc(c(-c4c(F)cccc4F)c4ccc([nH]4)c(-c4c(F)cccc4F)c4nc(c(-c5c(F)cccc5F)c5ccc2[nH]5)C=C4)C=C3)cc1
REMARK SMILES IDX 4 1 3 2 1 3 2 4 29 6 30 7 82 8 31 9 81 10 32 11 33 12 34 13
REMARK SMILES IDX 75 14 35 15 80 16 74 17 76 18 36 19 79 20 73 21 72 22 37 24
REMARK SMILES IDX 63 25 46 26 62 27 47 28 50 29 61 30 77 31 48 32 49 33 60 35
REMARK SMILES IDX 78 36 51 37 38 38 39 39 44 40 40 41 41 42 43 43 45 44 42 45
REMARK SMILES IDX 64 46 65 47 70 48 66 49 67 50 69 51 71 52 68 53 52 54 53 55
REMARK SMILES IDX 58 56 54 57 55 58 57 59 59 60 56 61 5 62 6 63 7 64 8 65 9 67
REMARK SMILES IDX 10 68 11 69 24 70 16 71 17 72 12 73 13 74 14 75 15 76 25 77
REMARK SMILES IDX 26 78 27 79 28 80 18 81 19 82 23 83 20 84 22 85 21 86
REMARK H PARENT 3 5 76 23 50 34 7 66
REMARK Flexibility Score: inf
ROOT
ATOM      1  C   UNL     1       4.761  -0.971   0.579  1.00  0.00     0.118 C 
ENDROOT
BRANCH   1   2
ATOM      2  N   UNL     1       3.340  -1.152   0.366  1.00  0.00    -0.352 N 
ATOM      3  O   UNL     1       1.256  -0.855  -0.294  1.00  0.00    -0.269 OA
ATOM      4  C   UNL     1       2.295  -0.314   0.094  1.00  0.00     0.251 C 
ATOM      5  H   UNL     1       3.064  -2.094   0.432  1.00  0.00     0.163 HD
BRANCH   4   6
ATOM      6  C   UNL     1       2.289   1.156   0.319  1.00  0.00     0.039 A 
ATOM      7  C   UNL     1       3.407   1.965   0.526  1.00  0.00     0.014 A 
ATOM      8  C   UNL     1       1.012   1.748   0.365  1.00  0.00     0.014 A 
ATOM      9  C   UNL     1       3.249   3.308   0.871  1.00  0.00     0.010 A 
ATOM     10  C   UNL     1       0.848   3.086   0.698  1.00  0.00     0.010 A 
ATOM     11  C   UNL     1       1.968   3.856   0.990  1.00  0.00    -0.014 A 
BRANCH  11  12
ATOM     12  C   UNL     1       1.827   5.287   1.255  1.00  0.00     0.031 A 
ATOM     13  C   UNL     1       2.277   6.165   0.135  1.00  0.00     0.074 A 
ATOM     14  C   UNL     1       1.171   5.781   2.327  1.00  0.00     0.049 A 
ATOM     15  N   UNL     1       3.197   7.074   0.148  1.00  0.00    -0.248 NA
ATOM     16  C   UNL     1       1.697   5.928  -1.199  1.00  0.00     0.031 C 
ATOM     17  C   UNL     1       0.414   5.038   3.338  1.00  0.00     0.029 A 
ATOM     18  N   UNL     1       0.953   7.080   2.683  1.00  0.00    -0.354 N 
ATOM     19  C   UNL     1       3.191   7.650  -1.123  1.00  0.00     0.074 A 
ATOM     20  C   UNL     1       2.359   6.813  -1.946  1.00  0.00     0.031 C 
ATOM     21  C   UNL     1      -0.356   5.899   4.044  1.00  0.00     0.029 A 
ATOM     22  C   UNL     1      -0.054   7.258   3.627  1.00  0.00     0.049 A 
ATOM     23  H   UNL     1       1.466   7.830   2.304  1.00  0.00     0.167 HD
ATOM     24  C   UNL     1       3.697   8.894  -1.349  1.00  0.00     0.037 A 
ATOM     25  C   UNL     1      -0.635   8.431   3.990  1.00  0.00     0.037 A 
ATOM     26  C   UNL     1       4.560   9.311  -0.278  1.00  0.00     0.049 A 
ATOM     27  C   UNL     1       0.261   9.530   3.559  1.00  0.00     0.074 A 
ATOM     28  C   UNL     1       5.744   8.850   0.261  1.00  0.00     0.029 A 
ATOM     29  N   UNL     1       4.051  10.192   0.643  1.00  0.00    -0.354 N 
ATOM     30  N   UNL     1       1.424   9.773   4.092  1.00  0.00    -0.248 NA
ATOM     31  C   UNL     1       0.052  10.086   2.231  1.00  0.00     0.031 C 
ATOM     32  C   UNL     1       5.626   9.088   1.662  1.00  0.00     0.029 A 
ATOM     33  C   UNL     1       4.409   9.733   1.881  1.00  0.00     0.049 A 
ATOM     34  H   UNL     1       3.525  11.001   0.449  1.00  0.00     0.167 HD
ATOM     35  C   UNL     1       2.235  10.109   3.019  1.00  0.00     0.074 A 
ATOM     36  C   UNL     1       1.317  10.369   1.913  1.00  0.00     0.031 C 
ATOM     37  C   UNL     1       3.578   9.866   3.052  1.00  0.00     0.037 A 
BRANCH  24  38
ATOM     38  C   UNL     1       3.125   9.886  -2.334  1.00  0.00     0.057 A 
ATOM     39  C   UNL     1       3.808  11.096  -2.565  1.00  0.00     0.134 A 
ATOM     40  C   UNL     1       1.799   9.849  -2.810  1.00  0.00     0.134 A 
ATOM     41  F   UNL     1       5.074  11.262  -2.153  1.00  0.00    -0.206 F 
ATOM     42  C   UNL     1       3.187  12.212  -3.141  1.00  0.00     0.040 A 
ATOM     43  C   UNL     1       1.187  10.940  -3.433  1.00  0.00     0.040 A 
ATOM     44  F   UNL     1       0.993   8.800  -2.607  1.00  0.00    -0.206 F 
ATOM     45  C   UNL     1       1.868  12.139  -3.567  1.00  0.00     0.006 A 
ENDBRANCH  24  38
BRANCH  25  46
ATOM     46  C   UNL     1      -2.037   8.696   4.397  1.00  0.00     0.057 A 
ATOM     47  C   UNL     1      -2.402   9.896   5.028  1.00  0.00     0.134 A 
ATOM     48  C   UNL     1      -3.098   7.909   3.917  1.00  0.00     0.134 A 
ATOM     49  F   UNL     1      -1.464  10.740   5.481  1.00  0.00    -0.206 F 
ATOM     50  C   UNL     1      -3.740  10.300   5.151  1.00  0.00     0.040 A 
ATOM     51  C   UNL     1      -4.437   8.297   4.038  1.00  0.00     0.040 A 
ATOM     52  F   UNL     1      -2.866   6.782   3.229  1.00  0.00    -0.206 F 
ATOM     53  C   UNL     1      -4.762   9.504   4.644  1.00  0.00     0.006 A 
ENDBRANCH  25  46
BRANCH  37  54
ATOM     54  C   UNL     1       4.190   9.470   4.365  1.00  0.00     0.057 A 
ATOM     55  C   UNL     1       3.874   8.294   5.061  1.00  0.00     0.134 A 
ATOM     56  C   UNL     1       5.250  10.235   4.864  1.00  0.00     0.134 A 
ATOM     57  F   UNL     1       2.942   7.446   4.607  1.00  0.00    -0.206 F 
ATOM     58  C   UNL     1       4.555   7.920   6.223  1.00  0.00     0.040 A 
ATOM     59  C   UNL     1       5.962   9.854   6.002  1.00  0.00     0.040 A 
ATOM     60  F   UNL     1       5.646  11.344   4.218  1.00  0.00    -0.206 F 
ATOM     61  C   UNL     1       5.609   8.698   6.693  1.00  0.00     0.006 A 
ENDBRANCH  37  54
ENDBRANCH  11  12
ENDBRANCH   4   6
ENDBRANCH   1   2
BRANCH   1  62
ATOM     62  C   UNL     1       5.176  -0.651   2.013  1.00  0.00     0.042 C 
BRANCH  62  63
ATOM     63  C   UNL     1       4.757  -1.684   3.055  1.00  0.00     0.118 C 
BRANCH  63  64
ATOM     64  N   UNL     1       5.330  -3.006   2.839  1.00  0.00    -0.352 N 
ATOM     65  C   UNL     1       5.935  -3.865   3.723  1.00  0.00     0.255 C 
ATOM     66  H   UNL     1       5.275  -3.335   1.913  1.00  0.00     0.163 HD
ATOM     67  O   UNL     1       6.326  -4.960   3.347  1.00  0.00    -0.269 OA
BRANCH  65  68
ATOM     68  C   UNL     1       6.111  -3.429   5.093  1.00  0.00     0.101 A 
ATOM     69  C   UNL     1       7.353  -3.222   5.746  1.00  0.00     0.180 A 
ATOM     70  C   UNL     1       5.127  -3.157   6.047  1.00  0.00     0.143 A 
ATOM     71  N   UNL     1       7.151  -2.626   6.932  1.00  0.00    -0.162 NA
ATOM     72  N   UNL     1       5.811  -2.626   7.129  1.00  0.00    -0.229 N 
BRANCH  69  73
ATOM     73  C   UNL     1       8.743  -3.513   5.228  1.00  0.00     0.436 C 
ATOM     74  F   UNL     1       9.534  -2.406   5.245  1.00  0.00    -0.164 F 
ATOM     75  F   UNL     1       9.374  -4.459   5.974  1.00  0.00    -0.164 F 
ATOM     76  F   UNL     1       8.758  -3.958   3.945  1.00  0.00    -0.164 F 
ENDBRANCH  69  73
BRANCH  70  77
ATOM     77  C   UNL     1       3.639  -3.172   5.954  1.00  0.00     0.365 C 
ATOM     78  F   UNL     1       3.033  -3.492   7.121  1.00  0.00    -0.181 F 
ATOM     79  F   UNL     1       3.193  -1.929   5.628  1.00  0.00    -0.181 F 
ATOM     80  Cl  UNL     1       3.007  -4.330   4.762  1.00  0.00    -0.040 Cl
ENDBRANCH  70  77
BRANCH  72  81
ATOM     81  C   UNL     1       5.321  -2.008   8.306  1.00  0.00     0.065 A 
ATOM     82  C   UNL     1       5.811  -0.741   8.655  1.00  0.00     0.028 A 
ATOM     83  C   UNL     1       4.395  -2.647   9.132  1.00  0.00     0.028 A 
ATOM     84  C   UNL     1       5.293  -0.080   9.769  1.00  0.00     0.002 A 
ATOM     85  C   UNL     1       3.883  -1.982  10.247  1.00  0.00     0.002 A 
ATOM     86  C   UNL     1       4.317  -0.693  10.554  1.00  0.00     0.000 A 
ENDBRANCH  72  81
ENDBRANCH  65  68
ENDBRANCH  63  64
ENDBRANCH  62  63
ENDBRANCH   1  62
TORSDOF 13
