REMARK SMILES CC[C@@H](Oc1ccccc1)C(=O)NCCCNC(=O)c1ccc(-c2c3nc(c(-c4c(F)cccc4F)c4ccc([nH]4)c(-c4c(F)cccc4F)c4nc(c(-c5c(F)cccc5F)c5ccc2[nH]5)C=C4)C=C3)cc1
REMARK SMILES IDX 15 1 14 2 13 3 11 4 12 5 3 7 2 8 1 9 4 10 5 11 6 12 10 13
REMARK SMILES IDX 7 14 9 15 8 16 16 17 17 18 18 19 19 21 20 22 21 23 73 24
REMARK SMILES IDX 22 25 72 26 23 27 24 28 25 29 66 30 26 31 71 32 65 33 67 34
REMARK SMILES IDX 27 35 70 36 64 37 63 38 28 40 54 41 37 42 53 43 38 44 41 45
REMARK SMILES IDX 52 46 68 47 39 48 40 49 51 51 69 52 42 53 29 54 30 55 35 56
REMARK SMILES IDX 31 57 32 58 34 59 36 60 33 61 55 62 56 63 61 64 57 65 58 66
REMARK SMILES IDX 60 67 62 68 59 69 43 70 44 71 49 72 45 73 46 74 48 75 50 76
REMARK SMILES IDX 47 77
REMARK H PARENT 13 6 17 20 67 39 41 50
REMARK Flexibility Score: inf
ROOT
ATOM      1  C   UNL     1      -2.807   1.614   2.295  1.00  0.00     0.042 C 
ENDROOT
BRANCH   1   2
ATOM      2  C   UNL     1      -1.973   2.691   1.618  1.00  0.00     0.118 C 
BRANCH   2   3
ATOM      3  N   UNL     1      -0.817   3.085   2.408  1.00  0.00    -0.353 N 
ATOM      4  C   UNL     1       0.517   2.902   2.155  1.00  0.00     0.261 C 
ATOM      5  O   UNL     1       1.325   3.368   2.964  1.00  0.00    -0.271 OA
ATOM      6  H   UNL     1      -1.024   3.552   3.250  1.00  0.00     0.163 HD
BRANCH   4   7
ATOM      7  C   UNL     1       0.985   2.070   0.949  1.00  0.00     0.261 C 
BRANCH   7   8
ATOM      8  C   UNL     1       0.678   0.590   1.245  1.00  0.00     0.052 C 
ATOM      9  C   UNL     1       1.781  -0.346   0.765  1.00  0.00     0.008 C 
ENDBRANCH   7   8
BRANCH   7  10
ATOM     10  O   UNL     1       0.294   2.612  -0.185  1.00  0.00    -0.481 OA
BRANCH  10  11
ATOM     11  C   UNL     1       0.756   2.224  -1.403  1.00  0.00     0.120 A 
ATOM     12  C   UNL     1       1.590   3.083  -2.110  1.00  0.00     0.046 A 
ATOM     13  C   UNL     1       0.244   1.077  -2.007  1.00  0.00     0.046 A 
ATOM     14  C   UNL     1       1.960   2.761  -3.415  1.00  0.00     0.004 A 
ATOM     15  C   UNL     1       0.631   0.744  -3.303  1.00  0.00     0.004 A 
ATOM     16  C   UNL     1       1.490   1.587  -4.007  1.00  0.00     0.000 A 
ENDBRANCH  10  11
ENDBRANCH   7  10
ENDBRANCH   4   7
ENDBRANCH   2   3
ENDBRANCH   1   2
BRANCH   1  17
ATOM     17  C   UNL     1      -3.540   2.096   3.537  1.00  0.00     0.118 C 
BRANCH  17  18
ATOM     18  N   UNL     1      -4.520   3.130   3.240  1.00  0.00    -0.352 N 
ATOM     19  C   UNL     1      -5.876   3.163   3.441  1.00  0.00     0.251 C 
ATOM     20  H   UNL     1      -4.147   3.942   2.826  1.00  0.00     0.163 HD
ATOM     21  O   UNL     1      -6.535   4.067   2.936  1.00  0.00    -0.269 OA
BRANCH  19  22
ATOM     22  C   UNL     1      -6.555   2.127   4.251  1.00  0.00     0.039 A 
ATOM     23  C   UNL     1      -7.842   1.725   3.878  1.00  0.00     0.014 A 
ATOM     24  C   UNL     1      -5.971   1.600   5.405  1.00  0.00     0.014 A 
ATOM     25  C   UNL     1      -8.526   0.779   4.644  1.00  0.00     0.010 A 
ATOM     26  C   UNL     1      -6.615   0.591   6.116  1.00  0.00     0.010 A 
ATOM     27  C   UNL     1      -7.911   0.193   5.761  1.00  0.00    -0.014 A 
BRANCH  27  28
ATOM     28  C   UNL     1      -8.634  -0.784   6.611  1.00  0.00     0.031 A 
ATOM     29  C   UNL     1      -8.952  -0.441   8.042  1.00  0.00     0.074 A 
ATOM     30  C   UNL     1      -8.966  -1.991   6.116  1.00  0.00     0.049 A 
ATOM     31  N   UNL     1      -9.526  -1.174   8.962  1.00  0.00    -0.248 NA
ATOM     32  C   UNL     1      -8.541   0.893   8.509  1.00  0.00     0.031 C 
ATOM     33  C   UNL     1      -8.668  -2.464   4.763  1.00  0.00     0.029 A 
ATOM     34  N   UNL     1      -9.622  -3.044   6.701  1.00  0.00    -0.354 N 
ATOM     35  C   UNL     1      -9.526  -0.399  10.116  1.00  0.00     0.074 A 
ATOM     36  C   UNL     1      -8.841   0.834   9.797  1.00  0.00     0.031 C 
ATOM     37  C   UNL     1      -9.158  -3.705   4.615  1.00  0.00     0.029 A 
ATOM     38  C   UNL     1      -9.781  -4.123   5.867  1.00  0.00     0.049 A 
ATOM     39  H   UNL     1      -9.947  -3.028   7.630  1.00  0.00     0.167 HD
ATOM     40  C   UNL     1     -10.072  -0.675  11.324  1.00  0.00     0.037 A 
ATOM     41  C   UNL     1     -10.368  -5.314   6.088  1.00  0.00     0.037 A 
ATOM     42  C   UNL     1     -10.781  -1.888  11.630  1.00  0.00     0.049 A 
ATOM     43  C   UNL     1     -11.003  -5.584   7.424  1.00  0.00     0.074 A 
ATOM     44  C   UNL     1     -11.405  -2.251  12.811  1.00  0.00     0.029 A 
ATOM     45  N   UNL     1     -10.969  -2.935  10.740  1.00  0.00    -0.354 N 
ATOM     46  N   UNL     1     -11.040  -4.822   8.491  1.00  0.00    -0.248 NA
ATOM     47  C   UNL     1     -11.694  -6.871   7.581  1.00  0.00     0.031 C 
ATOM     48  C   UNL     1     -11.950  -3.529  12.643  1.00  0.00     0.029 A 
ATOM     49  C   UNL     1     -11.700  -3.944  11.345  1.00  0.00     0.049 A 
ATOM     50  H   UNL     1     -10.633  -2.957   9.815  1.00  0.00     0.167 HD
ATOM     51  C   UNL     1     -11.783  -5.521   9.432  1.00  0.00     0.074 A 
ATOM     52  C   UNL     1     -12.186  -6.764   8.807  1.00  0.00     0.031 C 
ATOM     53  C   UNL     1     -12.104  -5.167  10.701  1.00  0.00     0.037 A 
BRANCH  40  54
ATOM     54  C   UNL     1      -9.927   0.367  12.395  1.00  0.00     0.057 A 
ATOM     55  C   UNL     1     -10.612   1.588  12.333  1.00  0.00     0.134 A 
ATOM     56  C   UNL     1      -9.099   0.148  13.503  1.00  0.00     0.134 A 
ATOM     57  F   UNL     1     -11.408   1.868  11.290  1.00  0.00    -0.206 F 
ATOM     58  C   UNL     1     -10.453   2.567  13.315  1.00  0.00     0.040 A 
ATOM     59  C   UNL     1      -8.954   1.108  14.506  1.00  0.00     0.040 A 
ATOM     60  F   UNL     1      -8.417  -1.001  13.629  1.00  0.00    -0.206 F 
ATOM     61  C   UNL     1      -9.625   2.325  14.409  1.00  0.00     0.006 A 
ENDBRANCH  40  54
BRANCH  41  62
ATOM     62  C   UNL     1     -10.423  -6.323   5.002  1.00  0.00     0.057 A 
ATOM     63  C   UNL     1     -11.624  -6.608   4.342  1.00  0.00     0.134 A 
ATOM     64  C   UNL     1      -9.280  -7.020   4.595  1.00  0.00     0.134 A 
ATOM     65  F   UNL     1     -12.755  -5.983   4.700  1.00  0.00    -0.206 F 
ATOM     66  C   UNL     1     -11.691  -7.564   3.328  1.00  0.00     0.040 A 
ATOM     67  C   UNL     1      -9.328  -7.962   3.566  1.00  0.00     0.040 A 
ATOM     68  F   UNL     1      -8.097  -6.783   5.181  1.00  0.00    -0.206 F 
ATOM     69  C   UNL     1     -10.538  -8.241   2.934  1.00  0.00     0.006 A 
ENDBRANCH  41  62
BRANCH  53  70
ATOM     70  C   UNL     1     -12.970  -6.113  11.477  1.00  0.00     0.057 A 
ATOM     71  C   UNL     1     -12.481  -7.326  11.977  1.00  0.00     0.134 A 
ATOM     72  C   UNL     1     -14.305  -5.789  11.751  1.00  0.00     0.134 A 
ATOM     73  F   UNL     1     -11.215  -7.699  11.739  1.00  0.00    -0.206 F 
ATOM     74  C   UNL     1     -13.297  -8.196  12.702  1.00  0.00     0.040 A 
ATOM     75  C   UNL     1     -15.124  -6.639  12.495  1.00  0.00     0.040 A 
ATOM     76  F   UNL     1     -14.832  -4.638  11.307  1.00  0.00    -0.206 F 
ATOM     77  C   UNL     1     -14.622  -7.851  12.967  1.00  0.00     0.006 A 
ENDBRANCH  53  70
ENDBRANCH  27  28
ENDBRANCH  19  22
ENDBRANCH  17  18
ENDBRANCH   1  17
TORSDOF 13
