REMARK SMILES CCOc1ccc(C(=O)NCC(=O)NCCCNC(=O)c2ccc(-c3c4nc(c(-c5c(F)cccc5F)c5ccc([nH]5)c(-c5c(F)cccc5F)c5nc(c(-c6c(F)cccc6F)c6ccc3[nH]6)C=C5)C=C4)cc2)c2ccccc12
REMARK SMILES IDX 15 1 14 2 12 3 13 4 11 6 10 7 8 8 9 9 7 11 4 12 5 13 80 14
REMARK SMILES IDX 6 15 75 16 79 17 76 18 78 19 77 20 3 21 2 22 1 23 16 24
REMARK SMILES IDX 17 25 18 26 19 27 20 29 21 30 22 31 74 32 23 33 73 34 24 35
REMARK SMILES IDX 25 36 26 37 67 38 27 39 72 40 66 41 68 42 28 43 71 44 65 45
REMARK SMILES IDX 64 46 29 48 55 49 38 50 54 51 39 52 42 53 53 54 69 55 40 56
REMARK SMILES IDX 41 57 52 59 70 60 43 61 30 62 31 63 36 64 32 65 33 66 35 67
REMARK SMILES IDX 37 68 34 69 56 70 57 71 62 72 58 73 59 74 61 75 63 76 60 77
REMARK SMILES IDX 44 78 45 79 50 80 46 81 47 82 49 83 51 84 48 85
REMARK H PARENT 14 5 10 10 18 28 68 47 42 58
REMARK Flexibility Score: inf
ROOT
ATOM      1  C   UNL     1       6.154   3.392   2.027  1.00  0.00     0.117 C 
ENDROOT
BRANCH   1   2
ATOM      2  N   UNL     1       6.979   3.371   0.841  1.00  0.00    -0.355 N 
ATOM      3  C   UNL     1       7.540   2.342   0.151  1.00  0.00     0.239 C 
ATOM      4  O   UNL     1       8.026   2.627  -0.951  1.00  0.00    -0.273 OA
ATOM      5  H   UNL     1       7.170   4.261   0.465  1.00  0.00     0.163 HD
BRANCH   3   6
ATOM      6  C   UNL     1       7.465   0.866   0.584  1.00  0.00     0.216 C 
BRANCH   6   7
ATOM      7  N   UNL     1       7.476   0.531   2.001  1.00  0.00    -0.343 N 
ATOM      8  C   UNL     1       6.595   0.088   2.955  1.00  0.00     0.252 C 
ATOM      9  O   UNL     1       7.160  -0.243   3.998  1.00  0.00    -0.269 OA
ATOM     10  H   UNL     1       8.374   0.659   2.384  1.00  0.00     0.164 HD
BRANCH   8  11
ATOM     11  C   UNL     1       5.083   0.033   2.829  1.00  0.00     0.047 A 
ATOM     12  C   UNL     1       2.270   0.050   2.518  1.00  0.00     0.127 A 
ATOM     13  C   UNL     1       3.093   0.470   1.491  1.00  0.00     0.048 A 
ATOM     14  C   UNL     1       2.813  -0.294   3.769  1.00  0.00     0.025 A 
ATOM     15  C   UNL     1       4.469   0.416   1.631  1.00  0.00     0.018 A 
ATOM     16  C   UNL     1       4.234  -0.293   3.954  1.00  0.00    -0.002 A 
ATOM     17  C   UNL     1       1.958  -0.607   4.851  1.00  0.00     0.012 A 
ATOM     18  C   UNL     1       4.682  -0.584   5.274  1.00  0.00     0.010 A 
ATOM     19  C   UNL     1       2.452  -0.888   6.122  1.00  0.00     0.001 A 
ATOM     20  C   UNL     1       3.816  -0.868   6.335  1.00  0.00     0.001 A 
BRANCH  12  21
ATOM     21  O   UNL     1       0.910   0.113   2.327  1.00  0.00    -0.493 OA
BRANCH  21  22
ATOM     22  C   UNL     1       0.433  -0.841   1.362  1.00  0.00     0.226 C 
ATOM     23  C   UNL     1       0.440  -0.298  -0.062  1.00  0.00     0.049 C 
ENDBRANCH  21  22
ENDBRANCH  12  21
ENDBRANCH   8  11
ENDBRANCH   6   7
ENDBRANCH   3   6
ENDBRANCH   1   2
BRANCH   1  24
ATOM     24  C   UNL     1       6.898   3.793   3.286  1.00  0.00     0.042 C 
BRANCH  24  25
ATOM     25  C   UNL     1       7.268   5.267   3.314  1.00  0.00     0.118 C 
BRANCH  25  26
ATOM     26  N   UNL     1       6.101   6.142   3.310  1.00  0.00    -0.352 N 
ATOM     27  C   UNL     1       5.731   7.136   4.181  1.00  0.00     0.251 C 
ATOM     28  H   UNL     1       5.478   5.996   2.561  1.00  0.00     0.163 HD
ATOM     29  O   UNL     1       4.619   7.641   4.087  1.00  0.00    -0.269 OA
BRANCH  27  30
ATOM     30  C   UNL     1       6.660   7.587   5.239  1.00  0.00     0.039 A 
ATOM     31  C   UNL     1       6.145   7.881   6.504  1.00  0.00     0.014 A 
ATOM     32  C   UNL     1       8.025   7.738   4.987  1.00  0.00     0.014 A 
ATOM     33  C   UNL     1       7.009   8.267   7.530  1.00  0.00     0.010 A 
ATOM     34  C   UNL     1       8.895   8.029   6.033  1.00  0.00     0.010 A 
ATOM     35  C   UNL     1       8.396   8.307   7.313  1.00  0.00    -0.014 A 
BRANCH  35  36
ATOM     36  C   UNL     1       9.337   8.646   8.410  1.00  0.00     0.031 A 
ATOM     37  C   UNL     1      10.217   9.863   8.301  1.00  0.00     0.074 A 
ATOM     38  C   UNL     1       9.447   7.823   9.471  1.00  0.00     0.049 A 
ATOM     39  N   UNL     1      11.145  10.287   9.122  1.00  0.00    -0.248 NA
ATOM     40  C   UNL     1      10.056  10.699   7.100  1.00  0.00     0.031 C 
ATOM     41  C   UNL     1       8.691   6.583   9.665  1.00  0.00     0.029 A 
ATOM     42  N   UNL     1      10.248   7.898  10.584  1.00  0.00    -0.354 N 
ATOM     43  C   UNL     1      11.690  11.418   8.526  1.00  0.00     0.074 A 
ATOM     44  C   UNL     1      11.023  11.592   7.255  1.00  0.00     0.031 C 
ATOM     45  C   UNL     1       9.049   6.026  10.833  1.00  0.00     0.029 A 
ATOM     46  C   UNL     1      10.088   6.843  11.451  1.00  0.00     0.049 A 
ATOM     47  H   UNL     1      10.877   8.637  10.745  1.00  0.00     0.167 HD
ATOM     48  C   UNL     1      12.646  12.246   9.006  1.00  0.00     0.037 A 
ATOM     49  C   UNL     1      10.718   6.560  12.606  1.00  0.00     0.037 A 
ATOM     50  C   UNL     1      13.277  12.094  10.290  1.00  0.00     0.049 A 
ATOM     51  C   UNL     1      11.769   7.509  13.117  1.00  0.00     0.074 A 
ATOM     52  C   UNL     1      14.191  12.932  10.903  1.00  0.00     0.029 A 
ATOM     53  N   UNL     1      13.064  11.031  11.155  1.00  0.00    -0.354 N 
ATOM     54  N   UNL     1      12.204   8.627  12.588  1.00  0.00    -0.248 NA
ATOM     55  C   UNL     1      12.411   7.162  14.393  1.00  0.00     0.031 C 
ATOM     56  C   UNL     1      14.577  12.348  12.112  1.00  0.00     0.029 A 
ATOM     57  C   UNL     1      13.855  11.178  12.282  1.00  0.00     0.049 A 
ATOM     58  H   UNL     1      12.444  10.285  10.991  1.00  0.00     0.167 HD
ATOM     59  C   UNL     1      13.139   9.133  13.482  1.00  0.00     0.074 A 
ATOM     60  C   UNL     1      13.195   8.210  14.595  1.00  0.00     0.031 C 
ATOM     61  C   UNL     1      13.886  10.260  13.391  1.00  0.00     0.037 A 
BRANCH  48  62
ATOM     62  C   UNL     1      13.078  13.400   8.147  1.00  0.00     0.057 A 
ATOM     63  C   UNL     1      12.251  14.508   7.920  1.00  0.00     0.134 A 
ATOM     64  C   UNL     1      14.370  13.437   7.606  1.00  0.00     0.134 A 
ATOM     65  F   UNL     1      10.998  14.532   8.400  1.00  0.00    -0.206 F 
ATOM     66  C   UNL     1      12.690  15.605   7.177  1.00  0.00     0.040 A 
ATOM     67  C   UNL     1      14.829  14.540   6.885  1.00  0.00     0.040 A 
ATOM     68  F   UNL     1      15.214  12.411   7.790  1.00  0.00    -0.206 F 
ATOM     69  C   UNL     1      13.987  15.628   6.668  1.00  0.00     0.006 A 
ENDBRANCH  48  62
BRANCH  49  70
ATOM     70  C   UNL     1      10.383   5.328  13.368  1.00  0.00     0.057 A 
ATOM     71  C   UNL     1       9.784   5.396  14.632  1.00  0.00     0.134 A 
ATOM     72  C   UNL     1      10.703   4.057  12.877  1.00  0.00     0.134 A 
ATOM     73  F   UNL     1       9.469   6.586  15.167  1.00  0.00    -0.206 F 
ATOM     74  C   UNL     1       9.552   4.251  15.396  1.00  0.00     0.040 A 
ATOM     75  C   UNL     1      10.446   2.901  13.615  1.00  0.00     0.040 A 
ATOM     76  F   UNL     1      11.270   3.920  11.669  1.00  0.00    -0.206 F 
ATOM     77  C   UNL     1       9.882   2.997  14.886  1.00  0.00     0.006 A 
ENDBRANCH  49  70
BRANCH  61  78
ATOM     78  C   UNL     1      14.786  10.586  14.548  1.00  0.00     0.057 A 
ATOM     79  C   UNL     1      15.935   9.838  14.832  1.00  0.00     0.134 A 
ATOM     80  C   UNL     1      14.512  11.687  15.370  1.00  0.00     0.134 A 
ATOM     81  F   UNL     1      16.249   8.764  14.091  1.00  0.00    -0.206 F 
ATOM     82  C   UNL     1      16.762  10.154  15.911  1.00  0.00     0.040 A 
ATOM     83  C   UNL     1      15.350  12.033  16.431  1.00  0.00     0.040 A 
ATOM     84  F   UNL     1      13.435  12.454  15.146  1.00  0.00    -0.206 F 
ATOM     85  C   UNL     1      16.474  11.259  16.709  1.00  0.00     0.006 A 
ENDBRANCH  61  78
ENDBRANCH  35  36
ENDBRANCH  27  30
ENDBRANCH  25  26
ENDBRANCH  24  25
ENDBRANCH   1  24
TORSDOF 14
