REMARK SMILES Cc1cccc(Cl)c1Nc1ccccc1CC(=O)NCCCNC(=O)c1ccc(-c2c3nc(c(-c4c(F)cccc4F)c4ccc([nH]4)c(-c4c(F)cccc4F)c4nc(c(-c5c(F)cccc5F)c5ccc2[nH]5)C=C4)C=C3)cc1
REMARK SMILES IDX 20 1 19 2 17 3 18 4 16 6 15 7 10 8 11 9 12 10 14 11 13 12
REMARK SMILES IDX 9 13 8 15 1 16 2 17 3 18 4 19 6 20 5 21 7 22 21 23 22 24
REMARK SMILES IDX 23 25 24 26 25 28 26 29 27 30 79 31 28 32 78 33 29 34 30 35
REMARK SMILES IDX 31 36 72 37 32 38 77 39 71 40 73 41 33 42 76 43 70 44 69 45
REMARK SMILES IDX 34 47 60 48 43 49 59 50 44 51 47 52 58 53 74 54 45 55 46 56
REMARK SMILES IDX 57 58 75 59 48 60 35 61 36 62 41 63 37 64 38 65 40 66 42 67
REMARK SMILES IDX 39 68 61 69 62 70 67 71 63 72 64 73 66 74 68 75 65 76 49 77
REMARK SMILES IDX 50 78 55 79 51 80 52 81 54 82 56 83 53 84
REMARK H PARENT 19 5 9 14 23 27 73 46 47 57
REMARK Flexibility Score: inf
ROOT
ATOM      1  C   UNL     1      -0.055   3.644  -2.833  1.00  0.00     0.117 C 
ENDROOT
BRANCH   1   2
ATOM      2  N   UNL     1       0.942   3.063  -3.710  1.00  0.00    -0.356 N 
ATOM      3  C   UNL     1       1.871   2.104  -3.418  1.00  0.00     0.224 C 
ATOM      4  O   UNL     1       2.699   1.811  -4.283  1.00  0.00    -0.275 OA
ATOM      5  H   UNL     1       0.952   3.404  -4.634  1.00  0.00     0.163 HD
BRANCH   3   6
ATOM      6  C   UNL     1       1.838   1.405  -2.069  1.00  0.00     0.137 C 
BRANCH   6   7
ATOM      7  C   UNL     1       2.332   2.259  -0.920  1.00  0.00    -0.015 A 
ATOM      8  C   UNL     1       1.560   2.543   0.228  1.00  0.00     0.042 A 
ATOM      9  C   UNL     1       2.086   3.428   1.189  1.00  0.00     0.026 A 
ATOM     10  C   UNL     1       3.351   3.997   1.046  1.00  0.00     0.002 A 
ATOM     11  C   UNL     1       3.622   2.822  -1.035  1.00  0.00     0.006 A 
ATOM     12  C   UNL     1       4.125   3.683  -0.062  1.00  0.00     0.000 A 
BRANCH   8  13
ATOM     13  N   UNL     1       0.310   1.959   0.518  1.00  0.00    -0.354 N 
ATOM     14  H   UNL     1      -0.357   2.599   0.856  1.00  0.00     0.167 HD
BRANCH  13  15
ATOM     15  C   UNL     1      -0.172   0.631   0.419  1.00  0.00     0.060 A 
ATOM     16  C   UNL     1      -2.507   1.599   0.006  1.00  0.00     0.046 C 
ATOM     17  C   UNL     1      -1.551   0.440   0.132  1.00  0.00    -0.026 A 
ATOM     18  C   UNL     1      -2.055  -0.856  -0.080  1.00  0.00     0.005 A 
ATOM     19  C   UNL     1      -1.223  -1.968  -0.000  1.00  0.00     0.002 A 
ATOM     20  C   UNL     1       0.644  -0.519   0.530  1.00  0.00     0.064 A 
ATOM     21  C   UNL     1       0.120  -1.800   0.313  1.00  0.00     0.023 A 
ATOM     22  Cl  UNL     1       2.298  -0.464   1.046  1.00  0.00    -0.082 Cl
ENDBRANCH  13  15
ENDBRANCH   8  13
ENDBRANCH   6   7
ENDBRANCH   3   6
ENDBRANCH   1   2
BRANCH   1  23
ATOM     23  C   UNL     1       0.396   4.984  -2.260  1.00  0.00     0.042 C 
BRANCH  23  24
ATOM     24  C   UNL     1       0.501   6.093  -3.301  1.00  0.00     0.118 C 
BRANCH  24  25
ATOM     25  N   UNL     1      -0.792   6.436  -3.878  1.00  0.00    -0.352 N 
ATOM     26  C   UNL     1      -1.409   7.652  -3.989  1.00  0.00     0.251 C 
ATOM     27  H   UNL     1      -1.299   5.677  -4.245  1.00  0.00     0.163 HD
ATOM     28  O   UNL     1      -2.593   7.700  -4.339  1.00  0.00    -0.269 OA
BRANCH  26  29
ATOM     29  C   UNL     1      -0.687   8.904  -3.684  1.00  0.00     0.039 A 
ATOM     30  C   UNL     1      -1.366   9.927  -3.015  1.00  0.00     0.014 A 
ATOM     31  C   UNL     1       0.636   9.097  -4.093  1.00  0.00     0.014 A 
ATOM     32  C   UNL     1      -0.707  11.121  -2.715  1.00  0.00     0.010 A 
ATOM     33  C   UNL     1       1.314  10.258  -3.731  1.00  0.00     0.010 A 
ATOM     34  C   UNL     1       0.646  11.287  -3.049  1.00  0.00    -0.014 A 
BRANCH  34  35
ATOM     35  C   UNL     1       1.375  12.536  -2.713  1.00  0.00     0.031 A 
ATOM     36  C   UNL     1       1.901  13.419  -3.812  1.00  0.00     0.074 A 
ATOM     37  C   UNL     1       1.614  12.845  -1.424  1.00  0.00     0.049 A 
ATOM     38  N   UNL     1       2.630  14.503  -3.725  1.00  0.00    -0.248 NA
ATOM     39  C   UNL     1       1.590  13.015  -5.193  1.00  0.00     0.031 C 
ATOM     40  C   UNL     1       1.190  12.050  -0.270  1.00  0.00     0.029 A 
ATOM     41  N   UNL     1       2.283  13.906  -0.869  1.00  0.00    -0.354 N 
ATOM     42  C   UNL     1       2.880  14.896  -5.034  1.00  0.00     0.074 A 
ATOM     43  C   UNL     1       2.266  13.911  -5.897  1.00  0.00     0.031 C 
ATOM     44  C   UNL     1       1.594  12.661   0.856  1.00  0.00     0.029 A 
ATOM     45  C   UNL     1       2.337  13.867   0.504  1.00  0.00     0.049 A 
ATOM     46  H   UNL     1       2.687  14.628  -1.403  1.00  0.00     0.167 HD
ATOM     47  C   UNL     1       3.543  15.991  -5.476  1.00  0.00     0.037 A 
ATOM     48  C   UNL     1       2.926  14.704   1.378  1.00  0.00     0.037 A 
ATOM     49  C   UNL     1       4.124  16.987  -4.615  1.00  0.00     0.049 A 
ATOM     50  C   UNL     1       3.655  15.913   0.859  1.00  0.00     0.074 A 
ATOM     51  C   UNL     1       4.763  18.163  -4.967  1.00  0.00     0.029 A 
ATOM     52  N   UNL     1       4.133  16.925  -3.231  1.00  0.00    -0.354 N 
ATOM     53  N   UNL     1       3.829  16.306  -0.380  1.00  0.00    -0.248 NA
ATOM     54  C   UNL     1       4.265  16.799   1.860  1.00  0.00     0.031 C 
ATOM     55  C   UNL     1       5.194  18.793  -3.796  1.00  0.00     0.029 A 
ATOM     56  C   UNL     1       4.782  18.034  -2.713  1.00  0.00     0.049 A 
ATOM     57  H   UNL     1       3.737  16.200  -2.695  1.00  0.00     0.167 HD
ATOM     58  C   UNL     1       4.535  17.499  -0.305  1.00  0.00     0.074 A 
ATOM     59  C   UNL     1       4.748  17.772   1.101  1.00  0.00     0.031 C 
ATOM     60  C   UNL     1       4.969  18.299  -1.310  1.00  0.00     0.037 A 
BRANCH  47  61
ATOM     61  C   UNL     1       3.672  16.174  -6.960  1.00  0.00     0.057 A 
ATOM     62  C   UNL     1       2.574  16.517  -7.761  1.00  0.00     0.134 A 
ATOM     63  C   UNL     1       4.917  16.054  -7.590  1.00  0.00     0.134 A 
ATOM     64  F   UNL     1       1.351  16.637  -7.222  1.00  0.00    -0.206 F 
ATOM     65  C   UNL     1       2.706  16.712  -9.137  1.00  0.00     0.040 A 
ATOM     66  C   UNL     1       5.066  16.273  -8.961  1.00  0.00     0.040 A 
ATOM     67  F   UNL     1       6.011  15.735  -6.883  1.00  0.00    -0.206 F 
ATOM     68  C   UNL     1       3.957  16.598  -9.739  1.00  0.00     0.006 A 
ENDBRANCH  47  61
BRANCH  48  69
ATOM     69  C   UNL     1       2.840  14.445   2.837  1.00  0.00     0.057 A 
ATOM     70  C   UNL     1       2.088  15.277   3.674  1.00  0.00     0.134 A 
ATOM     71  C   UNL     1       3.524  13.379   3.434  1.00  0.00     0.134 A 
ATOM     72  F   UNL     1       1.425  16.326   3.164  1.00  0.00    -0.206 F 
ATOM     73  C   UNL     1       2.039  15.077   5.055  1.00  0.00     0.040 A 
ATOM     74  C   UNL     1       3.463  13.151   4.810  1.00  0.00     0.040 A 
ATOM     75  F   UNL     1       4.255  12.540   2.686  1.00  0.00    -0.206 F 
ATOM     76  C   UNL     1       2.727  14.008   5.625  1.00  0.00     0.006 A 
ENDBRANCH  48  69
BRANCH  60  77
ATOM     77  C   UNL     1       5.672  19.567  -0.925  1.00  0.00     0.057 A 
ATOM     78  C   UNL     1       6.972  19.565  -0.404  1.00  0.00     0.134 A 
ATOM     79  C   UNL     1       5.052  20.808  -1.118  1.00  0.00     0.134 A 
ATOM     80  F   UNL     1       7.615  18.408  -0.184  1.00  0.00    -0.206 F 
ATOM     81  C   UNL     1       7.622  20.753  -0.066  1.00  0.00     0.040 A 
ATOM     82  C   UNL     1       5.702  22.003  -0.809  1.00  0.00     0.040 A 
ATOM     83  F   UNL     1       3.811  20.880  -1.622  1.00  0.00    -0.206 F 
ATOM     84  C   UNL     1       6.989  21.977  -0.276  1.00  0.00     0.006 A 
ENDBRANCH  60  77
ENDBRANCH  34  35
ENDBRANCH  26  29
ENDBRANCH  24  25
ENDBRANCH  23  24
ENDBRANCH   1  23
TORSDOF 13
