REMARK SMILES CCCc1cc(OC(F)(F)F)cc2c1O[C@@H](C(F)(F)F)C(C(=O)NCCCNC(=O)c1ccc(-c3c4nc(c(-c5c(F)cccc5F)c5ccc([nH]5)c(-c5c(F)cccc5F)c5nc(c(-c6c(F)cccc6F)c6ccc3[nH]6)C=C5)C=C4)cc1)=C2
REMARK SMILES IDX 26 1 25 2 24 3 22 4 23 5 21 7 4 8 5 9 14 10 6 11 13 12 15 13
REMARK SMILES IDX 12 14 85 15 16 16 3 17 2 18 1 19 7 20 8 21 9 22 10 23 11 24
REMARK SMILES IDX 17 25 18 26 19 27 20 28 27 29 28 30 29 31 30 33 31 34 32 35
REMARK SMILES IDX 84 36 33 37 83 38 34 39 35 40 36 41 77 42 37 43 82 44 76 45
REMARK SMILES IDX 78 46 38 47 81 48 75 49 74 50 39 52 65 53 48 54 64 55 49 56
REMARK SMILES IDX 52 57 63 58 79 59 50 60 51 61 62 63 80 64 53 65 40 66 41 67
REMARK SMILES IDX 46 68 42 69 43 70 45 71 47 72 44 73 66 74 67 75 72 76 68 77
REMARK SMILES IDX 69 78 71 79 73 80 70 81 54 82 55 83 60 84 56 85 57 86 59 87
REMARK SMILES IDX 61 88 58 89
REMARK H PARENT 24 6 28 32 78 51 52 62
REMARK Flexibility Score: inf
ROOT
ATOM      1  C   UNL     1      -5.007   5.910   2.479  1.00  0.00     0.042 C 
ENDROOT
BRANCH   1   2
ATOM      2  C   UNL     1      -5.008   4.719   3.441  1.00  0.00     0.118 C 
BRANCH   2   3
ATOM      3  N   UNL     1      -5.500   3.527   2.769  1.00  0.00    -0.352 N 
ATOM      4  C   UNL     1      -4.879   2.518   2.106  1.00  0.00     0.251 C 
ATOM      5  O   UNL     1      -5.580   1.722   1.486  1.00  0.00    -0.270 OA
ATOM      6  H   UNL     1      -6.479   3.432   2.801  1.00  0.00     0.163 HD
BRANCH   4   7
ATOM      7  C   UNL     1      -3.412   2.300   2.156  1.00  0.00     0.067 C 
ATOM      8  C   UNL     1       0.677   1.379   2.432  1.00  0.00    -0.002 A 
ATOM      9  C   UNL     1       1.618   2.427   2.417  1.00  0.00     0.054 A 
ATOM     10  C   UNL     1      -0.688   1.687   2.366  1.00  0.00     0.131 A 
ATOM     11  C   UNL     1       1.204   3.755   2.313  1.00  0.00     0.130 A 
ATOM     12  C   UNL     1      -1.107   3.007   2.222  1.00  0.00     0.021 A 
ATOM     13  O   UNL     1      -1.575   0.662   2.520  1.00  0.00    -0.475 OA
ATOM     14  C   UNL     1      -0.160   4.035   2.197  1.00  0.00     0.058 A 
ATOM     15  C   UNL     1      -2.528   3.309   2.155  1.00  0.00     0.025 C 
ATOM     16  C   UNL     1      -2.935   0.856   2.039  1.00  0.00     0.314 C 
BRANCH   8  17
ATOM     17  C   UNL     1       1.159  -0.055   2.472  1.00  0.00     0.039 C 
BRANCH  17  18
ATOM     18  C   UNL     1       0.803  -0.867   1.218  1.00  0.00     0.001 C 
ATOM     19  C   UNL     1       1.295  -0.237  -0.079  1.00  0.00     0.004 C 
ENDBRANCH  17  18
ENDBRANCH   8  17
BRANCH  11  20
ATOM     20  O   UNL     1       2.005   4.861   2.307  1.00  0.00    -0.406 OA
BRANCH  20  21
ATOM     21  C   UNL     1       3.402   4.670   2.454  1.00  0.00     0.573 C 
ATOM     22  F   UNL     1       3.692   4.059   3.622  1.00  0.00    -0.132 F 
ATOM     23  F   UNL     1       3.902   3.950   1.428  1.00  0.00    -0.132 F 
ATOM     24  F   UNL     1       4.004   5.880   2.451  1.00  0.00    -0.132 F 
ENDBRANCH  20  21
ENDBRANCH  11  20
BRANCH  16  25
ATOM     25  C   UNL     1      -3.805  -0.226   2.720  1.00  0.00     0.429 C 
ATOM     26  F   UNL     1      -4.837  -0.634   1.949  1.00  0.00    -0.167 F 
ATOM     27  F   UNL     1      -3.075  -1.349   2.967  1.00  0.00    -0.167 F 
ATOM     28  F   UNL     1      -4.300   0.184   3.911  1.00  0.00    -0.167 F 
ENDBRANCH  16  25
ENDBRANCH   4   7
ENDBRANCH   2   3
ENDBRANCH   1   2
BRANCH   1  29
ATOM     29  C   UNL     1      -6.409   6.438   2.179  1.00  0.00     0.118 C 
BRANCH  29  30
ATOM     30  N   UNL     1      -6.985   7.117   3.329  1.00  0.00    -0.352 N 
ATOM     31  C   UNL     1      -7.358   8.429   3.480  1.00  0.00     0.251 C 
ATOM     32  H   UNL     1      -7.130   6.549   4.120  1.00  0.00     0.163 HD
ATOM     33  O   UNL     1      -7.585   8.872   4.601  1.00  0.00    -0.269 OA
BRANCH  31  34
ATOM     34  C   UNL     1      -7.480   9.314   2.301  1.00  0.00     0.039 A 
ATOM     35  C   UNL     1      -6.998  10.623   2.388  1.00  0.00     0.014 A 
ATOM     36  C   UNL     1      -8.108   8.874   1.132  1.00  0.00     0.014 A 
ATOM     37  C   UNL     1      -7.091  11.472   1.283  1.00  0.00     0.010 A 
ATOM     38  C   UNL     1      -8.143   9.700   0.011  1.00  0.00     0.010 A 
ATOM     39  C   UNL     1      -7.635  11.006   0.075  1.00  0.00    -0.014 A 
BRANCH  39  40
ATOM     40  C   UNL     1      -7.665  11.862  -1.137  1.00  0.00     0.031 A 
ATOM     41  C   UNL     1      -8.977  12.293  -1.730  1.00  0.00     0.074 A 
ATOM     42  C   UNL     1      -6.508  12.186  -1.746  1.00  0.00     0.049 A 
ATOM     43  N   UNL     1      -9.205  12.959  -2.834  1.00  0.00    -0.248 NA
ATOM     44  C   UNL     1     -10.193  11.904  -1.000  1.00  0.00     0.031 C 
ATOM     45  C   UNL     1      -5.173  11.794  -1.290  1.00  0.00     0.029 A 
ATOM     46  N   UNL     1      -6.270  12.906  -2.890  1.00  0.00    -0.354 N 
ATOM     47  C   UNL     1     -10.587  13.056  -2.938  1.00  0.00     0.074 A 
ATOM     48  C   UNL     1     -11.146  12.342  -1.810  1.00  0.00     0.031 C 
ATOM     49  C   UNL     1      -4.257  12.288  -2.136  1.00  0.00     0.029 A 
ATOM     50  C   UNL     1      -4.938  12.996  -3.215  1.00  0.00     0.049 A 
ATOM     51  H   UNL     1      -6.985  13.318  -3.426  1.00  0.00     0.167 HD
ATOM     52  C   UNL     1     -11.322  13.696  -3.878  1.00  0.00     0.037 A 
ATOM     53  C   UNL     1      -4.335  13.573  -4.271  1.00  0.00     0.037 A 
ATOM     54  C   UNL     1     -10.761  14.423  -4.988  1.00  0.00     0.049 A 
ATOM     55  C   UNL     1      -5.174  14.263  -5.310  1.00  0.00     0.074 A 
ATOM     56  C   UNL     1     -11.419  15.158  -5.959  1.00  0.00     0.029 A 
ATOM     57  N   UNL     1      -9.407  14.501  -5.277  1.00  0.00    -0.354 N 
ATOM     58  N   UNL     1      -6.476  14.401  -5.361  1.00  0.00    -0.248 NA
ATOM     59  C   UNL     1      -4.459  14.878  -6.437  1.00  0.00     0.031 C 
ATOM     60  C   UNL     1     -10.467  15.644  -6.860  1.00  0.00     0.029 A 
ATOM     61  C   UNL     1      -9.212  15.250  -6.426  1.00  0.00     0.049 A 
ATOM     62  H   UNL     1      -8.691  14.085  -4.745  1.00  0.00     0.167 HD
ATOM     63  C   UNL     1      -6.736  15.136  -6.510  1.00  0.00     0.074 A 
ATOM     64  C   UNL     1      -5.454  15.428  -7.118  1.00  0.00     0.031 C 
ATOM     65  C   UNL     1      -7.928  15.532  -7.018  1.00  0.00     0.037 A 
BRANCH  52  66
ATOM     66  C   UNL     1     -12.816  13.640  -3.747  1.00  0.00     0.057 A 
ATOM     67  C   UNL     1     -13.495  14.334  -2.737  1.00  0.00     0.134 A 
ATOM     68  C   UNL     1     -13.589  12.914  -4.662  1.00  0.00     0.134 A 
ATOM     69  F   UNL     1     -12.815  15.040  -1.821  1.00  0.00    -0.206 F 
ATOM     70  C   UNL     1     -14.886  14.287  -2.626  1.00  0.00     0.040 A 
ATOM     71  C   UNL     1     -14.982  12.880  -4.577  1.00  0.00     0.040 A 
ATOM     72  F   UNL     1     -13.004  12.233  -5.659  1.00  0.00    -0.206 F 
ATOM     73  C   UNL     1     -15.634  13.563  -3.552  1.00  0.00     0.006 A 
ENDBRANCH  52  66
BRANCH  53  74
ATOM     74  C   UNL     1      -2.857  13.532  -4.394  1.00  0.00     0.057 A 
ATOM     75  C   UNL     1      -2.088  14.690  -4.228  1.00  0.00     0.134 A 
ATOM     76  C   UNL     1      -2.178  12.343  -4.684  1.00  0.00     0.134 A 
ATOM     77  F   UNL     1      -2.683  15.863  -3.967  1.00  0.00    -0.206 F 
ATOM     78  C   UNL     1      -0.699  14.671  -4.362  1.00  0.00     0.040 A 
ATOM     79  C   UNL     1      -0.787  12.304  -4.797  1.00  0.00     0.040 A 
ATOM     80  F   UNL     1      -2.857  11.197  -4.847  1.00  0.00    -0.206 F 
ATOM     81  C   UNL     1      -0.044  13.473  -4.642  1.00  0.00     0.006 A 
ENDBRANCH  53  74
BRANCH  65  82
ATOM     82  C   UNL     1      -7.900  16.343  -8.279  1.00  0.00     0.057 A 
ATOM     83  C   UNL     1      -7.597  15.767  -9.519  1.00  0.00     0.134 A 
ATOM     84  C   UNL     1      -8.214  17.708  -8.258  1.00  0.00     0.134 A 
ATOM     85  F   UNL     1      -7.272  14.468  -9.605  1.00  0.00    -0.206 F 
ATOM     86  C   UNL     1      -7.588  16.525 -10.692  1.00  0.00     0.040 A 
ATOM     87  C   UNL     1      -8.234  18.470  -9.427  1.00  0.00     0.040 A 
ATOM     88  F   UNL     1      -8.521  18.319  -7.104  1.00  0.00    -0.206 F 
ATOM     89  C   UNL     1      -7.915  17.879 -10.648  1.00  0.00     0.006 A 
ENDBRANCH  65  82
ENDBRANCH  39  40
ENDBRANCH  31  34
ENDBRANCH  29  30
ENDBRANCH   1  29
TORSDOF 15
