REMARK SMILES COc1cc(C(=O)N[C@H]2CCCC[C@H]2C(=O)NCCCNC(=O)c2ccc(-c3c4nc(c(-c5c(F)cccc5F)c5ccc([nH]5)c(-c5c(F)cccc5F)c5nc(c(-c6c(F)cccc6F)c6ccc3[nH]6)C=C5)C=C4)cc2)cc(Cl)c1OC
REMARK SMILES IDX 18 1 17 2 15 3 16 4 14 6 9 7 10 8 11 9 13 10 12 11 8 12 6 13
REMARK SMILES IDX 7 14 5 16 3 17 4 18 81 19 79 20 78 21 80 22 2 23 1 24 82 25
REMARK SMILES IDX 83 26 19 27 20 28 21 29 22 30 23 32 24 33 25 34 77 35 26 36
REMARK SMILES IDX 76 37 27 38 28 39 29 40 70 41 30 42 75 43 69 44 71 45 31 46
REMARK SMILES IDX 74 47 68 48 67 49 32 51 58 52 41 53 57 54 42 55 45 56 56 57
REMARK SMILES IDX 72 58 43 59 44 60 55 62 73 63 46 64 33 65 34 66 39 67 35 68
REMARK SMILES IDX 36 69 38 70 40 71 37 72 59 73 60 74 65 75 61 76 62 77 64 78
REMARK SMILES IDX 66 79 63 80 47 81 48 82 53 83 49 84 50 85 52 86 54 87 51 88
REMARK H PARENT 17 5 8 15 21 31 71 50 45 61
REMARK Flexibility Score: inf
ROOT
ATOM      1  C   UNL     1       2.003   4.170  -7.633  1.00  0.00     0.117 C 
ENDROOT
BRANCH   1   2
ATOM      2  N   UNL     1       2.090   3.284  -6.483  1.00  0.00    -0.356 N 
ATOM      3  C   UNL     1       1.996   3.494  -5.144  1.00  0.00     0.225 C 
ATOM      4  O   UNL     1       2.047   2.495  -4.419  1.00  0.00    -0.275 OA
ATOM      5  H   UNL     1       2.249   2.342  -6.722  1.00  0.00     0.163 HD
BRANCH   3   6
ATOM      6  C   UNL     1       1.848   4.874  -4.513  1.00  0.00     0.101 C 
ATOM      7  C   UNL     1       3.166   5.689  -4.405  1.00  0.00     0.094 C 
ATOM      8  C   UNL     1       2.965   7.214  -4.329  1.00  0.00     0.026 C 
ATOM      9  C   UNL     1       1.830   7.724  -5.199  1.00  0.00     0.002 C 
ATOM     10  C   UNL     1       0.559   5.578  -4.982  1.00  0.00     0.015 C 
ATOM     11  C   UNL     1       0.530   7.079  -4.757  1.00  0.00     0.001 C 
BRANCH   7  12
ATOM     12  N   UNL     1       4.215   5.392  -5.381  1.00  0.00    -0.349 N 
ATOM     13  C   UNL     1       5.202   4.439  -5.491  1.00  0.00     0.251 C 
ATOM     14  O   UNL     1       5.961   4.560  -6.458  1.00  0.00    -0.269 OA
ATOM     15  H   UNL     1       4.215   6.022  -6.137  1.00  0.00     0.164 HD
BRANCH  13  16
ATOM     16  C   UNL     1       5.403   3.257  -4.598  1.00  0.00     0.045 A 
ATOM     17  C   UNL     1       6.371   1.010  -4.411  1.00  0.00     0.163 A 
ATOM     18  C   UNL     1       6.128   2.180  -5.144  1.00  0.00     0.064 A 
ATOM     19  C   UNL     1       5.861   0.883  -3.105  1.00  0.00     0.179 A 
ATOM     20  C   UNL     1       5.141   1.953  -2.558  1.00  0.00     0.087 A 
ATOM     21  C   UNL     1       4.954   3.138  -3.287  1.00  0.00     0.038 A 
ATOM     22  Cl  UNL     1       4.377   1.898  -1.005  1.00  0.00    -0.080 Cl
BRANCH  17  23
ATOM     23  O   UNL     1       7.071  -0.066  -4.902  1.00  0.00    -0.493 OA
ATOM     24  C   UNL     1       7.944   0.174  -5.999  1.00  0.00     0.278 C 
ENDBRANCH  17  23
BRANCH  19  25
ATOM     25  O   UNL     1       6.044  -0.336  -2.502  1.00  0.00    -0.491 OA
ATOM     26  C   UNL     1       6.545  -0.307  -1.170  1.00  0.00     0.278 C 
ENDBRANCH  19  25
ENDBRANCH  13  16
ENDBRANCH   7  12
ENDBRANCH   3   6
ENDBRANCH   1   2
BRANCH   1  27
ATOM     27  C   UNL     1       3.251   4.215  -8.509  1.00  0.00     0.042 C 
BRANCH  27  28
ATOM     28  C   UNL     1       3.864   2.870  -8.867  1.00  0.00     0.118 C 
BRANCH  28  29
ATOM     29  N   UNL     1       3.177   2.243  -9.986  1.00  0.00    -0.352 N 
ATOM     30  C   UNL     1       3.672   1.943 -11.231  1.00  0.00     0.251 C 
ATOM     31  H   UNL     1       2.235   2.003  -9.830  1.00  0.00     0.163 HD
ATOM     32  O   UNL     1       2.904   1.638 -12.141  1.00  0.00    -0.269 OA
BRANCH  30  33
ATOM     33  C   UNL     1       5.130   1.991 -11.488  1.00  0.00     0.039 A 
ATOM     34  C   UNL     1       5.593   2.603 -12.656  1.00  0.00     0.014 A 
ATOM     35  C   UNL     1       6.035   1.394 -10.604  1.00  0.00     0.014 A 
ATOM     36  C   UNL     1       6.965   2.646 -12.923  1.00  0.00     0.010 A 
ATOM     37  C   UNL     1       7.405   1.483 -10.844  1.00  0.00     0.010 A 
ATOM     38  C   UNL     1       7.882   2.096 -12.013  1.00  0.00    -0.014 A 
BRANCH  38  39
ATOM     39  C   UNL     1       9.340   2.112 -12.292  1.00  0.00     0.031 A 
ATOM     40  C   UNL     1      10.062   0.826 -12.589  1.00  0.00     0.074 A 
ATOM     41  C   UNL     1      10.027   3.268 -12.233  1.00  0.00     0.049 A 
ATOM     42  N   UNL     1      11.338   0.623 -12.800  1.00  0.00    -0.248 NA
ATOM     43  C   UNL     1       9.243  -0.395 -12.635  1.00  0.00     0.031 C 
ATOM     44  C   UNL     1       9.455   4.578 -11.921  1.00  0.00     0.029 A 
ATOM     45  N   UNL     1      11.362   3.524 -12.424  1.00  0.00    -0.354 N 
ATOM     46  C   UNL     1      11.477  -0.747 -12.984  1.00  0.00     0.074 A 
ATOM     47  C   UNL     1      10.162  -1.331 -12.824  1.00  0.00     0.031 C 
ATOM     48  C   UNL     1      10.431   5.501 -11.953  1.00  0.00     0.029 A 
ATOM     49  C   UNL     1      11.698   4.845 -12.263  1.00  0.00     0.049 A 
ATOM     50  H   UNL     1      12.017   2.825 -12.655  1.00  0.00     0.167 HD
ATOM     51  C   UNL     1      12.594  -1.454 -13.279  1.00  0.00     0.037 A 
ATOM     52  C   UNL     1      12.894   5.457 -12.350  1.00  0.00     0.037 A 
ATOM     53  C   UNL     1      13.896  -0.875 -13.472  1.00  0.00     0.049 A 
ATOM     54  C   UNL     1      14.118   4.652 -12.685  1.00  0.00     0.074 A 
ATOM     55  C   UNL     1      15.075  -1.504 -13.836  1.00  0.00     0.029 A 
ATOM     56  N   UNL     1      14.191   0.471 -13.320  1.00  0.00    -0.354 N 
ATOM     57  N   UNL     1      14.225   3.366 -12.913  1.00  0.00    -0.248 NA
ATOM     58  C   UNL     1      15.389   5.386 -12.780  1.00  0.00     0.031 C 
ATOM     59  C   UNL     1      16.090  -0.542 -13.874  1.00  0.00     0.029 A 
ATOM     60  C   UNL     1      15.537   0.690 -13.567  1.00  0.00     0.049 A 
ATOM     61  H   UNL     1      13.541   1.168 -13.073  1.00  0.00     0.167 HD
ATOM     62  C   UNL     1      15.564   3.140 -13.201  1.00  0.00     0.074 A 
ATOM     63  C   UNL     1      16.232   4.423 -13.128  1.00  0.00     0.031 C 
ATOM     64  C   UNL     1      16.185   1.973 -13.498  1.00  0.00     0.037 A 
BRANCH  51  65
ATOM     65  C   UNL     1      12.452  -2.940 -13.414  1.00  0.00     0.057 A 
ATOM     66  C   UNL     1      11.834  -3.521 -14.529  1.00  0.00     0.134 A 
ATOM     67  C   UNL     1      12.966  -3.799 -12.436  1.00  0.00     0.134 A 
ATOM     68  F   UNL     1      11.310  -2.751 -15.494  1.00  0.00    -0.206 F 
ATOM     69  C   UNL     1      11.714  -4.906 -14.656  1.00  0.00     0.040 A 
ATOM     70  C   UNL     1      12.872  -5.186 -12.562  1.00  0.00     0.040 A 
ATOM     71  F   UNL     1      13.574  -3.306 -11.346  1.00  0.00    -0.206 F 
ATOM     72  C   UNL     1      12.240  -5.743 -13.673  1.00  0.00     0.006 A 
ENDBRANCH  51  65
BRANCH  52  73
ATOM     73  C   UNL     1      12.992   6.922 -12.138  1.00  0.00     0.057 A 
ATOM     74  C   UNL     1      13.212   7.790 -13.213  1.00  0.00     0.134 A 
ATOM     75  C   UNL     1      12.876   7.485 -10.863  1.00  0.00     0.134 A 
ATOM     76  F   UNL     1      13.353   7.304 -14.455  1.00  0.00    -0.206 F 
ATOM     77  C   UNL     1      13.326   9.168 -13.027  1.00  0.00     0.040 A 
ATOM     78  C   UNL     1      12.968   8.864 -10.664  1.00  0.00     0.040 A 
ATOM     79  F   UNL     1      12.663   6.704  -9.794  1.00  0.00    -0.206 F 
ATOM     80  C   UNL     1      13.199   9.709 -11.748  1.00  0.00     0.006 A 
ENDBRANCH  52  73
BRANCH  64  81
ATOM     81  C   UNL     1      17.652   2.034 -13.796  1.00  0.00     0.057 A 
ATOM     82  C   UNL     1      18.603   2.194 -12.781  1.00  0.00     0.134 A 
ATOM     83  C   UNL     1      18.120   1.894 -15.108  1.00  0.00     0.134 A 
ATOM     84  F   UNL     1      18.216   2.346 -11.505  1.00  0.00    -0.206 F 
ATOM     85  C   UNL     1      19.969   2.228 -13.062  1.00  0.00     0.040 A 
ATOM     86  C   UNL     1      19.485   1.907 -15.400  1.00  0.00     0.040 A 
ATOM     87  F   UNL     1      17.260   1.732 -16.125  1.00  0.00    -0.206 F 
ATOM     88  C   UNL     1      20.413   2.079 -14.375  1.00  0.00     0.006 A 
ENDBRANCH  64  81
ENDBRANCH  38  39
ENDBRANCH  30  33
ENDBRANCH  28  29
ENDBRANCH  27  28
ENDBRANCH   1  27
TORSDOF 14
