REMARK SMILES Cc1ccc(S(=O)(=O)n2cc(C(=O)C(=O)NCC(=O)NCC(=O)NCCCNC(=O)c3ccc(-c4c5nc(c(-c6c(F)cccc6F)c6ccc([nH]6)c(-c6c(F)cccc6F)c6nc(c(-c7c(F)cccc7F)c7ccc4[nH]7)C=C6)C=C5)cc3)c3ccccc32)cc1
REMARK SMILES IDX 22 1 23 2 24 3 21 5 20 6 18 7 19 8 17 10 16 11 14 12 15 13
REMARK SMILES IDX 12 15 13 16 11 17 9 18 10 19 90 20 85 21 89 22 86 23 88 24
REMARK SMILES IDX 87 25 6 26 7 27 8 28 5 29 1 30 2 31 3 32 92 33 4 34 91 35
REMARK SMILES IDX 25 36 26 37 27 38 28 39 29 40 30 42 31 43 32 44 84 45 33 46
REMARK SMILES IDX 83 47 34 48 35 49 36 50 77 51 37 52 82 53 76 54 78 55 38 56
REMARK SMILES IDX 81 57 75 58 74 59 39 61 65 62 48 63 64 64 49 65 52 66 63 67
REMARK SMILES IDX 79 68 50 69 51 70 62 72 80 73 53 74 40 75 41 76 46 77 42 78
REMARK SMILES IDX 43 79 45 80 47 81 44 82 66 83 67 84 72 85 68 86 69 87 71 88
REMARK SMILES IDX 73 89 70 90 54 91 55 92 60 93 56 94 57 95 59 96 61 97 58 98
REMARK H PARENT 24 4 20 9 16 14 28 41 78 60 52 71
REMARK Flexibility Score: inf
ROOT
ATOM      1  C   UNL     1     -10.136   3.472   1.074  1.00  0.00     0.239 C 
ATOM      2  O   UNL     1     -10.649   2.887   0.119  1.00  0.00    -0.273 OA
ATOM      3  N   UNL     1     -10.149   2.851   2.295  1.00  0.00    -0.355 N 
ATOM      4  H   UNL     1     -10.748   2.074   2.385  1.00  0.00     0.163 HD
ENDROOT
BRANCH   1   5
ATOM      5  C   UNL     1      -9.385   4.808   0.884  1.00  0.00     0.216 C 
BRANCH   5   6
ATOM      6  N   UNL     1      -9.824   5.838   1.815  1.00  0.00    -0.346 N 
ATOM      7  C   UNL     1      -9.153   6.630   2.692  1.00  0.00     0.239 C 
ATOM      8  O   UNL     1      -9.835   7.356   3.423  1.00  0.00    -0.273 OA
ATOM      9  H   UNL     1     -10.797   5.989   1.808  1.00  0.00     0.164 HD
BRANCH   7  10
ATOM     10  C   UNL     1      -7.620   6.663   2.788  1.00  0.00     0.216 C 
BRANCH  10  11
ATOM     11  N   UNL     1      -6.986   5.467   3.343  1.00  0.00    -0.340 N 
ATOM     12  C   UNL     1      -6.169   4.512   2.765  1.00  0.00     0.292 C 
ATOM     13  O   UNL     1      -5.855   3.525   3.423  1.00  0.00    -0.265 OA
ATOM     14  H   UNL     1      -7.174   5.315   4.297  1.00  0.00     0.164 HD
BRANCH  12  15
ATOM     15  C   UNL     1      -5.689   4.667   1.310  1.00  0.00     0.252 C 
ATOM     16  O   UNL     1      -5.879   5.755   0.773  1.00  0.00    -0.283 OA
BRANCH  15  17
ATOM     17  C   UNL     1      -5.031   3.596   0.553  1.00  0.00     0.054 A 
ATOM     18  N   UNL     1      -4.146   1.662  -0.130  1.00  0.00    -0.240 N 
ATOM     19  C   UNL     1      -4.831   2.271   0.897  1.00  0.00     0.117 A 
ATOM     20  C   UNL     1      -3.890   2.547  -1.156  1.00  0.00     0.065 A 
ATOM     21  C   UNL     1      -4.437   3.769  -0.749  1.00  0.00     0.012 A 
ATOM     22  C   UNL     1      -3.206   2.418  -2.379  1.00  0.00     0.028 A 
ATOM     23  C   UNL     1      -4.304   4.886  -1.604  1.00  0.00     0.011 A 
ATOM     24  C   UNL     1      -3.067   3.551  -3.186  1.00  0.00     0.002 A 
ATOM     25  C   UNL     1      -3.612   4.770  -2.808  1.00  0.00     0.001 A 
BRANCH  18  26
ATOM     26  S   UNL     1      -3.588   0.050  -0.084  1.00  0.00     0.268 S 
ATOM     27  O   UNL     1      -3.940  -0.512  -1.368  1.00  0.00    -0.201 OA
ATOM     28  O   UNL     1      -4.090  -0.502   1.167  1.00  0.00    -0.201 OA
BRANCH  26  29
ATOM     29  C   UNL     1      -1.817   0.086   0.029  1.00  0.00     0.088 A 
ATOM     30  C   UNL     1       2.485  -0.050   0.018  1.00  0.00     0.044 C 
ATOM     31  C   UNL     1       0.985   0.001   0.041  1.00  0.00    -0.051 A 
ATOM     32  C   UNL     1       0.243  -1.184  -0.033  1.00  0.00     0.005 A 
ATOM     33  C   UNL     1       0.310   1.224   0.136  1.00  0.00     0.005 A 
ATOM     34  C   UNL     1      -1.152  -1.144  -0.046  1.00  0.00     0.022 A 
ATOM     35  C   UNL     1      -1.087   1.270   0.144  1.00  0.00     0.022 A 
ENDBRANCH  26  29
ENDBRANCH  18  26
ENDBRANCH  15  17
ENDBRANCH  12  15
ENDBRANCH  10  11
ENDBRANCH   7  10
ENDBRANCH   5   6
ENDBRANCH   1   5
BRANCH   3  36
ATOM     36  C   UNL     1      -9.382   3.209   3.465  1.00  0.00     0.117 C 
BRANCH  36  37
ATOM     37  C   UNL     1     -10.143   4.079   4.450  1.00  0.00     0.042 C 
BRANCH  37  38
ATOM     38  C   UNL     1     -10.803   3.258   5.529  1.00  0.00     0.118 C 
BRANCH  38  39
ATOM     39  N   UNL     1      -9.916   2.892   6.627  1.00  0.00    -0.352 N 
ATOM     40  C   UNL     1     -10.198   2.293   7.842  1.00  0.00     0.251 C 
ATOM     41  H   UNL     1      -8.966   3.106   6.481  1.00  0.00     0.163 HD
ATOM     42  O   UNL     1      -9.297   2.178   8.670  1.00  0.00    -0.269 OA
BRANCH  40  43
ATOM     43  C   UNL     1     -11.498   1.598   8.069  1.00  0.00     0.039 A 
ATOM     44  C   UNL     1     -11.410   0.369   8.740  1.00  0.00     0.014 A 
ATOM     45  C   UNL     1     -12.558   1.834   7.214  1.00  0.00     0.014 A 
ATOM     46  C   UNL     1     -12.116  -0.715   8.245  1.00  0.00     0.010 A 
ATOM     47  C   UNL     1     -13.068   0.751   6.561  1.00  0.00     0.010 A 
ATOM     48  C   UNL     1     -12.802  -0.525   7.057  1.00  0.00    -0.014 A 
BRANCH  48  49
ATOM     49  C   UNL     1     -13.420  -1.563   6.274  1.00  0.00     0.031 A 
ATOM     50  C   UNL     1     -14.864  -1.735   6.484  1.00  0.00     0.074 A 
ATOM     51  C   UNL     1     -12.706  -2.078   5.250  1.00  0.00     0.049 A 
ATOM     52  N   UNL     1     -15.530  -2.752   6.091  1.00  0.00    -0.248 NA
ATOM     53  C   UNL     1     -15.692  -0.753   7.193  1.00  0.00     0.031 C 
ATOM     54  C   UNL     1     -13.172  -2.824   4.089  1.00  0.00     0.029 A 
ATOM     55  N   UNL     1     -11.309  -2.169   5.169  1.00  0.00    -0.354 N 
ATOM     56  C   UNL     1     -16.864  -2.426   6.181  1.00  0.00     0.074 A 
ATOM     57  C   UNL     1     -16.922  -1.215   6.955  1.00  0.00     0.031 C 
ATOM     58  C   UNL     1     -12.151  -3.558   3.606  1.00  0.00     0.029 A 
ATOM     59  C   UNL     1     -11.042  -3.402   4.533  1.00  0.00     0.049 A 
ATOM     60  H   UNL     1     -10.651  -1.510   5.489  1.00  0.00     0.167 HD
ATOM     61  C   UNL     1     -17.742  -3.152   5.439  1.00  0.00     0.037 A 
ATOM     62  C   UNL     1     -10.477  -4.419   5.252  1.00  0.00     0.037 A 
ATOM     63  C   UNL     1     -17.022  -4.210   4.738  1.00  0.00     0.049 A 
ATOM     64  C   UNL     1     -11.432  -5.581   5.422  1.00  0.00     0.074 A 
ATOM     65  C   UNL     1     -16.460  -4.269   3.473  1.00  0.00     0.029 A 
ATOM     66  N   UNL     1     -16.403  -5.197   5.493  1.00  0.00    -0.354 N 
ATOM     67  N   UNL     1     -12.735  -5.468   5.402  1.00  0.00    -0.248 NA
ATOM     68  C   UNL     1     -10.995  -6.969   5.529  1.00  0.00     0.031 C 
ATOM     69  C   UNL     1     -15.455  -5.272   3.491  1.00  0.00     0.029 A 
ATOM     70  C   UNL     1     -15.415  -5.823   4.761  1.00  0.00     0.049 A 
ATOM     71  H   UNL     1     -16.637  -5.420   6.423  1.00  0.00     0.167 HD
ATOM     72  C   UNL     1     -13.306  -6.717   5.431  1.00  0.00     0.074 A 
ATOM     73  C   UNL     1     -12.173  -7.620   5.519  1.00  0.00     0.031 C 
ATOM     74  C   UNL     1     -14.658  -6.918   5.345  1.00  0.00     0.037 A 
BRANCH  61  75
ATOM     75  C   UNL     1     -19.159  -2.754   5.141  1.00  0.00     0.057 A 
ATOM     76  C   UNL     1     -19.750  -3.111   3.913  1.00  0.00     0.134 A 
ATOM     77  C   UNL     1     -19.994  -2.028   6.007  1.00  0.00     0.134 A 
ATOM     78  F   UNL     1     -19.089  -3.822   2.992  1.00  0.00    -0.206 F 
ATOM     79  C   UNL     1     -21.054  -2.748   3.559  1.00  0.00     0.040 A 
ATOM     80  C   UNL     1     -21.290  -1.624   5.649  1.00  0.00     0.040 A 
ATOM     81  F   UNL     1     -19.613  -1.716   7.252  1.00  0.00    -0.206 F 
ATOM     82  C   UNL     1     -21.826  -1.988   4.421  1.00  0.00     0.006 A 
ENDBRANCH  61  75
BRANCH  62  83
ATOM     83  C   UNL     1      -9.483  -3.894   6.242  1.00  0.00     0.057 A 
ATOM     84  C   UNL     1      -8.371  -3.205   5.712  1.00  0.00     0.134 A 
ATOM     85  C   UNL     1      -9.847  -3.581   7.554  1.00  0.00     0.134 A 
ATOM     86  F   UNL     1      -7.942  -3.482   4.469  1.00  0.00    -0.206 F 
ATOM     87  C   UNL     1      -7.796  -2.111   6.365  1.00  0.00     0.040 A 
ATOM     88  C   UNL     1      -9.246  -2.509   8.234  1.00  0.00     0.040 A 
ATOM     89  F   UNL     1     -10.881  -4.197   8.144  1.00  0.00    -0.206 F 
ATOM     90  C   UNL     1      -8.273  -1.727   7.612  1.00  0.00     0.006 A 
ENDBRANCH  62  83
BRANCH  74  91
ATOM     91  C   UNL     1     -15.421  -8.176   5.719  1.00  0.00     0.057 A 
ATOM     92  C   UNL     1     -14.916  -9.197   6.534  1.00  0.00     0.134 A 
ATOM     93  C   UNL     1     -16.798  -8.310   5.397  1.00  0.00     0.134 A 
ATOM     94  F   UNL     1     -13.672  -9.164   7.023  1.00  0.00    -0.206 F 
ATOM     95  C   UNL     1     -15.695 -10.287   6.947  1.00  0.00     0.040 A 
ATOM     96  C   UNL     1     -17.603  -9.346   5.875  1.00  0.00     0.040 A 
ATOM     97  F   UNL     1     -17.448  -7.425   4.628  1.00  0.00    -0.206 F 
ATOM     98  C   UNL     1     -17.047 -10.355   6.638  1.00  0.00     0.006 A 
ENDBRANCH  74  91
ENDBRANCH  48  49
ENDBRANCH  40  43
ENDBRANCH  38  39
ENDBRANCH  37  38
ENDBRANCH  36  37
ENDBRANCH   3  36
TORSDOF 17
