REMARK SMILES Cc1nc2cc(SCC(=O)NCCCNC(=O)c3ccc(-c4c5nc(c(-c6c(F)cccc6F)c6ccc([nH]6)c(-c6c(F)cccc6F)c6nc(c(-c7c(F)cccc7F)c7ccc4[nH]7)C=C6)C=C5)cc3)ccc2s1
REMARK SMILES IDX 13 1 12 2 11 3 9 4 10 5 8 7 7 8 6 9 1 10 2 11 3 12 75 13
REMARK SMILES IDX 4 14 74 15 5 16 73 17 72 18 14 19 15 20 16 21 17 23 18 24
REMARK SMILES IDX 19 25 71 26 20 27 70 28 21 29 22 30 23 31 64 32 24 33 69 34
REMARK SMILES IDX 63 35 65 36 25 37 68 38 62 39 61 40 26 42 52 43 35 44 51 45
REMARK SMILES IDX 36 46 39 47 50 48 66 49 37 50 38 51 49 53 67 54 40 55 27 56
REMARK SMILES IDX 28 57 33 58 29 59 30 60 32 61 34 62 31 63 53 64 54 65 59 66
REMARK SMILES IDX 55 67 56 68 58 69 60 70 57 71 41 72 42 73 47 74 43 75 44 76
REMARK SMILES IDX 46 77 48 78 45 79
REMARK H PARENT 11 6 15 22 65 41 39 52
REMARK Flexibility Score: inf
ROOT
ATOM      1  C   UNL     1       5.016   2.361   3.322  1.00  0.00     0.042 C 
ENDROOT
BRANCH   1   2
ATOM      2  C   UNL     1       6.204   1.703   2.622  1.00  0.00     0.117 C 
BRANCH   2   3
ATOM      3  N   UNL     1       5.974   0.295   2.358  1.00  0.00    -0.355 N 
ATOM      4  C   UNL     1       5.680  -0.338   1.188  1.00  0.00     0.230 C 
ATOM      5  O   UNL     1       5.509  -1.560   1.229  1.00  0.00    -0.274 OA
ATOM      6  H   UNL     1       6.040  -0.292   3.145  1.00  0.00     0.163 HD
BRANCH   4   7
ATOM      7  C   UNL     1       5.650   0.411  -0.131  1.00  0.00     0.174 C 
BRANCH   7   8
ATOM      8  S   UNL     1       4.285   1.604  -0.281  1.00  0.00    -0.116 SA
BRANCH   8   9
ATOM      9  C   UNL     1       2.783   0.638  -0.202  1.00  0.00     0.010 A 
ATOM     10  C   UNL     1      -3.304   0.768   0.079  1.00  0.00     0.079 C 
ATOM     11  C   UNL     1      -1.851   0.449   0.038  1.00  0.00     0.091 A 
ATOM     12  N   UNL     1      -0.895   1.351   0.025  1.00  0.00    -0.241 NA
ATOM     13  S   UNL     1      -1.333  -1.187  -0.004  1.00  0.00    -0.119 S 
ATOM     14  C   UNL     1       0.340   0.729  -0.051  1.00  0.00     0.083 A 
ATOM     15  C   UNL     1       0.305  -0.664  -0.085  1.00  0.00     0.055 A 
ATOM     16  C   UNL     1       1.591   1.377  -0.102  1.00  0.00     0.045 A 
ATOM     17  C   UNL     1       1.478  -1.425  -0.181  1.00  0.00     0.022 A 
ATOM     18  C   UNL     1       2.707  -0.752  -0.256  1.00  0.00     0.016 A 
ENDBRANCH   8   9
ENDBRANCH   7   8
ENDBRANCH   4   7
ENDBRANCH   2   3
ENDBRANCH   1   2
BRANCH   1  19
ATOM     19  C   UNL     1       4.672   1.766   4.686  1.00  0.00     0.118 C 
BRANCH  19  20
ATOM     20  N   UNL     1       5.735   1.935   5.666  1.00  0.00    -0.352 N 
ATOM     21  C   UNL     1       5.715   2.512   6.910  1.00  0.00     0.251 C 
ATOM     22  H   UNL     1       6.610   1.577   5.391  1.00  0.00     0.163 HD
ATOM     23  O   UNL     1       6.775   2.686   7.510  1.00  0.00    -0.269 OA
BRANCH  21  24
ATOM     24  C   UNL     1       4.445   2.949   7.534  1.00  0.00     0.039 A 
ATOM     25  C   UNL     1       4.426   4.166   8.224  1.00  0.00     0.014 A 
ATOM     26  C   UNL     1       3.293   2.159   7.488  1.00  0.00     0.014 A 
ATOM     27  C   UNL     1       3.241   4.619   8.809  1.00  0.00     0.010 A 
ATOM     28  C   UNL     1       2.096   2.640   8.018  1.00  0.00     0.010 A 
ATOM     29  C   UNL     1       2.057   3.875   8.682  1.00  0.00    -0.014 A 
BRANCH  29  30
ATOM     30  C   UNL     1       0.771   4.384   9.226  1.00  0.00     0.031 A 
ATOM     31  C   UNL     1       0.079   3.666  10.350  1.00  0.00     0.074 A 
ATOM     32  C   UNL     1       0.194   5.463   8.663  1.00  0.00     0.049 A 
ATOM     33  N   UNL     1      -1.079   3.921  10.906  1.00  0.00    -0.248 NA
ATOM     34  C   UNL     1       0.768   2.492  10.909  1.00  0.00     0.031 C 
ATOM     35  C   UNL     1       0.739   6.224   7.537  1.00  0.00     0.029 A 
ATOM     36  N   UNL     1      -0.987   6.099   8.954  1.00  0.00    -0.354 N 
ATOM     37  C   UNL     1      -1.265   2.935  11.866  1.00  0.00     0.074 A 
ATOM     38  C   UNL     1      -0.120   2.052  11.790  1.00  0.00     0.031 C 
ATOM     39  C   UNL     1      -0.098   7.232   7.243  1.00  0.00     0.029 A 
ATOM     40  C   UNL     1      -1.251   7.170   8.135  1.00  0.00     0.049 A 
ATOM     41  H   UNL     1      -1.588   5.815   9.680  1.00  0.00     0.167 HD
ATOM     42  C   UNL     1      -2.287   2.787  12.743  1.00  0.00     0.037 A 
ATOM     43  C   UNL     1      -2.307   8.004   8.101  1.00  0.00     0.037 A 
ATOM     44  C   UNL     1      -3.414   3.679  12.838  1.00  0.00     0.049 A 
ATOM     45  C   UNL     1      -3.425   7.824   9.088  1.00  0.00     0.074 A 
ATOM     46  C   UNL     1      -4.468   3.644  13.734  1.00  0.00     0.029 A 
ATOM     47  N   UNL     1      -3.633   4.766  12.006  1.00  0.00    -0.354 N 
ATOM     48  N   UNL     1      -3.558   6.921  10.029  1.00  0.00    -0.248 NA
ATOM     49  C   UNL     1      -4.537   8.782   9.012  1.00  0.00     0.031 C 
ATOM     50  C   UNL     1      -5.343   4.691  13.424  1.00  0.00     0.029 A 
ATOM     51  C   UNL     1      -4.813   5.400  12.357  1.00  0.00     0.049 A 
ATOM     52  H   UNL     1      -3.038   5.046  11.273  1.00  0.00     0.167 HD
ATOM     53  C   UNL     1      -4.754   7.214  10.670  1.00  0.00     0.074 A 
ATOM     54  C   UNL     1      -5.302   8.387  10.021  1.00  0.00     0.031 C 
ATOM     55  C   UNL     1      -5.345   6.568  11.705  1.00  0.00     0.037 A 
BRANCH  42  56
ATOM     56  C   UNL     1      -2.230   1.615  13.678  1.00  0.00     0.057 A 
ATOM     57  C   UNL     1      -1.326   1.570  14.747  1.00  0.00     0.134 A 
ATOM     58  C   UNL     1      -3.111   0.537  13.529  1.00  0.00     0.134 A 
ATOM     59  F   UNL     1      -0.448   2.567  14.938  1.00  0.00    -0.206 F 
ATOM     60  C   UNL     1      -1.284   0.483  15.622  1.00  0.00     0.040 A 
ATOM     61  C   UNL     1      -3.095  -0.545  14.412  1.00  0.00     0.040 A 
ATOM     62  F   UNL     1      -4.006   0.521  12.530  1.00  0.00    -0.206 F 
ATOM     63  C   UNL     1      -2.175  -0.576  15.458  1.00  0.00     0.006 A 
ENDBRANCH  42  56
BRANCH  43  64
ATOM     64  C   UNL     1      -2.349   9.103   7.106  1.00  0.00     0.057 A 
ATOM     65  C   UNL     1      -2.170  10.435   7.496  1.00  0.00     0.134 A 
ATOM     66  C   UNL     1      -2.567   8.850   5.747  1.00  0.00     0.134 A 
ATOM     67  F   UNL     1      -1.976  10.739   8.788  1.00  0.00    -0.206 F 
ATOM     68  C   UNL     1      -2.222  11.480   6.573  1.00  0.00     0.040 A 
ATOM     69  C   UNL     1      -2.600   9.883   4.809  1.00  0.00     0.040 A 
ATOM     70  F   UNL     1      -2.740   7.594   5.311  1.00  0.00    -0.206 F 
ATOM     71  C   UNL     1      -2.433  11.204   5.223  1.00  0.00     0.006 A 
ENDBRANCH  43  64
BRANCH  55  72
ATOM     72  C   UNL     1      -6.637   7.133  12.214  1.00  0.00     0.057 A 
ATOM     73  C   UNL     1      -7.835   6.989  11.504  1.00  0.00     0.134 A 
ATOM     74  C   UNL     1      -6.688   7.802  13.444  1.00  0.00     0.134 A 
ATOM     75  F   UNL     1      -7.850   6.372  10.313  1.00  0.00    -0.206 F 
ATOM     76  C   UNL     1      -9.036   7.509  11.990  1.00  0.00     0.040 A 
ATOM     77  C   UNL     1      -7.886   8.306  13.950  1.00  0.00     0.040 A 
ATOM     78  F   UNL     1      -5.576   7.967  14.176  1.00  0.00    -0.206 F 
ATOM     79  C   UNL     1      -9.064   8.164  13.220  1.00  0.00     0.006 A 
ENDBRANCH  55  72
ENDBRANCH  29  30
ENDBRANCH  21  24
ENDBRANCH  19  20
ENDBRANCH   1  19
TORSDOF 12
