REMARK SMILES CC1(C)CC[N@H+](Cc2ccc(F)cc2/C=C/C(=O)NCCCNC(=O)c2ccc(-c3c4nc(c(-c5c(F)cccc5F)c5ccc([nH]5)c(-c5c(F)cccc5F)c5nc(c(-c6c(F)cccc6F)c6ccc3[nH]6)C=C5)C=C4)cc2)C1
REMARK SMILES IDX 20 1 19 2 17 3 18 4 16 6 15 7 14 8 8 9 9 10 10 11 13 12
REMARK SMILES IDX 11 13 12 14 7 15 6 16 1 17 2 18 3 19 4 20 80 21 5 22 21 24
REMARK SMILES IDX 22 25 23 26 24 27 25 29 26 30 27 31 79 32 28 33 78 34 29 35
REMARK SMILES IDX 30 36 31 37 72 38 32 39 77 40 71 41 73 42 33 43 76 44 70 45
REMARK SMILES IDX 69 46 34 48 60 49 43 50 59 51 44 52 47 53 58 54 74 55 45 56
REMARK SMILES IDX 46 57 57 59 75 60 48 61 35 62 36 63 41 64 37 65 38 66 40 67
REMARK SMILES IDX 42 68 39 69 61 70 62 71 67 72 63 73 64 74 66 75 68 76 65 77
REMARK SMILES IDX 49 78 50 79 55 80 51 81 52 82 54 83 56 84 53 85
REMARK H PARENT 19 5 6 23 23 28 73 47 47 58
REMARK Flexibility Score: inf
ROOT
ATOM      1  C   UNL     1       2.648   5.353   1.388  1.00  0.00     0.118 C 
ENDROOT
BRANCH   1   2
ATOM      2  N   UNL     1       2.119   5.945   2.603  1.00  0.00    -0.352 N 
ATOM      3  C   UNL     1       1.889   5.388   3.821  1.00  0.00     0.244 C 
ATOM      4  O   UNL     1       1.541   6.097   4.762  1.00  0.00    -0.270 OA
ATOM      5  H   UNL     1       1.890   6.900   2.533  1.00  0.00     0.163 HD
BRANCH   3   6
ATOM      6  C   UNL     1       2.142   3.950   4.047  1.00  0.00     0.072 C 
ATOM      7  C   UNL     1       1.623   2.970   3.292  1.00  0.00     0.014 C 
BRANCH   7   8
ATOM      8  C   UNL     1       1.856   1.544   3.579  1.00  0.00    -0.014 A 
ATOM      9  C   UNL     1       2.282   0.622   2.590  1.00  0.00     0.014 A 
ATOM     10  C   UNL     1       2.522  -0.714   2.979  1.00  0.00     0.013 A 
ATOM     11  C   UNL     1       2.297  -1.144   4.286  1.00  0.00     0.040 A 
ATOM     12  C   UNL     1       1.623   1.090   4.890  1.00  0.00     0.047 A 
ATOM     13  C   UNL     1       1.842  -0.239   5.228  1.00  0.00     0.123 A 
ATOM     14  F   UNL     1       1.622  -0.646   6.484  1.00  0.00    -0.207 F 
BRANCH   9  15
ATOM     15  C   UNL     1       2.540   1.016   1.138  1.00  0.00     0.299 C 
BRANCH  15  16
ATOM     16  N   UNL     1       1.542   0.623   0.135  1.00  0.00    -0.331 N 
ATOM     17  C   UNL     1      -1.125   0.086  -1.569  1.00  0.00     0.017 C 
ATOM     18  C   UNL     1      -0.764  -0.023  -0.077  1.00  0.00     0.019 C 
ATOM     19  C   UNL     1      -2.051  -0.046   0.751  1.00  0.00     0.017 C 
ATOM     20  C   UNL     1       0.099  -1.259   0.184  1.00  0.00     0.073 C 
ATOM     21  C   UNL     1       0.176   1.110   0.367  1.00  0.00     0.269 C 
ATOM     22  C   UNL     1       1.493  -0.798  -0.205  1.00  0.00     0.263 C 
ATOM     23  H   UNL     1       1.918   1.119  -0.673  1.00  0.00     0.348 HD
ENDBRANCH  15  16
ENDBRANCH   9  15
ENDBRANCH   7   8
ENDBRANCH   3   6
ENDBRANCH   1   2
BRANCH   1  24
ATOM     24  C   UNL     1       1.575   5.242   0.307  1.00  0.00     0.042 C 
BRANCH  24  25
ATOM     25  C   UNL     1       1.206   6.586  -0.317  1.00  0.00     0.118 C 
BRANCH  25  26
ATOM     26  N   UNL     1       2.298   7.143  -1.104  1.00  0.00    -0.352 N 
ATOM     27  C   UNL     1       2.335   7.521  -2.422  1.00  0.00     0.251 C 
ATOM     28  H   UNL     1       3.142   7.268  -0.612  1.00  0.00     0.163 HD
ATOM     29  O   UNL     1       3.415   7.766  -2.951  1.00  0.00    -0.269 OA
BRANCH  27  30
ATOM     30  C   UNL     1       1.090   7.629  -3.212  1.00  0.00     0.039 A 
ATOM     31  C   UNL     1       1.095   7.182  -4.537  1.00  0.00     0.014 A 
ATOM     32  C   UNL     1      -0.061   8.213  -2.676  1.00  0.00     0.014 A 
ATOM     33  C   UNL     1      -0.067   7.273  -5.306  1.00  0.00     0.010 A 
ATOM     34  C   UNL     1      -1.237   8.242  -3.421  1.00  0.00     0.010 A 
ATOM     35  C   UNL     1      -1.250   7.777  -4.744  1.00  0.00    -0.014 A 
BRANCH  35  36
ATOM     36  C   UNL     1      -2.512   7.823  -5.525  1.00  0.00     0.031 A 
ATOM     37  C   UNL     1      -3.144   9.142  -5.869  1.00  0.00     0.074 A 
ATOM     38  C   UNL     1      -3.118   6.672  -5.874  1.00  0.00     0.049 A 
ATOM     39  N   UNL     1      -4.280   9.380  -6.473  1.00  0.00    -0.248 NA
ATOM     40  C   UNL     1      -2.416  10.354  -5.461  1.00  0.00     0.031 C 
ATOM     41  C   UNL     1      -2.620   5.329  -5.569  1.00  0.00     0.029 A 
ATOM     42  N   UNL     1      -4.287   6.446  -6.556  1.00  0.00    -0.354 N 
ATOM     43  C   UNL     1      -4.410  10.763  -6.505  1.00  0.00     0.074 A 
ATOM     44  C   UNL     1      -3.260  11.311  -5.819  1.00  0.00     0.031 C 
ATOM     45  C   UNL     1      -3.463   4.421  -6.084  1.00  0.00     0.029 A 
ATOM     46  C   UNL     1      -4.581   5.114  -6.719  1.00  0.00     0.049 A 
ATOM     47  H   UNL     1      -4.862   7.170  -6.896  1.00  0.00     0.167 HD
ATOM     48  C   UNL     1      -5.388  11.506  -7.073  1.00  0.00     0.037 A 
ATOM     49  C   UNL     1      -5.634   4.517  -7.308  1.00  0.00     0.037 A 
ATOM     50  C   UNL     1      -6.514  10.957  -7.781  1.00  0.00     0.049 A 
ATOM     51  C   UNL     1      -6.711   5.364  -7.924  1.00  0.00     0.074 A 
ATOM     52  C   UNL     1      -7.528  11.632  -8.438  1.00  0.00     0.029 A 
ATOM     53  N   UNL     1      -6.773   9.603  -7.926  1.00  0.00    -0.354 N 
ATOM     54  N   UNL     1      -6.798   6.670  -7.984  1.00  0.00    -0.248 NA
ATOM     55  C   UNL     1      -7.835   4.657  -8.554  1.00  0.00     0.031 C 
ATOM     56  C   UNL     1      -8.423  10.687  -8.947  1.00  0.00     0.029 A 
ATOM     57  C   UNL     1      -7.942   9.422  -8.647  1.00  0.00     0.049 A 
ATOM     58  H   UNL     1      -6.210   8.878  -7.570  1.00  0.00     0.167 HD
ATOM     59  C   UNL     1      -7.971   6.943  -8.675  1.00  0.00     0.074 A 
ATOM     60  C   UNL     1      -8.558   5.665  -9.024  1.00  0.00     0.031 C 
ATOM     61  C   UNL     1      -8.512   8.144  -8.991  1.00  0.00     0.037 A 
BRANCH  48  62
ATOM     62  C   UNL     1      -5.281  12.999  -6.968  1.00  0.00     0.057 A 
ATOM     63  C   UNL     1      -6.183  13.729  -6.183  1.00  0.00     0.134 A 
ATOM     64  C   UNL     1      -4.328  13.722  -7.698  1.00  0.00     0.134 A 
ATOM     65  F   UNL     1      -7.126  13.099  -5.465  1.00  0.00    -0.206 F 
ATOM     66  C   UNL     1      -6.148  15.123  -6.136  1.00  0.00     0.040 A 
ATOM     67  C   UNL     1      -4.266  15.115  -7.639  1.00  0.00     0.040 A 
ATOM     68  F   UNL     1      -3.429  13.083  -8.461  1.00  0.00    -0.206 F 
ATOM     69  C   UNL     1      -5.185  15.820  -6.863  1.00  0.00     0.006 A 
ENDBRANCH  48  62
BRANCH  49  70
ATOM     70  C   UNL     1      -5.696   3.035  -7.369  1.00  0.00     0.057 A 
ATOM     71  C   UNL     1      -5.926   2.262  -6.225  1.00  0.00     0.134 A 
ATOM     72  C   UNL     1      -5.490   2.358  -8.576  1.00  0.00     0.134 A 
ATOM     73  F   UNL     1      -6.122   2.852  -5.037  1.00  0.00    -0.206 F 
ATOM     74  C   UNL     1      -5.931   0.867  -6.276  1.00  0.00     0.040 A 
ATOM     75  C   UNL     1      -5.515   0.964  -8.645  1.00  0.00     0.040 A 
ATOM     76  F   UNL     1      -5.282   3.045  -9.709  1.00  0.00    -0.206 F 
ATOM     77  C   UNL     1      -5.728   0.215  -7.490  1.00  0.00     0.006 A 
ENDBRANCH  49  70
BRANCH  61  78
ATOM     78  C   UNL     1      -9.793   8.147  -9.770  1.00  0.00     0.057 A 
ATOM     79  C   UNL     1      -9.812   8.557 -11.109  1.00  0.00     0.134 A 
ATOM     80  C   UNL     1     -11.017   7.826  -9.171  1.00  0.00     0.134 A 
ATOM     81  F   UNL     1      -8.673   8.888 -11.736  1.00  0.00    -0.206 F 
ATOM     82  C   UNL     1     -11.007   8.663 -11.822  1.00  0.00     0.040 A 
ATOM     83  C   UNL     1     -12.216   7.906  -9.881  1.00  0.00     0.040 A 
ATOM     84  F   UNL     1     -11.064   7.417  -7.895  1.00  0.00    -0.206 F 
ATOM     85  C   UNL     1     -12.214   8.336 -11.207  1.00  0.00     0.006 A 
ENDBRANCH  61  78
ENDBRANCH  35  36
ENDBRANCH  27  30
ENDBRANCH  25  26
ENDBRANCH  24  25
ENDBRANCH   1  24
TORSDOF 13
