REMARK SMILES CCC(CC)(NC(=O)c1ccc(N)c(F)c1)C(=O)NCCCNC(=O)c1ccc(-c2c3nc(c(-c4c(F)cccc4F)c4ccc([nH]4)c(-c4c(F)cccc4F)c4nc(c(-c5c(F)cccc5F)c5ccc2[nH]5)C=C4)C=C3)cc1
REMARK SMILES IDX 20 1 19 2 17 3 18 4 3 6 2 7 1 8 4 9 5 10 6 11 7 12 8 14 9 15
REMARK SMILES IDX 10 16 16 17 11 18 14 19 12 20 15 21 13 22 21 25 22 26 23 27
REMARK SMILES IDX 24 28 25 30 26 31 27 32 79 33 28 34 78 35 29 36 30 37 31 38
REMARK SMILES IDX 72 39 32 40 77 41 71 42 73 43 33 44 76 45 70 46 69 47 34 49
REMARK SMILES IDX 60 50 43 51 59 52 44 53 47 54 58 55 74 56 45 57 46 58 57 60
REMARK SMILES IDX 75 61 48 62 35 63 36 64 41 65 37 66 38 67 40 68 42 69 39 70
REMARK SMILES IDX 61 71 62 72 67 73 63 74 64 75 66 76 68 77 65 78 49 79 50 80
REMARK SMILES IDX 55 81 51 82 52 83 54 84 56 85 53 86
REMARK H PARENT 19 5 6 13 13 23 13 24 23 29 73 48 47 59
REMARK Flexibility Score: inf
ROOT
ATOM      1  C   UNL     1       2.059  -0.259   5.435  1.00  0.00     0.117 C 
ENDROOT
BRANCH   1   2
ATOM      2  N   UNL     1       2.583   0.174   4.142  1.00  0.00    -0.354 N 
ATOM      3  C   UNL     1       2.194   0.004   2.832  1.00  0.00     0.245 C 
ATOM      4  O   UNL     1       2.850   0.644   2.003  1.00  0.00    -0.272 OA
ATOM      5  H   UNL     1       3.404   0.711   4.227  1.00  0.00     0.163 HD
BRANCH   3   6
ATOM      6  C   UNL     1       0.965  -0.865   2.410  1.00  0.00     0.118 C 
BRANCH   6   7
ATOM      7  C   UNL     1       0.865  -1.139   0.876  1.00  0.00     0.035 C 
ATOM      8  C   UNL     1       0.863   0.049  -0.079  1.00  0.00     0.007 C 
ENDBRANCH   6   7
BRANCH   6   9
ATOM      9  C   UNL     1      -0.232   0.041   2.873  1.00  0.00     0.035 C 
ATOM     10  C   UNL     1      -1.650  -0.411   2.577  1.00  0.00     0.007 C 
ENDBRANCH   6   9
BRANCH   6  11
ATOM     11  N   UNL     1       0.929  -2.214   3.073  1.00  0.00    -0.338 N 
ATOM     12  C   UNL     1       1.667  -3.382   2.878  1.00  0.00     0.252 C 
ATOM     13  H   UNL     1       0.253  -2.287   3.785  1.00  0.00     0.164 HD
ATOM     14  O   UNL     1       1.064  -4.443   3.054  1.00  0.00    -0.269 OA
BRANCH  12  15
ATOM     15  C   UNL     1       3.140  -3.467   2.582  1.00  0.00     0.042 A 
ATOM     16  C   UNL     1       4.008  -2.417   2.825  1.00  0.00     0.016 A 
ATOM     17  C   UNL     1       3.745  -4.688   2.259  1.00  0.00     0.055 A 
ATOM     18  C   UNL     1       5.397  -2.498   2.733  1.00  0.00     0.029 A 
ATOM     19  C   UNL     1       5.149  -4.794   2.197  1.00  0.00     0.146 A 
ATOM     20  C   UNL     1       5.996  -3.697   2.413  1.00  0.00     0.068 A 
ATOM     21  F   UNL     1       5.697  -5.996   1.959  1.00  0.00    -0.205 F 
BRANCH  20  22
ATOM     22  N   UNL     1       7.377  -3.799   2.510  1.00  0.00    -0.396 N 
ATOM     23  H   UNL     1       7.920  -2.992   2.662  1.00  0.00     0.156 HD
ATOM     24  H   UNL     1       7.813  -4.677   2.426  1.00  0.00     0.156 HD
ENDBRANCH  20  22
ENDBRANCH  12  15
ENDBRANCH   6  11
ENDBRANCH   3   6
ENDBRANCH   1   2
BRANCH   1  25
ATOM     25  C   UNL     1       2.472  -1.627   5.985  1.00  0.00     0.042 C 
BRANCH  25  26
ATOM     26  C   UNL     1       3.948  -1.915   6.247  1.00  0.00     0.118 C 
BRANCH  26  27
ATOM     27  N   UNL     1       4.624  -0.934   7.065  1.00  0.00    -0.352 N 
ATOM     28  C   UNL     1       5.487  -1.108   8.119  1.00  0.00     0.251 C 
ATOM     29  H   UNL     1       4.438   0.003   6.830  1.00  0.00     0.163 HD
ATOM     30  O   UNL     1       5.936  -0.116   8.685  1.00  0.00    -0.269 OA
BRANCH  28  31
ATOM     31  C   UNL     1       5.851  -2.457   8.618  1.00  0.00     0.039 A 
ATOM     32  C   UNL     1       5.848  -2.650  10.003  1.00  0.00     0.014 A 
ATOM     33  C   UNL     1       6.247  -3.504   7.778  1.00  0.00     0.014 A 
ATOM     34  C   UNL     1       6.196  -3.891  10.542  1.00  0.00     0.010 A 
ATOM     35  C   UNL     1       6.542  -4.764   8.317  1.00  0.00     0.010 A 
ATOM     36  C   UNL     1       6.522  -4.971   9.705  1.00  0.00    -0.014 A 
BRANCH  36  37
ATOM     37  C   UNL     1       6.807  -6.305  10.305  1.00  0.00     0.031 A 
ATOM     38  C   UNL     1       8.181  -6.917  10.240  1.00  0.00     0.074 A 
ATOM     39  C   UNL     1       5.817  -6.967  10.936  1.00  0.00     0.049 A 
ATOM     40  N   UNL     1       8.619  -8.022  10.792  1.00  0.00    -0.248 NA
ATOM     41  C   UNL     1       9.190  -6.205   9.444  1.00  0.00     0.031 C 
ATOM     42  C   UNL     1       4.428  -6.513  11.031  1.00  0.00     0.029 A 
ATOM     43  N   UNL     1       5.825  -8.153  11.628  1.00  0.00    -0.354 N 
ATOM     44  C   UNL     1       9.951  -8.136  10.414  1.00  0.00     0.074 A 
ATOM     45  C   UNL     1      10.234  -7.015   9.542  1.00  0.00     0.031 C 
ATOM     46  C   UNL     1       3.730  -7.387  11.773  1.00  0.00     0.029 A 
ATOM     47  C   UNL     1       4.609  -8.478  12.181  1.00  0.00     0.049 A 
ATOM     48  H   UNL     1       6.627  -8.718  11.720  1.00  0.00     0.167 HD
ATOM     49  C   UNL     1      10.861  -9.075  10.774  1.00  0.00     0.037 A 
ATOM     50  C   UNL     1       4.242  -9.529  12.937  1.00  0.00     0.037 A 
ATOM     51  C   UNL     1      10.581 -10.193  11.641  1.00  0.00     0.049 A 
ATOM     52  C   UNL     1       5.269 -10.559  13.319  1.00  0.00     0.074 A 
ATOM     53  C   UNL     1      11.450 -11.170  12.099  1.00  0.00     0.029 A 
ATOM     54  N   UNL     1       9.335 -10.492  12.172  1.00  0.00    -0.354 N 
ATOM     55  N   UNL     1       6.544 -10.608  13.020  1.00  0.00    -0.248 NA
ATOM     56  C   UNL     1       4.806 -11.673  14.158  1.00  0.00     0.031 C 
ATOM     57  C   UNL     1      10.720 -12.088  12.862  1.00  0.00     0.029 A 
ATOM     58  C   UNL     1       9.408 -11.650  12.933  1.00  0.00     0.049 A 
ATOM     59  H   UNL     1       8.519  -9.961  12.030  1.00  0.00     0.167 HD
ATOM     60  C   UNL     1       7.041 -11.739  13.656  1.00  0.00     0.074 A 
ATOM     61  C   UNL     1       5.934 -12.332  14.376  1.00  0.00     0.031 C 
ATOM     62  C   UNL     1       8.302 -12.239  13.645  1.00  0.00     0.037 A 
BRANCH  49  63
ATOM     63  C   UNL     1      12.256  -8.936  10.229  1.00  0.00     0.057 A 
ATOM     64  C   UNL     1      13.114  -7.908  10.644  1.00  0.00     0.134 A 
ATOM     65  C   UNL     1      12.765  -9.866   9.313  1.00  0.00     0.134 A 
ATOM     66  F   UNL     1      12.690  -6.978  11.514  1.00  0.00    -0.206 F 
ATOM     67  C   UNL     1      14.415  -7.794  10.149  1.00  0.00     0.040 A 
ATOM     68  C   UNL     1      14.074  -9.780   8.833  1.00  0.00     0.040 A 
ATOM     69  F   UNL     1      12.005 -10.883   8.880  1.00  0.00    -0.206 F 
ATOM     70  C   UNL     1      14.900  -8.737   9.246  1.00  0.00     0.006 A 
ENDBRANCH  49  63
BRANCH  50  71
ATOM     71  C   UNL     1       2.840  -9.649  13.413  1.00  0.00     0.057 A 
ATOM     72  C   UNL     1       2.518  -9.512  14.768  1.00  0.00     0.134 A 
ATOM     73  C   UNL     1       1.790  -9.919  12.526  1.00  0.00     0.134 A 
ATOM     74  F   UNL     1       3.481  -9.273  15.671  1.00  0.00    -0.206 F 
ATOM     75  C   UNL     1       1.208  -9.662  15.229  1.00  0.00     0.040 A 
ATOM     76  C   UNL     1       0.472 -10.041  12.968  1.00  0.00     0.040 A 
ATOM     77  F   UNL     1       2.031 -10.054  11.214  1.00  0.00    -0.206 F 
ATOM     78  C   UNL     1       0.180  -9.922  14.325  1.00  0.00     0.006 A 
ENDBRANCH  50  71
BRANCH  62  79
ATOM     79  C   UNL     1       8.555 -13.472  14.467  1.00  0.00     0.057 A 
ATOM     80  C   UNL     1       8.016 -14.720  14.125  1.00  0.00     0.134 A 
ATOM     81  C   UNL     1       9.347 -13.408  15.621  1.00  0.00     0.134 A 
ATOM     82  F   UNL     1       7.238 -14.851  13.040  1.00  0.00    -0.206 F 
ATOM     83  C   UNL     1       8.220 -15.848  14.923  1.00  0.00     0.040 A 
ATOM     84  C   UNL     1       9.586 -14.536  16.408  1.00  0.00     0.040 A 
ATOM     85  F   UNL     1       9.905 -12.249  16.003  1.00  0.00    -0.206 F 
ATOM     86  C   UNL     1       9.011 -15.758  16.066  1.00  0.00     0.006 A 
ENDBRANCH  62  79
ENDBRANCH  36  37
ENDBRANCH  28  31
ENDBRANCH  26  27
ENDBRANCH  25  26
ENDBRANCH   1  25
TORSDOF 15
