REMARK SMILES CCc1cc(Nc2ccc(C(=O)NCCCNC(=O)c3ccc(-c4c5nc(c(-c6c(F)cccc6F)c6ccc([nH]6)c(-c6c(F)cccc6F)c6nc(c(-c7c(F)cccc7F)c7ccc4[nH]7)C=C6)C=C5)cc3)cc2)nc(C(C)C)n1
REMARK SMILES IDX 14 1 13 2 11 3 12 4 10 6 7 7 8 8 75 9 9 10 74 11 6 12 5 14
REMARK SMILES IDX 3 15 4 16 81 17 77 18 76 19 2 20 1 21 78 22 79 23 80 24
REMARK SMILES IDX 15 25 16 26 17 27 18 28 19 30 20 31 21 32 73 33 22 34 72 35
REMARK SMILES IDX 23 36 24 37 25 38 66 39 26 40 71 41 65 42 67 43 27 44 70 45
REMARK SMILES IDX 64 46 63 47 28 49 54 50 37 51 53 52 38 53 41 54 52 55 68 56
REMARK SMILES IDX 39 57 40 58 51 60 69 61 42 62 29 63 30 64 35 65 31 66 32 67
REMARK SMILES IDX 34 68 36 69 33 70 55 71 56 72 61 73 57 74 58 75 60 76 62 77
REMARK SMILES IDX 59 78 43 79 44 80 49 81 45 82 46 83 48 84 50 85 47 86
REMARK H PARENT 13 5 6 13 17 29 67 48 41 59
REMARK Flexibility Score: inf
ROOT
ATOM      1  C   UNL     1       5.229  -9.528   3.793  1.00  0.00     0.118 C 
ENDROOT
BRANCH   1   2
ATOM      2  N   UNL     1       5.306  -9.072   5.169  1.00  0.00    -0.352 N 
ATOM      3  C   UNL     1       4.993  -7.875   5.760  1.00  0.00     0.251 C 
ATOM      4  O   UNL     1       5.113  -7.797   6.983  1.00  0.00    -0.269 OA
ATOM      5  H   UNL     1       5.646  -9.750   5.796  1.00  0.00     0.163 HD
BRANCH   3   6
ATOM      6  C   UNL     1       4.472  -6.701   5.008  1.00  0.00     0.039 A 
ATOM      7  C   UNL     1       3.342  -4.447   3.726  1.00  0.00     0.040 A 
ATOM      8  C   UNL     1       3.059  -4.718   5.068  1.00  0.00     0.027 A 
ATOM      9  C   UNL     1       4.214  -5.299   3.044  1.00  0.00     0.027 A 
ATOM     10  C   UNL     1       3.611  -5.837   5.700  1.00  0.00     0.016 A 
ATOM     11  C   UNL     1       4.806  -6.392   3.689  1.00  0.00     0.016 A 
BRANCH   7  12
ATOM     12  N   UNL     1       2.699  -3.384   3.076  1.00  0.00    -0.340 N 
ATOM     13  H   UNL     1       2.737  -2.508   3.525  1.00  0.00     0.168 HD
BRANCH  12  14
ATOM     14  C   UNL     1       2.004  -3.431   1.850  1.00  0.00     0.134 A 
ATOM     15  C   UNL     1       0.990  -2.295   0.042  1.00  0.00     0.046 A 
ATOM     16  C   UNL     1       1.712  -2.237   1.217  1.00  0.00     0.071 A 
ATOM     17  N   UNL     1       0.584  -3.473  -0.473  1.00  0.00    -0.238 NA
ATOM     18  C   UNL     1       0.919  -4.593   0.194  1.00  0.00     0.133 A 
ATOM     19  N   UNL     1       1.635  -4.613   1.329  1.00  0.00    -0.216 NA
BRANCH  15  20
ATOM     20  C   UNL     1       0.582  -1.077  -0.747  1.00  0.00     0.053 C 
ATOM     21  C   UNL     1       0.986   0.279  -0.184  1.00  0.00     0.011 C 
ENDBRANCH  15  20
BRANCH  18  22
ATOM     22  C   UNL     1       0.422  -5.920  -0.336  1.00  0.00     0.051 C 
ATOM     23  C   UNL     1      -1.107  -5.963  -0.344  1.00  0.00     0.016 C 
ATOM     24  C   UNL     1       0.986  -6.204  -1.727  1.00  0.00     0.016 C 
ENDBRANCH  18  22
ENDBRANCH  12  14
ENDBRANCH   7  12
ENDBRANCH   3   6
ENDBRANCH   1   2
BRANCH   1  25
ATOM     25  C   UNL     1       6.604  -9.492   3.126  1.00  0.00     0.042 C 
BRANCH  25  26
ATOM     26  C   UNL     1       7.544 -10.590   3.614  1.00  0.00     0.118 C 
BRANCH  26  27
ATOM     27  N   UNL     1       7.142 -11.905   3.137  1.00  0.00    -0.352 N 
ATOM     28  C   UNL     1       7.853 -12.840   2.429  1.00  0.00     0.251 C 
ATOM     29  H   UNL     1       6.217 -12.163   3.357  1.00  0.00     0.163 HD
ATOM     30  O   UNL     1       7.269 -13.802   1.939  1.00  0.00    -0.269 OA
BRANCH  28  31
ATOM     31  C   UNL     1       9.314 -12.697   2.240  1.00  0.00     0.039 A 
ATOM     32  C   UNL     1       9.864 -13.029   0.998  1.00  0.00     0.014 A 
ATOM     33  C   UNL     1      10.147 -12.294   3.287  1.00  0.00     0.014 A 
ATOM     34  C   UNL     1      11.241 -12.913   0.792  1.00  0.00     0.010 A 
ATOM     35  C   UNL     1      11.511 -12.117   3.063  1.00  0.00     0.010 A 
ATOM     36  C   UNL     1      12.072 -12.434   1.816  1.00  0.00    -0.014 A 
BRANCH  36  37
ATOM     37  C   UNL     1      13.531 -12.265   1.605  1.00  0.00     0.031 A 
ATOM     38  C   UNL     1      14.510 -13.112   2.370  1.00  0.00     0.074 A 
ATOM     39  C   UNL     1      13.976 -11.308   0.770  1.00  0.00     0.049 A 
ATOM     40  N   UNL     1      15.818 -13.072   2.366  1.00  0.00    -0.248 NA
ATOM     41  C   UNL     1      13.942 -14.119   3.279  1.00  0.00     0.031 C 
ATOM     42  C   UNL     1      13.127 -10.399  -0.002  1.00  0.00     0.029 A 
ATOM     43  N   UNL     1      15.253 -10.936   0.437  1.00  0.00    -0.354 N 
ATOM     44  C   UNL     1      16.228 -14.028   3.286  1.00  0.00     0.074 A 
ATOM     45  C   UNL     1      15.030 -14.603   3.859  1.00  0.00     0.031 C 
ATOM     46  C   UNL     1      13.907  -9.594  -0.741  1.00  0.00     0.029 A 
ATOM     47  C   UNL     1      15.307  -9.905  -0.468  1.00  0.00     0.049 A 
ATOM     48  H   UNL     1      16.055 -11.367   0.811  1.00  0.00     0.167 HD
ATOM     49  C   UNL     1      17.488 -14.405   3.611  1.00  0.00     0.037 A 
ATOM     50  C   UNL     1      16.366  -9.280  -1.015  1.00  0.00     0.037 A 
ATOM     51  C   UNL     1      18.677 -13.853   3.017  1.00  0.00     0.049 A 
ATOM     52  C   UNL     1      17.753  -9.711  -0.634  1.00  0.00     0.074 A 
ATOM     53  C   UNL     1      19.995 -14.224   3.218  1.00  0.00     0.029 A 
ATOM     54  N   UNL     1      18.691 -12.808   2.105  1.00  0.00    -0.354 N 
ATOM     55  N   UNL     1      18.127 -10.663   0.185  1.00  0.00    -0.248 NA
ATOM     56  C   UNL     1      18.866  -8.978  -1.254  1.00  0.00     0.031 C 
ATOM     57  C   UNL     1      20.809 -13.374   2.461  1.00  0.00     0.029 A 
ATOM     58  C   UNL     1      19.996 -12.501   1.756  1.00  0.00     0.049 A 
ATOM     59  H   UNL     1      17.891 -12.351   1.758  1.00  0.00     0.167 HD
ATOM     60  C   UNL     1      19.515 -10.665   0.159  1.00  0.00     0.074 A 
ATOM     61  C   UNL     1      19.916  -9.622  -0.764  1.00  0.00     0.031 C 
ATOM     62  C   UNL     1      20.379 -11.461   0.835  1.00  0.00     0.037 A 
BRANCH  49  63
ATOM     63  C   UNL     1      17.639 -15.461   4.668  1.00  0.00     0.057 A 
ATOM     64  C   UNL     1      17.283 -16.797   4.438  1.00  0.00     0.134 A 
ATOM     65  C   UNL     1      18.153 -15.139   5.930  1.00  0.00     0.134 A 
ATOM     66  F   UNL     1      16.773 -17.170   3.255  1.00  0.00    -0.206 F 
ATOM     67  C   UNL     1      17.401 -17.766   5.436  1.00  0.00     0.040 A 
ATOM     68  C   UNL     1      18.300 -16.105   6.927  1.00  0.00     0.040 A 
ATOM     69  F   UNL     1      18.520 -13.880   6.216  1.00  0.00    -0.206 F 
ATOM     70  C   UNL     1      17.914 -17.421   6.684  1.00  0.00     0.006 A 
ENDBRANCH  49  63
BRANCH  50  71
ATOM     71  C   UNL     1      16.152  -8.208  -2.017  1.00  0.00     0.057 A 
ATOM     72  C   UNL     1      16.422  -8.433  -3.371  1.00  0.00     0.134 A 
ATOM     73  C   UNL     1      15.662  -6.948  -1.655  1.00  0.00     0.134 A 
ATOM     74  F   UNL     1      16.910  -9.615  -3.774  1.00  0.00    -0.206 F 
ATOM     75  C   UNL     1      16.221  -7.441  -4.331  1.00  0.00     0.040 A 
ATOM     76  C   UNL     1      15.436  -5.953  -2.607  1.00  0.00     0.040 A 
ATOM     77  F   UNL     1      15.378  -6.674  -0.373  1.00  0.00    -0.206 F 
ATOM     78  C   UNL     1      15.720  -6.197  -3.950  1.00  0.00     0.006 A 
ENDBRANCH  50  71
BRANCH  62  79
ATOM     79  C   UNL     1      21.842 -11.256   0.577  1.00  0.00     0.057 A 
ATOM     80  C   UNL     1      22.533 -10.150   1.087  1.00  0.00     0.134 A 
ATOM     81  C   UNL     1      22.574 -12.193  -0.163  1.00  0.00     0.134 A 
ATOM     82  F   UNL     1      21.885  -9.209   1.790  1.00  0.00    -0.206 F 
ATOM     83  C   UNL     1      23.898  -9.973   0.854  1.00  0.00     0.040 A 
ATOM     84  C   UNL     1      23.943 -12.040  -0.382  1.00  0.00     0.040 A 
ATOM     85  F   UNL     1      21.972 -13.278  -0.673  1.00  0.00    -0.206 F 
ATOM     86  C   UNL     1      24.608 -10.924   0.123  1.00  0.00     0.006 A 
ENDBRANCH  62  79
ENDBRANCH  36  37
ENDBRANCH  28  31
ENDBRANCH  26  27
ENDBRANCH  25  26
ENDBRANCH   1  25
TORSDOF 14
