REMARK SMILES C[C@]([NH3+])(C(=O)NCCCNC(=O)c1ccc(-c2c3nc(c(-c4c(F)cccc4F)c4ccc([nH]4)c(-c4c(F)cccc4F)c4nc(c(-c5c(F)cccc5F)c5ccc2[nH]5)C=C4)C=C3)cc1)c1ccc(F)c(Br)c1
REMARK SMILES IDX 8 1 7 2 6 3 4 4 5 5 2 7 1 8 67 9 68 10 74 11 69 12 72 13
REMARK SMILES IDX 70 14 73 15 71 16 3 17 9 21 10 22 11 23 12 25 13 26 14 27
REMARK SMILES IDX 66 28 15 29 65 30 16 31 17 32 18 33 59 34 19 35 64 36 58 37
REMARK SMILES IDX 60 38 20 39 63 40 57 41 56 42 21 44 47 45 30 46 46 47 31 48
REMARK SMILES IDX 34 49 45 50 61 51 32 52 33 53 44 55 62 56 35 57 22 58 23 59
REMARK SMILES IDX 28 60 24 61 25 62 27 63 29 64 26 65 48 66 49 67 54 68 50 69
REMARK SMILES IDX 51 70 53 71 55 72 52 73 36 74 37 75 42 76 38 77 39 78 41 79
REMARK SMILES IDX 43 80 40 81
REMARK H PARENT 6 6 3 18 3 19 3 20 10 24 60 43 34 54
REMARK Flexibility Score: inf
ROOT
ATOM      1  C   UNL     1      -1.391  -0.325   2.638  1.00  0.00     0.042 C 
ENDROOT
BRANCH   1   2
ATOM      2  C   UNL     1      -1.058  -1.551   1.795  1.00  0.00     0.118 C 
BRANCH   2   3
ATOM      3  N   UNL     1      -1.496  -1.419   0.419  1.00  0.00    -0.350 N 
ATOM      4  C   UNL     1      -0.829  -1.279  -0.765  1.00  0.00     0.285 C 
ATOM      5  O   UNL     1      -1.556  -1.189  -1.762  1.00  0.00    -0.267 OA
ATOM      6  H   UNL     1      -2.475  -1.434   0.317  1.00  0.00     0.163 HD
BRANCH   4   7
ATOM      7  C   UNL     1       0.747  -1.186  -0.861  1.00  0.00     0.196 C 
ATOM      8  C   UNL     1       1.425  -2.433  -0.252  1.00  0.00     0.096 C 
BRANCH   7   9
ATOM      9  C   UNL     1       1.171  -1.057  -2.351  1.00  0.00     0.023 A 
ATOM     10  C   UNL     1       1.333  -2.204  -3.159  1.00  0.00     0.014 A 
ATOM     11  C   UNL     1       1.380   0.199  -2.959  1.00  0.00     0.029 A 
ATOM     12  C   UNL     1       1.745  -2.105  -4.491  1.00  0.00     0.041 A 
ATOM     13  C   UNL     1       1.782   0.296  -4.296  1.00  0.00     0.054 A 
ATOM     14  C   UNL     1       1.974  -0.855  -5.050  1.00  0.00     0.137 A 
ATOM     15  Br  UNL     1       2.064   2.003  -5.061  1.00  0.00    -0.048 Br
ATOM     16  F   UNL     1       2.378  -0.785  -6.327  1.00  0.00    -0.206 F 
ENDBRANCH   7   9
BRANCH   7  17
ATOM     17  N   UNL     1       1.201   0.002  -0.092  1.00  0.00    -0.341 N 
ATOM     18  H   UNL     1       0.767   0.842  -0.475  1.00  0.00     0.345 HD
ATOM     19  H   UNL     1       2.216   0.083  -0.160  1.00  0.00     0.345 HD
ATOM     20  H   UNL     1       0.933  -0.103   0.886  1.00  0.00     0.345 HD
ENDBRANCH   7  17
ENDBRANCH   4   7
ENDBRANCH   2   3
ENDBRANCH   1   2
BRANCH   1  21
ATOM     21  C   UNL     1      -2.883  -0.096   2.861  1.00  0.00     0.118 C 
BRANCH  21  22
ATOM     22  N   UNL     1      -3.519  -1.185   3.588  1.00  0.00    -0.352 N 
ATOM     23  C   UNL     1      -4.205  -1.194   4.775  1.00  0.00     0.251 C 
ATOM     24  H   UNL     1      -3.443  -2.066   3.154  1.00  0.00     0.163 HD
ATOM     25  O   UNL     1      -4.503  -2.275   5.282  1.00  0.00    -0.269 OA
BRANCH  23  26
ATOM     26  C   UNL     1      -4.579   0.062   5.464  1.00  0.00     0.039 A 
ATOM     27  C   UNL     1      -4.525   0.095   6.862  1.00  0.00     0.014 A 
ATOM     28  C   UNL     1      -5.031   1.183   4.763  1.00  0.00     0.014 A 
ATOM     29  C   UNL     1      -4.867   1.263   7.547  1.00  0.00     0.010 A 
ATOM     30  C   UNL     1      -5.300   2.371   5.442  1.00  0.00     0.010 A 
ATOM     31  C   UNL     1      -5.226   2.422   6.841  1.00  0.00    -0.014 A 
BRANCH  31  32
ATOM     32  C   UNL     1      -5.519   3.688   7.560  1.00  0.00     0.031 A 
ATOM     33  C   UNL     1      -6.897   4.289   7.528  1.00  0.00     0.074 A 
ATOM     34  C   UNL     1      -4.524   4.322   8.210  1.00  0.00     0.049 A 
ATOM     35  N   UNL     1      -7.331   5.389   8.090  1.00  0.00    -0.248 NA
ATOM     36  C   UNL     1      -7.914   3.577   6.740  1.00  0.00     0.031 C 
ATOM     37  C   UNL     1      -3.130   3.878   8.264  1.00  0.00     0.029 A 
ATOM     38  N   UNL     1      -4.533   5.477   8.951  1.00  0.00    -0.354 N 
ATOM     39  C   UNL     1      -8.662   5.508   7.713  1.00  0.00     0.074 A 
ATOM     40  C   UNL     1      -8.953   4.395   6.835  1.00  0.00     0.031 C 
ATOM     41  C   UNL     1      -2.425   4.731   9.024  1.00  0.00     0.029 A 
ATOM     42  C   UNL     1      -3.311   5.793   9.491  1.00  0.00     0.049 A 
ATOM     43  H   UNL     1      -5.339   6.027   9.082  1.00  0.00     0.167 HD
ATOM     44  C   UNL     1      -9.568   6.447   8.081  1.00  0.00     0.037 A 
ATOM     45  C   UNL     1      -2.946   6.818  10.284  1.00  0.00     0.037 A 
ATOM     46  C   UNL     1      -9.289   7.537   8.979  1.00  0.00     0.049 A 
ATOM     47  C   UNL     1      -3.979   7.818  10.716  1.00  0.00     0.074 A 
ATOM     48  C   UNL     1     -10.155   8.506   9.457  1.00  0.00     0.029 A 
ATOM     49  N   UNL     1      -8.047   7.800   9.537  1.00  0.00    -0.354 N 
ATOM     50  N   UNL     1      -5.251   7.878  10.406  1.00  0.00    -0.248 NA
ATOM     51  C   UNL     1      -3.529   8.884  11.621  1.00  0.00     0.031 C 
ATOM     52  C   UNL     1      -9.430   9.371  10.285  1.00  0.00     0.029 A 
ATOM     53  C   UNL     1      -8.122   8.920  10.349  1.00  0.00     0.049 A 
ATOM     54  H   UNL     1      -7.233   7.270   9.380  1.00  0.00     0.167 HD
ATOM     55  C   UNL     1      -5.758   8.972  11.095  1.00  0.00     0.074 A 
ATOM     56  C   UNL     1      -4.660   9.535  11.852  1.00  0.00     0.031 C 
ATOM     57  C   UNL     1      -7.020   9.466  11.099  1.00  0.00     0.037 A 
BRANCH  44  58
ATOM     58  C   UNL     1     -10.954   6.325   7.518  1.00  0.00     0.057 A 
ATOM     59  C   UNL     1     -11.834   5.320   7.940  1.00  0.00     0.134 A 
ATOM     60  C   UNL     1     -11.424   7.237   6.565  1.00  0.00     0.134 A 
ATOM     61  F   UNL     1     -11.441   4.406   8.841  1.00  0.00    -0.206 F 
ATOM     62  C   UNL     1     -13.124   5.212   7.417  1.00  0.00     0.040 A 
ATOM     63  C   UNL     1     -12.720   7.154   6.053  1.00  0.00     0.040 A 
ATOM     64  F   UNL     1     -10.634   8.227   6.122  1.00  0.00    -0.206 F 
ATOM     65  C   UNL     1     -13.572   6.135   6.474  1.00  0.00     0.006 A 
ENDBRANCH  44  58
BRANCH  45  66
ATOM     66  C   UNL     1      -1.546   6.920  10.763  1.00  0.00     0.057 A 
ATOM     67  C   UNL     1      -1.220   6.639  12.094  1.00  0.00     0.134 A 
ATOM     68  C   UNL     1      -0.505   7.297   9.907  1.00  0.00     0.134 A 
ATOM     69  F   UNL     1      -2.180   6.288  12.964  1.00  0.00    -0.206 F 
ATOM     70  C   UNL     1       0.089   6.745  12.564  1.00  0.00     0.040 A 
ATOM     71  C   UNL     1       0.812   7.387  10.358  1.00  0.00     0.040 A 
ATOM     72  F   UNL     1      -0.754   7.569   8.618  1.00  0.00    -0.206 F 
ATOM     73  C   UNL     1       1.111   7.117  11.693  1.00  0.00     0.006 A 
ENDBRANCH  45  66
BRANCH  57  74
ATOM     74  C   UNL     1      -7.280  10.656  11.973  1.00  0.00     0.057 A 
ATOM     75  C   UNL     1      -6.815  11.934  11.636  1.00  0.00     0.134 A 
ATOM     76  C   UNL     1      -8.012  10.523  13.159  1.00  0.00     0.134 A 
ATOM     77  F   UNL     1      -6.096  12.123  10.520  1.00  0.00    -0.206 F 
ATOM     78  C   UNL     1      -7.046  13.033  12.464  1.00  0.00     0.040 A 
ATOM     79  C   UNL     1      -8.268  11.619  13.983  1.00  0.00     0.040 A 
ATOM     80  F   UNL     1      -8.490   9.327  13.534  1.00  0.00    -0.206 F 
ATOM     81  C   UNL     1      -7.778  12.878  13.640  1.00  0.00     0.006 A 
ENDBRANCH  57  74
ENDBRANCH  31  32
ENDBRANCH  23  26
ENDBRANCH  21  22
ENDBRANCH   1  21
TORSDOF 12
