REMARK SMILES C[C@@H](C(=O)NCCCNC(=O)c1ccc(-c2c3nc(c(-c4c(F)cccc4F)c4ccc([nH]4)c(-c4c(F)cccc4F)c4nc(c(-c5c(F)cccc5F)c5ccc2[nH]5)C=C4)C=C3)cc1)N1C(=O)/C(=C/c2ccc(-c3ccc([N+](=O)[O-])cc3Cl)o2)SC1=S
REMARK SMILES IDX 6 1 5 2 3 3 4 4 2 6 1 7 66 8 67 9 87 10 68 11 69 12 86 13
REMARK SMILES IDX 88 14 70 15 71 16 72 17 85 18 73 19 74 20 75 21 76 22 83 23
REMARK SMILES IDX 77 24 82 25 84 26 78 27 79 28 80 29 81 30 7 31 8 32 9 33
REMARK SMILES IDX 10 34 11 36 12 37 13 38 65 39 14 40 64 41 15 42 16 43 17 44
REMARK SMILES IDX 58 45 18 46 63 47 57 48 59 49 19 50 62 51 56 52 55 53 20 55
REMARK SMILES IDX 46 56 29 57 45 58 30 59 33 60 44 61 60 62 31 63 32 64 43 66
REMARK SMILES IDX 61 67 34 68 21 69 22 70 27 71 23 72 24 73 26 74 28 75 25 76
REMARK SMILES IDX 47 77 48 78 53 79 49 80 50 81 52 82 54 83 51 84 35 85 36 86
REMARK SMILES IDX 41 87 37 88 38 89 40 90 42 91 39 92
REMARK H PARENT 5 5 9 35 59 54 33 65
REMARK Flexibility Score: inf
ROOT
ATOM      1  C   UNL     1       3.281  -1.296   1.731  1.00  0.00     0.117 C 
ENDROOT
BRANCH   1   2
ATOM      2  N   UNL     1       2.198  -0.923   2.619  1.00  0.00    -0.354 N 
ATOM      3  C   UNL     1       0.870  -0.750   2.366  1.00  0.00     0.242 C 
ATOM      4  O   UNL     1       0.151  -0.479   3.332  1.00  0.00    -0.273 OA
ATOM      5  H   UNL     1       2.464  -0.771   3.554  1.00  0.00     0.163 HD
BRANCH   3   6
ATOM      6  C   UNL     1       0.301  -0.940   0.944  1.00  0.00     0.178 C 
ATOM      7  C   UNL     1       0.882  -0.025  -0.133  1.00  0.00     0.042 C 
BRANCH   6   8
ATOM      8  N   UNL     1      -1.176  -0.887   1.021  1.00  0.00    -0.281 N 
ATOM      9  C   UNL     1      -1.860  -2.094   1.081  1.00  0.00     0.267 C 
ATOM     10  C   UNL     1      -1.947   0.255   1.148  1.00  0.00     0.149 C 
ATOM     11  O   UNL     1      -1.358  -3.209   1.062  1.00  0.00    -0.268 OA
ATOM     12  C   UNL     1      -3.327  -1.862   1.109  1.00  0.00     0.084 C 
ATOM     13  S   UNL     1      -3.651  -0.176   1.133  1.00  0.00    -0.054 SA
ATOM     14  S   UNL     1      -1.488   1.855   1.270  1.00  0.00    -0.052 S 
ATOM     15  C   UNL     1      -4.210  -2.870   1.085  1.00  0.00     0.068 C 
BRANCH  15  16
ATOM     16  C   UNL     1      -5.606  -2.645   0.950  1.00  0.00     0.128 A 
ATOM     17  C   UNL     1      -6.283  -2.038  -0.102  1.00  0.00     0.051 A 
ATOM     18  O   UNL     1      -6.541  -3.018   1.890  1.00  0.00    -0.457 OA
ATOM     19  C   UNL     1      -7.651  -1.989   0.233  1.00  0.00     0.051 A 
ATOM     20  C   UNL     1      -7.760  -2.575   1.473  1.00  0.00     0.136 A 
BRANCH  20  21
ATOM     21  C   UNL     1      -8.896  -2.803   2.352  1.00  0.00     0.036 A 
ATOM     22  C   UNL     1     -10.035  -3.424   1.807  1.00  0.00     0.020 A 
ATOM     23  C   UNL     1      -8.946  -2.348   3.683  1.00  0.00     0.058 A 
ATOM     24  C   UNL     1     -11.205  -3.570   2.555  1.00  0.00     0.086 A 
ATOM     25  C   UNL     1     -10.116  -2.490   4.441  1.00  0.00     0.106 A 
ATOM     26  Cl  UNL     1      -7.621  -1.526   4.434  1.00  0.00    -0.083 Cl
ATOM     27  C   UNL     1     -11.243  -3.090   3.868  1.00  0.00     0.270 A 
BRANCH  27  28
ATOM     28  N   UNL     1     -12.489  -3.188   4.640  1.00  0.00     0.062 N 
ATOM     29  O   UNL     1     -13.470  -3.702   4.084  1.00  0.00    -0.258 OA
ATOM     30  O   UNL     1     -12.487  -2.744   5.795  1.00  0.00    -0.258 OA
ENDBRANCH  27  28
ENDBRANCH  20  21
ENDBRANCH  15  16
ENDBRANCH   6   8
ENDBRANCH   3   6
ENDBRANCH   1   2
BRANCH   1  31
ATOM     31  C   UNL     1       4.158  -0.098   1.379  1.00  0.00     0.042 C 
BRANCH  31  32
ATOM     32  C   UNL     1       4.936   0.466   2.566  1.00  0.00     0.118 C 
BRANCH  32  33
ATOM     33  N   UNL     1       5.919  -0.474   3.085  1.00  0.00    -0.352 N 
ATOM     34  C   UNL     1       7.277  -0.342   3.235  1.00  0.00     0.251 C 
ATOM     35  H   UNL     1       5.552  -1.341   3.374  1.00  0.00     0.163 HD
ATOM     36  O   UNL     1       7.953  -1.328   3.514  1.00  0.00    -0.269 OA
BRANCH  34  37
ATOM     37  C   UNL     1       7.934   0.969   3.048  1.00  0.00     0.039 A 
ATOM     38  C   UNL     1       9.160   1.018   2.379  1.00  0.00     0.014 A 
ATOM     39  C   UNL     1       7.370   2.141   3.559  1.00  0.00     0.014 A 
ATOM     40  C   UNL     1       9.790   2.247   2.169  1.00  0.00     0.010 A 
ATOM     41  C   UNL     1       7.958   3.373   3.281  1.00  0.00     0.010 A 
ATOM     42  C   UNL     1       9.177   3.439   2.589  1.00  0.00    -0.014 A 
BRANCH  42  43
ATOM     43  C   UNL     1       9.796   4.762   2.321  1.00  0.00     0.031 A 
ATOM     44  C   UNL     1      10.224   5.643   3.463  1.00  0.00     0.074 A 
ATOM     45  C   UNL     1       9.908   5.202   1.053  1.00  0.00     0.049 A 
ATOM     46  N   UNL     1      10.702   6.861   3.435  1.00  0.00    -0.248 NA
ATOM     47  C   UNL     1      10.070   5.090   4.817  1.00  0.00     0.031 C 
ATOM     48  C   UNL     1       9.495   4.461  -0.140  1.00  0.00     0.029 A 
ATOM     49  N   UNL     1      10.392   6.387   0.557  1.00  0.00    -0.354 N 
ATOM     50  C   UNL     1      10.889   7.224   4.762  1.00  0.00     0.074 A 
ATOM     51  C   UNL     1      10.421   6.120   5.572  1.00  0.00     0.031 C 
ATOM     52  C   UNL     1       9.759   5.199  -1.229  1.00  0.00     0.029 A 
ATOM     53  C   UNL     1      10.318   6.481  -0.812  1.00  0.00     0.049 A 
ATOM     54  H   UNL     1      10.757   7.101   1.127  1.00  0.00     0.167 HD
ATOM     55  C   UNL     1      11.421   8.365   5.263  1.00  0.00     0.037 A 
ATOM     56  C   UNL     1      10.650   7.492  -1.637  1.00  0.00     0.037 A 
ATOM     57  C   UNL     1      11.899   9.457   4.454  1.00  0.00     0.049 A 
ATOM     58  C   UNL     1      11.218   8.758  -1.059  1.00  0.00     0.074 A 
ATOM     59  C   UNL     1      12.504  10.632   4.862  1.00  0.00     0.029 A 
ATOM     60  N   UNL     1      11.817   9.510   3.070  1.00  0.00    -0.354 N 
ATOM     61  N   UNL     1      11.450   9.063   0.195  1.00  0.00    -0.248 NA
ATOM     62  C   UNL     1      11.577   9.818  -2.011  1.00  0.00     0.031 C 
ATOM     63  C   UNL     1      12.739  11.420   3.730  1.00  0.00     0.029 A 
ATOM     64  C   UNL     1      12.336  10.710   2.611  1.00  0.00     0.049 A 
ATOM     65  H   UNL     1      11.444   8.800   2.498  1.00  0.00     0.167 HD
ATOM     66  C   UNL     1      12.009  10.335   0.181  1.00  0.00     0.074 A 
ATOM     67  C   UNL     1      12.092  10.738  -1.207  1.00  0.00     0.031 C 
ATOM     68  C   UNL     1      12.418  11.098   1.224  1.00  0.00     0.037 A 
BRANCH  55  69
ATOM     69  C   UNL     1      11.507   8.491   6.758  1.00  0.00     0.057 A 
ATOM     70  C   UNL     1      12.374   7.697   7.521  1.00  0.00     0.134 A 
ATOM     71  C   UNL     1      10.727   9.432   7.442  1.00  0.00     0.134 A 
ATOM     72  F   UNL     1      13.142   6.768   6.931  1.00  0.00    -0.206 F 
ATOM     73  C   UNL     1      12.436   7.808   8.911  1.00  0.00     0.040 A 
ATOM     74  C   UNL     1      10.803   9.575   8.829  1.00  0.00     0.040 A 
ATOM     75  F   UNL     1       9.881  10.232   6.776  1.00  0.00    -0.206 F 
ATOM     76  C   UNL     1      11.652   8.754   9.569  1.00  0.00     0.006 A 
ENDBRANCH  55  69
BRANCH  56  77
ATOM     77  C   UNL     1      10.470   7.339  -3.104  1.00  0.00     0.057 A 
ATOM     78  C   UNL     1      11.573   7.238  -3.960  1.00  0.00     0.134 A 
ATOM     79  C   UNL     1       9.197   7.289  -3.684  1.00  0.00     0.134 A 
ATOM     80  F   UNL     1      12.818   7.297  -3.466  1.00  0.00    -0.206 F 
ATOM     81  C   UNL     1      11.417   7.111  -5.341  1.00  0.00     0.040 A 
ATOM     82  C   UNL     1       9.026   7.135  -5.061  1.00  0.00     0.040 A 
ATOM     83  F   UNL     1       8.099   7.372  -2.918  1.00  0.00    -0.206 F 
ATOM     84  C   UNL     1      10.140   7.053  -5.894  1.00  0.00     0.006 A 
ENDBRANCH  56  77
BRANCH  68  85
ATOM     85  C   UNL     1      13.033  12.430   0.905  1.00  0.00     0.057 A 
ATOM     86  C   UNL     1      12.273  13.505   0.426  1.00  0.00     0.134 A 
ATOM     87  C   UNL     1      14.400  12.652   1.121  1.00  0.00     0.134 A 
ATOM     88  F   UNL     1      10.962  13.357   0.185  1.00  0.00    -0.206 F 
ATOM     89  C   UNL     1      12.855  14.744   0.151  1.00  0.00     0.040 A 
ATOM     90  C   UNL     1      14.987  13.894   0.878  1.00  0.00     0.040 A 
ATOM     91  F   UNL     1      15.185  11.668   1.587  1.00  0.00    -0.206 F 
ATOM     92  C   UNL     1      14.214  14.943   0.385  1.00  0.00     0.006 A 
ENDBRANCH  68  85
ENDBRANCH  42  43
ENDBRANCH  34  37
ENDBRANCH  32  33
ENDBRANCH  31  32
ENDBRANCH   1  31
TORSDOF 14
