REMARK SMILES CCCN1C(=O)c2ccc(C(=O)Nc3ccc(OCC(=O)NCCCNC(=O)c4ccc(-c5c6nc(c(-c7c(F)cccc7F)c7ccc([nH]7)c(-c7c(F)cccc7F)c7nc(c(-c8c(F)cccc8F)c8ccc5[nH]8)C=C7)C=C6)cc4)cc3C)cc2C1=O
REMARK SMILES IDX 20 1 21 2 22 3 19 5 18 6 17 7 14 8 15 9 84 10 16 11 83 12
REMARK SMILES IDX 85 13 13 14 11 15 12 16 10 18 4 19 5 20 88 21 6 22 7 23
REMARK SMILES IDX 87 24 89 25 8 26 86 27 9 28 3 29 2 30 1 31 23 32 24 33 25 34
REMARK SMILES IDX 26 35 27 36 28 38 29 39 30 40 82 41 31 42 81 43 32 44 33 45
REMARK SMILES IDX 34 46 75 47 35 48 80 49 74 50 76 51 36 52 79 53 73 54 72 55
REMARK SMILES IDX 37 57 63 58 46 59 62 60 47 61 50 62 61 63 77 64 48 65 49 66
REMARK SMILES IDX 60 68 78 69 51 70 38 71 39 72 44 73 40 74 41 75 43 76 45 77
REMARK SMILES IDX 42 78 64 79 65 80 70 81 66 82 67 83 69 84 71 85 68 86 52 87
REMARK SMILES IDX 53 88 58 89 54 90 55 91 57 92 59 93 56 94
REMARK H PARENT 22 4 13 17 26 37 76 56 50 67
REMARK Flexibility Score: inf
ROOT
ATOM      1  C   UNL     1      -1.623   3.334   5.615  1.00  0.00     0.257 C 
ATOM      2  O   UNL     1      -2.000   2.776   4.583  1.00  0.00    -0.271 OA
ATOM      3  N   UNL     1      -0.331   3.776   5.689  1.00  0.00    -0.353 N 
ATOM      4  H   UNL     1       0.233   3.593   4.903  1.00  0.00     0.163 HD
ENDROOT
BRANCH   1   5
ATOM      5  C   UNL     1      -2.572   3.558   6.801  1.00  0.00     0.329 C 
BRANCH   5   6
ATOM      6  O   UNL     1      -2.256   2.841   7.986  1.00  0.00    -0.484 OA
BRANCH   6   7
ATOM      7  C   UNL     1      -2.415   1.482   7.968  1.00  0.00     0.120 A 
ATOM      8  C   UNL     1      -2.408  -1.325   8.059  1.00  0.00     0.044 A 
ATOM      9  C   UNL     1      -1.926  -0.579   9.141  1.00  0.00     0.030 A 
ATOM     10  C   UNL     1      -3.037  -0.670   6.986  1.00  0.00    -0.024 A 
ATOM     11  C   UNL     1      -1.910   0.816   9.083  1.00  0.00     0.048 A 
ATOM     12  C   UNL     1      -3.023   0.739   6.956  1.00  0.00     0.052 A 
ATOM     13  C   UNL     1      -3.820  -1.388   5.919  1.00  0.00     0.047 C 
BRANCH   8  14
ATOM     14  N   UNL     1      -2.136  -2.703   8.099  1.00  0.00    -0.322 N 
ATOM     15  C   UNL     1      -1.507  -3.503   7.163  1.00  0.00     0.255 C 
ATOM     16  O   UNL     1      -1.438  -4.717   7.353  1.00  0.00    -0.269 OA
ATOM     17  H   UNL     1      -2.439  -3.167   8.913  1.00  0.00     0.170 HD
BRANCH  15  18
ATOM     18  C   UNL     1      -0.839  -2.935   5.956  1.00  0.00     0.041 A 
ATOM     19  N   UNL     1       0.153  -2.535   1.492  1.00  0.00    -0.274 N 
ATOM     20  C   UNL     1       0.463  -1.462   2.273  1.00  0.00     0.261 C 
ATOM     21  C   UNL     1      -0.297  -3.591   2.251  1.00  0.00     0.261 C 
ATOM     22  O   UNL     1       0.979  -0.392   2.000  1.00  0.00    -0.269 OA
ATOM     23  C   UNL     1       0.102  -1.809   3.634  1.00  0.00     0.053 A 
ATOM     24  C   UNL     1      -0.382  -3.101   3.629  1.00  0.00     0.054 A 
ATOM     25  O   UNL     1      -0.538  -4.729   1.928  1.00  0.00    -0.269 OA
ATOM     26  C   UNL     1       0.210  -1.059   4.784  1.00  0.00     0.015 A 
ATOM     27  C   UNL     1      -0.852  -3.703   4.778  1.00  0.00     0.028 A 
ATOM     28  C   UNL     1      -0.234  -1.654   5.963  1.00  0.00     0.015 A 
BRANCH  19  29
ATOM     29  C   UNL     1       0.488  -2.651   0.087  1.00  0.00     0.129 C 
BRANCH  29  30
ATOM     30  C   UNL     1      -0.359  -1.816  -0.876  1.00  0.00     0.019 C 
ATOM     31  C   UNL     1       0.006  -0.342  -0.866  1.00  0.00     0.006 C 
ENDBRANCH  29  30
ENDBRANCH  19  29
ENDBRANCH  15  18
ENDBRANCH   8  14
ENDBRANCH   6   7
ENDBRANCH   5   6
ENDBRANCH   1   5
BRANCH   3  32
ATOM     32  C   UNL     1       0.313   4.480   6.782  1.00  0.00     0.117 C 
BRANCH  32  33
ATOM     33  C   UNL     1       1.117   3.552   7.677  1.00  0.00     0.042 C 
BRANCH  33  34
ATOM     34  C   UNL     1       2.421   3.089   7.053  1.00  0.00     0.118 C 
BRANCH  34  35
ATOM     35  N   UNL     1       3.489   4.083   7.077  1.00  0.00    -0.352 N 
ATOM     36  C   UNL     1       4.837   3.972   6.787  1.00  0.00     0.251 C 
ATOM     37  H   UNL     1       3.201   4.985   7.345  1.00  0.00     0.163 HD
ATOM     38  O   UNL     1       5.557   4.954   6.958  1.00  0.00    -0.269 OA
BRANCH  36  39
ATOM     39  C   UNL     1       5.382   2.778   6.088  1.00  0.00     0.039 A 
ATOM     40  C   UNL     1       6.415   3.006   5.162  1.00  0.00     0.014 A 
ATOM     41  C   UNL     1       4.668   1.593   6.038  1.00  0.00     0.014 A 
ATOM     42  C   UNL     1       6.477   2.232   4.012  1.00  0.00     0.010 A 
ATOM     43  C   UNL     1       4.593   0.945   4.838  1.00  0.00     0.010 A 
ATOM     44  C   UNL     1       5.460   1.313   3.810  1.00  0.00    -0.014 A 
BRANCH  44  45
ATOM     45  C   UNL     1       5.213   0.600   2.581  1.00  0.00     0.031 A 
ATOM     46  C   UNL     1       5.734  -0.770   2.485  1.00  0.00     0.074 A 
ATOM     47  C   UNL     1       4.304   1.125   1.732  1.00  0.00     0.049 A 
ATOM     48  N   UNL     1       5.821  -1.433   1.393  1.00  0.00    -0.248 NA
ATOM     49  C   UNL     1       6.240  -1.506   3.645  1.00  0.00     0.031 C 
ATOM     50  C   UNL     1       3.570   0.453   0.672  1.00  0.00     0.029 A 
ATOM     51  N   UNL     1       3.955   2.476   1.585  1.00  0.00    -0.354 N 
ATOM     52  C   UNL     1       6.105  -2.740   1.722  1.00  0.00     0.074 A 
ATOM     53  C   UNL     1       6.443  -2.719   3.123  1.00  0.00     0.031 C 
ATOM     54  C   UNL     1       3.095   1.379  -0.179  1.00  0.00     0.029 A 
ATOM     55  C   UNL     1       3.665   2.650   0.209  1.00  0.00     0.049 A 
ATOM     56  H   UNL     1       3.919   3.162   2.291  1.00  0.00     0.167 HD
ATOM     57  C   UNL     1       5.875  -3.704   0.789  1.00  0.00     0.037 A 
ATOM     58  C   UNL     1       4.494   3.392  -0.588  1.00  0.00     0.037 A 
ATOM     59  C   UNL     1       5.365  -3.099  -0.437  1.00  0.00     0.049 A 
ATOM     60  C   UNL     1       5.215   2.550  -1.628  1.00  0.00     0.074 A 
ATOM     61  C   UNL     1       4.089  -2.918  -0.935  1.00  0.00     0.029 A 
ATOM     62  N   UNL     1       6.173  -2.236  -1.147  1.00  0.00    -0.354 N 
ATOM     63  N   UNL     1       5.250   1.244  -1.611  1.00  0.00    -0.248 NA
ATOM     64  C   UNL     1       5.980   3.101  -2.743  1.00  0.00     0.031 C 
ATOM     65  C   UNL     1       4.133  -1.891  -1.918  1.00  0.00     0.029 A 
ATOM     66  C   UNL     1       5.452  -1.498  -2.061  1.00  0.00     0.049 A 
ATOM     67  H   UNL     1       7.146  -2.157  -1.017  1.00  0.00     0.167 HD
ATOM     68  C   UNL     1       5.986   0.779  -2.661  1.00  0.00     0.074 A 
ATOM     69  C   UNL     1       6.457   1.984  -3.322  1.00  0.00     0.031 C 
ATOM     70  C   UNL     1       6.161  -0.552  -2.904  1.00  0.00     0.037 A 
BRANCH  57  71
ATOM     71  C   UNL     1       5.852  -5.186   1.050  1.00  0.00     0.057 A 
ATOM     72  C   UNL     1       5.037  -6.030   0.268  1.00  0.00     0.134 A 
ATOM     73  C   UNL     1       6.598  -5.849   2.039  1.00  0.00     0.134 A 
ATOM     74  F   UNL     1       4.309  -5.564  -0.754  1.00  0.00    -0.206 F 
ATOM     75  C   UNL     1       4.921  -7.405   0.491  1.00  0.00     0.040 A 
ATOM     76  C   UNL     1       6.466  -7.224   2.295  1.00  0.00     0.040 A 
ATOM     77  F   UNL     1       7.523  -5.213   2.769  1.00  0.00    -0.206 F 
ATOM     78  C   UNL     1       5.622  -8.007   1.521  1.00  0.00     0.006 A 
ENDBRANCH  57  71
BRANCH  58  79
ATOM     79  C   UNL     1       5.066   4.542   0.173  1.00  0.00     0.057 A 
ATOM     80  C   UNL     1       4.150   5.456   0.736  1.00  0.00     0.134 A 
ATOM     81  C   UNL     1       6.311   4.423   0.793  1.00  0.00     0.134 A 
ATOM     82  F   UNL     1       2.947   5.642   0.168  1.00  0.00    -0.206 F 
ATOM     83  C   UNL     1       4.372   6.036   1.987  1.00  0.00     0.040 A 
ATOM     84  C   UNL     1       6.556   5.030   2.029  1.00  0.00     0.040 A 
ATOM     85  F   UNL     1       7.245   3.597   0.299  1.00  0.00    -0.206 F 
ATOM     86  C   UNL     1       5.560   5.776   2.662  1.00  0.00     0.006 A 
ENDBRANCH  58  79
BRANCH  70  87
ATOM     87  C   UNL     1       7.032  -1.091  -3.998  1.00  0.00     0.057 A 
ATOM     88  C   UNL     1       6.977  -0.609  -5.307  1.00  0.00     0.134 A 
ATOM     89  C   UNL     1       7.886  -2.194  -3.784  1.00  0.00     0.134 A 
ATOM     90  F   UNL     1       6.128   0.373  -5.646  1.00  0.00    -0.206 F 
ATOM     91  C   UNL     1       7.782  -1.135  -6.322  1.00  0.00     0.040 A 
ATOM     92  C   UNL     1       8.642  -2.772  -4.802  1.00  0.00     0.040 A 
ATOM     93  F   UNL     1       8.050  -2.745  -2.572  1.00  0.00    -0.206 F 
ATOM     94  C   UNL     1       8.613  -2.223  -6.073  1.00  0.00     0.006 A 
ENDBRANCH  70  87
ENDBRANCH  44  45
ENDBRANCH  36  39
ENDBRANCH  34  35
ENDBRANCH  33  34
ENDBRANCH  32  33
ENDBRANCH   3  32
TORSDOF 16
