REMARK SMILES O=C(NCCCNC(=O)c1ccccc1/C=C1/SC(=S)N(C2CCCC2)C1=O)c1ccc(-c2c3nc(c(-c4c(F)cccc4F)c4ccc([nH]4)c(-c4c(F)cccc4F)c4nc(c(-c5c(F)cccc5F)c5ccc2[nH]5)C=C4)C=C3)cc1
REMARK SMILES IDX 5 1 4 2 3 3 1 4 2 5 29 7 30 8 82 9 31 10 81 11 32 12 33 13
REMARK SMILES IDX 34 14 75 15 35 16 80 17 74 18 76 19 36 20 79 21 73 22 72 23
REMARK SMILES IDX 37 25 63 26 46 27 62 28 47 29 50 30 61 31 77 32 48 33 49 34
REMARK SMILES IDX 60 36 78 37 51 38 38 39 39 40 44 41 40 42 41 43 43 44 45 45
REMARK SMILES IDX 42 46 64 47 65 48 70 49 66 50 67 51 69 52 71 53 68 54 52 55
REMARK SMILES IDX 53 56 58 57 54 58 55 59 57 60 59 61 56 62 6 63 7 64 8 65
REMARK SMILES IDX 9 67 10 68 11 69 15 70 12 71 14 72 13 73 16 74 17 75 18 76
REMARK SMILES IDX 27 77 19 78 21 79 28 80 20 81 22 82 23 83 26 84 24 85 25 86
REMARK H PARENT 3 6 76 24 50 35 7 66
REMARK Flexibility Score: inf
ROOT
ATOM      1  C   UNL     1       5.137  -1.520  -1.467  1.00  0.00     0.042 C 
ENDROOT
BRANCH   1   2
ATOM      2  C   UNL     1       4.636  -0.119  -1.163  1.00  0.00     0.118 C 
BRANCH   2   3
ATOM      3  N   UNL     1       3.185  -0.037  -1.024  1.00  0.00    -0.352 N 
ATOM      4  O   UNL     1       1.188   0.033   0.029  1.00  0.00    -0.269 OA
ATOM      5  C   UNL     1       2.408   0.144   0.097  1.00  0.00     0.251 C 
ATOM      6  H   UNL     1       2.682  -0.126  -1.866  1.00  0.00     0.163 HD
BRANCH   5   7
ATOM      7  C   UNL     1       3.052   0.435   1.394  1.00  0.00     0.039 A 
ATOM      8  C   UNL     1       4.125   1.320   1.459  1.00  0.00     0.014 A 
ATOM      9  C   UNL     1       2.602  -0.204   2.552  1.00  0.00     0.014 A 
ATOM     10  C   UNL     1       4.893   1.382   2.610  1.00  0.00     0.010 A 
ATOM     11  C   UNL     1       3.289  -0.018   3.756  1.00  0.00     0.010 A 
ATOM     12  C   UNL     1       4.468   0.741   3.784  1.00  0.00    -0.014 A 
BRANCH  12  13
ATOM     13  C   UNL     1       5.244   0.957   5.030  1.00  0.00     0.031 A 
ATOM     14  C   UNL     1       5.884  -0.185   5.769  1.00  0.00     0.074 A 
ATOM     15  C   UNL     1       5.405   2.223   5.466  1.00  0.00     0.049 A 
ATOM     16  N   UNL     1       6.608  -0.153   6.860  1.00  0.00    -0.248 NA
ATOM     17  C   UNL     1       5.680  -1.536   5.226  1.00  0.00     0.031 C 
ATOM     18  C   UNL     1       4.825   3.412   4.831  1.00  0.00     0.029 A 
ATOM     19  N   UNL     1       6.120   2.729   6.518  1.00  0.00    -0.354 N 
ATOM     20  C   UNL     1       6.927  -1.475   7.146  1.00  0.00     0.074 A 
ATOM     21  C   UNL     1       6.295  -2.288   6.129  1.00  0.00     0.031 C 
ATOM     22  C   UNL     1       5.259   4.508   5.465  1.00  0.00     0.029 A 
ATOM     23  C   UNL     1       6.070   4.100   6.604  1.00  0.00     0.049 A 
ATOM     24  H   UNL     1       6.621   2.167   7.152  1.00  0.00     0.167 HD
ATOM     25  C   UNL     1       7.683  -1.960   8.161  1.00  0.00     0.037 A 
ATOM     26  C   UNL     1       6.592   4.940   7.513  1.00  0.00     0.037 A 
ATOM     27  C   UNL     1       8.315  -1.138   9.163  1.00  0.00     0.049 A 
ATOM     28  C   UNL     1       7.388   4.369   8.648  1.00  0.00     0.074 A 
ATOM     29  C   UNL     1       9.124  -1.530  10.216  1.00  0.00     0.029 A 
ATOM     30  N   UNL     1       8.204   0.244   9.241  1.00  0.00    -0.354 N 
ATOM     31  N   UNL     1       7.703   3.120   8.889  1.00  0.00    -0.248 NA
ATOM     32  C   UNL     1       7.897   5.324   9.639  1.00  0.00     0.031 C 
ATOM     33  C   UNL     1       9.453  -0.395  10.963  1.00  0.00     0.029 A 
ATOM     34  C   UNL     1       8.905   0.715  10.341  1.00  0.00     0.049 A 
ATOM     35  H   UNL     1       7.701   0.806   8.609  1.00  0.00     0.167 HD
ATOM     36  C   UNL     1       8.464   3.139  10.048  1.00  0.00     0.074 A 
ATOM     37  C   UNL     1       8.583   4.527  10.446  1.00  0.00     0.031 C 
ATOM     38  C   UNL     1       9.014   2.100  10.723  1.00  0.00     0.037 A 
BRANCH  25  39
ATOM     39  C   UNL     1       7.849  -3.451   8.259  1.00  0.00     0.057 A 
ATOM     40  C   UNL     1       8.613  -4.179   7.338  1.00  0.00     0.134 A 
ATOM     41  C   UNL     1       7.273  -4.163   9.321  1.00  0.00     0.134 A 
ATOM     42  F   UNL     1       9.185  -3.564   6.292  1.00  0.00    -0.206 F 
ATOM     43  C   UNL     1       8.779  -5.562   7.456  1.00  0.00     0.040 A 
ATOM     44  C   UNL     1       7.455  -5.540   9.465  1.00  0.00     0.040 A 
ATOM     45  F   UNL     1       6.535  -3.530  10.245  1.00  0.00    -0.206 F 
ATOM     46  C   UNL     1       8.205  -6.244   8.527  1.00  0.00     0.006 A 
ENDBRANCH  25  39
BRANCH  26  47
ATOM     47  C   UNL     1       6.355   6.400   7.394  1.00  0.00     0.057 A 
ATOM     48  C   UNL     1       7.402   7.285   7.115  1.00  0.00     0.134 A 
ATOM     49  C   UNL     1       5.073   6.944   7.545  1.00  0.00     0.134 A 
ATOM     50  F   UNL     1       8.654   6.826   6.971  1.00  0.00    -0.206 F 
ATOM     51  C   UNL     1       7.187   8.660   7.011  1.00  0.00     0.040 A 
ATOM     52  C   UNL     1       4.838   8.312   7.411  1.00  0.00     0.040 A 
ATOM     53  F   UNL     1       4.024   6.148   7.800  1.00  0.00    -0.206 F 
ATOM     54  C   UNL     1       5.899   9.176   7.152  1.00  0.00     0.006 A 
ENDBRANCH  26  47
BRANCH  38  55
ATOM     55  C   UNL     1       9.827   2.437  11.940  1.00  0.00     0.057 A 
ATOM     56  C   UNL     1       9.238   2.912  13.119  1.00  0.00     0.134 A 
ATOM     57  C   UNL     1      11.218   2.268  11.934  1.00  0.00     0.134 A 
ATOM     58  F   UNL     1       7.913   3.112  13.185  1.00  0.00    -0.206 F 
ATOM     59  C   UNL     1      10.007   3.238  14.237  1.00  0.00     0.040 A 
ATOM     60  C   UNL     1      11.993   2.560  13.056  1.00  0.00     0.040 A 
ATOM     61  F   UNL     1      11.844   1.810  10.839  1.00  0.00    -0.206 F 
ATOM     62  C   UNL     1      11.388   3.055  14.209  1.00  0.00     0.006 A 
ENDBRANCH  38  55
ENDBRANCH  12  13
ENDBRANCH   5   7
ENDBRANCH   2   3
ENDBRANCH   1   2
BRANCH   1  63
ATOM     63  C   UNL     1       4.709  -2.029  -2.828  1.00  0.00     0.118 C 
BRANCH  63  64
ATOM     64  N   UNL     1       5.178  -1.181  -3.912  1.00  0.00    -0.352 N 
ATOM     65  C   UNL     1       5.889  -1.506  -5.037  1.00  0.00     0.251 C 
ATOM     66  H   UNL     1       4.949  -0.228  -3.824  1.00  0.00     0.163 HD
ATOM     67  O   UNL     1       6.309  -0.599  -5.750  1.00  0.00    -0.269 OA
BRANCH  65  68
ATOM     68  C   UNL     1       6.170  -2.921  -5.380  1.00  0.00     0.047 A 
ATOM     69  C   UNL     1       7.511  -3.226  -5.657  1.00  0.00     0.014 A 
ATOM     70  C   UNL     1       5.176  -3.921  -5.474  1.00  0.00    -0.012 A 
ATOM     71  C   UNL     1       7.882  -4.534  -5.960  1.00  0.00     0.001 A 
ATOM     72  C   UNL     1       5.574  -5.236  -5.750  1.00  0.00     0.009 A 
ATOM     73  C   UNL     1       6.917  -5.538  -5.991  1.00  0.00     0.001 A 
BRANCH  70  74
ATOM     74  C   UNL     1       3.742  -3.678  -5.240  1.00  0.00     0.030 C 
ATOM     75  C   UNL     1       2.986  -2.781  -5.887  1.00  0.00     0.081 C 
ATOM     76  S   UNL     1       1.437  -2.291  -5.336  1.00  0.00    -0.054 SA
ATOM     77  C   UNL     1       3.361  -1.996  -7.090  1.00  0.00     0.266 C 
ATOM     78  C   UNL     1       1.404  -0.889  -6.410  1.00  0.00     0.148 C 
ATOM     79  N   UNL     1       2.488  -0.928  -7.269  1.00  0.00    -0.290 N 
ATOM     80  O   UNL     1       4.267  -2.324  -7.841  1.00  0.00    -0.268 OA
ATOM     81  S   UNL     1       0.166   0.223  -6.286  1.00  0.00    -0.052 S 
BRANCH  79  82
ATOM     82  C   UNL     1       2.740  -0.065  -8.430  1.00  0.00     0.092 C 
ATOM     83  C   UNL     1       1.689  -0.191  -9.529  1.00  0.00     0.025 C 
ATOM     84  C   UNL     1       2.876   1.438  -8.183  1.00  0.00     0.025 C 
ATOM     85  C   UNL     1       1.985   0.992 -10.435  1.00  0.00     0.002 C 
ATOM     86  C   UNL     1       2.544   2.088  -9.529  1.00  0.00     0.002 C 
ENDBRANCH  79  82
ENDBRANCH  70  74
ENDBRANCH  65  68
ENDBRANCH  63  64
ENDBRANCH   1  63
TORSDOF 12
