REMARK SMILES CC1=NN(c2ccc(C(=O)NCCCNC(=O)c3ccc(-c4c5nc(c(-c6c(F)cccc6F)c6ccc([nH]6)c(-c6c(F)cccc6F)c6nc(c(-c7c(F)cccc7F)c7ccc4[nH]7)C=C6)C=C5)cc3)cc2)C(=O)/C1=C\c1ccc(N2CCCC2)cc1
REMARK SMILES IDX 12 1 11 2 9 3 10 4 8 6 5 7 6 8 73 9 7 10 72 11 4 12 1 13
REMARK SMILES IDX 2 14 3 15 76 16 74 17 77 18 75 19 78 20 79 21 88 22 80 23
REMARK SMILES IDX 87 24 81 25 82 26 83 27 86 28 84 29 85 30 13 31 14 32 15 33
REMARK SMILES IDX 16 34 17 36 18 37 19 38 71 39 20 40 70 41 21 42 22 43 23 44
REMARK SMILES IDX 64 45 24 46 69 47 63 48 65 49 25 50 68 51 62 52 61 53 26 55
REMARK SMILES IDX 52 56 35 57 51 58 36 59 39 60 50 61 66 62 37 63 38 64 49 66
REMARK SMILES IDX 67 67 40 68 27 69 28 70 33 71 29 72 30 73 32 74 34 75 31 76
REMARK SMILES IDX 53 77 54 78 59 79 55 80 56 81 58 82 60 83 57 84 41 85 42 86
REMARK SMILES IDX 47 87 43 88 44 89 46 90 48 91 45 92
REMARK H PARENT 11 5 15 35 65 54 39 65
REMARK Flexibility Score: inf
ROOT
ATOM      1  C   UNL     1       4.871   5.848  -1.873  1.00  0.00     0.118 C 
ENDROOT
BRANCH   1   2
ATOM      2  N   UNL     1       4.130   6.655  -0.920  1.00  0.00    -0.352 N 
ATOM      3  C   UNL     1       2.993   6.430  -0.184  1.00  0.00     0.251 C 
ATOM      4  O   UNL     1       2.616   7.337   0.558  1.00  0.00    -0.269 OA
ATOM      5  H   UNL     1       4.523   7.545  -0.770  1.00  0.00     0.163 HD
BRANCH   3   6
ATOM      6  C   UNL     1       2.243   5.142  -0.196  1.00  0.00     0.039 A 
ATOM      7  C   UNL     1       0.959   2.653   0.038  1.00  0.00     0.069 A 
ATOM      8  C   UNL     1       0.766   3.622   1.022  1.00  0.00     0.029 A 
ATOM      9  C   UNL     1       1.711   2.961  -1.095  1.00  0.00     0.029 A 
ATOM     10  C   UNL     1       1.440   4.846   0.920  1.00  0.00     0.016 A 
ATOM     11  C   UNL     1       2.292   4.218  -1.238  1.00  0.00     0.016 A 
BRANCH   7  12
ATOM     12  N   UNL     1       0.436   1.363   0.176  1.00  0.00    -0.196 N 
ATOM     13  C   UNL     1      -2.520  -0.671   0.160  1.00  0.00     0.069 C 
ATOM     14  C   UNL     1      -1.155  -0.071   0.182  1.00  0.00     0.071 C 
ATOM     15  N   UNL     1      -0.928   1.206   0.356  1.00  0.00    -0.169 NA
ATOM     16  C   UNL     1       0.088  -0.844  -0.010  1.00  0.00     0.065 C 
ATOM     17  C   UNL     1       1.142   0.190  -0.120  1.00  0.00     0.280 C 
ATOM     18  C   UNL     1       0.232  -2.175   0.000  1.00  0.00     0.024 C 
ATOM     19  O   UNL     1       2.309   0.035  -0.416  1.00  0.00    -0.267 OA
BRANCH  18  20
ATOM     20  C   UNL     1       1.543  -2.836   0.043  1.00  0.00    -0.025 A 
ATOM     21  C   UNL     1       2.000  -3.617  -1.017  1.00  0.00     0.010 A 
ATOM     22  C   UNL     1       2.361  -2.680   1.166  1.00  0.00     0.010 A 
ATOM     23  C   UNL     1       3.274  -4.206  -0.958  1.00  0.00     0.026 A 
ATOM     24  C   UNL     1       3.623  -3.281   1.218  1.00  0.00     0.026 A 
ATOM     25  C   UNL     1       4.107  -4.057   0.161  1.00  0.00     0.037 A 
BRANCH  25  26
ATOM     26  N   UNL     1       5.359  -4.631   0.189  1.00  0.00    -0.372 N 
ATOM     27  C   UNL     1       5.994  -5.151   1.394  1.00  0.00     0.116 C 
ATOM     28  C   UNL     1       6.345  -4.256  -0.825  1.00  0.00     0.116 C 
ATOM     29  C   UNL     1       7.445  -4.707   1.258  1.00  0.00     0.023 C 
ATOM     30  C   UNL     1       7.675  -4.744  -0.246  1.00  0.00     0.023 C 
ENDBRANCH  25  26
ENDBRANCH  18  20
ENDBRANCH   7  12
ENDBRANCH   3   6
ENDBRANCH   1   2
BRANCH   1  31
ATOM     31  C   UNL     1       4.482   6.209  -3.307  1.00  0.00     0.042 C 
BRANCH  31  32
ATOM     32  C   UNL     1       5.083   7.537  -3.762  1.00  0.00     0.118 C 
BRANCH  32  33
ATOM     33  N   UNL     1       6.534   7.455  -3.891  1.00  0.00    -0.352 N 
ATOM     34  C   UNL     1       7.331   7.608  -4.996  1.00  0.00     0.251 C 
ATOM     35  H   UNL     1       7.015   7.261  -3.054  1.00  0.00     0.163 HD
ATOM     36  O   UNL     1       8.504   7.251  -4.958  1.00  0.00    -0.269 OA
BRANCH  34  37
ATOM     37  C   UNL     1       6.778   8.191  -6.234  1.00  0.00     0.039 A 
ATOM     38  C   UNL     1       7.115   7.616  -7.462  1.00  0.00     0.014 A 
ATOM     39  C   UNL     1       5.948   9.314  -6.187  1.00  0.00     0.014 A 
ATOM     40  C   UNL     1       6.559   8.122  -8.638  1.00  0.00     0.010 A 
ATOM     41  C   UNL     1       5.337   9.771  -7.350  1.00  0.00     0.010 A 
ATOM     42  C   UNL     1       5.630   9.174  -8.585  1.00  0.00    -0.014 A 
BRANCH  42  43
ATOM     43  C   UNL     1       4.922   9.638  -9.804  1.00  0.00     0.031 A 
ATOM     44  C   UNL     1       5.109  11.042 -10.303  1.00  0.00     0.074 A 
ATOM     45  C   UNL     1       4.047   8.813 -10.409  1.00  0.00     0.049 A 
ATOM     46  N   UNL     1       4.505  11.655 -11.290  1.00  0.00    -0.248 NA
ATOM     47  C   UNL     1       6.086  11.876  -9.586  1.00  0.00     0.031 C 
ATOM     48  C   UNL     1       3.752   7.440  -9.993  1.00  0.00     0.029 A 
ATOM     49  N   UNL     1       3.231   9.012 -11.494  1.00  0.00    -0.354 N 
ATOM     50  C   UNL     1       5.020  12.944 -11.306  1.00  0.00     0.074 A 
ATOM     51  C   UNL     1       5.948  13.042 -10.200  1.00  0.00     0.031 C 
ATOM     52  C   UNL     1       2.837   6.915 -10.822  1.00  0.00     0.029 A 
ATOM     53  C   UNL     1       2.442   7.928 -11.796  1.00  0.00     0.049 A 
ATOM     54  H   UNL     1       3.212   9.852 -12.008  1.00  0.00     0.167 HD
ATOM     55  C   UNL     1       4.757  13.947 -12.177  1.00  0.00     0.037 A 
ATOM     56  C   UNL     1       1.493   7.773 -12.738  1.00  0.00     0.037 A 
ATOM     57  C   UNL     1       3.837  13.839 -13.279  1.00  0.00     0.049 A 
ATOM     58  C   UNL     1       1.188   8.918 -13.663  1.00  0.00     0.074 A 
ATOM     59  C   UNL     1       3.540  14.780 -14.249  1.00  0.00     0.029 A 
ATOM     60  N   UNL     1       3.055  12.725 -13.551  1.00  0.00    -0.354 N 
ATOM     61  N   UNL     1       1.733  10.109 -13.713  1.00  0.00    -0.248 NA
ATOM     62  C   UNL     1       0.133   8.699 -14.663  1.00  0.00     0.031 C 
ATOM     63  C   UNL     1       2.536  14.259 -15.071  1.00  0.00     0.029 A 
ATOM     64  C   UNL     1       2.251  12.970 -14.652  1.00  0.00     0.049 A 
ATOM     65  H   UNL     1       3.070  11.886 -13.037  1.00  0.00     0.167 HD
ATOM     66  C   UNL     1       1.110  10.771 -14.762  1.00  0.00     0.074 A 
ATOM     67  C   UNL     1       0.157   9.842 -15.334  1.00  0.00     0.031 C 
ATOM     68  C   UNL     1       1.309  12.034 -15.212  1.00  0.00     0.037 A 
BRANCH  55  69
ATOM     69  C   UNL     1       5.470  15.253 -11.970  1.00  0.00     0.057 A 
ATOM     70  C   UNL     1       6.849  15.386 -12.184  1.00  0.00     0.134 A 
ATOM     71  C   UNL     1       4.763  16.402 -11.592  1.00  0.00     0.134 A 
ATOM     72  F   UNL     1       7.588  14.324 -12.538  1.00  0.00    -0.206 F 
ATOM     73  C   UNL     1       7.502  16.607 -12.002  1.00  0.00     0.040 A 
ATOM     74  C   UNL     1       5.401  17.635 -11.438  1.00  0.00     0.040 A 
ATOM     75  F   UNL     1       3.440  16.350 -11.379  1.00  0.00    -0.206 F 
ATOM     76  C   UNL     1       6.776  17.738 -11.636  1.00  0.00     0.006 A 
ENDBRANCH  55  69
BRANCH  56  77
ATOM     77  C   UNL     1       0.764   6.484 -12.856  1.00  0.00     0.057 A 
ATOM     78  C   UNL     1       0.938   5.656 -13.971  1.00  0.00     0.134 A 
ATOM     79  C   UNL     1      -0.129   6.053 -11.867  1.00  0.00     0.134 A 
ATOM     80  F   UNL     1       1.766   6.022 -14.960  1.00  0.00    -0.206 F 
ATOM     81  C   UNL     1       0.235   4.458 -14.109  1.00  0.00     0.040 A 
ATOM     82  C   UNL     1      -0.816   4.843 -11.978  1.00  0.00     0.040 A 
ATOM     83  F   UNL     1      -0.335   6.795 -10.769  1.00  0.00    -0.206 F 
ATOM     84  C   UNL     1      -0.641   4.046 -13.107  1.00  0.00     0.006 A 
ENDBRANCH  56  77
BRANCH  68  85
ATOM     85  C   UNL     1       0.502  12.478 -16.398  1.00  0.00     0.057 A 
ATOM     86  C   UNL     1      -0.871  12.738 -16.305  1.00  0.00     0.134 A 
ATOM     87  C   UNL     1       1.119  12.700 -17.637  1.00  0.00     0.134 A 
ATOM     88  F   UNL     1      -1.525  12.533 -15.152  1.00  0.00    -0.206 F 
ATOM     89  C   UNL     1      -1.605  13.184 -17.405  1.00  0.00     0.040 A 
ATOM     90  C   UNL     1       0.402  13.174 -18.735  1.00  0.00     0.040 A 
ATOM     91  F   UNL     1       2.433  12.479 -17.793  1.00  0.00    -0.206 F 
ATOM     92  C   UNL     1      -0.966  13.413 -18.622  1.00  0.00     0.006 A 
ENDBRANCH  68  85
ENDBRANCH  42  43
ENDBRANCH  34  37
ENDBRANCH  32  33
ENDBRANCH  31  32
ENDBRANCH   1  31
TORSDOF 13
