REMARK SMILES CCCC[C@H](C(=O)NCCCNC(=O)c1ccc(-c2c3nc(c(-c4c(F)cccc4F)c4ccc([nH]4)c(-c4c(F)cccc4F)c4nc(c(-c5c(F)cccc5F)c5ccc2[nH]5)C=C4)C=C3)cc1)N1C(=O)/C(=C/c2ccc(C)cc2)SC1=S
REMARK SMILES IDX 9 1 8 2 6 3 7 4 5 6 4 7 3 8 2 9 1 10 69 11 70 12 82 13 71 14
REMARK SMILES IDX 72 15 81 16 83 17 73 18 74 19 75 20 80 21 76 22 79 23 77 24
REMARK SMILES IDX 78 25 10 26 11 27 12 28 13 29 14 31 15 32 16 33 68 34 17 35
REMARK SMILES IDX 67 36 18 37 19 38 20 39 61 40 21 41 66 42 60 43 62 44 22 45
REMARK SMILES IDX 65 46 59 47 58 48 23 50 49 51 32 52 48 53 33 54 36 55 47 56
REMARK SMILES IDX 63 57 34 58 35 59 46 61 64 62 37 63 24 64 25 65 30 66 26 67
REMARK SMILES IDX 27 68 29 69 31 70 28 71 50 72 51 73 56 74 52 75 53 76 55 77
REMARK SMILES IDX 57 78 54 79 38 80 39 81 44 82 40 83 41 84 43 85 45 86 42 87
REMARK H PARENT 8 5 12 30 62 49 36 60
REMARK Flexibility Score: inf
ROOT
ATOM      1  C   UNL     1       1.335  -3.819  -3.019  1.00  0.00     0.117 C 
ENDROOT
BRANCH   1   2
ATOM      2  N   UNL     1       1.472  -2.719  -2.095  1.00  0.00    -0.354 N 
ATOM      3  C   UNL     1       0.587  -2.250  -1.178  1.00  0.00     0.243 C 
ATOM      4  O   UNL     1       1.059  -1.527  -0.290  1.00  0.00    -0.273 OA
ATOM      5  H   UNL     1       2.330  -2.240  -2.135  1.00  0.00     0.163 HD
BRANCH   3   6
ATOM      6  C   UNL     1      -0.914  -2.645  -1.133  1.00  0.00     0.181 C 
BRANCH   6   7
ATOM      7  C   UNL     1      -1.836  -2.547  -2.380  1.00  0.00     0.036 C 
BRANCH   7   8
ATOM      8  C   UNL     1      -1.959  -3.582  -3.508  1.00  0.00     0.002 C 
BRANCH   8   9
ATOM      9  C   UNL     1      -2.103  -5.064  -3.180  1.00  0.00    -0.003 C 
ATOM     10  C   UNL     1      -3.492  -5.463  -2.726  1.00  0.00     0.004 C 
ENDBRANCH   8   9
ENDBRANCH   7   8
ENDBRANCH   6   7
BRANCH   6  11
ATOM     11  N   UNL     1      -1.255  -3.690  -0.149  1.00  0.00    -0.280 N 
ATOM     12  C   UNL     1      -0.574  -4.891  -0.147  1.00  0.00     0.266 C 
ATOM     13  C   UNL     1      -2.261  -3.582   0.796  1.00  0.00     0.149 C 
ATOM     14  O   UNL     1       0.469  -5.155  -0.719  1.00  0.00    -0.268 OA
ATOM     15  C   UNL     1      -1.291  -5.890   0.673  1.00  0.00     0.081 C 
ATOM     16  S   UNL     1      -2.460  -5.115   1.645  1.00  0.00    -0.054 SA
ATOM     17  S   UNL     1      -3.245  -2.278   1.144  1.00  0.00    -0.052 S 
ATOM     18  C   UNL     1      -1.004  -7.189   0.528  1.00  0.00     0.029 C 
BRANCH  18  19
ATOM     19  C   UNL     1      -1.619  -8.326   1.212  1.00  0.00    -0.024 A 
ATOM     20  C   UNL     1      -0.774  -9.298   1.756  1.00  0.00     0.008 A 
ATOM     21  C   UNL     1      -3.004  -8.507   1.282  1.00  0.00     0.008 A 
ATOM     22  C   UNL     1      -1.305 -10.405   2.416  1.00  0.00     0.004 A 
ATOM     23  C   UNL     1      -3.536  -9.612   1.949  1.00  0.00     0.004 A 
ATOM     24  C   UNL     1      -2.691 -10.561   2.533  1.00  0.00    -0.051 A 
ATOM     25  C   UNL     1      -3.245 -11.735   3.280  1.00  0.00     0.044 C 
ENDBRANCH  18  19
ENDBRANCH   6  11
ENDBRANCH   3   6
ENDBRANCH   1   2
BRANCH   1  26
ATOM     26  C   UNL     1       1.411  -3.366  -4.462  1.00  0.00     0.042 C 
BRANCH  26  27
ATOM     27  C   UNL     1       2.834  -3.352  -4.976  1.00  0.00     0.118 C 
BRANCH  27  28
ATOM     28  N   UNL     1       3.342  -4.706  -5.173  1.00  0.00    -0.352 N 
ATOM     29  C   UNL     1       3.801  -5.308  -6.317  1.00  0.00     0.251 C 
ATOM     30  H   UNL     1       3.358  -5.270  -4.366  1.00  0.00     0.163 HD
ATOM     31  O   UNL     1       3.962  -6.524  -6.351  1.00  0.00    -0.269 OA
BRANCH  29  32
ATOM     32  C   UNL     1       4.081  -4.488  -7.514  1.00  0.00     0.039 A 
ATOM     33  C   UNL     1       3.763  -4.994  -8.776  1.00  0.00     0.014 A 
ATOM     34  C   UNL     1       4.653  -3.220  -7.389  1.00  0.00     0.014 A 
ATOM     35  C   UNL     1       3.966  -4.201  -9.905  1.00  0.00     0.010 A 
ATOM     36  C   UNL     1       4.744  -2.391  -8.496  1.00  0.00     0.010 A 
ATOM     37  C   UNL     1       4.424  -2.880  -9.769  1.00  0.00    -0.014 A 
BRANCH  37  38
ATOM     38  C   UNL     1       4.610  -1.998 -10.946  1.00  0.00     0.031 A 
ATOM     39  C   UNL     1       5.977  -1.455 -11.261  1.00  0.00     0.074 A 
ATOM     40  C   UNL     1       3.542  -1.636 -11.682  1.00  0.00     0.049 A 
ATOM     41  N   UNL     1       6.335  -0.608 -12.192  1.00  0.00    -0.248 NA
ATOM     42  C   UNL     1       7.085  -1.895 -10.395  1.00  0.00     0.031 C 
ATOM     43  C   UNL     1       2.160  -2.056 -11.437  1.00  0.00     0.029 A 
ATOM     44  N   UNL     1       3.450  -0.822 -12.782  1.00  0.00    -0.354 N 
ATOM     45  C   UNL     1       7.697  -0.403 -12.010  1.00  0.00     0.074 A 
ATOM     46  C   UNL     1       8.091  -1.160 -10.844  1.00  0.00     0.031 C 
ATOM     47  C   UNL     1       1.364  -1.521 -12.376  1.00  0.00     0.029 A 
ATOM     48  C   UNL     1       2.169  -0.685 -13.260  1.00  0.00     0.049 A 
ATOM     49  H   UNL     1       4.228  -0.378 -13.190  1.00  0.00     0.167 HD
ATOM     50  C   UNL     1       8.550   0.327 -12.766  1.00  0.00     0.037 A 
ATOM     51  C   UNL     1       1.699   0.042 -14.291  1.00  0.00     0.037 A 
ATOM     52  C   UNL     1       8.154   1.053 -13.943  1.00  0.00     0.049 A 
ATOM     53  C   UNL     1       2.667   0.851 -15.111  1.00  0.00     0.074 A 
ATOM     54  C   UNL     1       8.948   1.774 -14.817  1.00  0.00     0.029 A 
ATOM     55  N   UNL     1       6.851   1.151 -14.408  1.00  0.00    -0.354 N 
ATOM     56  N   UNL     1       3.966   0.976 -14.973  1.00  0.00    -0.248 NA
ATOM     57  C   UNL     1       2.107   1.614 -16.233  1.00  0.00     0.031 C 
ATOM     58  C   UNL     1       8.117   2.352 -15.781  1.00  0.00     0.029 A 
ATOM     59  C   UNL     1       6.815   1.942 -15.543  1.00  0.00     0.049 A 
ATOM     60  H   UNL     1       6.069   0.721 -13.993  1.00  0.00     0.167 HD
ATOM     61  C   UNL     1       4.380   1.804 -16.007  1.00  0.00     0.074 A 
ATOM     62  C   UNL     1       3.198   2.137 -16.774  1.00  0.00     0.031 C 
ATOM     63  C   UNL     1       5.627   2.251 -16.297  1.00  0.00     0.037 A 
BRANCH  50  64
ATOM     64  C   UNL     1       9.991   0.371 -12.347  1.00  0.00     0.057 A 
ATOM     65  C   UNL     1      10.824  -0.752 -12.436  1.00  0.00     0.134 A 
ATOM     66  C   UNL     1      10.565   1.563 -11.887  1.00  0.00     0.134 A 
ATOM     67  F   UNL     1      10.335  -1.930 -12.855  1.00  0.00    -0.206 F 
ATOM     68  C   UNL     1      12.167  -0.699 -12.060  1.00  0.00     0.040 A 
ATOM     69  C   UNL     1      11.915   1.637 -11.537  1.00  0.00     0.040 A 
ATOM     70  F   UNL     1       9.827   2.679 -11.780  1.00  0.00    -0.206 F 
ATOM     71  C   UNL     1      12.718   0.502 -11.617  1.00  0.00     0.006 A 
ENDBRANCH  50  64
BRANCH  51  72
ATOM     72  C   UNL     1       0.250   0.030 -14.617  1.00  0.00     0.057 A 
ATOM     73  C   UNL     1      -0.221  -0.550 -15.801  1.00  0.00     0.134 A 
ATOM     74  C   UNL     1      -0.697   0.612 -13.765  1.00  0.00     0.134 A 
ATOM     75  F   UNL     1       0.637  -1.111 -16.665  1.00  0.00    -0.206 F 
ATOM     76  C   UNL     1      -1.575  -0.525 -16.141  1.00  0.00     0.040 A 
ATOM     77  C   UNL     1      -2.058   0.618 -14.078  1.00  0.00     0.040 A 
ATOM     78  F   UNL     1      -0.315   1.175 -12.609  1.00  0.00    -0.206 F 
ATOM     79  C   UNL     1      -2.498   0.058 -15.275  1.00  0.00     0.006 A 
ENDBRANCH  51  72
BRANCH  63  80
ATOM     80  C   UNL     1       5.781   3.113 -17.517  1.00  0.00     0.057 A 
ATOM     81  C   UNL     1       5.301   4.428 -17.562  1.00  0.00     0.134 A 
ATOM     82  C   UNL     1       6.457   2.631 -18.645  1.00  0.00     0.134 A 
ATOM     83  F   UNL     1       4.634   4.945 -16.519  1.00  0.00    -0.206 F 
ATOM     84  C   UNL     1       5.466   5.224 -18.696  1.00  0.00     0.040 A 
ATOM     85  C   UNL     1       6.657   3.428 -19.772  1.00  0.00     0.040 A 
ATOM     86  F   UNL     1       6.952   1.384 -18.663  1.00  0.00    -0.206 F 
ATOM     87  C   UNL     1       6.153   4.727 -19.802  1.00  0.00     0.006 A 
ENDBRANCH  63  80
ENDBRANCH  37  38
ENDBRANCH  29  32
ENDBRANCH  27  28
ENDBRANCH  26  27
ENDBRANCH   1  26
TORSDOF 15
