REMARK SMILES C[NH2+]CCCC(=O)NC[C@@H]1CC[C@H](C(=O)NCCCNC(=O)c2ccc(-c3c4nc(c(-c5c(F)cccc5F)c5ccc([nH]5)c(-c5c(F)cccc5F)c5nc(c(-c6c(F)cccc6F)c6ccc3[nH]6)C=C5)C=C4)cc2)O1
REMARK SMILES IDX 14 1 15 2 16 3 13 5 10 6 11 7 77 8 12 9 9 10 8 11 6 12 7 13
REMARK SMILES IDX 5 15 4 16 3 17 2 18 1 19 17 22 18 23 19 24 20 25 21 26 22 28
REMARK SMILES IDX 23 29 24 30 76 31 25 32 75 33 26 34 27 35 28 36 69 37 29 38
REMARK SMILES IDX 74 39 68 40 70 41 30 42 73 43 67 44 66 45 31 47 57 48 40 49
REMARK SMILES IDX 56 50 41 51 44 52 55 53 71 54 42 55 43 56 54 58 72 59 45 60
REMARK SMILES IDX 32 61 33 62 38 63 34 64 35 65 37 66 39 67 36 68 58 69 59 70
REMARK SMILES IDX 64 71 60 72 61 73 63 74 65 75 62 76 46 77 47 78 52 79 48 80
REMARK SMILES IDX 49 81 51 82 53 83 50 84
REMARK H PARENT 16 4 8 14 2 20 2 21 20 27 70 46 44 57
REMARK Flexibility Score: inf
ROOT
ATOM      1  C   UNL     1      -1.819   2.265   1.783  1.00  0.00     0.249 C 
ATOM      2  O   UNL     1      -1.569   3.466   1.915  1.00  0.00    -0.272 OA
ATOM      3  N   UNL     1      -2.219   1.832   0.547  1.00  0.00    -0.354 N 
ATOM      4  H   UNL     1      -2.585   2.505  -0.071  1.00  0.00     0.163 HD
ENDROOT
BRANCH   1   5
ATOM      5  C   UNL     1      -1.768   1.296   2.997  1.00  0.00     0.207 C 
ATOM      6  C   UNL     1      -1.434  -0.784   3.921  1.00  0.00     0.138 C 
ATOM      7  C   UNL     1      -2.916  -0.738   3.598  1.00  0.00     0.037 C 
ATOM      8  O   UNL     1      -0.887   0.159   2.974  1.00  0.00    -0.363 OA
ATOM      9  C   UNL     1      -3.152   0.742   3.353  1.00  0.00     0.045 C 
BRANCH   6  10
ATOM     10  C   UNL     1      -0.764  -2.179   3.911  1.00  0.00     0.147 C 
BRANCH  10  11
ATOM     11  N   UNL     1      -1.497  -3.211   3.191  1.00  0.00    -0.353 N 
ATOM     12  C   UNL     1      -1.255  -3.887   2.041  1.00  0.00     0.220 C 
ATOM     13  O   UNL     1      -2.085  -4.738   1.708  1.00  0.00    -0.275 OA
ATOM     14  H   UNL     1      -2.341  -3.469   3.628  1.00  0.00     0.163 HD
BRANCH  12  15
ATOM     15  C   UNL     1      -0.033  -3.623   1.184  1.00  0.00     0.106 C 
BRANCH  15  16
ATOM     16  C   UNL     1      -0.142  -2.327   0.391  1.00  0.00     0.071 C 
BRANCH  16  17
ATOM     17  C   UNL     1       0.787  -1.221   0.899  1.00  0.00     0.260 C 
BRANCH  17  18
ATOM     18  N   UNL     1       2.122  -1.241   0.311  1.00  0.00    -0.349 N 
ATOM     19  C   UNL     1       2.277  -0.187  -0.681  1.00  0.00     0.330 C 
ATOM     20  H   UNL     1       2.812  -1.107   1.050  1.00  0.00     0.346 HD
ATOM     21  H   UNL     1       2.257  -2.141  -0.150  1.00  0.00     0.346 HD
ENDBRANCH  17  18
ENDBRANCH  16  17
ENDBRANCH  15  16
ENDBRANCH  12  15
ENDBRANCH  10  11
ENDBRANCH   6  10
ENDBRANCH   1   5
BRANCH   3  22
ATOM     22  C   UNL     1      -2.149   0.475   0.081  1.00  0.00     0.117 C 
BRANCH  22  23
ATOM     23  C   UNL     1      -3.286   0.026  -0.815  1.00  0.00     0.042 C 
BRANCH  23  24
ATOM     24  C   UNL     1      -2.882  -0.110  -2.280  1.00  0.00     0.118 C 
BRANCH  24  25
ATOM     25  N   UNL     1      -1.727  -0.982  -2.520  1.00  0.00    -0.352 N 
ATOM     26  C   UNL     1      -1.587  -2.149  -3.235  1.00  0.00     0.251 C 
ATOM     27  H   UNL     1      -0.897  -0.675  -2.088  1.00  0.00     0.163 HD
ATOM     28  O   UNL     1      -0.514  -2.749  -3.223  1.00  0.00    -0.269 OA
BRANCH  26  29
ATOM     29  C   UNL     1      -2.721  -2.695  -4.001  1.00  0.00     0.039 A 
ATOM     30  C   UNL     1      -2.969  -4.072  -3.998  1.00  0.00     0.014 A 
ATOM     31  C   UNL     1      -3.556  -1.838  -4.709  1.00  0.00     0.014 A 
ATOM     32  C   UNL     1      -4.123  -4.566  -4.614  1.00  0.00     0.010 A 
ATOM     33  C   UNL     1      -4.766  -2.307  -5.189  1.00  0.00     0.010 A 
ATOM     34  C   UNL     1      -5.063  -3.678  -5.158  1.00  0.00    -0.014 A 
BRANCH  34  35
ATOM     35  C   UNL     1      -6.365  -4.118  -5.722  1.00  0.00     0.031 A 
ATOM     36  C   UNL     1      -6.732  -3.705  -7.125  1.00  0.00     0.074 A 
ATOM     37  C   UNL     1      -7.266  -4.742  -4.937  1.00  0.00     0.049 A 
ATOM     38  N   UNL     1      -7.893  -3.747  -7.726  1.00  0.00    -0.248 NA
ATOM     39  C   UNL     1      -5.661  -3.100  -7.939  1.00  0.00     0.031 C 
ATOM     40  C   UNL     1      -7.057  -5.137  -3.542  1.00  0.00     0.029 A 
ATOM     41  N   UNL     1      -8.558  -5.127  -5.196  1.00  0.00    -0.354 N 
ATOM     42  C   UNL     1      -7.702  -3.124  -8.954  1.00  0.00     0.074 A 
ATOM     43  C   UNL     1      -6.334  -2.663  -8.992  1.00  0.00     0.031 C 
ATOM     44  C   UNL     1      -8.171  -5.724  -3.076  1.00  0.00     0.029 A 
ATOM     45  C   UNL     1      -9.191  -5.700  -4.117  1.00  0.00     0.049 A 
ATOM     46  H   UNL     1      -8.992  -5.005  -6.071  1.00  0.00     0.167 HD
ATOM     47  C   UNL     1      -8.583  -2.975  -9.970  1.00  0.00     0.037 A 
ATOM     48  C   UNL     1     -10.457  -6.138  -3.982  1.00  0.00     0.037 A 
ATOM     49  C   UNL     1      -9.915  -3.516  -9.956  1.00  0.00     0.049 A 
ATOM     50  C   UNL     1     -11.396  -6.013  -5.151  1.00  0.00     0.074 A 
ATOM     51  C   UNL     1     -10.853  -3.521 -10.972  1.00  0.00     0.029 A 
ATOM     52  N   UNL     1     -10.488  -4.166  -8.874  1.00  0.00    -0.354 N 
ATOM     53  N   UNL     1     -11.182  -5.486  -6.333  1.00  0.00    -0.248 NA
ATOM     54  C   UNL     1     -12.753  -6.548  -4.971  1.00  0.00     0.031 C 
ATOM     55  C   UNL     1     -12.010  -4.141 -10.492  1.00  0.00     0.029 A 
ATOM     56  C   UNL     1     -11.773  -4.564  -9.194  1.00  0.00     0.049 A 
ATOM     57  H   UNL     1     -10.046  -4.321  -8.007  1.00  0.00     0.167 HD
ATOM     58  C   UNL     1     -12.360  -5.660  -7.046  1.00  0.00     0.074 A 
ATOM     59  C   UNL     1     -13.281  -6.353  -6.170  1.00  0.00     0.031 C 
ATOM     60  C   UNL     1     -12.659  -5.278  -8.312  1.00  0.00     0.037 A 
BRANCH  47  61
ATOM     61  C   UNL     1      -8.133  -2.228 -11.192  1.00  0.00     0.057 A 
ATOM     62  C   UNL     1      -7.178  -2.753 -12.073  1.00  0.00     0.134 A 
ATOM     63  C   UNL     1      -8.707  -0.995 -11.525  1.00  0.00     0.134 A 
ATOM     64  F   UNL     1      -6.579  -3.924 -11.807  1.00  0.00    -0.206 F 
ATOM     65  C   UNL     1      -6.796  -2.070 -13.228  1.00  0.00     0.040 A 
ATOM     66  C   UNL     1      -8.355  -0.316 -12.693  1.00  0.00     0.040 A 
ATOM     67  F   UNL     1      -9.631  -0.435 -10.729  1.00  0.00    -0.206 F 
ATOM     68  C   UNL     1      -7.394  -0.853 -13.547  1.00  0.00     0.006 A 
ENDBRANCH  47  61
BRANCH  48  69
ATOM     69  C   UNL     1     -10.915  -6.750  -2.707  1.00  0.00     0.057 A 
ATOM     70  C   UNL     1     -11.238  -8.112  -2.639  1.00  0.00     0.134 A 
ATOM     71  C   UNL     1     -11.080  -5.993  -1.542  1.00  0.00     0.134 A 
ATOM     72  F   UNL     1     -11.118  -8.888  -3.726  1.00  0.00    -0.206 F 
ATOM     73  C   UNL     1     -11.742  -8.689  -1.472  1.00  0.00     0.040 A 
ATOM     74  C   UNL     1     -11.555  -6.564  -0.359  1.00  0.00     0.040 A 
ATOM     75  F   UNL     1     -10.779  -4.686  -1.534  1.00  0.00    -0.206 F 
ATOM     76  C   UNL     1     -11.900  -7.914  -0.326  1.00  0.00     0.006 A 
ENDBRANCH  48  69
BRANCH  60  77
ATOM     77  C   UNL     1     -14.011  -5.652  -8.841  1.00  0.00     0.057 A 
ATOM     78  C   UNL     1     -15.179  -5.016  -8.404  1.00  0.00     0.134 A 
ATOM     79  C   UNL     1     -14.135  -6.626  -9.840  1.00  0.00     0.134 A 
ATOM     80  F   UNL     1     -15.126  -4.083  -7.441  1.00  0.00    -0.206 F 
ATOM     81  C   UNL     1     -16.428  -5.353  -8.925  1.00  0.00     0.040 A 
ATOM     82  C   UNL     1     -15.375  -6.950 -10.390  1.00  0.00     0.040 A 
ATOM     83  F   UNL     1     -13.052  -7.263 -10.310  1.00  0.00    -0.206 F 
ATOM     84  C   UNL     1     -16.527  -6.317  -9.928  1.00  0.00     0.006 A 
ENDBRANCH  60  77
ENDBRANCH  34  35
ENDBRANCH  26  29
ENDBRANCH  24  25
ENDBRANCH  23  24
ENDBRANCH  22  23
ENDBRANCH   3  22
TORSDOF 16
