REMARK SMILES Cc1cc(C)c2c(c1)C=C(C(=O)NCCCNC(=O)c1ccc(-c3c4nc(c(-c5c(F)cccc5F)c5ccc([nH]5)c(-c5c(F)cccc5F)c5nc(c(-c6c(F)cccc6F)c6ccc3[nH]6)C=C5)C=C4)cc1)[C@@H](C(F)(F)F)O2
REMARK SMILES IDX 15 1 14 2 13 3 11 4 12 5 10 7 1 8 2 9 3 10 8 11 4 12 7 13
REMARK SMILES IDX 5 14 6 15 9 16 79 17 74 18 75 19 76 20 77 21 78 22 16 23
REMARK SMILES IDX 17 24 18 25 19 27 20 28 21 29 73 30 22 31 72 32 23 33 24 34
REMARK SMILES IDX 25 35 66 36 26 37 71 38 65 39 67 40 27 41 70 42 64 43 63 44
REMARK SMILES IDX 28 46 54 47 37 48 53 49 38 50 41 51 52 52 68 53 39 54 40 55
REMARK SMILES IDX 51 57 69 58 42 59 29 60 30 61 35 62 31 63 32 64 34 65 36 66
REMARK SMILES IDX 33 67 55 68 56 69 61 70 57 71 58 72 60 73 62 74 59 75 43 76
REMARK SMILES IDX 44 77 49 78 45 79 46 80 48 81 50 82 47 83
REMARK H PARENT 13 6 17 26 67 45 41 56
REMARK Flexibility Score: inf
ROOT
ATOM      1  C   UNL     1      -1.315   2.022   9.471  1.00  0.00     0.042 C 
ENDROOT
BRANCH   1   2
ATOM      2  C   UNL     1      -2.282   2.149   8.304  1.00  0.00     0.118 C 
BRANCH   2   3
ATOM      3  N   UNL     1      -1.823   3.122   7.324  1.00  0.00    -0.352 N 
ATOM      4  C   UNL     1      -1.312   3.103   6.071  1.00  0.00     0.251 C 
ATOM      5  O   UNL     1      -1.051   4.211   5.593  1.00  0.00    -0.270 OA
ATOM      6  H   UNL     1      -1.908   4.042   7.664  1.00  0.00     0.163 HD
BRANCH   4   7
ATOM      7  C   UNL     1      -1.056   1.871   5.272  1.00  0.00     0.067 C 
ATOM      8  C   UNL     1       0.974   0.002  -0.264  1.00  0.00     0.044 C 
ATOM      9  C   UNL     1       0.482  -0.134   1.147  1.00  0.00    -0.050 A 
ATOM     10  C   UNL     1       0.348  -1.406   1.723  1.00  0.00     0.010 A 
ATOM     11  C   UNL     1       0.217   1.005   1.921  1.00  0.00     0.015 A 
ATOM     12  C   UNL     1      -0.064  -1.551   3.052  1.00  0.00    -0.008 A 
ATOM     13  C   UNL     1      -0.203   0.876   3.247  1.00  0.00     0.018 A 
ATOM     14  C   UNL     1      -0.220  -2.912   3.666  1.00  0.00     0.048 C 
ATOM     15  C   UNL     1      -0.341  -0.401   3.799  1.00  0.00     0.130 A 
ATOM     16  C   UNL     1      -0.463   2.047   4.077  1.00  0.00     0.025 C 
ATOM     17  O   UNL     1      -0.699  -0.587   5.105  1.00  0.00    -0.475 OA
ATOM     18  C   UNL     1      -1.442   0.492   5.721  1.00  0.00     0.314 C 
BRANCH  18  19
ATOM     19  C   UNL     1      -2.953   0.219   5.581  1.00  0.00     0.429 C 
ATOM     20  F   UNL     1      -3.310  -0.843   6.348  1.00  0.00    -0.167 F 
ATOM     21  F   UNL     1      -3.711   1.261   5.999  1.00  0.00    -0.167 F 
ATOM     22  F   UNL     1      -3.326  -0.052   4.312  1.00  0.00    -0.167 F 
ENDBRANCH  18  19
ENDBRANCH   4   7
ENDBRANCH   2   3
ENDBRANCH   1   2
BRANCH   1  23
ATOM     23  C   UNL     1      -1.468   3.165  10.463  1.00  0.00     0.118 C 
BRANCH  23  24
ATOM     24  N   UNL     1      -2.789   3.162  11.089  1.00  0.00    -0.352 N 
ATOM     25  C   UNL     1      -3.167   2.795  12.354  1.00  0.00     0.251 C 
ATOM     26  H   UNL     1      -3.522   3.474  10.511  1.00  0.00     0.163 HD
ATOM     27  O   UNL     1      -4.354   2.583  12.602  1.00  0.00    -0.269 OA
BRANCH  25  28
ATOM     28  C   UNL     1      -2.155   2.655  13.415  1.00  0.00     0.039 A 
ATOM     29  C   UNL     1      -2.269   1.616  14.341  1.00  0.00     0.014 A 
ATOM     30  C   UNL     1      -1.106   3.572  13.510  1.00  0.00     0.014 A 
ATOM     31  C   UNL     1      -1.292   1.464  15.325  1.00  0.00     0.010 A 
ATOM     32  C   UNL     1      -0.082   3.359  14.420  1.00  0.00     0.010 A 
ATOM     33  C   UNL     1      -0.174   2.314  15.349  1.00  0.00    -0.014 A 
BRANCH  33  34
ATOM     34  C   UNL     1       0.896   2.156  16.361  1.00  0.00     0.031 A 
ATOM     35  C   UNL     1       1.160   3.265  17.343  1.00  0.00     0.074 A 
ATOM     36  C   UNL     1       1.661   1.048  16.354  1.00  0.00     0.049 A 
ATOM     37  N   UNL     1       2.095   3.353  18.253  1.00  0.00    -0.248 NA
ATOM     38  C   UNL     1       0.278   4.443  17.276  1.00  0.00     0.031 C 
ATOM     39  C   UNL     1       1.526  -0.068  15.415  1.00  0.00     0.029 A 
ATOM     40  N   UNL     1       2.711   0.680  17.157  1.00  0.00    -0.354 N 
ATOM     41  C   UNL     1       1.921   4.593  18.852  1.00  0.00     0.074 A 
ATOM     42  C   UNL     1       0.832   5.252  18.167  1.00  0.00     0.031 C 
ATOM     43  C   UNL     1       2.438  -1.007  15.714  1.00  0.00     0.029 A 
ATOM     44  C   UNL     1       3.247  -0.543  16.837  1.00  0.00     0.049 A 
ATOM     45  H   UNL     1       3.047   1.240  17.893  1.00  0.00     0.167 HD
ATOM     46  C   UNL     1       2.588   5.121  19.903  1.00  0.00     0.037 A 
ATOM     47  C   UNL     1       4.281  -1.211  17.384  1.00  0.00     0.037 A 
ATOM     48  C   UNL     1       3.640   4.440  20.607  1.00  0.00     0.049 A 
ATOM     49  C   UNL     1       5.007  -0.598  18.550  1.00  0.00     0.074 A 
ATOM     50  C   UNL     1       4.334   4.861  21.727  1.00  0.00     0.029 A 
ATOM     51  N   UNL     1       4.145   3.196  20.263  1.00  0.00    -0.354 N 
ATOM     52  N   UNL     1       4.785   0.546  19.151  1.00  0.00    -0.248 NA
ATOM     53  C   UNL     1       6.124  -1.366  19.117  1.00  0.00     0.031 C 
ATOM     54  C   UNL     1       5.293   3.894  22.032  1.00  0.00     0.029 A 
ATOM     55  C   UNL     1       5.161   2.846  21.134  1.00  0.00     0.049 A 
ATOM     56  H   UNL     1       3.829   2.645  19.511  1.00  0.00     0.167 HD
ATOM     57  C   UNL     1       5.715   0.624  20.179  1.00  0.00     0.074 A 
ATOM     58  C   UNL     1       6.492  -0.597  20.133  1.00  0.00     0.031 C 
ATOM     59  C   UNL     1       5.914   1.619  21.077  1.00  0.00     0.037 A 
BRANCH  46  60
ATOM     60  C   UNL     1       2.191   6.486  20.381  1.00  0.00     0.057 A 
ATOM     61  C   UNL     1       0.987   6.704  21.062  1.00  0.00     0.134 A 
ATOM     62  C   UNL     1       3.063   7.573  20.244  1.00  0.00     0.134 A 
ATOM     63  F   UNL     1       0.102   5.707  21.214  1.00  0.00    -0.206 F 
ATOM     64  C   UNL     1       0.663   7.955  21.588  1.00  0.00     0.040 A 
ATOM     65  C   UNL     1       2.762   8.822  20.789  1.00  0.00     0.040 A 
ATOM     66  F   UNL     1       4.234   7.431  19.605  1.00  0.00    -0.206 F 
ATOM     67  C   UNL     1       1.559   9.015  21.464  1.00  0.00     0.006 A 
ENDBRANCH  46  60
BRANCH  47  68
ATOM     68  C   UNL     1       4.675  -2.540  16.851  1.00  0.00     0.057 A 
ATOM     69  C   UNL     1       4.492  -3.705  17.605  1.00  0.00     0.134 A 
ATOM     70  C   UNL     1       5.245  -2.681  15.580  1.00  0.00     0.134 A 
ATOM     71  F   UNL     1       3.965  -3.636  18.837  1.00  0.00    -0.206 F 
ATOM     72  C   UNL     1       4.878  -4.958  17.124  1.00  0.00     0.040 A 
ATOM     73  C   UNL     1       5.610  -3.930  15.075  1.00  0.00     0.040 A 
ATOM     74  F   UNL     1       5.440  -1.606  14.802  1.00  0.00    -0.206 F 
ATOM     75  C   UNL     1       5.434  -5.073  15.852  1.00  0.00     0.006 A 
ENDBRANCH  47  68
BRANCH  59  76
ATOM     76  C   UNL     1       6.997   1.431  22.097  1.00  0.00     0.057 A 
ATOM     77  C   UNL     1       8.351   1.515  21.753  1.00  0.00     0.134 A 
ATOM     78  C   UNL     1       6.680   1.254  23.450  1.00  0.00     0.134 A 
ATOM     79  F   UNL     1       8.720   1.675  20.473  1.00  0.00    -0.206 F 
ATOM     80  C   UNL     1       9.354   1.419  22.719  1.00  0.00     0.040 A 
ATOM     81  C   UNL     1       7.672   1.186  24.428  1.00  0.00     0.040 A 
ATOM     82  F   UNL     1       5.400   1.180  23.846  1.00  0.00    -0.206 F 
ATOM     83  C   UNL     1       9.014   1.266  24.062  1.00  0.00     0.006 A 
ENDBRANCH  59  76
ENDBRANCH  33  34
ENDBRANCH  25  28
ENDBRANCH  23  24
ENDBRANCH   1  23
TORSDOF 11
