REMARK SMILES C[C@]12CCC[C@](C)(C(=O)NCCCNC(=O)c3ccc(-c4c5nc(c(-c6c(F)cccc6F)c6ccc([nH]6)c(-c6c(F)cccc6F)c6nc(c(-c7c(F)cccc7F)c7ccc4[nH]7)C=C6)C=C5)cc3)[C@@H]1CC[C@]13C=C(CO)[C@H](CC[C@H]12)C3
REMARK SMILES IDX 12 1 11 2 10 3 8 4 9 5 6 7 1 8 2 9 3 10 71 11 82 12 4 13
REMARK SMILES IDX 72 14 74 15 81 16 5 17 7 18 73 19 75 20 83 21 80 22 76 23
REMARK SMILES IDX 79 24 77 25 78 26 13 28 14 29 15 30 16 32 17 33 18 34 70 35
REMARK SMILES IDX 19 36 69 37 20 38 21 39 22 40 63 41 23 42 68 43 62 44 64 45
REMARK SMILES IDX 24 46 67 47 61 48 60 49 25 51 51 52 34 53 50 54 35 55 38 56
REMARK SMILES IDX 49 57 65 58 36 59 37 60 48 62 66 63 39 64 26 65 27 66 32 67
REMARK SMILES IDX 28 68 29 69 31 70 33 71 30 72 52 73 53 74 58 75 54 76 55 77
REMARK SMILES IDX 57 78 59 79 56 80 40 81 41 82 46 83 42 84 43 85 45 86 47 87
REMARK SMILES IDX 44 88
REMARK H PARENT 10 6 78 27 14 31 64 50 38 61
REMARK Flexibility Score: inf
ROOT
ATOM      1  C   UNL     1       4.096  -0.371   2.639  1.00  0.00     0.042 C 
ENDROOT
BRANCH   1   2
ATOM      2  C   UNL     1       2.561  -0.688   2.526  1.00  0.00     0.117 C 
BRANCH   2   3
ATOM      3  N   UNL     1       2.042  -1.496   1.389  1.00  0.00    -0.356 N 
ATOM      4  C   UNL     1       0.757  -1.886   1.034  1.00  0.00     0.226 C 
ATOM      5  O   UNL     1       0.570  -3.096   1.261  1.00  0.00    -0.274 OA
ATOM      6  H   UNL     1       2.741  -1.813   0.772  1.00  0.00     0.163 HD
BRANCH   4   7
ATOM      7  C   UNL     1      -0.392  -1.074   0.155  1.00  0.00     0.050 C 
ATOM      8  C   UNL     1       0.711   1.327   1.146  1.00  0.00     0.012 C 
ATOM      9  C   UNL     1       0.070   1.431  -0.253  1.00  0.00    -0.025 C 
ATOM     10  C   UNL     1      -1.387   1.835  -0.019  1.00  0.00     0.007 C 
ATOM     11  C   UNL     1       0.112   0.018  -0.888  1.00  0.00     0.010 C 
ATOM     12  C   UNL     1       0.918   2.514  -0.970  1.00  0.00     0.005 C 
ATOM     13  C   UNL     1      -2.015   0.953   1.061  1.00  0.00     0.002 C 
ATOM     14  C   UNL     1       1.429  -0.374  -1.602  1.00  0.00     0.006 C 
ATOM     15  C   UNL     1       2.354   2.053  -1.447  1.00  0.00    -0.008 C 
ATOM     16  C   UNL     1       0.478   3.718  -1.792  1.00  0.00     0.006 C 
ATOM     17  C   UNL     1      -1.663  -0.556   0.982  1.00  0.00     0.017 C 
ATOM     18  C   UNL     1      -1.046  -2.244  -0.680  1.00  0.00     0.022 C 
ATOM     19  C   UNL     1       2.284   0.742  -2.220  1.00  0.00     0.012 C 
ATOM     20  C   UNL     1       3.200   2.193  -0.216  1.00  0.00    -0.018 C 
ATOM     21  C   UNL     1       3.114   3.161  -2.218  1.00  0.00     0.019 C 
ATOM     22  C   UNL     1       1.519   4.853  -1.404  1.00  0.00     0.008 C 
ATOM     23  C   UNL     1       3.312   3.507   0.065  1.00  0.00    -0.045 C 
ATOM     24  C   UNL     1       2.980   4.312  -1.206  1.00  0.00     0.018 C 
BRANCH  23  25
ATOM     25  C   UNL     1       3.512   4.069   1.435  1.00  0.00     0.187 C 
BRANCH  25  26
ATOM     26  O   UNL     1       3.902   3.043   2.346  1.00  0.00    -0.392 OA
ATOM     27  H   UNL     1       3.208   2.368   2.389  1.00  0.00     0.211 HD
ENDBRANCH  25  26
ENDBRANCH  23  25
ENDBRANCH   4   7
ENDBRANCH   2   3
ENDBRANCH   1   2
BRANCH   1  28
ATOM     28  C   UNL     1       5.161  -0.662   1.562  1.00  0.00     0.118 C 
BRANCH  28  29
ATOM     29  N   UNL     1       5.487   0.303   0.505  1.00  0.00    -0.352 N 
ATOM     30  C   UNL     1       6.223   1.458   0.356  1.00  0.00     0.251 C 
ATOM     31  H   UNL     1       5.054   0.052  -0.343  1.00  0.00     0.163 HD
ATOM     32  O   UNL     1       6.435   1.839  -0.810  1.00  0.00    -0.269 OA
BRANCH  30  33
ATOM     33  C   UNL     1       6.748   2.322   1.448  1.00  0.00     0.039 A 
ATOM     34  C   UNL     1       6.940   3.702   1.189  1.00  0.00     0.014 A 
ATOM     35  C   UNL     1       7.075   1.845   2.708  1.00  0.00     0.014 A 
ATOM     36  C   UNL     1       7.401   4.588   2.182  1.00  0.00     0.010 A 
ATOM     37  C   UNL     1       7.498   2.730   3.708  1.00  0.00     0.010 A 
ATOM     38  C   UNL     1       7.676   4.107   3.463  1.00  0.00    -0.014 A 
BRANCH  38  39
ATOM     39  C   UNL     1       8.253   4.940   4.562  1.00  0.00     0.031 A 
ATOM     40  C   UNL     1       9.595   4.540   5.124  1.00  0.00     0.074 A 
ATOM     41  C   UNL     1       7.554   5.925   5.162  1.00  0.00     0.049 A 
ATOM     42  N   UNL     1      10.149   4.844   6.269  1.00  0.00    -0.248 NA
ATOM     43  C   UNL     1      10.383   3.612   4.298  1.00  0.00     0.031 C 
ATOM     44  C   UNL     1       6.250   6.430   4.738  1.00  0.00     0.029 A 
ATOM     45  N   UNL     1       7.835   6.648   6.300  1.00  0.00    -0.354 N 
ATOM     46  C   UNL     1      11.310   4.081   6.335  1.00  0.00     0.074 A 
ATOM     47  C   UNL     1      11.359   3.277   5.134  1.00  0.00     0.031 C 
ATOM     48  C   UNL     1       5.833   7.363   5.613  1.00  0.00     0.029 A 
ATOM     49  C   UNL     1       6.819   7.493   6.685  1.00  0.00     0.049 A 
ATOM     50  H   UNL     1       8.683   6.567   6.793  1.00  0.00     0.167 HD
ATOM     51  C   UNL     1      12.259   4.059   7.303  1.00  0.00     0.037 A 
ATOM     52  C   UNL     1       6.686   8.259   7.787  1.00  0.00     0.037 A 
ATOM     53  C   UNL     1      12.250   4.919   8.456  1.00  0.00     0.049 A 
ATOM     54  C   UNL     1       7.772   8.251   8.835  1.00  0.00     0.074 A 
ATOM     55  C   UNL     1      13.209   5.043   9.447  1.00  0.00     0.029 A 
ATOM     56  N   UNL     1      11.239   5.815   8.763  1.00  0.00    -0.354 N 
ATOM     57  N   UNL     1       8.880   7.550   8.876  1.00  0.00    -0.248 NA
ATOM     58  C   UNL     1       7.590   9.144   9.991  1.00  0.00     0.031 C 
ATOM     59  C   UNL     1      12.760   5.988  10.373  1.00  0.00     0.029 A 
ATOM     60  C   UNL     1      11.545   6.489   9.933  1.00  0.00     0.049 A 
ATOM     61  H   UNL     1      10.423   5.952   8.229  1.00  0.00     0.167 HD
ATOM     62  C   UNL     1       9.540   7.942  10.036  1.00  0.00     0.074 A 
ATOM     63  C   UNL     1       8.715   8.950  10.666  1.00  0.00     0.031 C 
ATOM     64  C   UNL     1      10.723   7.507  10.536  1.00  0.00     0.037 A 
BRANCH  51  65
ATOM     65  C   UNL     1      13.386   3.076   7.152  1.00  0.00     0.057 A 
ATOM     66  C   UNL     1      14.349   3.195   6.141  1.00  0.00     0.134 A 
ATOM     67  C   UNL     1      13.522   2.006   8.047  1.00  0.00     0.134 A 
ATOM     68  F   UNL     1      14.274   4.190   5.244  1.00  0.00    -0.206 F 
ATOM     69  C   UNL     1      15.380   2.264   6.000  1.00  0.00     0.040 A 
ATOM     70  C   UNL     1      14.570   1.090   7.938  1.00  0.00     0.040 A 
ATOM     71  F   UNL     1      12.643   1.836   9.046  1.00  0.00    -0.206 F 
ATOM     72  C   UNL     1      15.497   1.212   6.905  1.00  0.00     0.006 A 
ENDBRANCH  51  65
BRANCH  52  73
ATOM     73  C   UNL     1       5.482   9.116   7.970  1.00  0.00     0.057 A 
ATOM     74  C   UNL     1       5.579  10.512   7.912  1.00  0.00     0.134 A 
ATOM     75  C   UNL     1       4.220   8.573   8.238  1.00  0.00     0.134 A 
ATOM     76  F   UNL     1       6.765  11.096   7.687  1.00  0.00    -0.206 F 
ATOM     77  C   UNL     1       4.474  11.336   8.136  1.00  0.00     0.040 A 
ATOM     78  C   UNL     1       3.099   9.384   8.436  1.00  0.00     0.040 A 
ATOM     79  F   UNL     1       4.054   7.244   8.305  1.00  0.00    -0.206 F 
ATOM     80  C   UNL     1       3.227  10.771   8.393  1.00  0.00     0.006 A 
ENDBRANCH  52  73
BRANCH  64  81
ATOM     81  C   UNL     1      11.227   8.154  11.794  1.00  0.00     0.057 A 
ATOM     82  C   UNL     1      10.645   7.907  13.043  1.00  0.00     0.134 A 
ATOM     83  C   UNL     1      12.350   8.993  11.759  1.00  0.00     0.134 A 
ATOM     84  F   UNL     1       9.562   7.121  13.145  1.00  0.00    -0.206 F 
ATOM     85  C   UNL     1      11.147   8.488  14.209  1.00  0.00     0.040 A 
ATOM     86  C   UNL     1      12.878   9.557  12.921  1.00  0.00     0.040 A 
ATOM     87  F   UNL     1      12.963   9.262  10.596  1.00  0.00    -0.206 F 
ATOM     88  C   UNL     1      12.272   9.309  14.150  1.00  0.00     0.006 A 
ENDBRANCH  64  81
ENDBRANCH  38  39
ENDBRANCH  30  33
ENDBRANCH  28  29
ENDBRANCH   1  28
TORSDOF 12
