REMARK SMILES O=C(Cc1ccc(F)c(F)c1)NC1(C(=O)NCCCNC(=O)c2ccc(-c3c4nc(c(-c5c(F)cccc5F)c5ccc([nH]5)c(-c5c(F)cccc5F)c5nc(c(-c6c(F)cccc6F)c6ccc3[nH]6)C=C5)C=C4)cc2)CCCC1
REMARK SMILES IDX 17 1 16 2 14 3 15 4 13 6 77 7 80 8 78 9 79 10 12 11 1 12
REMARK SMILES IDX 2 13 3 15 4 16 5 17 11 18 6 19 9 20 7 21 10 22 8 23 18 24
REMARK SMILES IDX 19 25 20 26 21 27 22 29 23 30 24 31 76 32 25 33 75 34 26 35
REMARK SMILES IDX 27 36 28 37 69 38 29 39 74 40 68 41 70 42 30 43 73 44 67 45
REMARK SMILES IDX 66 46 31 48 57 49 40 50 56 51 41 52 44 53 55 54 71 55 42 56
REMARK SMILES IDX 43 57 54 59 72 60 45 61 32 62 33 63 38 64 34 65 35 66 37 67
REMARK SMILES IDX 39 68 36 69 58 70 59 71 64 72 60 73 61 74 63 75 65 76 62 77
REMARK SMILES IDX 46 78 47 79 52 80 48 81 49 82 51 83 53 84 50 85
REMARK H PARENT 16 5 12 14 20 28 70 47 44 58
REMARK Flexibility Score: inf
ROOT
ATOM      1  C   UNL     1       1.971   1.504   5.323  1.00  0.00     0.117 C 
ENDROOT
BRANCH   1   2
ATOM      2  N   UNL     1       2.996   0.783   4.605  1.00  0.00    -0.354 N 
ATOM      3  C   UNL     1       3.102   0.459   3.291  1.00  0.00     0.245 C 
ATOM      4  O   UNL     1       4.164  -0.092   2.959  1.00  0.00    -0.272 OA
ATOM      5  H   UNL     1       3.746   0.474   5.164  1.00  0.00     0.163 HD
BRANCH   3   6
ATOM      6  C   UNL     1       1.995   0.746   2.217  1.00  0.00     0.119 C 
ATOM      7  C   UNL     1       1.730   2.246   2.027  1.00  0.00     0.038 C 
ATOM      8  C   UNL     1       0.654   0.084   2.545  1.00  0.00     0.038 C 
ATOM      9  C   UNL     1       0.283   2.521   2.416  1.00  0.00     0.003 C 
ATOM     10  C   UNL     1      -0.373   1.191   2.751  1.00  0.00     0.003 C 
BRANCH   6  11
ATOM     11  N   UNL     1       2.602   0.175   0.996  1.00  0.00    -0.341 N 
ATOM     12  O   UNL     1       0.859   0.433  -0.473  1.00  0.00    -0.275 OA
ATOM     13  C   UNL     1       2.020   0.109  -0.245  1.00  0.00     0.225 C 
ATOM     14  H   UNL     1       3.511  -0.192   1.081  1.00  0.00     0.164 HD
BRANCH  13  15
ATOM     15  C   UNL     1       2.978  -0.317  -1.345  1.00  0.00     0.135 C 
BRANCH  15  16
ATOM     16  C   UNL     1       3.839   0.817  -1.868  1.00  0.00    -0.036 A 
ATOM     17  C   UNL     1       5.057   0.524  -2.505  1.00  0.00     0.007 A 
ATOM     18  C   UNL     1       3.436   2.160  -1.776  1.00  0.00     0.046 A 
ATOM     19  C   UNL     1       5.864   1.550  -3.006  1.00  0.00     0.043 A 
ATOM     20  C   UNL     1       4.252   3.177  -2.261  1.00  0.00     0.159 A 
ATOM     21  C   UNL     1       5.459   2.874  -2.873  1.00  0.00     0.158 A 
ATOM     22  F   UNL     1       3.859   4.451  -2.132  1.00  0.00    -0.204 F 
ATOM     23  F   UNL     1       6.241   3.853  -3.346  1.00  0.00    -0.204 F 
ENDBRANCH  15  16
ENDBRANCH  13  15
ENDBRANCH   6  11
ENDBRANCH   3   6
ENDBRANCH   1   2
BRANCH   1  24
ATOM     24  C   UNL     1       1.061   0.587   6.124  1.00  0.00     0.042 C 
BRANCH  24  25
ATOM     25  C   UNL     1       1.667   0.163   7.450  1.00  0.00     0.118 C 
BRANCH  25  26
ATOM     26  N   UNL     1       1.832   1.289   8.361  1.00  0.00    -0.352 N 
ATOM     27  C   UNL     1       1.286   1.515   9.595  1.00  0.00     0.251 C 
ATOM     28  H   UNL     1       2.432   1.999   8.036  1.00  0.00     0.163 HD
ATOM     29  O   UNL     1       1.374   2.637  10.098  1.00  0.00    -0.269 OA
BRANCH  27  30
ATOM     30  C   UNL     1       0.597   0.433  10.325  1.00  0.00     0.039 A 
ATOM     31  C   UNL     1      -0.504   0.748  11.126  1.00  0.00     0.014 A 
ATOM     32  C   UNL     1       1.059  -0.884  10.262  1.00  0.00     0.014 A 
ATOM     33  C   UNL     1      -1.154  -0.263  11.837  1.00  0.00     0.010 A 
ATOM     34  C   UNL     1       0.342  -1.903  10.872  1.00  0.00     0.010 A 
ATOM     35  C   UNL     1      -0.745  -1.599  11.700  1.00  0.00    -0.014 A 
BRANCH  35  36
ATOM     36  C   UNL     1      -1.386  -2.687  12.476  1.00  0.00     0.031 A 
ATOM     37  C   UNL     1      -0.565  -3.483  13.457  1.00  0.00     0.074 A 
ATOM     38  C   UNL     1      -2.679  -2.993  12.264  1.00  0.00     0.049 A 
ATOM     39  N   UNL     1      -0.911  -4.514  14.185  1.00  0.00    -0.248 NA
ATOM     40  C   UNL     1       0.847  -3.091  13.613  1.00  0.00     0.031 C 
ATOM     41  C   UNL     1      -3.562  -2.329  11.302  1.00  0.00     0.029 A 
ATOM     42  N   UNL     1      -3.476  -3.945  12.844  1.00  0.00    -0.354 N 
ATOM     43  C   UNL     1       0.241  -4.902  14.859  1.00  0.00     0.074 A 
ATOM     44  C   UNL     1       1.311  -4.047  14.401  1.00  0.00     0.031 C 
ATOM     45  C   UNL     1      -4.787  -2.872  11.384  1.00  0.00     0.029 A 
ATOM     46  C   UNL     1      -4.766  -3.943  12.373  1.00  0.00     0.049 A 
ATOM     47  H   UNL     1      -3.154  -4.572  13.532  1.00  0.00     0.167 HD
ATOM     48  C   UNL     1       0.388  -5.862  15.803  1.00  0.00     0.037 A 
ATOM     49  C   UNL     1      -5.813  -4.720  12.709  1.00  0.00     0.037 A 
ATOM     50  C   UNL     1      -0.691  -6.685  16.281  1.00  0.00     0.049 A 
ATOM     51  C   UNL     1      -5.630  -5.767  13.774  1.00  0.00     0.074 A 
ATOM     52  C   UNL     1      -0.667  -7.653  17.268  1.00  0.00     0.029 A 
ATOM     53  N   UNL     1      -1.993  -6.628  15.806  1.00  0.00    -0.354 N 
ATOM     54  N   UNL     1      -4.551  -6.085  14.447  1.00  0.00    -0.248 NA
ATOM     55  C   UNL     1      -6.818  -6.550  14.137  1.00  0.00     0.031 C 
ATOM     56  C   UNL     1      -1.946  -8.212  17.361  1.00  0.00     0.029 A 
ATOM     57  C   UNL     1      -2.780  -7.551  16.473  1.00  0.00     0.049 A 
ATOM     58  H   UNL     1      -2.310  -6.021  15.098  1.00  0.00     0.167 HD
ATOM     59  C   UNL     1      -4.938  -7.075  15.341  1.00  0.00     0.074 A 
ATOM     60  C   UNL     1      -6.354  -7.295  15.130  1.00  0.00     0.031 C 
ATOM     61  C   UNL     1      -4.192  -7.741  16.258  1.00  0.00     0.037 A 
BRANCH  48  62
ATOM     62  C   UNL     1       1.762  -6.060  16.379  1.00  0.00     0.057 A 
ATOM     63  C   UNL     1       2.376  -5.091  17.185  1.00  0.00     0.134 A 
ATOM     64  C   UNL     1       2.478  -7.238  16.132  1.00  0.00     0.134 A 
ATOM     65  F   UNL     1       1.754  -3.932  17.448  1.00  0.00    -0.206 F 
ATOM     66  C   UNL     1       3.663  -5.271  17.695  1.00  0.00     0.040 A 
ATOM     67  C   UNL     1       3.753  -7.444  16.664  1.00  0.00     0.040 A 
ATOM     68  F   UNL     1       1.952  -8.210  15.372  1.00  0.00    -0.206 F 
ATOM     69  C   UNL     1       4.353  -6.454  17.440  1.00  0.00     0.006 A 
ENDBRANCH  48  62
BRANCH  49  70
ATOM     70  C   UNL     1      -7.135  -4.508  12.068  1.00  0.00     0.057 A 
ATOM     71  C   UNL     1      -8.215  -3.990  12.794  1.00  0.00     0.134 A 
ATOM     72  C   UNL     1      -7.357  -4.824  10.723  1.00  0.00     0.134 A 
ATOM     73  F   UNL     1      -8.069  -3.680  14.091  1.00  0.00    -0.206 F 
ATOM     74  C   UNL     1      -9.473  -3.821  12.216  1.00  0.00     0.040 A 
ATOM     75  C   UNL     1      -8.603  -4.634  10.123  1.00  0.00     0.040 A 
ATOM     76  F   UNL     1      -6.361  -5.311   9.968  1.00  0.00    -0.206 F 
ATOM     77  C   UNL     1      -9.669  -4.141  10.874  1.00  0.00     0.006 A 
ENDBRANCH  49  70
BRANCH  61  78
ATOM     78  C   UNL     1      -4.909  -8.720  17.142  1.00  0.00     0.057 A 
ATOM     79  C   UNL     1      -5.418  -9.931  16.657  1.00  0.00     0.134 A 
ATOM     80  C   UNL     1      -5.075  -8.448  18.506  1.00  0.00     0.134 A 
ATOM     81  F   UNL     1      -5.301 -10.248  15.358  1.00  0.00    -0.206 F 
ATOM     82  C   UNL     1      -6.101 -10.820  17.489  1.00  0.00     0.040 A 
ATOM     83  C   UNL     1      -5.727  -9.343  19.355  1.00  0.00     0.040 A 
ATOM     84  F   UNL     1      -4.600  -7.312  19.038  1.00  0.00    -0.206 F 
ATOM     85  C   UNL     1      -6.252 -10.528  18.844  1.00  0.00     0.006 A 
ENDBRANCH  61  78
ENDBRANCH  35  36
ENDBRANCH  27  30
ENDBRANCH  25  26
ENDBRANCH  24  25
ENDBRANCH   1  24
TORSDOF 13
