REMARK SMILES CC(C)[C@@H](NC(=O)/C(=C\c1ccccc1F)NC(=O)c1ccccc1)C(=O)NCCCNC(=O)c1ccc(-c2c3nc(c(-c4c(F)cccc4F)c4ccc([nH]4)c(-c4c(F)cccc4F)c4nc(c(-c5c(F)cccc5F)c5ccc2[nH]5)C=C4)C=C3)cc1
REMARK SMILES IDX 29 1 28 2 26 3 27 4 4 6 2 7 1 8 3 9 5 10 6 11 7 13 8 14 9 15
REMARK SMILES IDX 17 16 18 17 19 19 20 20 21 21 25 22 22 23 24 24 23 25 10 26
REMARK SMILES IDX 11 27 15 28 12 29 14 30 16 31 13 32 30 33 31 34 32 35 33 36
REMARK SMILES IDX 34 38 35 39 36 40 88 41 37 42 87 43 38 44 39 45 40 46 81 47
REMARK SMILES IDX 41 48 86 49 80 50 82 51 42 52 85 53 79 54 78 55 43 57 69 58
REMARK SMILES IDX 52 59 68 60 53 61 56 62 67 63 83 64 54 65 55 66 66 68 84 69
REMARK SMILES IDX 57 70 44 71 45 72 50 73 46 74 47 75 49 76 51 77 48 78 70 79
REMARK SMILES IDX 71 80 76 81 72 82 73 83 75 84 77 85 74 86 58 87 59 88 64 89
REMARK SMILES IDX 60 90 61 91 63 92 65 93 62 94
REMARK H PARENT 28 5 5 12 17 18 32 37 82 56 56 67
REMARK Flexibility Score: inf
ROOT
ATOM      1  C   UNL     1       0.056  -3.482  -2.345  1.00  0.00     0.117 C 
ENDROOT
BRANCH   1   2
ATOM      2  N   UNL     1      -0.280  -3.501  -0.940  1.00  0.00    -0.354 N 
ATOM      3  C   UNL     1      -0.081  -2.503  -0.048  1.00  0.00     0.242 C 
ATOM      4  O   UNL     1       0.388  -2.815   1.047  1.00  0.00    -0.273 OA
ATOM      5  H   UNL     1      -0.695  -4.325  -0.596  1.00  0.00     0.163 HD
BRANCH   3   6
ATOM      6  C   UNL     1      -0.278  -1.049  -0.460  1.00  0.00     0.174 C 
BRANCH   6   7
ATOM      7  C   UNL     1       1.102  -0.462  -0.923  1.00  0.00     0.015 C 
ATOM      8  C   UNL     1       1.153   1.062  -0.772  1.00  0.00     0.010 C 
ATOM      9  C   UNL     1       2.306  -1.042  -0.153  1.00  0.00     0.010 C 
ENDBRANCH   6   7
BRANCH   6  10
ATOM     10  N   UNL     1      -1.357  -0.864  -1.463  1.00  0.00    -0.339 N 
ATOM     11  C   UNL     1      -2.702  -1.139  -1.308  1.00  0.00     0.268 C 
ATOM     12  H   UNL     1      -1.084  -0.503  -2.337  1.00  0.00     0.164 HD
ATOM     13  O   UNL     1      -3.508  -0.237  -1.539  1.00  0.00    -0.268 OA
BRANCH  11  14
ATOM     14  C   UNL     1      -3.212  -2.557  -1.136  1.00  0.00     0.107 C 
ATOM     15  C   UNL     1      -3.296  -3.203   0.050  1.00  0.00     0.043 C 
BRANCH  14  16
ATOM     16  N   UNL     1      -3.725  -3.263  -2.222  1.00  0.00    -0.317 N 
ATOM     17  C   UNL     1      -3.938  -3.010  -3.553  1.00  0.00     0.255 C 
ATOM     18  H   UNL     1      -4.007  -4.172  -1.970  1.00  0.00     0.170 HD
ATOM     19  O   UNL     1      -4.459  -3.886  -4.245  1.00  0.00    -0.269 OA
BRANCH  17  20
ATOM     20  C   UNL     1      -3.582  -1.748  -4.198  1.00  0.00     0.040 A 
ATOM     21  C   UNL     1      -4.603  -0.867  -4.559  1.00  0.00     0.014 A 
ATOM     22  C   UNL     1      -2.258  -1.488  -4.555  1.00  0.00     0.014 A 
ATOM     23  C   UNL     1      -4.282   0.324  -5.207  1.00  0.00     0.001 A 
ATOM     24  C   UNL     1      -1.938  -0.290  -5.189  1.00  0.00     0.001 A 
ATOM     25  C   UNL     1      -2.949   0.619  -5.504  1.00  0.00     0.000 A 
ENDBRANCH  17  20
ENDBRANCH  14  16
BRANCH  15  26
ATOM     26  C   UNL     1      -2.825  -2.835   1.390  1.00  0.00     0.012 A 
ATOM     27  C   UNL     1      -2.097  -3.804   2.104  1.00  0.00     0.011 A 
ATOM     28  C   UNL     1      -3.009  -1.583   1.970  1.00  0.00     0.130 A 
ATOM     29  C   UNL     1      -1.440  -3.467   3.290  1.00  0.00     0.001 A 
ATOM     30  C   UNL     1      -2.370  -1.246   3.161  1.00  0.00     0.040 A 
ATOM     31  F   UNL     1      -3.778  -0.663   1.374  1.00  0.00    -0.206 F 
ATOM     32  C   UNL     1      -1.553  -2.177   3.802  1.00  0.00     0.003 A 
ENDBRANCH  15  26
ENDBRANCH  11  14
ENDBRANCH   6  10
ENDBRANCH   3   6
ENDBRANCH   1   2
BRANCH   1  33
ATOM     33  C   UNL     1       1.232  -4.416  -2.563  1.00  0.00     0.042 C 
BRANCH  33  34
ATOM     34  C   UNL     1       0.825  -5.859  -2.305  1.00  0.00     0.118 C 
BRANCH  34  35
ATOM     35  N   UNL     1      -0.041  -6.364  -3.360  1.00  0.00    -0.352 N 
ATOM     36  C   UNL     1       0.270  -7.272  -4.341  1.00  0.00     0.251 C 
ATOM     37  H   UNL     1      -0.960  -6.011  -3.372  1.00  0.00     0.163 HD
ATOM     38  O   UNL     1      -0.434  -7.402  -5.329  1.00  0.00    -0.269 OA
BRANCH  36  39
ATOM     39  C   UNL     1       1.498  -8.071  -4.178  1.00  0.00     0.039 A 
ATOM     40  C   UNL     1       2.394  -8.165  -5.241  1.00  0.00     0.014 A 
ATOM     41  C   UNL     1       1.782  -8.663  -2.944  1.00  0.00     0.014 A 
ATOM     42  C   UNL     1       3.613  -8.810  -5.043  1.00  0.00     0.010 A 
ATOM     43  C   UNL     1       3.038  -9.200  -2.718  1.00  0.00     0.010 A 
ATOM     44  C   UNL     1       3.958  -9.297  -3.771  1.00  0.00    -0.014 A 
BRANCH  44  45
ATOM     45  C   UNL     1       5.272  -9.933  -3.520  1.00  0.00     0.031 A 
ATOM     46  C   UNL     1       5.332 -11.364  -3.064  1.00  0.00     0.074 A 
ATOM     47  C   UNL     1       6.399  -9.206  -3.639  1.00  0.00     0.049 A 
ATOM     48  N   UNL     1       6.375 -12.078  -2.728  1.00  0.00    -0.248 NA
ATOM     49  C   UNL     1       4.050 -12.078  -2.934  1.00  0.00     0.031 C 
ATOM     50  C   UNL     1       6.459  -7.792  -4.017  1.00  0.00     0.029 A 
ATOM     51  N   UNL     1       7.712  -9.555  -3.451  1.00  0.00    -0.354 N 
ATOM     52  C   UNL     1       5.872 -13.311  -2.333  1.00  0.00     0.074 A 
ATOM     53  C   UNL     1       4.432 -13.231  -2.409  1.00  0.00     0.031 C 
ATOM     54  C   UNL     1       7.743  -7.405  -4.066  1.00  0.00     0.029 A 
ATOM     55  C   UNL     1       8.594  -8.528  -3.684  1.00  0.00     0.049 A 
ATOM     56  H   UNL     1       7.995 -10.456  -3.174  1.00  0.00     0.167 HD
ATOM     57  C   UNL     1       6.555 -14.420  -1.970  1.00  0.00     0.037 A 
ATOM     58  C   UNL     1       9.937  -8.495  -3.597  1.00  0.00     0.037 A 
ATOM     59  C   UNL     1       7.990 -14.505  -1.940  1.00  0.00     0.049 A 
ATOM     60  C   UNL     1      10.674  -9.743  -3.203  1.00  0.00     0.074 A 
ATOM     61  C   UNL     1       8.779 -15.606  -1.662  1.00  0.00     0.029 A 
ATOM     62  N   UNL     1       8.849 -13.447  -2.199  1.00  0.00    -0.354 N 
ATOM     63  N   UNL     1      10.191 -10.924  -2.898  1.00  0.00    -0.248 NA
ATOM     64  C   UNL     1      12.140  -9.661  -3.145  1.00  0.00     0.031 C 
ATOM     65  C   UNL     1      10.116 -15.203  -1.702  1.00  0.00     0.029 A 
ATOM     66  C   UNL     1      10.162 -13.864  -2.060  1.00  0.00     0.049 A 
ATOM     67  H   UNL     1       8.568 -12.536  -2.444  1.00  0.00     0.167 HD
ATOM     68  C   UNL     1      11.290 -11.728  -2.630  1.00  0.00     0.074 A 
ATOM     69  C   UNL     1      12.467 -10.905  -2.823  1.00  0.00     0.031 C 
ATOM     70  C   UNL     1      11.321 -13.031  -2.256  1.00  0.00     0.037 A 
BRANCH  57  71
ATOM     71  C   UNL     1       5.764 -15.638  -1.594  1.00  0.00     0.057 A 
ATOM     72  C   UNL     1       5.770 -16.114  -0.276  1.00  0.00     0.134 A 
ATOM     73  C   UNL     1       5.047 -16.377  -2.544  1.00  0.00     0.134 A 
ATOM     74  F   UNL     1       6.438 -15.456   0.683  1.00  0.00    -0.206 F 
ATOM     75  C   UNL     1       5.103 -17.287   0.079  1.00  0.00     0.040 A 
ATOM     76  C   UNL     1       4.352 -17.536  -2.196  1.00  0.00     0.040 A 
ATOM     77  F   UNL     1       4.988 -15.967  -3.821  1.00  0.00    -0.206 F 
ATOM     78  C   UNL     1       4.388 -18.000  -0.882  1.00  0.00     0.006 A 
ENDBRANCH  57  71
BRANCH  58  79
ATOM     79  C   UNL     1      10.659  -7.241  -3.925  1.00  0.00     0.057 A 
ATOM     80  C   UNL     1      10.582  -6.113  -3.099  1.00  0.00     0.134 A 
ATOM     81  C   UNL     1      11.408  -7.128  -5.102  1.00  0.00     0.134 A 
ATOM     82  F   UNL     1       9.870  -6.154  -1.963  1.00  0.00    -0.206 F 
ATOM     83  C   UNL     1      11.206  -4.912  -3.441  1.00  0.00     0.040 A 
ATOM     84  C   UNL     1      12.057  -5.941  -5.445  1.00  0.00     0.040 A 
ATOM     85  F   UNL     1      11.531  -8.179  -5.927  1.00  0.00    -0.206 F 
ATOM     86  C   UNL     1      11.949  -4.825  -4.617  1.00  0.00     0.006 A 
ENDBRANCH  58  79
BRANCH  70  87
ATOM     87  C   UNL     1      12.664 -13.662  -2.042  1.00  0.00     0.057 A 
ATOM     88  C   UNL     1      13.139 -14.643  -2.922  1.00  0.00     0.134 A 
ATOM     89  C   UNL     1      13.443 -13.369  -0.916  1.00  0.00     0.134 A 
ATOM     90  F   UNL     1      12.434 -14.980  -4.012  1.00  0.00    -0.206 F 
ATOM     91  C   UNL     1      14.332 -15.324  -2.680  1.00  0.00     0.040 A 
ATOM     92  C   UNL     1      14.652 -14.023  -0.677  1.00  0.00     0.040 A 
ATOM     93  F   UNL     1      13.047 -12.433  -0.040  1.00  0.00    -0.206 F 
ATOM     94  C   UNL     1      15.093 -15.012  -1.555  1.00  0.00     0.006 A 
ENDBRANCH  70  87
ENDBRANCH  44  45
ENDBRANCH  36  39
ENDBRANCH  34  35
ENDBRANCH  33  34
ENDBRANCH   1  33
TORSDOF 16
