REMARK SMILES O=C(/C=C/[C@@]12C=C(O)C(=O)C=C1C(=O)C1=Cc3cc(O)c(O)cc3O[C@@H](c3ccc(O)c(O)c3)[C@@H]12)NCCCNC(=O)c1ccc(-c2c3nc(c(-c4c(F)cccc4F)c4ccc([nH]4)c(-c4c(F)cccc4F)c4nc(c(-c5c(F)cccc5F)c5ccc2[nH]5)C=C4)C=C3)cc1
REMARK SMILES IDX 1 1 2 2 36 3 3 5 4 6 5 7 6 8 12 9 35 10 7 11 11 12 13 13
REMARK SMILES IDX 15 14 9 16 14 17 16 18 10 19 8 20 17 22 18 23 24 24 19 25
REMARK SMILES IDX 23 26 21 27 25 28 26 29 27 31 28 32 34 33 29 34 32 35 30 36
REMARK SMILES IDX 33 37 31 39 20 41 22 43 37 45 38 46 39 47 40 48 41 49 42 51
REMARK SMILES IDX 43 52 44 53 96 54 45 55 95 56 46 57 47 58 48 59 89 60 49 61
REMARK SMILES IDX 94 62 88 63 90 64 50 65 93 66 87 67 86 68 51 70 77 71 60 72
REMARK SMILES IDX 76 73 61 74 64 75 75 76 91 77 62 78 63 79 74 81 92 82 65 83
REMARK SMILES IDX 52 84 53 85 58 86 54 87 55 88 57 89 59 90 56 91 78 92 79 93
REMARK SMILES IDX 84 94 80 95 81 96 83 97 85 98 82 99 66 100 67 101 72 102
REMARK SMILES IDX 68 103 69 104 71 105 73 106 70 107
REMARK H PARENT 36 4 8 21 33 38 31 40 20 42 22 44 40 50 90 69 64 80
REMARK Flexibility Score: 90.00
ROOT
ATOM      1  O   UNL     1       0.771   0.050   0.011  1.00  0.00    -0.270 OA
ATOM      2  C   UNL     1       1.957   0.351   0.070  1.00  0.00     0.243 C 
ATOM      3  N   UNL     1       2.636   0.609   1.236  1.00  0.00    -0.352 N 
ATOM      4  H   UNL     1       3.584   0.872   1.179  1.00  0.00     0.163 HD
ENDROOT
BRANCH   2   5
ATOM      5  C   UNL     1       2.745   0.476  -1.197  1.00  0.00     0.068 C 
ATOM      6  C   UNL     1       4.073   0.282  -1.249  1.00  0.00    -0.005 C 
BRANCH   6   7
ATOM      7  C   UNL     1       5.042   0.190  -2.447  1.00  0.00     0.051 C 
ATOM      8  C   UNL     1       6.136   1.175  -2.133  1.00  0.00     0.040 C 
ATOM      9  C   UNL     1       5.549  -1.235  -2.417  1.00  0.00     0.018 C 
ATOM     10  C   UNL     1       4.442   0.239  -3.899  1.00  0.00     0.087 CG0
ATOM     11  C   UNL     1       7.329   0.810  -1.644  1.00  0.00     0.160 C 
ATOM     12  C   UNL     1       6.731  -1.657  -1.961  1.00  0.00     0.065 C 
ATOM     13  C   UNL     1       4.536  -2.072  -3.109  1.00  0.00     0.186 C 
ATOM     14  C   UNL     1       3.791  -1.131  -3.990  1.00  0.00     0.009 C 
ATOM     15  G   UNL     1       5.420   0.277  -5.132  1.00  0.00     0.000 G0
ATOM     16  C   UNL     1       7.688  -0.636  -1.472  1.00  0.00     0.220 C 
ATOM     17  O   UNL     1       4.409  -3.270  -3.029  1.00  0.00    -0.289 OA
ATOM     18  C   UNL     1       2.838  -1.468  -4.863  1.00  0.00     0.020 C 
ATOM     19  O   UNL     1       8.774  -0.937  -0.991  1.00  0.00    -0.286 OA
BRANCH  11  20
ATOM     20  O   UNL     1       8.271   1.758  -1.300  1.00  0.00    -0.504 OA
ATOM     21  H   UNL     1       8.075   2.670  -1.397  1.00  0.00     0.293 HD
ENDBRANCH  11  20
BRANCH  18  22
ATOM     22  C   UNL     1       2.490  -0.497  -5.909  1.00  0.00     0.021 A 
ATOM     23  C   UNL     1       1.144  -0.264  -6.227  1.00  0.00     0.062 A 
ATOM     24  C   UNL     1       3.500   0.162  -6.646  1.00  0.00     0.131 A 
ATOM     25  C   UNL     1       0.829   0.598  -7.277  1.00  0.00     0.158 A 
ATOM     26  C   UNL     1       3.169   0.962  -7.741  1.00  0.00     0.097 A 
ATOM     27  C   UNL     1       1.836   1.190  -8.034  1.00  0.00     0.161 A 
BRANCH  24  28
ATOM     28  O   UNL     1       4.843  -0.013  -6.436  1.00  0.00    -0.484 OA
BRANCH  28  29
ATOM     29  C   UNL     1       5.420   0.277  -5.132  1.00  0.00     0.213 CG0
ATOM     30  G   UNL     1       4.442   0.239  -3.899  1.00  0.00     0.000 G0
BRANCH  29  31
ATOM     31  C   UNL     1       6.242   1.549  -5.272  1.00  0.00    -0.003 A 
ATOM     32  C   UNL     1       7.585   1.560  -4.854  1.00  0.00     0.011 A 
ATOM     33  C   UNL     1       5.702   2.729  -5.803  1.00  0.00     0.057 A 
ATOM     34  C   UNL     1       8.322   2.746  -4.828  1.00  0.00     0.050 A 
ATOM     35  C   UNL     1       6.469   3.893  -5.849  1.00  0.00     0.157 A 
ATOM     36  C   UNL     1       7.750   3.916  -5.308  1.00  0.00     0.157 A 
BRANCH  35  37
ATOM     37  O   UNL     1       5.951   5.025  -6.411  1.00  0.00    -0.504 OA
ATOM     38  H   UNL     1       6.463   5.809  -6.444  1.00  0.00     0.293 HD
ENDBRANCH  35  37
BRANCH  36  39
ATOM     39  O   UNL     1       8.444   5.090  -5.256  1.00  0.00    -0.504 OA
ATOM     40  H   UNL     1       9.307   5.109  -4.892  1.00  0.00     0.293 HD
ENDBRANCH  36  39
ENDBRANCH  29  31
ENDBRANCH  28  29
ENDBRANCH  24  28
BRANCH  25  41
ATOM     41  O   UNL     1      -0.463   0.889  -7.616  1.00  0.00    -0.504 OA
ATOM     42  H   UNL     1      -1.171   0.511  -7.132  1.00  0.00     0.293 HD
ENDBRANCH  25  41
BRANCH  27  43
ATOM     43  O   UNL     1       1.520   2.010  -9.079  1.00  0.00    -0.504 OA
ATOM     44  H   UNL     1       0.622   2.174  -9.290  1.00  0.00     0.293 HD
ENDBRANCH  27  43
ENDBRANCH  18  22
ENDBRANCH   6   7
ENDBRANCH   2   5
BRANCH   3  45
ATOM     45  C   UNL     1       2.022   0.513   2.550  1.00  0.00     0.118 C 
BRANCH  45  46
ATOM     46  C   UNL     1       2.387  -0.766   3.303  1.00  0.00     0.042 C 
BRANCH  46  47
ATOM     47  C   UNL     1       3.877  -0.979   3.568  1.00  0.00     0.118 C 
BRANCH  47  48
ATOM     48  N   UNL     1       4.484   0.050   4.403  1.00  0.00    -0.352 N 
ATOM     49  C   UNL     1       5.147  -0.022   5.606  1.00  0.00     0.251 C 
ATOM     50  H   UNL     1       4.405   0.962   4.040  1.00  0.00     0.163 HD
ATOM     51  O   UNL     1       5.491   1.024   6.154  1.00  0.00    -0.269 OA
BRANCH  49  52
ATOM     52  C   UNL     1       5.420  -1.315   6.278  1.00  0.00     0.039 A 
ATOM     53  C   UNL     1       5.839  -2.445   5.576  1.00  0.00     0.014 A 
ATOM     54  C   UNL     1       5.284  -1.385   7.671  1.00  0.00     0.014 A 
ATOM     55  C   UNL     1       5.948  -3.673   6.231  1.00  0.00     0.010 A 
ATOM     56  C   UNL     1       5.469  -2.601   8.340  1.00  0.00     0.010 A 
ATOM     57  C   UNL     1       5.746  -3.770   7.618  1.00  0.00    -0.014 A 
BRANCH  57  58
ATOM     58  C   UNL     1       5.795  -5.101   8.285  1.00  0.00     0.031 A 
ATOM     59  C   UNL     1       4.554  -5.690   8.907  1.00  0.00     0.074 A 
ATOM     60  C   UNL     1       6.939  -5.811   8.288  1.00  0.00     0.049 A 
ATOM     61  N   UNL     1       4.397  -6.846   9.504  1.00  0.00    -0.248 NA
ATOM     62  C   UNL     1       3.329  -4.877   8.854  1.00  0.00     0.031 C 
ATOM     63  C   UNL     1       8.210  -5.365   7.717  1.00  0.00     0.029 A 
ATOM     64  N   UNL     1       7.213  -7.069   8.767  1.00  0.00    -0.354 N 
ATOM     65  C   UNL     1       3.067  -6.893   9.903  1.00  0.00     0.074 A 
ATOM     66  C   UNL     1       2.466  -5.636   9.515  1.00  0.00     0.031 C 
ATOM     67  C   UNL     1       9.113  -6.350   7.833  1.00  0.00     0.029 A 
ATOM     68  C   UNL     1       8.503  -7.478   8.531  1.00  0.00     0.049 A 
ATOM     69  H   UNL     1       6.548  -7.624   9.235  1.00  0.00     0.167 HD
ATOM     70  C   UNL     1       2.399  -7.898  10.519  1.00  0.00     0.037 A 
ATOM     71  C   UNL     1       9.130  -8.629   8.845  1.00  0.00     0.037 A 
ATOM     72  C   UNL     1       2.983  -9.162  10.886  1.00  0.00     0.049 A 
ATOM     73  C   UNL     1       8.379  -9.709   9.570  1.00  0.00     0.074 A 
ATOM     74  C   UNL     1       2.373 -10.248  11.492  1.00  0.00     0.029 A 
ATOM     75  N   UNL     1       4.308  -9.511  10.681  1.00  0.00    -0.354 N 
ATOM     76  N   UNL     1       7.120  -9.741   9.929  1.00  0.00    -0.248 NA
ATOM     77  C   UNL     1       9.140 -10.911   9.943  1.00  0.00     0.031 C 
ATOM     78  C   UNL     1       3.339 -11.239  11.688  1.00  0.00     0.029 A 
ATOM     79  C   UNL     1       4.540 -10.787  11.167  1.00  0.00     0.049 A 
ATOM     80  H   UNL     1       4.984  -8.937  10.254  1.00  0.00     0.167 HD
ATOM     81  C   UNL     1       6.934 -10.965  10.557  1.00  0.00     0.074 A 
ATOM     82  C   UNL     1       8.205 -11.657  10.515  1.00  0.00     0.031 C 
ATOM     83  C   UNL     1       5.809 -11.467  11.122  1.00  0.00     0.037 A 
BRANCH  70  84
ATOM     84  C   UNL     1       0.949  -7.681  10.837  1.00  0.00     0.057 A 
ATOM     85  C   UNL     1      -0.035  -7.705   9.840  1.00  0.00     0.134 A 
ATOM     86  C   UNL     1       0.523  -7.514  12.161  1.00  0.00     0.134 A 
ATOM     87  F   UNL     1       0.308  -7.850   8.551  1.00  0.00    -0.206 F 
ATOM     88  C   UNL     1      -1.389  -7.559  10.147  1.00  0.00     0.040 A 
ATOM     89  C   UNL     1      -0.829  -7.389  12.483  1.00  0.00     0.040 A 
ATOM     90  F   UNL     1       1.413  -7.490  13.165  1.00  0.00    -0.206 F 
ATOM     91  C   UNL     1      -1.790  -7.409  11.473  1.00  0.00     0.006 A 
ENDBRANCH  70  84
BRANCH  71  92
ATOM     92  C   UNL     1      10.550  -8.819   8.461  1.00  0.00     0.057 A 
ATOM     93  C   UNL     1      10.910  -9.720   7.452  1.00  0.00     0.134 A 
ATOM     94  C   UNL     1      11.578  -8.097   9.079  1.00  0.00     0.134 A 
ATOM     95  F   UNL     1       9.972 -10.456   6.838  1.00  0.00    -0.206 F 
ATOM     96  C   UNL     1      12.241  -9.897   7.072  1.00  0.00     0.040 A 
ATOM     97  C   UNL     1      12.910  -8.247   8.694  1.00  0.00     0.040 A 
ATOM     98  F   UNL     1      11.296  -7.218  10.052  1.00  0.00    -0.206 F 
ATOM     99  C   UNL     1      13.245  -9.152   7.689  1.00  0.00     0.006 A 
ENDBRANCH  71  92
BRANCH  83 100
ATOM    100  C   UNL     1       5.891 -12.833  11.734  1.00  0.00     0.057 A 
ATOM    101  C   UNL     1       6.529 -13.049  12.961  1.00  0.00     0.134 A 
ATOM    102  C   UNL     1       5.268 -13.930  11.124  1.00  0.00     0.134 A 
ATOM    103  F   UNL     1       7.153 -12.042  13.590  1.00  0.00    -0.206 F 
ATOM    104  C   UNL     1       6.554 -14.312  13.556  1.00  0.00     0.040 A 
ATOM    105  C   UNL     1       5.267 -15.192  11.720  1.00  0.00     0.040 A 
ATOM    106  F   UNL     1       4.632 -13.787   9.952  1.00  0.00    -0.206 F 
ATOM    107  C   UNL     1       5.914 -15.385  12.939  1.00  0.00     0.006 A 
ENDBRANCH  83 100
ENDBRANCH  57  58
ENDBRANCH  49  52
ENDBRANCH  47  48
ENDBRANCH  46  47
ENDBRANCH  45  46
ENDBRANCH   3  45
TORSDOF 17
