REMARK SMILES O=C(CCC(=O)N1c2ccccc2NC2=C(C(=O)C[C@H](c3ccco3)C2)[C@H]1c1cccs1)NCCCNC(=O)c1ccc(-c2c3nc(c(-c4c(F)cccc4F)c4ccc([nH]4)c(-c4c(F)cccc4F)c4nc(c(-c5c(F)cccc5F)c5ccc2[nH]5)C=C4)C=C3)cc1
REMARK SMILES IDX 1 1 2 2 33 3 3 5 4 6 5 7 6 8 7 9 8 10 9 11 13 12 10 13 12 14
REMARK SMILES IDX 11 15 14 16 15 18 16 19 26 20 17 21 20 23 18 24 19 25 21 26
REMARK SMILES IDX 22 27 25 28 23 29 24 30 27 31 28 33 29 34 32 35 30 36 31 37
REMARK SMILES IDX 34 38 35 39 36 40 37 41 38 42 39 44 40 45 41 46 93 47 42 48
REMARK SMILES IDX 92 49 43 50 44 51 45 52 86 53 46 54 91 55 85 56 87 57 47 58
REMARK SMILES IDX 90 59 84 60 83 61 48 63 74 64 57 65 73 66 58 67 61 68 72 69
REMARK SMILES IDX 88 70 59 71 60 72 71 74 89 75 62 76 49 77 50 78 55 79 51 80
REMARK SMILES IDX 52 81 54 82 56 83 53 84 75 85 76 86 81 87 77 88 78 89 80 90
REMARK SMILES IDX 82 91 79 92 63 93 64 94 69 95 65 96 66 97 68 98 70 99 67 100
REMARK H PARENT 33 4 14 17 37 43 87 62 61 73
REMARK Flexibility Score: 80.00
ROOT
ATOM      1  O   UNL     1       0.923   0.304   0.823  1.00  0.00    -0.275 OA
ATOM      2  C   UNL     1       1.934  -0.033   0.125  1.00  0.00     0.220 C 
ATOM      3  N   UNL     1       2.293  -1.635  -0.972  1.00  0.00    -0.356 N 
ATOM      4  H   UNL     1       3.037  -1.440  -1.588  1.00  0.00     0.163 HD
ENDROOT
BRANCH   2   5
ATOM      5  C   UNL     1       3.038   1.271   0.500  1.00  0.00     0.110 C 
BRANCH   5   6
ATOM      6  C   UNL     1       3.899   1.114   1.768  1.00  0.00     0.110 C 
BRANCH   6   7
ATOM      7  C   UNL     1       5.026   0.068   1.810  1.00  0.00     0.228 C 
ATOM      8  O   UNL     1       6.085   0.312   2.386  1.00  0.00    -0.274 OA
BRANCH   7   9
ATOM      9  N   UNL     1       4.690  -1.176   1.330  1.00  0.00    -0.298 N 
BRANCH   9  10
ATOM     10  C   UNL     1       3.663  -1.227   0.409  1.00  0.00     0.068 A 
ATOM     11  C   UNL     1       3.713  -0.199  -1.108  1.00  0.00     0.028 A 
ATOM     12  C   UNL     1       2.115  -1.923   1.031  1.00  0.00     0.062 A 
ATOM     13  C   UNL     1       2.148   0.118  -1.994  1.00  0.00     0.002 A 
ATOM     14  C   UNL     1       0.552  -1.651   0.117  1.00  0.00     0.028 A 
ATOM     15  C   UNL     1       0.587  -0.620  -1.404  1.00  0.00     0.002 A 
BRANCH  12  16
ATOM     16  N   UNL     1       2.198  -2.872   2.053  1.00  0.00    -0.357 N 
ATOM     17  H   UNL     1       1.484  -2.881   2.731  1.00  0.00     0.166 HD
BRANCH  16  18
ATOM     18  C   UNL     1       3.223  -3.805   2.177  1.00  0.00     0.025 C 
ATOM     19  C   UNL     1       4.567  -3.651   1.974  1.00  0.00     0.043 CG0
ATOM     20  C   UNL     1       2.612  -5.148   2.599  1.00  0.00     0.066 C 
ATOM     21  C   UNL     1       5.440  -4.818   2.385  1.00  0.00     0.163 C 
ATOM     22  G   UNL     1       5.449  -2.410   1.601  1.00  0.00     0.000 G0
ATOM     23  C   UNL     1       3.434  -6.399   2.326  1.00  0.00     0.069 C 
ATOM     24  O   UNL     1       6.646  -4.649   2.576  1.00  0.00    -0.294 OA
ATOM     25  C   UNL     1       4.862  -6.163   2.756  1.00  0.00     0.093 C 
BRANCH  23  26
ATOM     26  C   UNL     1       3.301  -6.995   0.955  1.00  0.00     0.107 A 
ATOM     27  C   UNL     1       3.874  -8.117   0.381  1.00  0.00     0.046 A 
ATOM     28  O   UNL     1       2.377  -6.470   0.096  1.00  0.00    -0.469 OA
ATOM     29  C   UNL     1       3.271  -8.284  -0.886  1.00  0.00     0.042 A 
ATOM     30  C   UNL     1       2.365  -7.261  -1.012  1.00  0.00     0.195 A 
ENDBRANCH  23  26
ENDBRANCH  16  18
ENDBRANCH  12  16
ENDBRANCH   9  10
BRANCH   9  31
ATOM     31  C   UNL     1       5.449  -2.410   1.601  1.00  0.00     0.167 CG0
ATOM     32  G   UNL     1       4.567  -3.651   1.974  1.00  0.00     0.000 G0
BRANCH  31  33
ATOM     33  C   UNL     1       6.435  -2.533   0.414  1.00  0.00     0.032 A 
ATOM     34  C   UNL     1       6.181  -2.428  -0.942  1.00  0.00     0.018 A 
ATOM     35  S   UNL     1       8.134  -2.652   0.668  1.00  0.00    -0.146 S 
ATOM     36  C   UNL     1       7.345  -2.323  -1.743  1.00  0.00     0.012 A 
ATOM     37  C   UNL     1       8.479  -2.527  -1.001  1.00  0.00     0.065 A 
ENDBRANCH  31  33
ENDBRANCH   9  31
ENDBRANCH   7   9
ENDBRANCH   6   7
ENDBRANCH   5   6
ENDBRANCH   2   5
BRANCH   3  38
ATOM     38  C   UNL     1       1.781  -3.201  -1.223  1.00  0.00     0.117 C 
BRANCH  38  39
ATOM     39  C   UNL     1       2.156  -3.755  -2.595  1.00  0.00     0.042 C 
BRANCH  39  40
ATOM     40  C   UNL     1       3.614  -4.107  -2.840  1.00  0.00     0.118 C 
BRANCH  40  41
ATOM     41  N   UNL     1       4.302  -4.859  -1.792  1.00  0.00    -0.352 N 
ATOM     42  C   UNL     1       5.393  -5.699  -1.937  1.00  0.00     0.251 C 
ATOM     43  H   UNL     1       3.948  -4.758  -0.879  1.00  0.00     0.163 HD
ATOM     44  O   UNL     1       5.966  -6.220  -0.992  1.00  0.00    -0.269 OA
BRANCH  42  45
ATOM     45  C   UNL     1       5.809  -5.983  -3.314  1.00  0.00     0.039 A 
ATOM     46  C   UNL     1       6.235  -4.907  -4.084  1.00  0.00     0.014 A 
ATOM     47  C   UNL     1       5.473  -7.209  -3.888  1.00  0.00     0.014 A 
ATOM     48  C   UNL     1       6.117  -4.981  -5.454  1.00  0.00     0.010 A 
ATOM     49  C   UNL     1       5.462  -7.317  -5.275  1.00  0.00     0.010 A 
ATOM     50  C   UNL     1       5.723  -6.183  -6.059  1.00  0.00    -0.014 A 
BRANCH  50  51
ATOM     51  C   UNL     1       5.588  -6.212  -7.527  1.00  0.00     0.031 A 
ATOM     52  C   UNL     1       4.248  -6.430  -8.166  1.00  0.00     0.074 A 
ATOM     53  C   UNL     1       6.689  -5.958  -8.254  1.00  0.00     0.049 A 
ATOM     54  N   UNL     1       3.949  -6.518  -9.435  1.00  0.00    -0.248 NA
ATOM     55  C   UNL     1       3.092  -6.577  -7.266  1.00  0.00     0.031 C 
ATOM     56  C   UNL     1       8.021  -5.696  -7.696  1.00  0.00     0.029 A 
ATOM     57  N   UNL     1       6.867  -5.847  -9.603  1.00  0.00    -0.354 N 
ATOM     58  C   UNL     1       2.582  -6.764  -9.488  1.00  0.00     0.074 A 
ATOM     59  C   UNL     1       2.111  -6.830  -8.122  1.00  0.00     0.031 C 
ATOM     60  C   UNL     1       8.864  -5.396  -8.691  1.00  0.00     0.029 A 
ATOM     61  C   UNL     1       8.159  -5.547  -9.954  1.00  0.00     0.049 A 
ATOM     62  H   UNL     1       6.142  -5.970 -10.257  1.00  0.00     0.167 HD
ATOM     63  C   UNL     1       1.803  -6.921 -10.586  1.00  0.00     0.037 A 
ATOM     64  C   UNL     1       8.720  -5.449 -11.170  1.00  0.00     0.037 A 
ATOM     65  C   UNL     1       2.313  -6.845 -11.932  1.00  0.00     0.049 A 
ATOM     66  C   UNL     1       7.846  -5.693 -12.361  1.00  0.00     0.074 A 
ATOM     67  C   UNL     1       1.634  -6.992 -13.128  1.00  0.00     0.029 A 
ATOM     68  N   UNL     1       3.643  -6.601 -12.255  1.00  0.00    -0.354 N 
ATOM     69  N   UNL     1       6.559  -5.948 -12.403  1.00  0.00    -0.248 NA
ATOM     70  C   UNL     1       8.501  -5.654 -13.671  1.00  0.00     0.031 C 
ATOM     71  C   UNL     1       2.562  -6.888 -14.171  1.00  0.00     0.029 A 
ATOM     72  C   UNL     1       3.810  -6.616 -13.630  1.00  0.00     0.049 A 
ATOM     73  H   UNL     1       4.362  -6.441 -11.602  1.00  0.00     0.167 HD
ATOM     74  C   UNL     1       6.245  -6.090 -13.745  1.00  0.00     0.074 A 
ATOM     75  C   UNL     1       7.474  -5.860 -14.482  1.00  0.00     0.031 C 
ATOM     76  C   UNL     1       5.055  -6.390 -14.323  1.00  0.00     0.037 A 
BRANCH  63  77
ATOM     77  C   UNL     1       0.347  -7.233 -10.370  1.00  0.00     0.057 A 
ATOM     78  C   UNL     1      -0.169  -8.492 -10.706  1.00  0.00     0.134 A 
ATOM     79  C   UNL     1      -0.548  -6.298  -9.834  1.00  0.00     0.134 A 
ATOM     80  F   UNL     1       0.627  -9.438 -11.227  1.00  0.00    -0.206 F 
ATOM     81  C   UNL     1      -1.516  -8.810 -10.513  1.00  0.00     0.040 A 
ATOM     82  C   UNL     1      -1.892  -6.613  -9.610  1.00  0.00     0.040 A 
ATOM     83  F   UNL     1      -0.123  -5.078  -9.473  1.00  0.00    -0.206 F 
ATOM     84  C   UNL     1      -2.380  -7.872  -9.954  1.00  0.00     0.006 A 
ENDBRANCH  63  77
BRANCH  64  85
ATOM     85  C   UNL     1      10.167  -5.152 -11.301  1.00  0.00     0.057 A 
ATOM     86  C   UNL     1      11.143  -6.046 -10.839  1.00  0.00     0.134 A 
ATOM     87  C   UNL     1      10.611  -3.957 -11.877  1.00  0.00     0.134 A 
ATOM     88  F   UNL     1      10.784  -7.202 -10.261  1.00  0.00    -0.206 F 
ATOM     89  C   UNL     1      12.504  -5.758 -10.932  1.00  0.00     0.040 A 
ATOM     90  C   UNL     1      11.971  -3.671 -12.008  1.00  0.00     0.040 A 
ATOM     91  F   UNL     1       9.727  -3.064 -12.345  1.00  0.00    -0.206 F 
ATOM     92  C   UNL     1      12.921  -4.571 -11.528  1.00  0.00     0.006 A 
ENDBRANCH  64  85
BRANCH  76  93
ATOM     93  C   UNL     1       5.045  -6.450 -15.820  1.00  0.00     0.057 A 
ATOM     94  C   UNL     1       4.410  -5.450 -16.566  1.00  0.00     0.134 A 
ATOM     95  C   UNL     1       5.669  -7.489 -16.523  1.00  0.00     0.134 A 
ATOM     96  F   UNL     1       3.789  -4.431 -15.951  1.00  0.00    -0.206 F 
ATOM     97  C   UNL     1       4.398  -5.479 -17.959  1.00  0.00     0.040 A 
ATOM     98  C   UNL     1       5.692  -7.511 -17.917  1.00  0.00     0.040 A 
ATOM     99  F   UNL     1       6.312  -8.465 -15.864  1.00  0.00    -0.206 F 
ATOM    100  C   UNL     1       5.051  -6.506 -18.638  1.00  0.00     0.006 A 
ENDBRANCH  76  93
ENDBRANCH  50  51
ENDBRANCH  42  45
ENDBRANCH  40  41
ENDBRANCH  39  40
ENDBRANCH  38  39
ENDBRANCH   3  38
TORSDOF 15
