REMARK SMILES O=C(NCCCNC(=O)[C@@H]1CCc2[nH]ncc2C1)c1ccc(-c2c3nc(c(-c4c(F)cccc4F)c4ccc([nH]4)c(-c4c(F)cccc4F)c4nc(c(-c5c(F)cccc5F)c5ccc2[nH]5)C=C4)C=C3)cc1
REMARK SMILES IDX 4 1 3 2 1 3 2 4 19 6 20 7 72 8 21 9 71 10 22 11 23 12 24 13
REMARK SMILES IDX 65 14 25 15 70 16 64 17 66 18 26 19 69 20 63 21 62 22 27 24
REMARK SMILES IDX 53 25 36 26 52 27 37 28 40 29 51 30 67 31 38 32 39 33 50 35
REMARK SMILES IDX 68 36 41 37 28 38 29 39 34 40 30 41 31 42 33 43 35 44 32 45
REMARK SMILES IDX 54 46 55 47 60 48 56 49 57 50 59 51 61 52 58 53 42 54 43 55
REMARK SMILES IDX 48 56 44 57 45 58 47 59 49 60 46 61 5 62 6 63 7 64 8 65 9 67
REMARK SMILES IDX 10 68 11 69 18 70 12 71 17 72 13 73 16 74 14 75 15 76
REMARK H PARENT 3 5 66 23 40 34 7 66 14 77
REMARK Flexibility Score: inf
ROOT
ATOM      1  C   UNL     1       4.379  -1.210   0.443  1.00  0.00     0.118 C 
ENDROOT
BRANCH   1   2
ATOM      2  N   UNL     1       2.953  -1.055   0.196  1.00  0.00    -0.352 N 
ATOM      3  O   UNL     1       1.002   0.037  -0.068  1.00  0.00    -0.269 OA
ATOM      4  C   UNL     1       2.230   0.072  -0.100  1.00  0.00     0.251 C 
ATOM      5  H   UNL     1       2.427  -1.886   0.250  1.00  0.00     0.163 HD
BRANCH   4   6
ATOM      6  C   UNL     1       2.924   1.333  -0.436  1.00  0.00     0.039 A 
ATOM      7  C   UNL     1       4.047   1.333  -1.266  1.00  0.00     0.014 A 
ATOM      8  C   UNL     1       2.427   2.538   0.067  1.00  0.00     0.014 A 
ATOM      9  C   UNL     1       4.761   2.507  -1.466  1.00  0.00     0.010 A 
ATOM     10  C   UNL     1       3.088   3.734  -0.219  1.00  0.00     0.010 A 
ATOM     11  C   UNL     1       4.279   3.724  -0.963  1.00  0.00    -0.014 A 
BRANCH  11  12
ATOM     12  C   UNL     1       4.996   4.983  -1.279  1.00  0.00     0.031 A 
ATOM     13  C   UNL     1       5.608   5.821  -0.194  1.00  0.00     0.074 A 
ATOM     14  C   UNL     1       5.093   5.367  -2.567  1.00  0.00     0.049 A 
ATOM     15  N   UNL     1       6.241   6.963  -0.292  1.00  0.00    -0.248 NA
ATOM     16  C   UNL     1       5.488   5.318   1.183  1.00  0.00     0.031 C 
ATOM     17  C   UNL     1       4.534   4.636  -3.708  1.00  0.00     0.029 A 
ATOM     18  N   UNL     1       5.697   6.458  -3.135  1.00  0.00    -0.354 N 
ATOM     19  C   UNL     1       6.577   7.325   1.006  1.00  0.00     0.074 A 
ATOM     20  C   UNL     1       6.051   6.296   1.879  1.00  0.00     0.031 C 
ATOM     21  C   UNL     1       4.848   5.282  -4.840  1.00  0.00     0.029 A 
ATOM     22  C   UNL     1       5.567   6.504  -4.502  1.00  0.00     0.049 A 
ATOM     23  H   UNL     1       6.176   7.142  -2.615  1.00  0.00     0.167 HD
ATOM     24  C   UNL     1       7.266   8.413   1.428  1.00  0.00     0.037 A 
ATOM     25  C   UNL     1       5.958   7.439  -5.386  1.00  0.00     0.037 A 
ATOM     26  C   UNL     1       7.788   9.431   0.550  1.00  0.00     0.049 A 
ATOM     27  C   UNL     1       6.678   8.657  -4.888  1.00  0.00     0.074 A 
ATOM     28  C   UNL     1       8.527  10.555   0.877  1.00  0.00     0.029 A 
ATOM     29  N   UNL     1       7.615   9.455  -0.826  1.00  0.00    -0.354 N 
ATOM     30  N   UNL     1       7.020   8.970  -3.661  1.00  0.00    -0.248 NA
ATOM     31  C   UNL     1       7.065   9.653  -5.895  1.00  0.00     0.031 C 
ATOM     32  C   UNL     1       8.751  11.287  -0.293  1.00  0.00     0.029 A 
ATOM     33  C   UNL     1       8.208  10.588  -1.359  1.00  0.00     0.049 A 
ATOM     34  H   UNL     1       7.140   8.768  -1.348  1.00  0.00     0.167 HD
ATOM     35  C   UNL     1       7.686  10.185  -3.751  1.00  0.00     0.074 A 
ATOM     36  C   UNL     1       7.710  10.544  -5.155  1.00  0.00     0.031 C 
ATOM     37  C   UNL     1       8.229  10.932  -2.760  1.00  0.00     0.037 A 
BRANCH  24  38
ATOM     38  C   UNL     1       7.473   8.574   2.908  1.00  0.00     0.057 A 
ATOM     39  C   UNL     1       8.320   7.731   3.639  1.00  0.00     0.134 A 
ATOM     40  C   UNL     1       6.837   9.609   3.608  1.00  0.00     0.134 A 
ATOM     41  F   UNL     1       8.953   6.713   3.036  1.00  0.00    -0.206 F 
ATOM     42  C   UNL     1       8.505   7.893   5.014  1.00  0.00     0.040 A 
ATOM     43  C   UNL     1       7.036   9.799   4.976  1.00  0.00     0.040 A 
ATOM     44  F   UNL     1       6.018  10.460   2.971  1.00  0.00    -0.206 F 
ATOM     45  C   UNL     1       7.866   8.933   5.686  1.00  0.00     0.006 A 
ENDBRANCH  24  38
BRANCH  25  46
ATOM     46  C   UNL     1       5.663   7.255  -6.829  1.00  0.00     0.057 A 
ATOM     47  C   UNL     1       6.686   7.011  -7.751  1.00  0.00     0.134 A 
ATOM     48  C   UNL     1       4.351   7.299  -7.316  1.00  0.00     0.134 A 
ATOM     49  F   UNL     1       7.964   6.971  -7.348  1.00  0.00    -0.206 F 
ATOM     50  C   UNL     1       6.416   6.832  -9.109  1.00  0.00     0.040 A 
ATOM     51  C   UNL     1       4.064   7.092  -8.665  1.00  0.00     0.040 A 
ATOM     52  F   UNL     1       3.325   7.517  -6.479  1.00  0.00    -0.206 F 
ATOM     53  C   UNL     1       5.101   6.865  -9.567  1.00  0.00     0.006 A 
ENDBRANCH  25  46
BRANCH  37  54
ATOM     54  C   UNL     1       8.937  12.194  -3.163  1.00  0.00     0.057 A 
ATOM     55  C   UNL     1       8.245  13.320  -3.625  1.00  0.00     0.134 A 
ATOM     56  C   UNL     1      10.330  12.291  -3.054  1.00  0.00     0.134 A 
ATOM     57  F   UNL     1       6.911  13.288  -3.768  1.00  0.00    -0.206 F 
ATOM     58  C   UNL     1       8.916  14.490  -3.987  1.00  0.00     0.040 A 
ATOM     59  C   UNL     1      11.009  13.464  -3.384  1.00  0.00     0.040 A 
ATOM     60  F   UNL     1      11.053  11.251  -2.612  1.00  0.00    -0.206 F 
ATOM     61  C   UNL     1      10.301  14.566  -3.858  1.00  0.00     0.006 A 
ENDBRANCH  37  54
ENDBRANCH  11  12
ENDBRANCH   4   6
ENDBRANCH   1   2
BRANCH   1  62
ATOM     62  C   UNL     1       4.674  -1.642   1.870  1.00  0.00     0.042 C 
BRANCH  62  63
ATOM     63  C   UNL     1       4.193  -3.052   2.183  1.00  0.00     0.117 C 
BRANCH  63  64
ATOM     64  N   UNL     1       4.916  -4.054   1.415  1.00  0.00    -0.356 N 
ATOM     65  C   UNL     1       5.817  -4.989   1.843  1.00  0.00     0.223 C 
ATOM     66  H   UNL     1       4.730  -4.060   0.448  1.00  0.00     0.163 HD
ATOM     67  O   UNL     1       6.327  -5.745   1.019  1.00  0.00    -0.275 OA
BRANCH  65  68
ATOM     68  C   UNL     1       6.130  -5.051   3.322  1.00  0.00     0.083 C 
ATOM     69  C   UNL     1       7.070  -3.901   3.765  1.00  0.00     0.020 C 
ATOM     70  C   UNL     1       6.738  -6.409   3.744  1.00  0.00     0.052 C 
ATOM     71  C   UNL     1       7.115  -3.792   5.303  1.00  0.00     0.057 C 
ATOM     72  C   UNL     1       7.012  -6.348   5.207  1.00  0.00    -0.006 A 
ATOM     73  C   UNL     1       7.183  -5.157   5.882  1.00  0.00     0.038 A 
ATOM     74  C   UNL     1       7.109  -7.332   6.203  1.00  0.00     0.138 A 
ATOM     75  N   UNL     1       7.341  -5.475   7.195  1.00  0.00    -0.282 N 
ATOM     76  N   UNL     1       7.306  -6.803   7.416  1.00  0.00    -0.184 NA
ATOM     77  H   UNL     1       7.467  -4.807   7.906  1.00  0.00     0.190 HD
ENDBRANCH  65  68
ENDBRANCH  63  64
ENDBRANCH  62  63
ENDBRANCH   1  62
TORSDOF 10
