REMARK SMILES Cc1ccc(-c2csc(NC(=O)[C@H]3[C@@H](C(=O)NCCCNC(=O)c4ccc(-c5c6nc(c(-c7c(F)cccc7F)c7ccc([nH]7)c(-c7c(F)cccc7F)c7nc(c(-c8c(F)cccc8F)c8ccc5[nH]8)C=C7)C=C6)cc4)[C@H]4C=C[C@@H]3C4)c2C(=O)NC2CC2)cc1
REMARK SMILES IDX 18 1 17 2 15 3 16 4 14 6 13 7 81 8 78 9 80 10 82 11 79 12
REMARK SMILES IDX 11 13 10 14 12 16 9 17 6 18 7 19 83 20 8 21 5 22 1 23 2 24
REMARK SMILES IDX 3 25 91 26 4 27 90 28 84 29 85 30 86 31 87 33 88 34 89 35
REMARK SMILES IDX 19 36 20 37 21 38 22 39 23 41 24 42 25 43 77 44 26 45 76 46
REMARK SMILES IDX 27 47 28 48 29 49 70 50 30 51 75 52 69 53 71 54 31 55 74 56
REMARK SMILES IDX 68 57 67 58 32 60 58 61 41 62 57 63 42 64 45 65 56 66 72 67
REMARK SMILES IDX 43 68 44 69 55 71 73 72 46 73 33 74 34 75 39 76 35 77 36 78
REMARK SMILES IDX 38 79 40 80 37 81 59 82 60 83 65 84 61 85 62 86 64 87 66 88
REMARK SMILES IDX 63 89 47 90 48 91 53 92 49 93 50 94 52 95 54 96 51 97
REMARK H PARENT 17 5 10 15 86 32 21 40 71 59 45 70
REMARK Flexibility Score: inf
ROOT
ATOM      1  C   UNL     1      -4.549   2.196   0.044  1.00  0.00     0.117 C 
ENDROOT
BRANCH   1   2
ATOM      2  N   UNL     1      -5.191   1.676  -1.152  1.00  0.00    -0.356 N 
ATOM      3  C   UNL     1      -6.469   1.202  -1.312  1.00  0.00     0.224 C 
ATOM      4  O   UNL     1      -6.793   0.804  -2.429  1.00  0.00    -0.275 OA
ATOM      5  H   UNL     1      -4.630   1.661  -1.960  1.00  0.00     0.163 HD
BRANCH   3   6
ATOM      6  C   UNL     1      -7.440   1.337  -0.139  1.00  0.00     0.098 C 
ATOM      7  C   UNL     1      -8.624   0.306   0.049  1.00  0.00     0.099 C 
ATOM      8  C   UNL     1      -9.863   1.233  -0.096  1.00  0.00     0.025 C 
ATOM      9  C   UNL     1      -8.190   2.698  -0.276  1.00  0.00     0.025 C 
ATOM     10  C   UNL     1      -9.938   1.815  -1.481  1.00  0.00    -0.027 C 
ATOM     11  C   UNL     1      -9.372   2.478   0.662  1.00  0.00     0.017 C 
ATOM     12  C   UNL     1      -8.957   2.722  -1.581  1.00  0.00    -0.027 C 
BRANCH   7  13
ATOM     13  C   UNL     1      -8.515  -0.977  -0.774  1.00  0.00     0.229 C 
ATOM     14  N   UNL     1      -9.616  -1.655  -1.216  1.00  0.00    -0.317 N 
ATOM     15  H   UNL     1      -9.495  -2.142  -2.062  1.00  0.00     0.170 HD
ATOM     16  O   UNL     1      -7.407  -1.478  -1.000  1.00  0.00    -0.274 OA
BRANCH  14  17
ATOM     17  C   UNL     1     -10.876  -1.761  -0.654  1.00  0.00     0.108 A 
ATOM     18  C   UNL     1     -13.171  -1.966  -0.327  1.00  0.00     0.007 A 
ATOM     19  C   UNL     1     -12.702  -1.717   0.952  1.00  0.00     0.076 A 
ATOM     20  C   UNL     1     -12.080  -2.073  -1.291  1.00  0.00     0.082 A 
ATOM     21  S   UNL     1     -11.010  -1.718   1.041  1.00  0.00    -0.125 S 
BRANCH  18  22
ATOM     22  C   UNL     1     -14.616  -2.102  -0.481  1.00  0.00    -0.017 A 
ATOM     23  C   UNL     1     -18.728  -3.077  -1.280  1.00  0.00     0.044 C 
ATOM     24  C   UNL     1     -17.344  -2.642  -0.898  1.00  0.00    -0.051 A 
ATOM     25  C   UNL     1     -16.606  -3.420  -0.005  1.00  0.00     0.004 A 
ATOM     26  C   UNL     1     -16.730  -1.540  -1.515  1.00  0.00     0.004 A 
ATOM     27  C   UNL     1     -15.263  -3.134   0.221  1.00  0.00     0.009 A 
ATOM     28  C   UNL     1     -15.367  -1.268  -1.310  1.00  0.00     0.009 A 
ENDBRANCH  18  22
BRANCH  20  29
ATOM     29  C   UNL     1     -12.091  -2.199  -2.752  1.00  0.00     0.255 C 
ATOM     30  O   UNL     1     -11.516  -1.343  -3.435  1.00  0.00    -0.269 OA
ATOM     31  N   UNL     1     -12.591  -3.253  -3.479  1.00  0.00    -0.349 N 
ATOM     32  H   UNL     1     -12.451  -3.106  -4.442  1.00  0.00     0.164 HD
BRANCH  31  33
ATOM     33  C   UNL     1     -13.251  -4.491  -3.253  1.00  0.00     0.082 C 
ATOM     34  C   UNL     1     -13.797  -5.065  -1.995  1.00  0.00     0.027 C 
ATOM     35  C   UNL     1     -14.731  -4.448  -2.998  1.00  0.00     0.027 C 
ENDBRANCH  31  33
ENDBRANCH  20  29
ENDBRANCH  14  17
ENDBRANCH   7  13
ENDBRANCH   3   6
ENDBRANCH   1   2
BRANCH   1  36
ATOM     36  C   UNL     1      -3.938   1.079   0.884  1.00  0.00     0.042 C 
BRANCH  36  37
ATOM     37  C   UNL     1      -2.569   0.647   0.371  1.00  0.00     0.118 C 
BRANCH  37  38
ATOM     38  N   UNL     1      -1.458   1.423   0.921  1.00  0.00    -0.352 N 
ATOM     39  C   UNL     1      -0.113   1.413   0.584  1.00  0.00     0.251 C 
ATOM     40  H   UNL     1      -1.702   2.047   1.642  1.00  0.00     0.163 HD
ATOM     41  O   UNL     1       0.670   2.135   1.177  1.00  0.00    -0.269 OA
BRANCH  39  42
ATOM     42  C   UNL     1       0.341   0.633  -0.596  1.00  0.00     0.039 A 
ATOM     43  C   UNL     1       1.193   1.270  -1.508  1.00  0.00     0.014 A 
ATOM     44  C   UNL     1      -0.242  -0.587  -0.916  1.00  0.00     0.014 A 
ATOM     45  C   UNL     1       1.225   0.831  -2.828  1.00  0.00     0.010 A 
ATOM     46  C   UNL     1      -0.301  -0.959  -2.242  1.00  0.00     0.010 A 
ATOM     47  C   UNL     1       0.371  -0.203  -3.207  1.00  0.00    -0.014 A 
BRANCH  47  48
ATOM     48  C   UNL     1      -0.000  -0.460  -4.591  1.00  0.00     0.031 A 
ATOM     49  C   UNL     1       0.500  -1.656  -5.295  1.00  0.00     0.074 A 
ATOM     50  C   UNL     1      -0.907   0.351  -5.180  1.00  0.00     0.049 A 
ATOM     51  N   UNL     1       0.582  -1.767  -6.577  1.00  0.00    -0.248 NA
ATOM     52  C   UNL     1       0.993  -2.829  -4.584  1.00  0.00     0.031 C 
ATOM     53  C   UNL     1      -1.645   0.109  -6.415  1.00  0.00     0.029 A 
ATOM     54  N   UNL     1      -1.212   1.679  -4.845  1.00  0.00    -0.354 N 
ATOM     55  C   UNL     1       0.865  -3.083  -6.868  1.00  0.00     0.074 A 
ATOM     56  C   UNL     1       1.174  -3.686  -5.592  1.00  0.00     0.031 C 
ATOM     57  C   UNL     1      -2.089   1.283  -6.891  1.00  0.00     0.029 A 
ATOM     58  C   UNL     1      -1.517   2.329  -6.060  1.00  0.00     0.049 A 
ATOM     59  H   UNL     1      -1.213   2.078  -3.945  1.00  0.00     0.167 HD
ATOM     60  C   UNL     1       0.669  -3.546  -8.138  1.00  0.00     0.037 A 
ATOM     61  C   UNL     1      -0.751   3.357  -6.527  1.00  0.00     0.037 A 
ATOM     62  C   UNL     1       0.221  -2.472  -9.023  1.00  0.00     0.049 A 
ATOM     63  C   UNL     1      -0.113   3.080  -7.867  1.00  0.00     0.074 A 
ATOM     64  C   UNL     1      -1.042  -2.078  -9.432  1.00  0.00     0.029 A 
ATOM     65  N   UNL     1       1.085  -1.433  -9.351  1.00  0.00    -0.354 N 
ATOM     66  N   UNL     1       0.050   1.884  -8.358  1.00  0.00    -0.248 NA
ATOM     67  C   UNL     1       0.416   4.122  -8.744  1.00  0.00     0.031 C 
ATOM     68  C   UNL     1      -0.946  -0.764  -9.949  1.00  0.00     0.029 A 
ATOM     69  C   UNL     1       0.378  -0.368  -9.877  1.00  0.00     0.049 A 
ATOM     70  H   UNL     1       2.062  -1.453  -9.227  1.00  0.00     0.167 HD
ATOM     71  C   UNL     1       0.706   1.969  -9.556  1.00  0.00     0.074 A 
ATOM     72  C   UNL     1       0.899   3.392  -9.764  1.00  0.00     0.031 C 
ATOM     73  C   UNL     1       1.048   0.860 -10.273  1.00  0.00     0.037 A 
BRANCH  60  74
ATOM     74  C   UNL     1       0.565  -5.016  -8.491  1.00  0.00     0.057 A 
ATOM     75  C   UNL     1      -0.256  -5.449  -9.552  1.00  0.00     0.134 A 
ATOM     76  C   UNL     1       1.196  -6.060  -7.793  1.00  0.00     0.134 A 
ATOM     77  F   UNL     1      -0.826  -4.586 -10.402  1.00  0.00    -0.206 F 
ATOM     78  C   UNL     1      -0.535  -6.800  -9.803  1.00  0.00     0.040 A 
ATOM     79  C   UNL     1       0.884  -7.414  -7.995  1.00  0.00     0.040 A 
ATOM     80  F   UNL     1       2.187  -5.823  -6.925  1.00  0.00    -0.206 F 
ATOM     81  C   UNL     1      -0.001  -7.788  -8.994  1.00  0.00     0.006 A 
ENDBRANCH  60  74
BRANCH  61  82
ATOM     82  C   UNL     1      -0.140   4.176  -5.449  1.00  0.00     0.057 A 
ATOM     83  C   UNL     1      -0.983   4.947  -4.631  1.00  0.00     0.134 A 
ATOM     84  C   UNL     1       1.150   3.921  -4.974  1.00  0.00     0.134 A 
ATOM     85  F   UNL     1      -2.233   5.232  -5.030  1.00  0.00    -0.206 F 
ATOM     86  C   UNL     1      -0.603   5.348  -3.348  1.00  0.00     0.040 A 
ATOM     87  C   UNL     1       1.545   4.325  -3.693  1.00  0.00     0.040 A 
ATOM     88  F   UNL     1       2.006   3.177  -5.689  1.00  0.00    -0.206 F 
ATOM     89  C   UNL     1       0.655   5.005  -2.862  1.00  0.00     0.006 A 
ENDBRANCH  61  82
BRANCH  73  90
ATOM     90  C   UNL     1       1.966   0.845 -11.465  1.00  0.00     0.057 A 
ATOM     91  C   UNL     1       3.053   1.717 -11.623  1.00  0.00     0.134 A 
ATOM     92  C   UNL     1       1.865  -0.176 -12.434  1.00  0.00     0.134 A 
ATOM     93  F   UNL     1       3.326   2.666 -10.718  1.00  0.00    -0.206 F 
ATOM     94  C   UNL     1       3.943   1.616 -12.700  1.00  0.00     0.040 A 
ATOM     95  C   UNL     1       2.776  -0.317 -13.484  1.00  0.00     0.040 A 
ATOM     96  F   UNL     1       0.888  -1.095 -12.388  1.00  0.00    -0.206 F 
ATOM     97  C   UNL     1       3.814   0.591 -13.628  1.00  0.00     0.006 A 
ENDBRANCH  73  90
ENDBRANCH  47  48
ENDBRANCH  39  42
ENDBRANCH  37  38
ENDBRANCH  36  37
ENDBRANCH   1  36
TORSDOF 15
