REMARK SMILES C[C@H]1[C@@H](C(=O)NCCCNC(=O)c2ccc(-c3c4nc(c(-c5c(F)cccc5F)c5ccc([nH]5)c(-c5c(F)cccc5F)c5nc(c(-c6c(F)cccc6F)c6ccc3[nH]6)C=C5)C=C4)cc2)CC[N@@H+]1CC(=O)NNC(=O)c1cccs1
REMARK SMILES IDX 7 1 6 2 4 3 5 4 3 6 1 7 2 8 69 9 67 10 68 11 70 13 71 14
REMARK SMILES IDX 72 15 73 16 74 18 75 19 76 21 77 22 78 23 81 24 79 25 80 26
REMARK SMILES IDX 8 27 9 28 10 29 11 30 12 32 13 33 14 34 66 35 15 36 65 37
REMARK SMILES IDX 16 38 17 39 18 40 59 41 19 42 64 43 58 44 60 45 20 46 63 47
REMARK SMILES IDX 57 48 56 49 21 51 47 52 30 53 46 54 31 55 34 56 45 57 61 58
REMARK SMILES IDX 32 59 33 60 44 62 62 63 35 64 22 65 23 66 28 67 24 68 25 69
REMARK SMILES IDX 27 70 29 71 26 72 48 73 49 74 54 75 50 76 51 77 53 78 55 79
REMARK SMILES IDX 52 80 36 81 37 82 42 83 38 84 39 85 41 86 43 87 40 88
REMARK H PARENT 6 5 69 12 73 17 74 20 10 31 60 50 34 61
REMARK Flexibility Score: inf
ROOT
ATOM      1  C   UNL     1       2.893   1.750  -1.040  1.00  0.00     0.117 C 
ENDROOT
BRANCH   1   2
ATOM      2  N   UNL     1       1.662   1.905  -1.794  1.00  0.00    -0.356 N 
ATOM      3  C   UNL     1       0.416   1.401  -1.580  1.00  0.00     0.229 C 
ATOM      4  O   UNL     1      -0.373   1.473  -2.525  1.00  0.00    -0.275 OA
ATOM      5  H   UNL     1       1.742   2.470  -2.596  1.00  0.00     0.163 HD
BRANCH   3   6
ATOM      6  C   UNL     1       0.006   0.882  -0.204  1.00  0.00     0.142 C 
ATOM      7  C   UNL     1       1.337  -1.351  -0.676  1.00  0.00     0.076 C 
ATOM      8  C   UNL     1       0.535  -0.482   0.283  1.00  0.00     0.194 C 
ATOM      9  N   UNL     1      -0.632  -1.285   0.666  1.00  0.00    -0.324 N 
ATOM     10  C   UNL     1      -1.525   0.755  -0.094  1.00  0.00     0.081 C 
ATOM     11  C   UNL     1      -1.786  -0.736  -0.037  1.00  0.00     0.263 C 
ATOM     12  H   UNL     1      -0.486  -2.247   0.361  1.00  0.00     0.348 HD
BRANCH   9  13
ATOM     13  C   UNL     1      -0.802  -1.560   2.098  1.00  0.00     0.365 C 
BRANCH  13  14
ATOM     14  C   UNL     1      -1.434  -0.439   2.921  1.00  0.00     0.293 C 
ATOM     15  O   UNL     1      -2.659  -0.317   3.009  1.00  0.00    -0.267 OA
ATOM     16  N   UNL     1      -0.648   0.454   3.604  1.00  0.00    -0.262 N 
ATOM     17  H   UNL     1      -1.105   1.090   4.202  1.00  0.00     0.191 HD
BRANCH  16  18
ATOM     18  N   UNL     1       0.741   0.540   3.526  1.00  0.00    -0.263 N 
ATOM     19  C   UNL     1       1.418   1.741   3.367  1.00  0.00     0.279 C 
ATOM     20  H   UNL     1       1.267  -0.291   3.585  1.00  0.00     0.191 HD
ATOM     21  O   UNL     1       2.515   1.706   2.798  1.00  0.00    -0.266 OA
BRANCH  19  22
ATOM     22  C   UNL     1       0.814   2.952   3.896  1.00  0.00     0.094 A 
ATOM     23  C   UNL     1       0.096   3.136   5.065  1.00  0.00     0.026 A 
ATOM     24  S   UNL     1       1.033   4.435   3.065  1.00  0.00    -0.139 S 
ATOM     25  C   UNL     1      -0.308   4.489   5.253  1.00  0.00     0.012 A 
ATOM     26  C   UNL     1       0.139   5.303   4.237  1.00  0.00     0.065 A 
ENDBRANCH  19  22
ENDBRANCH  16  18
ENDBRANCH  13  14
ENDBRANCH   9  13
ENDBRANCH   3   6
ENDBRANCH   1   2
BRANCH   1  27
ATOM     27  C   UNL     1       3.812   0.747  -1.739  1.00  0.00     0.042 C 
BRANCH  27  28
ATOM     28  C   UNL     1       4.364   1.222  -3.075  1.00  0.00     0.118 C 
BRANCH  28  29
ATOM     29  N   UNL     1       5.647   1.880  -2.937  1.00  0.00    -0.352 N 
ATOM     30  C   UNL     1       6.918   1.435  -3.220  1.00  0.00     0.251 C 
ATOM     31  H   UNL     1       5.603   2.797  -2.583  1.00  0.00     0.163 HD
ATOM     32  O   UNL     1       7.872   2.086  -2.819  1.00  0.00    -0.269 OA
BRANCH  30  33
ATOM     33  C   UNL     1       7.161   0.178  -3.979  1.00  0.00     0.039 A 
ATOM     34  C   UNL     1       8.290  -0.581  -3.650  1.00  0.00     0.014 A 
ATOM     35  C   UNL     1       6.363  -0.226  -5.053  1.00  0.00     0.014 A 
ATOM     36  C   UNL     1       8.595  -1.742  -4.369  1.00  0.00     0.010 A 
ATOM     37  C   UNL     1       6.608  -1.438  -5.701  1.00  0.00     0.010 A 
ATOM     38  C   UNL     1       7.745  -2.196  -5.389  1.00  0.00    -0.014 A 
BRANCH  38  39
ATOM     39  C   UNL     1       8.066  -3.425  -6.165  1.00  0.00     0.031 A 
ATOM     40  C   UNL     1       8.322  -3.347  -7.649  1.00  0.00     0.074 A 
ATOM     41  C   UNL     1       8.105  -4.621  -5.545  1.00  0.00     0.049 A 
ATOM     42  N   UNL     1       8.596  -4.309  -8.495  1.00  0.00    -0.248 NA
ATOM     43  C   UNL     1       8.230  -2.016  -8.270  1.00  0.00     0.031 C 
ATOM     44  C   UNL     1       7.826  -4.849  -4.127  1.00  0.00     0.029 A 
ATOM     45  N   UNL     1       8.395  -5.872  -6.031  1.00  0.00    -0.354 N 
ATOM     46  C   UNL     1       8.693  -3.702  -9.742  1.00  0.00     0.074 A 
ATOM     47  C   UNL     1       8.389  -2.301  -9.553  1.00  0.00     0.031 C 
ATOM     48  C   UNL     1       7.987  -6.153  -3.851  1.00  0.00     0.029 A 
ATOM     49  C   UNL     1       8.349  -6.859  -5.076  1.00  0.00     0.049 A 
ATOM     50  H   UNL     1       8.615  -6.046  -6.975  1.00  0.00     0.167 HD
ATOM     51  C   UNL     1       9.034  -4.251 -10.933  1.00  0.00     0.037 A 
ATOM     52  C   UNL     1       8.573  -8.183  -5.175  1.00  0.00     0.037 A 
ATOM     53  C   UNL     1       9.368  -5.639 -11.120  1.00  0.00     0.049 A 
ATOM     54  C   UNL     1       8.967  -8.768  -6.502  1.00  0.00     0.074 A 
ATOM     55  C   UNL     1       9.780  -6.280 -12.276  1.00  0.00     0.029 A 
ATOM     56  N   UNL     1       9.331  -6.600 -10.122  1.00  0.00    -0.354 N 
ATOM     57  N   UNL     1       9.117  -8.169  -7.658  1.00  0.00    -0.248 NA
ATOM     58  C   UNL     1       9.235 -10.213  -6.535  1.00  0.00     0.031 C 
ATOM     59  C   UNL     1       9.955  -7.637 -11.985  1.00  0.00     0.029 A 
ATOM     60  C   UNL     1       9.697  -7.833 -10.638  1.00  0.00     0.049 A 
ATOM     61  H   UNL     1       9.081  -6.432  -9.184  1.00  0.00     0.167 HD
ATOM     62  C   UNL     1       9.514  -9.156  -8.550  1.00  0.00     0.074 A 
ATOM     63  C   UNL     1       9.603 -10.390  -7.796  1.00  0.00     0.031 C 
ATOM     64  C   UNL     1       9.778  -9.052  -9.876  1.00  0.00     0.037 A 
BRANCH  51  65
ATOM     65  C   UNL     1       9.073  -3.341 -12.127  1.00  0.00     0.057 A 
ATOM     66  C   UNL     1      10.060  -2.356 -12.273  1.00  0.00     0.134 A 
ATOM     67  C   UNL     1       8.129  -3.463 -13.155  1.00  0.00     0.134 A 
ATOM     68  F   UNL     1      10.987  -2.177 -11.319  1.00  0.00    -0.206 F 
ATOM     69  C   UNL     1      10.088  -1.506 -13.380  1.00  0.00     0.040 A 
ATOM     70  C   UNL     1       8.164  -2.638 -14.281  1.00  0.00     0.040 A 
ATOM     71  F   UNL     1       7.162  -4.389 -13.085  1.00  0.00    -0.206 F 
ATOM     72  C   UNL     1       9.141  -1.650 -14.392  1.00  0.00     0.006 A 
ENDBRANCH  51  65
BRANCH  52  73
ATOM     73  C   UNL     1       8.457  -9.044  -3.970  1.00  0.00     0.057 A 
ATOM     74  C   UNL     1       9.590  -9.606  -3.371  1.00  0.00     0.134 A 
ATOM     75  C   UNL     1       7.214  -9.325  -3.391  1.00  0.00     0.134 A 
ATOM     76  F   UNL     1      10.807  -9.389  -3.892  1.00  0.00    -0.206 F 
ATOM     77  C   UNL     1       9.491 -10.429  -2.248  1.00  0.00     0.040 A 
ATOM     78  C   UNL     1       7.103 -10.126  -2.254  1.00  0.00     0.040 A 
ATOM     79  F   UNL     1       6.092  -8.810  -3.914  1.00  0.00    -0.206 F 
ATOM     80  C   UNL     1       8.244 -10.686  -1.683  1.00  0.00     0.006 A 
ENDBRANCH  52  73
BRANCH  64  81
ATOM     81  C   UNL     1      10.210 -10.301 -10.587  1.00  0.00     0.057 A 
ATOM     82  C   UNL     1       9.312 -11.341 -10.862  1.00  0.00     0.134 A 
ATOM     83  C   UNL     1      11.532 -10.455 -11.022  1.00  0.00     0.134 A 
ATOM     84  F   UNL     1       8.035 -11.261 -10.460  1.00  0.00    -0.206 F 
ATOM     85  C   UNL     1       9.721 -12.502 -11.521  1.00  0.00     0.040 A 
ATOM     86  C   UNL     1      11.946 -11.599 -11.705  1.00  0.00     0.040 A 
ATOM     87  F   UNL     1      12.440  -9.493 -10.798  1.00  0.00    -0.206 F 
ATOM     88  C   UNL     1      11.041 -12.630 -11.949  1.00  0.00     0.006 A 
ENDBRANCH  64  81
ENDBRANCH  38  39
ENDBRANCH  30  33
ENDBRANCH  28  29
ENDBRANCH  27  28
ENDBRANCH   1  27
TORSDOF 14
