REMARK SMILES CSc1ccc(Cl)c(C(=O)N[C@@H](CO)C(=O)NCCCNC(=O)c2ccc(-c3c4nc(c(-c5c(F)cccc5F)c5ccc([nH]5)c(-c5c(F)cccc5F)c5nc(c(-c6c(F)cccc6F)c6ccc3[nH]6)C=C5)C=C4)cc2)c1
REMARK SMILES IDX 18 1 17 2 15 3 16 4 12 6 11 7 9 8 10 9 8 11 3 12 4 13 78 14
REMARK SMILES IDX 5 15 6 16 7 17 2 18 1 19 13 20 14 21 19 23 20 24 21 25 22 26
REMARK SMILES IDX 23 28 24 29 25 30 77 31 26 32 76 33 27 34 28 35 29 36 70 37
REMARK SMILES IDX 30 38 75 39 69 40 71 41 31 42 74 43 68 44 67 45 32 47 58 48
REMARK SMILES IDX 41 49 57 50 42 51 45 52 56 53 72 54 43 55 44 56 55 58 73 59
REMARK SMILES IDX 46 60 33 61 34 62 39 63 35 64 36 65 38 66 40 67 37 68 59 69
REMARK SMILES IDX 60 70 65 71 61 72 62 73 64 74 66 75 63 76 47 77 48 78 53 79
REMARK SMILES IDX 49 80 50 81 52 82 54 83 51 84
REMARK H PARENT 17 5 11 10 14 22 21 27 71 46 45 57
REMARK Flexibility Score: inf
ROOT
ATOM      1  C   UNL     1       0.646   9.996  -2.623  1.00  0.00     0.117 C 
ENDROOT
BRANCH   1   2
ATOM      2  N   UNL     1       1.977   9.432  -2.646  1.00  0.00    -0.354 N 
ATOM      3  C   UNL     1       2.416   8.199  -2.977  1.00  0.00     0.244 C 
ATOM      4  O   UNL     1       3.607   7.962  -2.744  1.00  0.00    -0.273 OA
ATOM      5  H   UNL     1       2.687  10.056  -2.372  1.00  0.00     0.163 HD
BRANCH   3   6
ATOM      6  C   UNL     1       1.527   7.122  -3.616  1.00  0.00     0.197 C 
BRANCH   6   7
ATOM      7  N   UNL     1       0.514   6.533  -2.759  1.00  0.00    -0.338 N 
ATOM      8  C   UNL     1       0.183   5.248  -2.423  1.00  0.00     0.253 C 
ATOM      9  O   UNL     1      -0.777   5.196  -1.642  1.00  0.00    -0.269 OA
ATOM     10  H   UNL     1      -0.061   7.205  -2.324  1.00  0.00     0.164 HD
BRANCH   8  11
ATOM     11  C   UNL     1       0.849   3.941  -2.813  1.00  0.00     0.059 A 
ATOM     12  C   UNL     1       0.844   1.534  -2.179  1.00  0.00     0.008 A 
ATOM     13  C   UNL     1       1.858   1.274  -3.084  1.00  0.00     0.016 A 
ATOM     14  C   UNL     1       0.390   2.851  -2.018  1.00  0.00     0.030 A 
ATOM     15  C   UNL     1       2.325   2.304  -3.887  1.00  0.00     0.022 A 
ATOM     16  C   UNL     1       1.773   3.602  -3.818  1.00  0.00     0.053 A 
ATOM     17  Cl  UNL     1       2.207   4.514  -5.216  1.00  0.00    -0.083 Cl
BRANCH  12  18
ATOM     18  S   UNL     1       0.051   0.178  -1.345  1.00  0.00    -0.130 SA
ATOM     19  C   UNL     1       1.002   0.180   0.188  1.00  0.00     0.091 C 
ENDBRANCH  12  18
ENDBRANCH   8  11
ENDBRANCH   6   7
BRANCH   6  20
ATOM     20  C   UNL     1       0.964   7.512  -4.998  1.00  0.00     0.191 C 
BRANCH  20  21
ATOM     21  O   UNL     1      -0.143   8.412  -4.961  1.00  0.00    -0.394 OA
ATOM     22  H   UNL     1      -0.887   7.991  -4.503  1.00  0.00     0.210 HD
ENDBRANCH  20  21
ENDBRANCH   6  20
ENDBRANCH   3   6
ENDBRANCH   1   2
BRANCH   1  23
ATOM     23  C   UNL     1       0.270  10.460  -1.228  1.00  0.00     0.042 C 
BRANCH  23  24
ATOM     24  C   UNL     1       1.257  11.442  -0.621  1.00  0.00     0.118 C 
BRANCH  24  25
ATOM     25  N   UNL     1       1.408  12.654  -1.416  1.00  0.00    -0.352 N 
ATOM     26  C   UNL     1       1.048  13.944  -1.118  1.00  0.00     0.251 C 
ATOM     27  H   UNL     1       1.830  12.529  -2.297  1.00  0.00     0.163 HD
ATOM     28  O   UNL     1       1.054  14.807  -1.993  1.00  0.00    -0.269 OA
BRANCH  26  29
ATOM     29  C   UNL     1       0.628  14.283   0.255  1.00  0.00     0.039 A 
ATOM     30  C   UNL     1      -0.482  15.106   0.445  1.00  0.00     0.014 A 
ATOM     31  C   UNL     1       1.319  13.764   1.352  1.00  0.00     0.014 A 
ATOM     32  C   UNL     1      -0.940  15.349   1.740  1.00  0.00     0.010 A 
ATOM     33  C   UNL     1       0.791  13.906   2.627  1.00  0.00     0.010 A 
ATOM     34  C   UNL     1      -0.332  14.716   2.838  1.00  0.00    -0.014 A 
BRANCH  34  35
ATOM     35  C   UNL     1      -0.839  14.908   4.218  1.00  0.00     0.031 A 
ATOM     36  C   UNL     1       0.055  15.508   5.269  1.00  0.00     0.074 A 
ATOM     37  C   UNL     1      -2.078  14.486   4.538  1.00  0.00     0.049 A 
ATOM     38  N   UNL     1      -0.182  15.709   6.540  1.00  0.00    -0.248 NA
ATOM     39  C   UNL     1       1.409  15.904   4.845  1.00  0.00     0.031 C 
ATOM     40  C   UNL     1      -3.014  13.832   3.622  1.00  0.00     0.029 A 
ATOM     41  N   UNL     1      -2.760  14.540   5.727  1.00  0.00    -0.354 N 
ATOM     42  C   UNL     1       0.992  16.236   7.064  1.00  0.00     0.074 A 
ATOM     43  C   UNL     1       1.962  16.258   5.994  1.00  0.00     0.031 C 
ATOM     44  C   UNL     1      -4.162  13.579   4.272  1.00  0.00     0.029 A 
ATOM     45  C   UNL     1      -4.027  14.012   5.659  1.00  0.00     0.049 A 
ATOM     46  H   UNL     1      -2.379  14.922   6.550  1.00  0.00     0.167 HD
ATOM     47  C   UNL     1       1.231  16.690   8.316  1.00  0.00     0.037 A 
ATOM     48  C   UNL     1      -4.971  13.889   6.610  1.00  0.00     0.037 A 
ATOM     49  C   UNL     1       0.252  16.689   9.370  1.00  0.00     0.049 A 
ATOM     50  C   UNL     1      -4.681  14.401   7.994  1.00  0.00     0.074 A 
ATOM     51  C   UNL     1       0.370  17.183  10.657  1.00  0.00     0.029 A 
ATOM     52  N   UNL     1      -1.027  16.163   9.258  1.00  0.00    -0.354 N 
ATOM     53  N   UNL     1      -3.593  14.970   8.456  1.00  0.00    -0.248 NA
ATOM     54  C   UNL     1      -5.755  14.264   8.987  1.00  0.00     0.031 C 
ATOM     55  C   UNL     1      -0.819  16.907  11.340  1.00  0.00     0.029 A 
ATOM     56  C   UNL     1      -1.700  16.297  10.461  1.00  0.00     0.049 A 
ATOM     57  H   UNL     1      -1.400  15.754   8.444  1.00  0.00     0.167 HD
ATOM     58  C   UNL     1      -3.861  15.284   9.782  1.00  0.00     0.074 A 
ATOM     59  C   UNL     1      -5.221  14.859  10.044  1.00  0.00     0.031 C 
ATOM     60  C   UNL     1      -3.055  15.870  10.701  1.00  0.00     0.037 A 
BRANCH  47  61
ATOM     61  C   UNL     1       2.603  17.227   8.608  1.00  0.00     0.057 A 
ATOM     62  C   UNL     1       3.072  18.417   8.034  1.00  0.00     0.134 A 
ATOM     63  C   UNL     1       3.459  16.560   9.494  1.00  0.00     0.134 A 
ATOM     64  F   UNL     1       2.311  19.100   7.165  1.00  0.00    -0.206 F 
ATOM     65  C   UNL     1       4.352  18.906   8.304  1.00  0.00     0.040 A 
ATOM     66  C   UNL     1       4.728  17.056   9.798  1.00  0.00     0.040 A 
ATOM     67  F   UNL     1       3.074  15.418  10.084  1.00  0.00    -0.206 F 
ATOM     68  C   UNL     1       5.181  18.228   9.196  1.00  0.00     0.006 A 
ENDBRANCH  47  61
BRANCH  48  69
ATOM     69  C   UNL     1      -6.285  13.280   6.282  1.00  0.00     0.057 A 
ATOM     70  C   UNL     1      -7.455  14.049   6.265  1.00  0.00     0.134 A 
ATOM     71  C   UNL     1      -6.407  11.917   5.985  1.00  0.00     0.134 A 
ATOM     72  F   UNL     1      -7.407  15.357   6.556  1.00  0.00    -0.206 F 
ATOM     73  C   UNL     1      -8.701  13.481   5.989  1.00  0.00     0.040 A 
ATOM     74  C   UNL     1      -7.641  11.342   5.680  1.00  0.00     0.040 A 
ATOM     75  F   UNL     1      -5.323  11.127   5.974  1.00  0.00    -0.206 F 
ATOM     76  C   UNL     1      -8.795  12.124   5.691  1.00  0.00     0.006 A 
ENDBRANCH  48  69
BRANCH  60  77
ATOM     77  C   UNL     1      -3.638  16.122  12.062  1.00  0.00     0.057 A 
ATOM     78  C   UNL     1      -3.919  15.080  12.955  1.00  0.00     0.134 A 
ATOM     79  C   UNL     1      -3.893  17.430  12.495  1.00  0.00     0.134 A 
ATOM     80  F   UNL     1      -3.708  13.803  12.599  1.00  0.00    -0.206 F 
ATOM     81  C   UNL     1      -4.463  15.328  14.216  1.00  0.00     0.040 A 
ATOM     82  C   UNL     1      -4.406  17.692  13.765  1.00  0.00     0.040 A 
ATOM     83  F   UNL     1      -3.636  18.476  11.694  1.00  0.00    -0.206 F 
ATOM     84  C   UNL     1      -4.701  16.638  14.627  1.00  0.00     0.006 A 
ENDBRANCH  60  77
ENDBRANCH  34  35
ENDBRANCH  26  29
ENDBRANCH  24  25
ENDBRANCH  23  24
ENDBRANCH   1  23
TORSDOF 15
