REMARK SMILES CCC(CC)(NC(=O)N(C)C1CC[NH2+]CC1)C(=O)NCCCNC(=O)c1ccc(-c2c3nc(c(-c4c(F)cccc4F)c4ccc([nH]4)c(-c4c(F)cccc4F)c4nc(c(-c5c(F)cccc5F)c5ccc2[nH]5)C=C4)C=C3)cc1
REMARK SMILES IDX 20 1 19 2 17 3 18 4 3 6 2 7 1 8 4 9 5 10 6 11 7 12 8 14 9 15
REMARK SMILES IDX 10 16 11 17 12 18 16 19 13 20 15 21 14 22 21 25 22 26 23 27
REMARK SMILES IDX 24 28 25 30 26 31 27 32 79 33 28 34 78 35 29 36 30 37 31 38
REMARK SMILES IDX 72 39 32 40 77 41 71 42 73 43 33 44 76 45 70 46 69 47 34 49
REMARK SMILES IDX 60 50 43 51 59 52 44 53 47 54 58 55 74 56 45 57 46 58 57 60
REMARK SMILES IDX 75 61 48 62 35 63 36 64 41 65 37 66 38 67 40 68 42 69 39 70
REMARK SMILES IDX 61 71 62 72 67 73 63 74 64 75 66 76 68 77 65 78 49 79 50 80
REMARK SMILES IDX 55 81 51 82 52 83 54 84 56 85 53 86
REMARK H PARENT 19 5 6 13 14 23 14 24 23 29 73 48 47 59
REMARK Flexibility Score: inf
ROOT
ATOM      1  C   UNL     1       2.122   3.857   3.612  1.00  0.00     0.117 C 
ENDROOT
BRANCH   1   2
ATOM      2  N   UNL     1       2.793   2.954   2.677  1.00  0.00    -0.354 N 
ATOM      3  C   UNL     1       2.333   1.910   1.901  1.00  0.00     0.245 C 
ATOM      4  O   UNL     1       3.052   1.595   0.947  1.00  0.00    -0.272 OA
ATOM      5  H   UNL     1       3.759   3.124   2.583  1.00  0.00     0.163 HD
BRANCH   3   6
ATOM      6  C   UNL     1       0.935   1.229   2.152  1.00  0.00     0.120 C 
BRANCH   6   7
ATOM      7  C   UNL     1       0.552  -0.093   1.409  1.00  0.00     0.035 C 
ATOM      8  C   UNL     1       0.846  -0.157  -0.084  1.00  0.00     0.007 C 
ENDBRANCH   6   7
BRANCH   6   9
ATOM      9  C   UNL     1      -0.107   2.313   1.675  1.00  0.00     0.035 C 
ATOM     10  C   UNL     1      -1.585   2.042   1.931  1.00  0.00     0.007 C 
ENDBRANCH   6   9
BRANCH   6  11
ATOM     11  N   UNL     1       0.907   0.968   3.615  1.00  0.00    -0.323 N 
ATOM     12  C   UNL     1       1.678   0.325   4.526  1.00  0.00     0.318 C 
ATOM     13  H   UNL     1       0.113   1.371   4.036  1.00  0.00     0.166 HD
ATOM     14  O   UNL     1       1.244   0.417   5.682  1.00  0.00    -0.249 OA
BRANCH  12  15
ATOM     15  N   UNL     1       2.883  -0.299   4.266  1.00  0.00    -0.324 N 
ATOM     16  C   UNL     1       3.405  -0.724   2.978  1.00  0.00     0.149 C 
BRANCH  15  17
ATOM     17  C   UNL     1       3.759  -0.612   5.452  1.00  0.00     0.097 C 
ATOM     18  C   UNL     1       4.628   0.585   5.856  1.00  0.00     0.086 C 
ATOM     19  C   UNL     1       4.671  -1.852   5.370  1.00  0.00     0.086 C 
ATOM     20  C   UNL     1       5.848   0.761   4.958  1.00  0.00     0.262 C 
ATOM     21  C   UNL     1       5.977  -1.639   4.596  1.00  0.00     0.262 C 
ATOM     22  N   UNL     1       6.694  -0.426   4.982  1.00  0.00    -0.346 N 
ATOM     23  H   UNL     1       7.058  -0.549   5.927  1.00  0.00     0.346 HD
ATOM     24  H   UNL     1       7.444  -0.283   4.304  1.00  0.00     0.346 HD
ENDBRANCH  15  17
ENDBRANCH  12  15
ENDBRANCH   6  11
ENDBRANCH   3   6
ENDBRANCH   1   2
BRANCH   1  25
ATOM     25  C   UNL     1       2.586   3.826   5.061  1.00  0.00     0.042 C 
BRANCH  25  26
ATOM     26  C   UNL     1       4.077   3.957   5.308  1.00  0.00     0.118 C 
BRANCH  26  27
ATOM     27  N   UNL     1       4.625   5.282   5.136  1.00  0.00    -0.352 N 
ATOM     28  C   UNL     1       5.450   6.002   5.974  1.00  0.00     0.251 C 
ATOM     29  H   UNL     1       4.375   5.736   4.299  1.00  0.00     0.163 HD
ATOM     30  O   UNL     1       5.824   7.113   5.628  1.00  0.00    -0.269 OA
BRANCH  28  31
ATOM     31  C   UNL     1       5.843   5.484   7.315  1.00  0.00     0.039 A 
ATOM     32  C   UNL     1       5.790   6.378   8.388  1.00  0.00     0.014 A 
ATOM     33  C   UNL     1       6.284   4.176   7.541  1.00  0.00     0.014 A 
ATOM     34  C   UNL     1       6.121   5.952   9.678  1.00  0.00     0.010 A 
ATOM     35  C   UNL     1       6.544   3.729   8.844  1.00  0.00     0.010 A 
ATOM     36  C   UNL     1       6.473   4.615   9.929  1.00  0.00    -0.014 A 
BRANCH  36  37
ATOM     37  C   UNL     1       6.763   4.177  11.325  1.00  0.00     0.031 A 
ATOM     38  C   UNL     1       8.145   3.744  11.735  1.00  0.00     0.074 A 
ATOM     39  C   UNL     1       5.779   4.197  12.247  1.00  0.00     0.049 A 
ATOM     40  N   UNL     1       8.598   3.453  12.931  1.00  0.00    -0.248 NA
ATOM     41  C   UNL     1       9.146   3.606  10.668  1.00  0.00     0.031 C 
ATOM     42  C   UNL     1       4.381   4.540  11.983  1.00  0.00     0.029 A 
ATOM     43  N   UNL     1       5.808   3.940  13.597  1.00  0.00    -0.354 N 
ATOM     44  C   UNL     1       9.933   3.108  12.760  1.00  0.00     0.074 A 
ATOM     45  C   UNL     1      10.201   3.167  11.339  1.00  0.00     0.031 C 
ATOM     46  C   UNL     1       3.697   4.516  13.139  1.00  0.00     0.029 A 
ATOM     47  C   UNL     1       4.599   4.133  14.222  1.00  0.00     0.049 A 
ATOM     48  H   UNL     1       6.619   3.645  14.072  1.00  0.00     0.167 HD
ATOM     49  C   UNL     1      10.859   2.796  13.699  1.00  0.00     0.037 A 
ATOM     50  C   UNL     1       4.254   4.029  15.520  1.00  0.00     0.037 A 
ATOM     51  C   UNL     1      10.603   2.742  15.115  1.00  0.00     0.049 A 
ATOM     52  C   UNL     1       5.299   3.675  16.542  1.00  0.00     0.074 A 
ATOM     53  C   UNL     1      11.497   2.490  16.143  1.00  0.00     0.029 A 
ATOM     54  N   UNL     1       9.363   2.930  15.704  1.00  0.00    -0.354 N 
ATOM     55  N   UNL     1       6.578   3.446  16.374  1.00  0.00    -0.248 NA
ATOM     56  C   UNL     1       4.851   3.577  17.940  1.00  0.00     0.031 C 
ATOM     57  C   UNL     1      10.788   2.479  17.349  1.00  0.00     0.029 A 
ATOM     58  C   UNL     1       9.463   2.775  17.078  1.00  0.00     0.049 A 
ATOM     59  H   UNL     1       8.533   3.143  15.218  1.00  0.00     0.167 HD
ATOM     60  C   UNL     1       7.092   3.206  17.642  1.00  0.00     0.074 A 
ATOM     61  C   UNL     1       5.991   3.334  18.572  1.00  0.00     0.031 C 
ATOM     62  C   UNL     1       8.364   2.905  18.001  1.00  0.00     0.037 A 
BRANCH  49  63
ATOM     63  C   UNL     1      12.252   2.495  13.223  1.00  0.00     0.057 A 
ATOM     64  C   UNL     1      13.090   3.498  12.717  1.00  0.00     0.134 A 
ATOM     65  C   UNL     1      12.779   1.201  13.317  1.00  0.00     0.134 A 
ATOM     66  F   UNL     1      12.645   4.758  12.595  1.00  0.00    -0.206 F 
ATOM     67  C   UNL     1      14.393   3.220  12.299  1.00  0.00     0.040 A 
ATOM     68  C   UNL     1      14.088   0.916  12.926  1.00  0.00     0.040 A 
ATOM     69  F   UNL     1      12.035   0.195  13.802  1.00  0.00    -0.206 F 
ATOM     70  C   UNL     1      14.897   1.926  12.410  1.00  0.00     0.006 A 
ENDBRANCH  49  63
BRANCH  50  71
ATOM     71  C   UNL     1       2.854   4.295  15.940  1.00  0.00     0.057 A 
ATOM     72  C   UNL     1       2.527   5.426  16.698  1.00  0.00     0.134 A 
ATOM     73  C   UNL     1       1.816   3.416  15.613  1.00  0.00     0.134 A 
ATOM     74  F   UNL     1       3.482   6.294  17.062  1.00  0.00    -0.206 F 
ATOM     75  C   UNL     1       1.222   5.662  17.133  1.00  0.00     0.040 A 
ATOM     76  C   UNL     1       0.502   3.653  16.018  1.00  0.00     0.040 A 
ATOM     77  F   UNL     1       2.064   2.316  14.886  1.00  0.00    -0.206 F 
ATOM     78  C   UNL     1       0.203   4.776  16.788  1.00  0.00     0.006 A 
ENDBRANCH  50  71
BRANCH  62  79
ATOM     79  C   UNL     1       8.642   2.724  19.466  1.00  0.00     0.057 A 
ATOM     80  C   UNL     1       8.180   1.608  20.176  1.00  0.00     0.134 A 
ATOM     81  C   UNL     1       9.405   3.666  20.170  1.00  0.00     0.134 A 
ATOM     82  F   UNL     1       7.434   0.675  19.566  1.00  0.00    -0.206 F 
ATOM     83  C   UNL     1       8.443   1.449  21.538  1.00  0.00     0.040 A 
ATOM     84  C   UNL     1       9.697   3.504  21.525  1.00  0.00     0.040 A 
ATOM     85  F   UNL     1       9.887   4.753  19.550  1.00  0.00    -0.206 F 
ATOM     86  C   UNL     1       9.209   2.397  22.215  1.00  0.00     0.006 A 
ENDBRANCH  62  79
ENDBRANCH  36  37
ENDBRANCH  28  31
ENDBRANCH  26  27
ENDBRANCH  25  26
ENDBRANCH   1  25
TORSDOF 15
