REMARK SMILES C[C@]1(C(=O)NCCCNC(=O)c2ccc(-c3c4nc(c(-c5c(F)cccc5F)c5ccc([nH]5)c(-c5c(F)cccc5F)c5nc(c(-c6c(F)cccc6F)c6ccc3[nH]6)C=C5)C=C4)cc2)[NH2+]C2(C(=O)c3ccccc3C2=O)[C@@H]2C(=O)N(c3ccccc3)C(=O)[C@H]21
REMARK SMILES IDX 7 1 6 2 5 3 3 4 4 5 2 7 1 8 66 9 90 10 67 11 78 14 88 15
REMARK SMILES IDX 68 16 76 17 79 18 81 19 89 20 69 21 70 22 75 23 77 24 80 25
REMARK SMILES IDX 71 26 74 27 72 28 73 29 82 30 83 31 87 32 84 33 86 34 85 35
REMARK SMILES IDX 8 36 9 37 10 38 11 40 12 41 13 42 65 43 14 44 64 45 15 46
REMARK SMILES IDX 16 47 17 48 58 49 18 50 63 51 57 52 59 53 19 54 62 55 56 56
REMARK SMILES IDX 55 57 20 59 46 60 29 61 45 62 30 63 33 64 44 65 60 66 31 67
REMARK SMILES IDX 32 68 43 70 61 71 34 72 21 73 22 74 27 75 23 76 24 77 26 78
REMARK SMILES IDX 28 79 25 80 47 81 48 82 53 83 49 84 50 85 52 86 54 87 51 88
REMARK SMILES IDX 35 89 36 90 41 91 37 92 38 93 40 94 42 95 39 96
REMARK H PARENT 5 6 66 12 66 13 9 39 59 58 33 69
REMARK Flexibility Score: inf
ROOT
ATOM      1  C   UNL     1      -1.346   3.507   3.989  1.00  0.00     0.042 C 
ENDROOT
BRANCH   1   2
ATOM      2  C   UNL     1      -0.280   3.237   2.947  1.00  0.00     0.118 C 
BRANCH   2   3
ATOM      3  N   UNL     1       0.406   1.980   2.973  1.00  0.00    -0.351 N 
ATOM      4  C   UNL     1       0.791   1.180   1.934  1.00  0.00     0.281 C 
ATOM      5  O   UNL     1       1.319   0.116   2.290  1.00  0.00    -0.268 OA
ATOM      6  H   UNL     1       0.634   1.644   3.869  1.00  0.00     0.163 HD
BRANCH   4   7
ATOM      7  C   UNL     1       0.602   1.504   0.383  1.00  0.00     0.186 C 
ATOM      8  C   UNL     1       1.239   0.303  -0.368  1.00  0.00     0.091 C 
ATOM      9  N   UNL     1      -0.853   1.595  -0.034  1.00  0.00    -0.314 N 
ATOM     10  C   UNL     1       1.175   2.768  -0.203  1.00  0.00     0.170 C 
ATOM     11  C   UNL     1      -1.136   2.985  -0.591  1.00  0.00     0.236 C 
ATOM     12  H   UNL     1      -1.450   1.424   0.775  1.00  0.00     0.348 HD
ATOM     13  H   UNL     1      -1.046   0.896  -0.752  1.00  0.00     0.348 HD
ATOM     14  C   UNL     1       0.055   3.788  -0.168  1.00  0.00     0.177 C 
ATOM     15  C   UNL     1       2.290   3.566   0.364  1.00  0.00     0.244 C 
ATOM     16  C   UNL     1      -1.443   2.989  -2.086  1.00  0.00     0.232 C 
ATOM     17  C   UNL     1      -2.473   3.456   0.018  1.00  0.00     0.232 C 
ATOM     18  C   UNL     1       0.784   4.975  -0.698  1.00  0.00     0.245 C 
ATOM     19  N   UNL     1       2.052   4.857  -0.113  1.00  0.00    -0.250 N 
ATOM     20  O   UNL     1       3.178   3.138   1.075  1.00  0.00    -0.273 OA
ATOM     21  O   UNL     1      -0.697   2.635  -2.980  1.00  0.00    -0.286 OA
ATOM     22  C   UNL     1      -2.832   3.445  -2.279  1.00  0.00     0.036 A 
ATOM     23  C   UNL     1      -3.428   3.674  -1.050  1.00  0.00     0.036 A 
ATOM     24  O   UNL     1      -2.781   3.637   1.182  1.00  0.00    -0.286 OA
ATOM     25  O   UNL     1       0.270   5.896  -1.308  1.00  0.00    -0.273 OA
ATOM     26  C   UNL     1      -3.547   3.635  -3.446  1.00  0.00     0.013 A 
ATOM     27  C   UNL     1      -4.750   4.062  -0.910  1.00  0.00     0.013 A 
ATOM     28  C   UNL     1      -4.884   4.050  -3.334  1.00  0.00     0.001 A 
ATOM     29  C   UNL     1      -5.484   4.251  -2.076  1.00  0.00     0.001 A 
BRANCH  19  30
ATOM     30  C   UNL     1       2.867   5.929   0.297  1.00  0.00     0.052 A 
ATOM     31  C   UNL     1       4.254   5.859   0.119  1.00  0.00     0.027 A 
ATOM     32  C   UNL     1       2.321   6.969   1.059  1.00  0.00     0.027 A 
ATOM     33  C   UNL     1       5.087   6.823   0.687  1.00  0.00     0.002 A 
ATOM     34  C   UNL     1       3.163   7.901   1.672  1.00  0.00     0.002 A 
ATOM     35  C   UNL     1       4.543   7.832   1.479  1.00  0.00     0.000 A 
ENDBRANCH  19  30
ENDBRANCH   4   7
ENDBRANCH   2   3
ENDBRANCH   1   2
BRANCH   1  36
ATOM     36  C   UNL     1      -0.793   3.964   5.320  1.00  0.00     0.118 C 
BRANCH  36  37
ATOM     37  N   UNL     1      -0.420   5.380   5.343  1.00  0.00    -0.352 N 
ATOM     38  C   UNL     1      -1.113   6.545   5.597  1.00  0.00     0.251 C 
ATOM     39  H   UNL     1       0.530   5.533   5.133  1.00  0.00     0.163 HD
ATOM     40  O   UNL     1      -0.535   7.617   5.419  1.00  0.00    -0.269 OA
BRANCH  38  41
ATOM     41  C   UNL     1      -2.540   6.560   6.015  1.00  0.00     0.039 A 
ATOM     42  C   UNL     1      -3.100   5.533   6.761  1.00  0.00     0.014 A 
ATOM     43  C   UNL     1      -3.355   7.649   5.669  1.00  0.00     0.014 A 
ATOM     44  C   UNL     1      -4.478   5.444   6.912  1.00  0.00     0.010 A 
ATOM     45  C   UNL     1      -4.727   7.639   5.972  1.00  0.00     0.010 A 
ATOM     46  C   UNL     1      -5.319   6.499   6.534  1.00  0.00    -0.014 A 
BRANCH  46  47
ATOM     47  C   UNL     1      -6.791   6.362   6.737  1.00  0.00     0.031 A 
ATOM     48  C   UNL     1      -7.751   6.492   5.579  1.00  0.00     0.074 A 
ATOM     49  C   UNL     1      -7.267   6.027   7.956  1.00  0.00     0.049 A 
ATOM     50  N   UNL     1      -9.059   6.406   5.576  1.00  0.00    -0.248 NA
ATOM     51  C   UNL     1      -7.172   6.761   4.253  1.00  0.00     0.031 C 
ATOM     52  C   UNL     1      -6.455   5.853   9.165  1.00  0.00     0.029 A 
ATOM     53  N   UNL     1      -8.540   5.732   8.377  1.00  0.00    -0.354 N 
ATOM     54  C   UNL     1      -9.457   6.641   4.264  1.00  0.00     0.074 A 
ATOM     55  C   UNL     1      -8.255   6.903   3.502  1.00  0.00     0.031 C 
ATOM     56  C   UNL     1      -7.230   5.403  10.161  1.00  0.00     0.029 A 
ATOM     57  C   UNL     1      -8.610   5.355   9.698  1.00  0.00     0.049 A 
ATOM     58  H   UNL     1      -9.328   5.785   7.789  1.00  0.00     0.167 HD
ATOM     59  C   UNL     1     -10.706   6.628   3.737  1.00  0.00     0.037 A 
ATOM     60  C   UNL     1      -9.667   5.035  10.466  1.00  0.00     0.037 A 
ATOM     61  C   UNL     1     -11.901   6.335   4.486  1.00  0.00     0.049 A 
ATOM     62  C   UNL     1     -11.042   5.079   9.868  1.00  0.00     0.074 A 
ATOM     63  C   UNL     1     -13.212   6.294   4.039  1.00  0.00     0.029 A 
ATOM     64  N   UNL     1     -11.931   6.021   5.836  1.00  0.00    -0.354 N 
ATOM     65  N   UNL     1     -11.398   5.327   8.631  1.00  0.00    -0.248 NA
ATOM     66  C   UNL     1     -12.165   4.819  10.778  1.00  0.00     0.031 C 
ATOM     67  C   UNL     1     -14.038   5.993   5.128  1.00  0.00     0.029 A 
ATOM     68  C   UNL     1     -13.238   5.801   6.242  1.00  0.00     0.049 A 
ATOM     69  H   UNL     1     -11.141   5.963   6.420  1.00  0.00     0.167 HD
ATOM     70  C   UNL     1     -12.783   5.242   8.613  1.00  0.00     0.074 A 
ATOM     71  C   UNL     1     -13.199   4.889   9.954  1.00  0.00     0.031 C 
ATOM     72  C   UNL     1     -13.636   5.449   7.580  1.00  0.00     0.037 A 
BRANCH  59  73
ATOM     73  C   UNL     1     -10.849   6.957   2.278  1.00  0.00     0.057 A 
ATOM     74  C   UNL     1     -11.437   8.163   1.874  1.00  0.00     0.134 A 
ATOM     75  C   UNL     1     -10.445   6.069   1.272  1.00  0.00     0.134 A 
ATOM     76  F   UNL     1     -11.853   9.057   2.784  1.00  0.00    -0.206 F 
ATOM     77  C   UNL     1     -11.622   8.471   0.525  1.00  0.00     0.040 A 
ATOM     78  C   UNL     1     -10.604   6.377  -0.081  1.00  0.00     0.040 A 
ATOM     79  F   UNL     1      -9.861   4.904   1.588  1.00  0.00    -0.206 F 
ATOM     80  C   UNL     1     -11.200   7.578  -0.458  1.00  0.00     0.006 A 
ENDBRANCH  59  73
BRANCH  60  81
ATOM     81  C   UNL     1      -9.478   4.694  11.900  1.00  0.00     0.057 A 
ATOM     82  C   UNL     1      -9.041   5.651  12.825  1.00  0.00     0.134 A 
ATOM     83  C   UNL     1      -9.764   3.413  12.387  1.00  0.00     0.134 A 
ATOM     84  F   UNL     1      -8.747   6.897  12.422  1.00  0.00    -0.206 F 
ATOM     85  C   UNL     1      -8.885   5.347  14.177  1.00  0.00     0.040 A 
ATOM     86  C   UNL     1      -9.644   3.103  13.744  1.00  0.00     0.040 A 
ATOM     87  F   UNL     1     -10.209   2.458  11.557  1.00  0.00    -0.206 F 
ATOM     88  C   UNL     1      -9.198   4.072  14.642  1.00  0.00     0.006 A 
ENDBRANCH  60  81
BRANCH  72  89
ATOM     89  C   UNL     1     -15.096   5.263   7.865  1.00  0.00     0.057 A 
ATOM     90  C   UNL     1     -15.785   4.151   7.365  1.00  0.00     0.134 A 
ATOM     91  C   UNL     1     -15.819   6.181   8.638  1.00  0.00     0.134 A 
ATOM     92  F   UNL     1     -15.151   3.238   6.614  1.00  0.00    -0.206 F 
ATOM     93  C   UNL     1     -17.141   3.956   7.628  1.00  0.00     0.040 A 
ATOM     94  C   UNL     1     -17.169   5.983   8.930  1.00  0.00     0.040 A 
ATOM     95  F   UNL     1     -15.212   7.257   9.161  1.00  0.00    -0.206 F 
ATOM     96  C   UNL     1     -17.834   4.869   8.421  1.00  0.00     0.006 A 
ENDBRANCH  72  89
ENDBRANCH  46  47
ENDBRANCH  38  41
ENDBRANCH  36  37
ENDBRANCH   1  36
TORSDOF 11
