REMARK SMILES CCn1cnc(S(=O)(=O)N[C@H](Cc2cnc[nH]2)C(=O)NCCCNC(=O)c2ccc(-c3c4nc(c(-c5c(F)cccc5F)c5ccc([nH]5)c(-c5c(F)cccc5F)c5nc(c(-c6c(F)cccc6F)c6ccc3[nH]6)C=C5)C=C4)cc2)c1
REMARK SMILES IDX 21 1 20 2 18 3 19 4 11 6 10 7 7 9 8 10 9 11 6 12 3 13 4 14
REMARK SMILES IDX 81 15 5 16 2 17 1 18 12 19 13 20 14 21 17 22 15 23 16 24
REMARK SMILES IDX 22 26 23 27 24 28 25 29 26 31 27 32 28 33 80 34 29 35 79 36
REMARK SMILES IDX 30 37 31 38 32 39 73 40 33 41 78 42 72 43 74 44 34 45 77 46
REMARK SMILES IDX 71 47 70 48 35 50 61 51 44 52 60 53 45 54 48 55 59 56 75 57
REMARK SMILES IDX 46 58 47 59 58 61 76 62 49 63 36 64 37 65 42 66 38 67 39 68
REMARK SMILES IDX 41 69 43 70 40 71 62 72 63 73 68 74 64 75 65 76 67 77 69 78
REMARK SMILES IDX 66 79 50 80 51 81 56 82 52 83 53 84 55 85 57 86 54 87
REMARK H PARENT 20 5 10 8 17 25 24 30 74 49 48 60
REMARK Flexibility Score: inf
ROOT
ATOM      1  C   UNL     1       4.728  -4.489   7.397  1.00  0.00     0.117 C 
ENDROOT
BRANCH   1   2
ATOM      2  N   UNL     1       4.003  -4.935   6.224  1.00  0.00    -0.355 N 
ATOM      3  C   UNL     1       3.504  -4.238   5.174  1.00  0.00     0.238 C 
ATOM      4  O   UNL     1       2.935  -4.878   4.283  1.00  0.00    -0.273 OA
ATOM      5  H   UNL     1       3.847  -5.906   6.183  1.00  0.00     0.163 HD
BRANCH   3   6
ATOM      6  C   UNL     1       3.583  -2.719   5.081  1.00  0.00     0.165 C 
BRANCH   6   7
ATOM      7  N   UNL     1       4.923  -2.066   5.125  1.00  0.00    -0.197 NA
ATOM      8  H   UNL     1       4.804  -1.111   4.787  1.00  0.00     0.142 HD
BRANCH   7   9
ATOM      9  S   UNL     1       6.196  -2.759   4.231  1.00  0.00     0.260 S 
ATOM     10  O   UNL     1       6.445  -4.062   4.793  1.00  0.00    -0.205 OA
ATOM     11  O   UNL     1       7.226  -1.738   4.209  1.00  0.00    -0.205 OA
BRANCH   9  12
ATOM     12  C   UNL     1       5.767  -3.006   2.568  1.00  0.00     0.188 A 
ATOM     13  N   UNL     1       4.832  -2.867   0.601  1.00  0.00    -0.336 N 
ATOM     14  C   UNL     1       5.816  -3.813   0.581  1.00  0.00     0.201 A 
ATOM     15  C   UNL     1       4.812  -2.312   1.852  1.00  0.00     0.129 A 
ATOM     16  N   UNL     1       6.392  -3.935   1.754  1.00  0.00    -0.224 NA
BRANCH  13  17
ATOM     17  C   UNL     1       3.990  -2.473  -0.509  1.00  0.00     0.120 C 
ATOM     18  C   UNL     1       3.397  -3.640  -1.283  1.00  0.00     0.027 C 
ENDBRANCH  13  17
ENDBRANCH   9  12
ENDBRANCH   7   9
ENDBRANCH   6   7
BRANCH   6  19
ATOM     19  C   UNL     1       2.543  -2.017   5.992  1.00  0.00     0.085 C 
BRANCH  19  20
ATOM     20  C   UNL     1       3.028  -1.463   7.294  1.00  0.00     0.037 A 
ATOM     21  C   UNL     1       2.669  -1.729   8.599  1.00  0.00     0.134 A 
ATOM     22  N   UNL     1       3.941  -0.439   7.399  1.00  0.00    -0.348 N 
ATOM     23  N   UNL     1       3.436  -1.009   9.474  1.00  0.00    -0.245 NA
ATOM     24  C   UNL     1       4.201  -0.249   8.726  1.00  0.00     0.196 A 
ATOM     25  H   UNL     1       4.336   0.066   6.652  1.00  0.00     0.167 HD
ENDBRANCH  19  20
ENDBRANCH   6  19
ENDBRANCH   3   6
ENDBRANCH   1   2
BRANCH   1  26
ATOM     26  C   UNL     1       3.984  -4.854   8.668  1.00  0.00     0.042 C 
BRANCH  26  27
ATOM     27  C   UNL     1       4.074  -6.332   8.998  1.00  0.00     0.118 C 
BRANCH  27  28
ATOM     28  N   UNL     1       5.411  -6.719   9.426  1.00  0.00    -0.352 N 
ATOM     29  C   UNL     1       5.827  -7.224  10.632  1.00  0.00     0.251 C 
ATOM     30  H   UNL     1       6.119  -6.601   8.752  1.00  0.00     0.163 HD
ATOM     31  O   UNL     1       7.024  -7.289  10.893  1.00  0.00    -0.269 OA
BRANCH  29  32
ATOM     32  C   UNL     1       4.830  -7.681  11.622  1.00  0.00     0.039 A 
ATOM     33  C   UNL     1       5.030  -7.389  12.973  1.00  0.00     0.014 A 
ATOM     34  C   UNL     1       3.708  -8.410  11.220  1.00  0.00     0.014 A 
ATOM     35  C   UNL     1       4.079  -7.789  13.913  1.00  0.00     0.010 A 
ATOM     36  C   UNL     1       2.715  -8.717  12.140  1.00  0.00     0.010 A 
ATOM     37  C   UNL     1       2.901  -8.432  13.500  1.00  0.00    -0.014 A 
BRANCH  37  38
ATOM     38  C   UNL     1       1.873  -8.870  14.475  1.00  0.00     0.031 A 
ATOM     39  C   UNL     1       1.560 -10.335  14.616  1.00  0.00     0.074 A 
ATOM     40  C   UNL     1       1.185  -7.955  15.184  1.00  0.00     0.049 A 
ATOM     41  N   UNL     1       0.638 -10.920  15.337  1.00  0.00    -0.248 NA
ATOM     42  C   UNL     1       2.369 -11.266  13.810  1.00  0.00     0.031 C 
ATOM     43  C   UNL     1       1.361  -6.504  15.096  1.00  0.00     0.029 A 
ATOM     44  N   UNL     1       0.190  -8.114  16.114  1.00  0.00    -0.354 N 
ATOM     45  C   UNL     1       0.744 -12.276  15.056  1.00  0.00     0.074 A 
ATOM     46  C   UNL     1       1.774 -12.423  14.052  1.00  0.00     0.031 C 
ATOM     47  C   UNL     1       0.520  -5.907  15.957  1.00  0.00     0.029 A 
ATOM     48  C   UNL     1      -0.275  -6.929  16.630  1.00  0.00     0.049 A 
ATOM     49  H   UNL     1      -0.159  -8.993  16.386  1.00  0.00     0.167 HD
ATOM     50  C   UNL     1       0.068 -13.311  15.607  1.00  0.00     0.037 A 
ATOM     51  C   UNL     1      -1.236  -6.697  17.544  1.00  0.00     0.037 A 
ATOM     52  C   UNL     1      -0.928 -13.165  16.634  1.00  0.00     0.049 A 
ATOM     53  C   UNL     1      -1.955  -7.865  18.160  1.00  0.00     0.074 A 
ATOM     54  C   UNL     1      -1.646 -14.150  17.288  1.00  0.00     0.029 A 
ATOM     55  N   UNL     1      -1.335 -11.951  17.165  1.00  0.00    -0.354 N 
ATOM     56  N   UNL     1      -1.812  -9.146  17.918  1.00  0.00    -0.248 NA
ATOM     57  C   UNL     1      -2.961  -7.556  19.186  1.00  0.00     0.031 C 
ATOM     58  C   UNL     1      -2.506 -13.530  18.201  1.00  0.00     0.029 A 
ATOM     59  C   UNL     1      -2.296 -12.161  18.139  1.00  0.00     0.049 A 
ATOM     60  H   UNL     1      -0.992 -11.070  16.890  1.00  0.00     0.167 HD
ATOM     61  C   UNL     1      -2.684  -9.796  18.781  1.00  0.00     0.074 A 
ATOM     62  C   UNL     1      -3.343  -8.768  19.561  1.00  0.00     0.031 C 
ATOM     63  C   UNL     1      -2.922 -11.123  18.915  1.00  0.00     0.037 A 
BRANCH  50  64
ATOM     64  C   UNL     1       0.406 -14.691  15.121  1.00  0.00     0.057 A 
ATOM     65  C   UNL     1       1.631 -15.298  15.428  1.00  0.00     0.134 A 
ATOM     66  C   UNL     1      -0.505 -15.426  14.354  1.00  0.00     0.134 A 
ATOM     67  F   UNL     1       2.555 -14.640  16.145  1.00  0.00    -0.206 F 
ATOM     68  C   UNL     1       1.950 -16.576  14.965  1.00  0.00     0.040 A 
ATOM     69  C   UNL     1      -0.209 -16.716  13.909  1.00  0.00     0.040 A 
ATOM     70  F   UNL     1      -1.698 -14.906  14.027  1.00  0.00    -0.206 F 
ATOM     71  C   UNL     1       1.025 -17.291  14.208  1.00  0.00     0.006 A 
ENDBRANCH  50  64
BRANCH  51  72
ATOM     72  C   UNL     1      -1.553  -5.308  17.958  1.00  0.00     0.057 A 
ATOM     73  C   UNL     1      -1.213  -4.841  19.233  1.00  0.00     0.134 A 
ATOM     74  C   UNL     1      -2.214  -4.420  17.101  1.00  0.00     0.134 A 
ATOM     75  F   UNL     1      -0.593  -5.651  20.105  1.00  0.00    -0.206 F 
ATOM     76  C   UNL     1      -1.541  -3.550  19.652  1.00  0.00     0.040 A 
ATOM     77  C   UNL     1      -2.527  -3.119  17.498  1.00  0.00     0.040 A 
ATOM     78  F   UNL     1      -2.559  -4.804  15.864  1.00  0.00    -0.206 F 
ATOM     79  C   UNL     1      -2.197  -2.684  18.780  1.00  0.00     0.006 A 
ENDBRANCH  51  72
BRANCH  63  80
ATOM     80  C   UNL     1      -3.900 -11.537  19.974  1.00  0.00     0.057 A 
ATOM     81  C   UNL     1      -5.278 -11.346  19.822  1.00  0.00     0.134 A 
ATOM     82  C   UNL     1      -3.455 -12.162  21.145  1.00  0.00     0.134 A 
ATOM     83  F   UNL     1      -5.765 -10.741  18.728  1.00  0.00    -0.206 F 
ATOM     84  C   UNL     1      -6.180 -11.742  20.811  1.00  0.00     0.040 A 
ATOM     85  C   UNL     1      -4.348 -12.585  22.129  1.00  0.00     0.040 A 
ATOM     86  F   UNL     1      -2.147 -12.382  21.346  1.00  0.00    -0.206 F 
ATOM     87  C   UNL     1      -5.715 -12.369  21.966  1.00  0.00     0.006 A 
ENDBRANCH  63  80
ENDBRANCH  37  38
ENDBRANCH  29  32
ENDBRANCH  27  28
ENDBRANCH  26  27
ENDBRANCH   1  26
TORSDOF 16
