REMARK SMILES O=C(Cn1c(-c2nc(-c3ccc(C(F)(F)F)cc3)no2)cc2ccccc21)NCCCNC(=O)c1ccc(-c2c3nc(c(-c4c(F)cccc4F)c4ccc([nH]4)c(-c4c(F)cccc4F)c4nc(c(-c5c(F)cccc5F)c5ccc2[nH]5)C=C4)C=C3)cc1
REMARK SMILES IDX 29 1 28 2 1 3 2 4 3 6 4 7 5 8 27 9 21 10 22 11 26 12 23 13
REMARK SMILES IDX 25 14 24 15 6 16 7 17 20 18 8 19 19 20 9 21 10 22 18 23
REMARK SMILES IDX 11 24 17 25 12 26 13 27 14 28 15 29 16 30 30 31 31 32 32 33
REMARK SMILES IDX 33 34 34 36 35 37 36 38 88 39 37 40 87 41 38 42 39 43 40 44
REMARK SMILES IDX 81 45 41 46 86 47 80 48 82 49 42 50 85 51 79 52 78 53 43 55
REMARK SMILES IDX 69 56 52 57 68 58 53 59 56 60 67 61 83 62 54 63 55 64 66 66
REMARK SMILES IDX 84 67 57 68 44 69 45 70 50 71 46 72 47 73 49 74 51 75 48 76
REMARK SMILES IDX 70 77 71 78 76 79 72 80 73 81 75 82 77 83 74 84 58 85 59 86
REMARK SMILES IDX 64 87 60 88 61 89 63 90 65 91 62 92
REMARK H PARENT 28 5 32 35 82 54 56 65
REMARK Flexibility Score: inf
ROOT
ATOM      1  C   UNL     1       2.324   1.171   2.186  1.00  0.00     0.117 C 
ENDROOT
BRANCH   1   2
ATOM      2  N   UNL     1       2.916   0.459   1.069  1.00  0.00    -0.354 N 
ATOM      3  O   UNL     1       0.935  -0.312   0.201  1.00  0.00    -0.273 OA
ATOM      4  C   UNL     1       2.138  -0.143   0.094  1.00  0.00     0.239 C 
ATOM      5  H   UNL     1       3.896   0.403   1.002  1.00  0.00     0.163 HD
BRANCH   4   6
ATOM      6  C   UNL     1       2.917  -0.664  -1.092  1.00  0.00     0.222 C 
BRANCH   6   7
ATOM      7  N   UNL     1       3.584   0.312  -1.961  1.00  0.00    -0.327 N 
ATOM      8  C   UNL     1       3.411   1.679  -2.066  1.00  0.00     0.109 A 
ATOM      9  C   UNL     1       4.616  -0.085  -2.821  1.00  0.00     0.049 A 
ATOM     10  C   UNL     1       4.299   2.139  -3.022  1.00  0.00     0.042 A 
ATOM     11  C   UNL     1       5.079   1.056  -3.478  1.00  0.00     0.000 A 
ATOM     12  C   UNL     1       5.197  -1.345  -3.063  1.00  0.00     0.027 A 
ATOM     13  C   UNL     1       6.160   0.957  -4.375  1.00  0.00     0.010 A 
ATOM     14  C   UNL     1       6.272  -1.421  -3.958  1.00  0.00     0.002 A 
ATOM     15  C   UNL     1       6.752  -0.287  -4.603  1.00  0.00     0.001 A 
BRANCH   8  16
ATOM     16  C   UNL     1       2.644   2.554  -1.233  1.00  0.00     0.274 A 
ATOM     17  N   UNL     1       1.333   2.645  -1.128  1.00  0.00    -0.185 NA
ATOM     18  O   UNL     1       3.294   3.488  -0.474  1.00  0.00    -0.332 OA
ATOM     19  C   UNL     1       1.173   3.710  -0.252  1.00  0.00     0.202 A 
ATOM     20  N   UNL     1       2.335   4.235   0.168  1.00  0.00    -0.057 NA
BRANCH  19  21
ATOM     21  C   UNL     1      -0.105   4.249   0.220  1.00  0.00     0.023 A 
ATOM     22  C   UNL     1      -0.095   5.329   1.124  1.00  0.00     0.013 A 
ATOM     23  C   UNL     1      -1.342   3.736  -0.182  1.00  0.00     0.013 A 
ATOM     24  C   UNL     1      -1.278   5.877   1.621  1.00  0.00     0.014 A 
ATOM     25  C   UNL     1      -2.537   4.289   0.316  1.00  0.00     0.014 A 
ATOM     26  C   UNL     1      -2.516   5.361   1.225  1.00  0.00     0.056 A 
BRANCH  26  27
ATOM     27  C   UNL     1      -3.776   5.963   1.801  1.00  0.00     0.416 C 
ATOM     28  F   UNL     1      -3.860   5.791   3.150  1.00  0.00    -0.166 F 
ATOM     29  F   UNL     1      -3.852   7.308   1.595  1.00  0.00    -0.166 F 
ATOM     30  F   UNL     1      -4.922   5.441   1.285  1.00  0.00    -0.166 F 
ENDBRANCH  26  27
ENDBRANCH  19  21
ENDBRANCH   8  16
ENDBRANCH   6   7
ENDBRANCH   4   6
ENDBRANCH   1   2
BRANCH   1  31
ATOM     31  C   UNL     1       2.893   0.767   3.541  1.00  0.00     0.042 C 
BRANCH  31  32
ATOM     32  C   UNL     1       4.415   0.863   3.646  1.00  0.00     0.118 C 
BRANCH  32  33
ATOM     33  N   UNL     1       4.977   2.141   3.259  1.00  0.00    -0.352 N 
ATOM     34  C   UNL     1       5.372   3.256   3.941  1.00  0.00     0.251 C 
ATOM     35  H   UNL     1       5.102   2.224   2.286  1.00  0.00     0.163 HD
ATOM     36  O   UNL     1       6.092   4.043   3.322  1.00  0.00    -0.269 OA
BRANCH  34  37
ATOM     37  C   UNL     1       4.918   3.626   5.306  1.00  0.00     0.039 A 
ATOM     38  C   UNL     1       4.099   2.852   6.128  1.00  0.00     0.014 A 
ATOM     39  C   UNL     1       5.262   4.927   5.721  1.00  0.00     0.014 A 
ATOM     40  C   UNL     1       3.520   3.410   7.261  1.00  0.00     0.010 A 
ATOM     41  C   UNL     1       4.701   5.484   6.857  1.00  0.00     0.010 A 
ATOM     42  C   UNL     1       3.776   4.743   7.583  1.00  0.00    -0.014 A 
BRANCH  42  43
ATOM     43  C   UNL     1       3.115   5.313   8.749  1.00  0.00     0.031 A 
ATOM     44  C   UNL     1       3.535   4.712  10.046  1.00  0.00     0.074 A 
ATOM     45  C   UNL     1       2.301   6.385   8.652  1.00  0.00     0.049 A 
ATOM     46  N   UNL     1       2.807   4.105  10.925  1.00  0.00    -0.248 NA
ATOM     47  C   UNL     1       4.979   4.665  10.334  1.00  0.00     0.031 C 
ATOM     48  C   UNL     1       2.038   7.209   7.468  1.00  0.00     0.029 A 
ATOM     49  N   UNL     1       1.611   7.036   9.629  1.00  0.00    -0.354 N 
ATOM     50  C   UNL     1       3.669   3.777  11.974  1.00  0.00     0.074 A 
ATOM     51  C   UNL     1       5.002   3.986  11.480  1.00  0.00     0.031 C 
ATOM     52  C   UNL     1       1.451   8.366   7.848  1.00  0.00     0.029 A 
ATOM     53  C   UNL     1       1.181   8.309   9.274  1.00  0.00     0.049 A 
ATOM     54  H   UNL     1       1.433   6.638  10.512  1.00  0.00     0.167 HD
ATOM     55  C   UNL     1       3.204   3.606  13.243  1.00  0.00     0.037 A 
ATOM     56  C   UNL     1       0.708   9.266  10.112  1.00  0.00     0.037 A 
ATOM     57  C   UNL     1       1.791   3.317  13.239  1.00  0.00     0.049 A 
ATOM     58  C   UNL     1       0.318   8.599  11.380  1.00  0.00     0.074 A 
ATOM     59  C   UNL     1       0.995   2.318  12.713  1.00  0.00     0.029 A 
ATOM     60  N   UNL     1       0.930   4.333  13.575  1.00  0.00    -0.354 N 
ATOM     61  N   UNL     1      -0.700   7.793  11.490  1.00  0.00    -0.248 NA
ATOM     62  C   UNL     1       1.339   8.461  12.408  1.00  0.00     0.031 C 
ATOM     63  C   UNL     1      -0.207   2.974  12.314  1.00  0.00     0.029 A 
ATOM     64  C   UNL     1      -0.096   4.318  12.671  1.00  0.00     0.049 A 
ATOM     65  H   UNL     1       1.033   4.957  14.329  1.00  0.00     0.167 HD
ATOM     66  C   UNL     1      -0.253   6.772  12.315  1.00  0.00     0.074 A 
ATOM     67  C   UNL     1       0.982   7.277  12.914  1.00  0.00     0.031 C 
ATOM     68  C   UNL     1      -0.764   5.510  12.213  1.00  0.00     0.037 A 
BRANCH  55  69
ATOM     69  C   UNL     1       3.903   4.149  14.478  1.00  0.00     0.057 A 
ATOM     70  C   UNL     1       4.935   5.109  14.462  1.00  0.00     0.134 A 
ATOM     71  C   UNL     1       3.280   3.974  15.730  1.00  0.00     0.134 A 
ATOM     72  F   UNL     1       5.650   5.395  13.370  1.00  0.00    -0.206 F 
ATOM     73  C   UNL     1       5.241   5.911  15.565  1.00  0.00     0.040 A 
ATOM     74  C   UNL     1       3.549   4.803  16.827  1.00  0.00     0.040 A 
ATOM     75  F   UNL     1       2.311   3.062  15.898  1.00  0.00    -0.206 F 
ATOM     76  C   UNL     1       4.514   5.795  16.737  1.00  0.00     0.006 A 
ENDBRANCH  55  69
BRANCH  56  77
ATOM     77  C   UNL     1       0.863  10.736  10.012  1.00  0.00     0.057 A 
ATOM     78  C   UNL     1       1.983  11.314   9.388  1.00  0.00     0.134 A 
ATOM     79  C   UNL     1       0.055  11.611  10.752  1.00  0.00     0.134 A 
ATOM     80  F   UNL     1       2.873  10.560   8.727  1.00  0.00    -0.206 F 
ATOM     81  C   UNL     1       2.286  12.675   9.496  1.00  0.00     0.040 A 
ATOM     82  C   UNL     1       0.350  12.977  10.874  1.00  0.00     0.040 A 
ATOM     83  F   UNL     1      -1.009  11.150  11.425  1.00  0.00    -0.206 F 
ATOM     84  C   UNL     1       1.474  13.511  10.251  1.00  0.00     0.006 A 
ENDBRANCH  56  77
BRANCH  68  85
ATOM     85  C   UNL     1      -1.981   5.319  11.354  1.00  0.00     0.057 A 
ATOM     86  C   UNL     1      -3.130   4.767  11.928  1.00  0.00     0.134 A 
ATOM     87  C   UNL     1      -2.001   5.529   9.967  1.00  0.00     0.134 A 
ATOM     88  F   UNL     1      -3.160   4.482  13.239  1.00  0.00    -0.206 F 
ATOM     89  C   UNL     1      -4.255   4.452  11.164  1.00  0.00     0.040 A 
ATOM     90  C   UNL     1      -3.133   5.250   9.195  1.00  0.00     0.040 A 
ATOM     91  F   UNL     1      -0.912   5.955   9.315  1.00  0.00    -0.206 F 
ATOM     92  C   UNL     1      -4.264   4.704   9.795  1.00  0.00     0.006 A 
ENDBRANCH  68  85
ENDBRANCH  42  43
ENDBRANCH  34  37
ENDBRANCH  32  33
ENDBRANCH  31  32
ENDBRANCH   1  31
TORSDOF 14
