REMARK SMILES COc1ccc(N2C(=O)/C(=C/c3c(C(=O)NCCCNC(=O)c4ccc(-c5c6nc(c(-c7c(F)cccc7F)c7ccc([nH]7)c(-c7c(F)cccc7F)c7nc(c(-c8c(F)cccc8F)c8ccc5[nH]8)C=C7)C=C6)cc4)[nH]c4cc(OC)ccc34)SC2=S)cc1
REMARK SMILES IDX 17 1 16 2 14 3 15 4 13 6 12 7 85 8 77 9 78 10 84 11 79 13
REMARK SMILES IDX 83 14 80 15 11 16 7 17 8 18 87 19 9 20 10 21 86 22 88 23
REMARK SMILES IDX 6 24 3 25 4 26 90 27 5 28 89 29 2 30 1 31 81 32 82 33 18 34
REMARK SMILES IDX 19 35 20 36 21 37 22 39 23 40 24 41 76 42 25 43 75 44 26 45
REMARK SMILES IDX 27 46 28 47 69 48 29 49 74 50 68 51 70 52 30 53 73 54 67 55
REMARK SMILES IDX 66 56 31 58 57 59 40 60 56 61 41 62 44 63 55 64 71 65 42 66
REMARK SMILES IDX 43 67 54 69 72 70 45 71 32 72 33 73 38 74 34 75 35 76 37 77
REMARK SMILES IDX 39 78 36 79 58 80 59 81 64 82 60 83 61 84 63 85 65 86 62 87
REMARK SMILES IDX 46 88 47 89 52 90 48 91 49 92 51 93 53 94 50 95
REMARK H PARENT 16 5 77 12 20 38 70 57 44 68
REMARK Flexibility Score: inf
ROOT
ATOM      1  C   UNL     1       1.012   9.544   0.149  1.00  0.00     0.118 C 
ENDROOT
BRANCH   1   2
ATOM      2  N   UNL     1       2.151   9.562  -0.753  1.00  0.00    -0.351 N 
ATOM      3  C   UNL     1       3.300  10.310  -0.633  1.00  0.00     0.268 C 
ATOM      4  O   UNL     1       4.057  10.374  -1.595  1.00  0.00    -0.268 OA
ATOM      5  H   UNL     1       2.094   8.972  -1.539  1.00  0.00     0.163 HD
BRANCH   3   6
ATOM      6  C   UNL     1       3.511  11.075   0.572  1.00  0.00     0.112 A 
ATOM      7  C   UNL     1       3.381  10.816   1.941  1.00  0.00     0.014 A 
ATOM      8  C   UNL     1       3.239  12.130   2.558  1.00  0.00     0.008 A 
ATOM      9  N   UNL     1       3.959  12.363   0.464  1.00  0.00    -0.350 N 
ATOM     10  C   UNL     1       3.567  13.062   1.568  1.00  0.00     0.050 A 
ATOM     11  C   UNL     1       2.823  12.677   3.802  1.00  0.00     0.015 A 
ATOM     12  H   UNL     1       4.479  12.726  -0.289  1.00  0.00     0.167 HD
ATOM     13  C   UNL     1       3.459  14.447   1.708  1.00  0.00     0.073 A 
ATOM     14  C   UNL     1       2.686  14.090   3.956  1.00  0.00     0.047 A 
ATOM     15  C   UNL     1       2.985  14.958   2.908  1.00  0.00     0.120 A 
BRANCH   7  16
ATOM     16  C   UNL     1       3.149   9.468   2.449  1.00  0.00     0.032 C 
ATOM     17  N   UNL     1       3.635   6.197   0.932  1.00  0.00    -0.261 N 
ATOM     18  C   UNL     1       3.082   6.976   1.963  1.00  0.00     0.270 C 
ATOM     19  C   UNL     1       4.681   6.772   0.226  1.00  0.00     0.152 C 
ATOM     20  O   UNL     1       2.098   6.722   2.645  1.00  0.00    -0.268 OA
ATOM     21  C   UNL     1       3.747   8.339   1.986  1.00  0.00     0.081 C 
ATOM     22  S   UNL     1       5.179   8.255   1.027  1.00  0.00    -0.054 SA
ATOM     23  S   UNL     1       5.463   6.233  -1.150  1.00  0.00    -0.051 S 
BRANCH  17  24
ATOM     24  C   UNL     1       3.088   4.926   0.560  1.00  0.00     0.051 A 
ATOM     25  C   UNL     1       2.204   2.372  -0.302  1.00  0.00     0.119 A 
ATOM     26  C   UNL     1       1.966   3.504  -1.075  1.00  0.00     0.048 A 
ATOM     27  C   UNL     1       2.941   2.506   0.874  1.00  0.00     0.048 A 
ATOM     28  C   UNL     1       2.404   4.768  -0.653  1.00  0.00     0.030 A 
ATOM     29  C   UNL     1       3.369   3.778   1.310  1.00  0.00     0.030 A 
BRANCH  25  30
ATOM     30  O   UNL     1       1.711   1.204  -0.817  1.00  0.00    -0.497 OA
ATOM     31  C   UNL     1       1.443   0.167   0.122  1.00  0.00     0.278 C 
ENDBRANCH  25  30
ENDBRANCH  17  24
ENDBRANCH   7  16
BRANCH  15  32
ATOM     32  O   UNL     1       2.763  16.306   2.866  1.00  0.00    -0.497 OA
ATOM     33  C   UNL     1       3.038  17.052   4.040  1.00  0.00     0.278 C 
ENDBRANCH  15  32
ENDBRANCH   3   6
ENDBRANCH   1   2
BRANCH   1  34
ATOM     34  C   UNL     1      -0.282   9.074  -0.485  1.00  0.00     0.042 C 
BRANCH  34  35
ATOM     35  C   UNL     1      -0.285   7.590  -0.824  1.00  0.00     0.118 C 
BRANCH  35  36
ATOM     36  N   UNL     1      -0.212   6.685   0.315  1.00  0.00    -0.352 N 
ATOM     37  C   UNL     1      -0.611   5.370   0.435  1.00  0.00     0.251 C 
ATOM     38  H   UNL     1       0.185   7.073   1.128  1.00  0.00     0.163 HD
ATOM     39  O   UNL     1      -0.503   4.816   1.527  1.00  0.00    -0.269 OA
BRANCH  37  40
ATOM     40  C   UNL     1      -1.236   4.628  -0.693  1.00  0.00     0.039 A 
ATOM     41  C   UNL     1      -2.120   3.588  -0.377  1.00  0.00     0.014 A 
ATOM     42  C   UNL     1      -1.032   4.961  -2.034  1.00  0.00     0.014 A 
ATOM     43  C   UNL     1      -2.934   3.042  -1.366  1.00  0.00     0.010 A 
ATOM     44  C   UNL     1      -1.898   4.492  -3.006  1.00  0.00     0.010 A 
ATOM     45  C   UNL     1      -2.905   3.593  -2.654  1.00  0.00    -0.014 A 
BRANCH  45  46
ATOM     46  C   UNL     1      -4.063   3.466  -3.561  1.00  0.00     0.031 A 
ATOM     47  C   UNL     1      -3.925   2.818  -4.900  1.00  0.00     0.074 A 
ATOM     48  C   UNL     1      -5.186   4.119  -3.197  1.00  0.00     0.049 A 
ATOM     49  N   UNL     1      -4.819   2.697  -5.844  1.00  0.00    -0.248 NA
ATOM     50  C   UNL     1      -2.602   2.272  -5.243  1.00  0.00     0.031 C 
ATOM     51  C   UNL     1      -5.347   4.895  -1.958  1.00  0.00     0.029 A 
ATOM     52  N   UNL     1      -6.393   4.261  -3.825  1.00  0.00    -0.354 N 
ATOM     53  C   UNL     1      -4.175   2.046  -6.887  1.00  0.00     0.074 A 
ATOM     54  C   UNL     1      -2.796   1.865  -6.490  1.00  0.00     0.031 C 
ATOM     55  C   UNL     1      -6.588   5.396  -1.902  1.00  0.00     0.029 A 
ATOM     56  C   UNL     1      -7.298   5.013  -3.112  1.00  0.00     0.049 A 
ATOM     57  H   UNL     1      -6.595   3.864  -4.702  1.00  0.00     0.167 HD
ATOM     58  C   UNL     1      -4.709   1.619  -8.056  1.00  0.00     0.037 A 
ATOM     59  C   UNL     1      -8.564   5.352  -3.407  1.00  0.00     0.037 A 
ATOM     60  C   UNL     1      -6.085   1.840  -8.420  1.00  0.00     0.049 A 
ATOM     61  C   UNL     1      -9.133   4.845  -4.699  1.00  0.00     0.074 A 
ATOM     62  C   UNL     1      -6.760   1.424  -9.552  1.00  0.00     0.029 A 
ATOM     63  N   UNL     1      -6.997   2.552  -7.649  1.00  0.00    -0.354 N 
ATOM     64  N   UNL     1      -8.546   4.133  -5.633  1.00  0.00    -0.248 NA
ATOM     65  C   UNL     1     -10.536   5.169  -4.976  1.00  0.00     0.031 C 
ATOM     66  C   UNL     1      -8.068   1.915  -9.484  1.00  0.00     0.029 A 
ATOM     67  C   UNL     1      -8.225   2.595  -8.285  1.00  0.00     0.049 A 
ATOM     68  H   UNL     1      -6.798   2.966  -6.777  1.00  0.00     0.167 HD
ATOM     69  C   UNL     1      -9.516   3.896  -6.594  1.00  0.00     0.074 A 
ATOM     70  C   UNL     1     -10.733   4.524  -6.116  1.00  0.00     0.031 C 
ATOM     71  C   UNL     1      -9.414   3.225  -7.768  1.00  0.00     0.037 A 
BRANCH  58  72
ATOM     72  C   UNL     1      -3.817   0.856  -8.993  1.00  0.00     0.057 A 
ATOM     73  C   UNL     1      -3.341  -0.423  -8.669  1.00  0.00     0.134 A 
ATOM     74  C   UNL     1      -3.462   1.374 -10.244  1.00  0.00     0.134 A 
ATOM     75  F   UNL     1      -3.634  -0.977  -7.482  1.00  0.00    -0.206 F 
ATOM     76  C   UNL     1      -2.527  -1.147  -9.543  1.00  0.00     0.040 A 
ATOM     77  C   UNL     1      -2.671   0.648 -11.139  1.00  0.00     0.040 A 
ATOM     78  F   UNL     1      -3.884   2.589 -10.625  1.00  0.00    -0.206 F 
ATOM     79  C   UNL     1      -2.196  -0.614 -10.786  1.00  0.00     0.006 A 
ENDBRANCH  58  72
BRANCH  59  80
ATOM     80  C   UNL     1      -9.378   6.147  -2.452  1.00  0.00     0.057 A 
ATOM     81  C   UNL     1     -10.469   5.575  -1.787  1.00  0.00     0.134 A 
ATOM     82  C   UNL     1      -9.087   7.488  -2.170  1.00  0.00     0.134 A 
ATOM     83  F   UNL     1     -10.800   4.295  -2.013  1.00  0.00    -0.206 F 
ATOM     84  C   UNL     1     -11.262   6.312  -0.906  1.00  0.00     0.040 A 
ATOM     85  C   UNL     1      -9.854   8.230  -1.268  1.00  0.00     0.040 A 
ATOM     86  F   UNL     1      -8.041   8.092  -2.751  1.00  0.00    -0.206 F 
ATOM     87  C   UNL     1     -10.953   7.645  -0.642  1.00  0.00     0.006 A 
ENDBRANCH  59  80
BRANCH  71  88
ATOM     88  C   UNL     1     -10.668   3.113  -8.581  1.00  0.00     0.057 A 
ATOM     89  C   UNL     1     -11.214   4.214  -9.251  1.00  0.00     0.134 A 
ATOM     90  C   UNL     1     -11.319   1.881  -8.709  1.00  0.00     0.134 A 
ATOM     91  F   UNL     1     -10.644   5.424  -9.151  1.00  0.00    -0.206 F 
ATOM     92  C   UNL     1     -12.386   4.098  -9.999  1.00  0.00     0.040 A 
ATOM     93  C   UNL     1     -12.473   1.746  -9.479  1.00  0.00     0.040 A 
ATOM     94  F   UNL     1     -10.840   0.788  -8.095  1.00  0.00    -0.206 F 
ATOM     95  C   UNL     1     -13.014   2.860 -10.120  1.00  0.00     0.006 A 
ENDBRANCH  71  88
ENDBRANCH  45  46
ENDBRANCH  37  40
ENDBRANCH  35  36
ENDBRANCH  34  35
ENDBRANCH   1  34
TORSDOF 14
