REMARK SMILES COc1ccccc1C(=O)N1[C@@H](C(=O)NCCCNC(=O)c2ccc(-c3c4nc(c(-c5c(F)cccc5F)c5ccc([nH]5)c(-c5c(F)cccc5F)c5nc(c(-c6c(F)cccc6F)c6ccc3[nH]6)C=C5)C=C4)cc2)COC12CC[NH+](Cc1ccccc1)CC2
REMARK SMILES IDX 16 1 15 2 13 3 14 4 12 6 11 7 78 8 76 9 77 10 79 11 90 12
REMARK SMILES IDX 80 13 89 14 81 15 9 17 10 18 8 19 3 20 4 21 5 22 7 23 6 24
REMARK SMILES IDX 2 25 1 26 82 27 83 28 84 29 88 30 85 31 87 32 86 33 17 34
REMARK SMILES IDX 18 35 19 36 20 37 21 39 22 40 23 41 75 42 24 43 74 44 25 45
REMARK SMILES IDX 26 46 27 47 68 48 28 49 73 50 67 51 69 52 29 53 72 54 66 55
REMARK SMILES IDX 65 56 30 58 56 59 39 60 55 61 40 62 43 63 54 64 70 65 41 66
REMARK SMILES IDX 42 67 53 69 71 70 44 71 31 72 32 73 37 74 33 75 34 76 36 77
REMARK SMILES IDX 38 78 35 79 57 80 58 81 63 82 59 83 60 84 62 85 64 86 61 87
REMARK SMILES IDX 45 88 46 89 51 90 47 91 48 92 50 93 52 94 49 95
REMARK H PARENT 15 5 81 16 19 38 69 57 43 68
REMARK Flexibility Score: inf
ROOT
ATOM      1  C   UNL     1      -0.392  -0.755  -1.918  1.00  0.00     0.117 C 
ENDROOT
BRANCH   1   2
ATOM      2  N   UNL     1       0.455  -1.863  -2.273  1.00  0.00    -0.354 N 
ATOM      3  C   UNL     1       1.769  -2.062  -1.958  1.00  0.00     0.245 C 
ATOM      4  O   UNL     1       2.226  -3.183  -2.207  1.00  0.00    -0.273 OA
ATOM      5  H   UNL     1       0.033  -2.569  -2.814  1.00  0.00     0.163 HD
BRANCH   3   6
ATOM      6  C   UNL     1       2.683  -0.932  -1.430  1.00  0.00     0.203 C 
ATOM      7  N   UNL     1       2.320  -0.339  -0.145  1.00  0.00    -0.295 N 
ATOM      8  C   UNL     1       2.173   1.121  -0.304  1.00  0.00     0.155 C 
ATOM      9  C   UNL     1       2.716   0.234  -2.393  1.00  0.00     0.198 C 
ATOM     10  O   UNL     1       1.978   1.285  -1.741  1.00  0.00    -0.352 OA
ATOM     11  C   UNL     1       0.987   1.758   0.431  1.00  0.00     0.120 C 
ATOM     12  C   UNL     1       3.453   1.905   0.024  1.00  0.00     0.120 C 
ATOM     13  C   UNL     1       0.867   3.253   0.153  1.00  0.00     0.267 C 
ATOM     14  C   UNL     1       3.255   3.410  -0.240  1.00  0.00     0.267 C 
ATOM     15  N   UNL     1       2.090   4.001   0.412  1.00  0.00    -0.331 N 
ATOM     16  H   UNL     1       1.970   4.893  -0.069  1.00  0.00     0.348 HD
BRANCH   7  17
ATOM     17  C   UNL     1       2.691  -1.046   0.998  1.00  0.00     0.260 C 
ATOM     18  O   UNL     1       3.611  -1.867   0.948  1.00  0.00    -0.269 OA
BRANCH  17  19
ATOM     19  C   UNL     1       1.970  -0.957   2.301  1.00  0.00     0.082 A 
ATOM     20  C   UNL     1       0.584  -0.845   2.442  1.00  0.00     0.131 A 
ATOM     21  C   UNL     1      -0.024  -0.824   3.709  1.00  0.00     0.047 A 
ATOM     22  C   UNL     1       0.728  -1.093   4.847  1.00  0.00     0.004 A 
ATOM     23  C   UNL     1       2.706  -1.259   3.463  1.00  0.00     0.018 A 
ATOM     24  C   UNL     1       2.089  -1.352   4.718  1.00  0.00     0.001 A 
BRANCH  20  25
ATOM     25  O   UNL     1      -0.267  -0.877   1.369  1.00  0.00    -0.496 OA
ATOM     26  C   UNL     1      -0.629  -2.243   1.123  1.00  0.00     0.278 C 
ENDBRANCH  20  25
ENDBRANCH  17  19
ENDBRANCH   7  17
BRANCH  15  27
ATOM     27  C   UNL     1       2.262   4.520   1.773  1.00  0.00     0.299 C 
BRANCH  27  28
ATOM     28  C   UNL     1       2.917   3.614   2.791  1.00  0.00     0.006 A 
ATOM     29  C   UNL     1       2.154   2.894   3.716  1.00  0.00     0.009 A 
ATOM     30  C   UNL     1       4.315   3.469   2.815  1.00  0.00     0.009 A 
ATOM     31  C   UNL     1       2.774   2.016   4.605  1.00  0.00     0.001 A 
ATOM     32  C   UNL     1       4.926   2.544   3.660  1.00  0.00     0.001 A 
ATOM     33  C   UNL     1       4.152   1.813   4.554  1.00  0.00     0.000 A 
ENDBRANCH  27  28
ENDBRANCH  15  27
ENDBRANCH   3   6
ENDBRANCH   1   2
BRANCH   1  34
ATOM     34  C   UNL     1      -1.133  -0.125  -3.078  1.00  0.00     0.042 C 
BRANCH  34  35
ATOM     35  C   UNL     1      -2.615  -0.456  -3.022  1.00  0.00     0.118 C 
BRANCH  35  36
ATOM     36  N   UNL     1      -3.282   0.026  -1.808  1.00  0.00    -0.352 N 
ATOM     37  C   UNL     1      -4.474   0.698  -1.660  1.00  0.00     0.251 C 
ATOM     38  H   UNL     1      -2.802  -0.160  -0.969  1.00  0.00     0.163 HD
ATOM     39  O   UNL     1      -4.846   1.075  -0.560  1.00  0.00    -0.269 OA
BRANCH  37  40
ATOM     40  C   UNL     1      -5.263   1.011  -2.866  1.00  0.00     0.039 A 
ATOM     41  C   UNL     1      -5.710   2.319  -3.059  1.00  0.00     0.014 A 
ATOM     42  C   UNL     1      -5.439   0.044  -3.854  1.00  0.00     0.014 A 
ATOM     43  C   UNL     1      -6.222   2.687  -4.303  1.00  0.00     0.010 A 
ATOM     44  C   UNL     1      -5.823   0.442  -5.123  1.00  0.00     0.010 A 
ATOM     45  C   UNL     1      -6.211   1.770  -5.365  1.00  0.00    -0.014 A 
BRANCH  45  46
ATOM     46  C   UNL     1      -6.585   2.157  -6.747  1.00  0.00     0.031 A 
ATOM     47  C   UNL     1      -7.680   1.406  -7.453  1.00  0.00     0.074 A 
ATOM     48  C   UNL     1      -5.867   3.090  -7.403  1.00  0.00     0.049 A 
ATOM     49  N   UNL     1      -8.037   1.450  -8.710  1.00  0.00    -0.248 NA
ATOM     50  C   UNL     1      -8.435   0.430  -6.648  1.00  0.00     0.031 C 
ATOM     51  C   UNL     1      -4.734   3.840  -6.853  1.00  0.00     0.029 A 
ATOM     52  N   UNL     1      -5.974   3.555  -8.690  1.00  0.00    -0.354 N 
ATOM     53  C   UNL     1      -9.020   0.480  -8.852  1.00  0.00     0.074 A 
ATOM     54  C   UNL     1      -9.160  -0.178  -7.573  1.00  0.00     0.031 C 
ATOM     55  C   UNL     1      -4.276   4.694  -7.783  1.00  0.00     0.029 A 
ATOM     56  C   UNL     1      -5.048   4.520  -9.007  1.00  0.00     0.049 A 
ATOM     57  H   UNL     1      -6.651   3.228  -9.326  1.00  0.00     0.167 HD
ATOM     58  C   UNL     1      -9.764   0.184  -9.943  1.00  0.00     0.037 A 
ATOM     59  C   UNL     1      -4.843   5.183 -10.161  1.00  0.00     0.037 A 
ATOM     60  C   UNL     1      -9.670   0.891 -11.190  1.00  0.00     0.049 A 
ATOM     61  C   UNL     1      -5.715   4.872 -11.345  1.00  0.00     0.074 A 
ATOM     62  C   UNL     1     -10.439   0.736 -12.330  1.00  0.00     0.029 A 
ATOM     63  N   UNL     1      -8.758   1.903 -11.453  1.00  0.00    -0.354 N 
ATOM     64  N   UNL     1      -6.683   3.994 -11.449  1.00  0.00    -0.248 NA
ATOM     65  C   UNL     1      -5.467   5.644 -12.571  1.00  0.00     0.031 C 
ATOM     66  C   UNL     1      -9.974   1.637 -13.293  1.00  0.00     0.029 A 
ATOM     67  C   UNL     1      -8.939   2.376 -12.741  1.00  0.00     0.049 A 
ATOM     68  H   UNL     1      -8.083   2.235 -10.818  1.00  0.00     0.167 HD
ATOM     69  C   UNL     1      -7.175   4.123 -12.741  1.00  0.00     0.074 A 
ATOM     70  C   UNL     1      -6.407   5.173 -13.378  1.00  0.00     0.031 C 
ATOM     71  C   UNL     1      -8.171   3.432 -13.347  1.00  0.00     0.037 A 
BRANCH  58  72
ATOM     72  C   UNL     1     -10.754  -0.935  -9.819  1.00  0.00     0.057 A 
ATOM     73  C   UNL     1     -11.905  -0.820  -9.028  1.00  0.00     0.134 A 
ATOM     74  C   UNL     1     -10.560  -2.141 -10.504  1.00  0.00     0.134 A 
ATOM     75  F   UNL     1     -12.141   0.303  -8.332  1.00  0.00    -0.206 F 
ATOM     76  C   UNL     1     -12.809  -1.874  -8.894  1.00  0.00     0.040 A 
ATOM     77  C   UNL     1     -11.473  -3.193 -10.402  1.00  0.00     0.040 A 
ATOM     78  F   UNL     1      -9.481  -2.318 -11.281  1.00  0.00    -0.206 F 
ATOM     79  C   UNL     1     -12.597  -3.063  -9.588  1.00  0.00     0.006 A 
ENDBRANCH  58  72
BRANCH  59  80
ATOM     80  C   UNL     1      -3.792   6.228 -10.245  1.00  0.00     0.057 A 
ATOM     81  C   UNL     1      -4.135   7.583 -10.321  1.00  0.00     0.134 A 
ATOM     82  C   UNL     1      -2.430   5.905 -10.253  1.00  0.00     0.134 A 
ATOM     83  F   UNL     1      -5.424   7.952 -10.334  1.00  0.00    -0.206 F 
ATOM     84  C   UNL     1      -3.163   8.579 -10.422  1.00  0.00     0.040 A 
ATOM     85  C   UNL     1      -1.446   6.893 -10.332  1.00  0.00     0.040 A 
ATOM     86  F   UNL     1      -2.036   4.626 -10.174  1.00  0.00    -0.206 F 
ATOM     87  C   UNL     1      -1.813   8.235 -10.423  1.00  0.00     0.006 A 
ENDBRANCH  59  80
BRANCH  71  88
ATOM     88  C   UNL     1      -8.508   3.812 -14.756  1.00  0.00     0.057 A 
ATOM     89  C   UNL     1      -7.691   3.445 -15.832  1.00  0.00     0.134 A 
ATOM     90  C   UNL     1      -9.692   4.503 -15.042  1.00  0.00     0.134 A 
ATOM     91  F   UNL     1      -6.537   2.794 -15.618  1.00  0.00    -0.206 F 
ATOM     92  C   UNL     1      -8.034   3.765 -17.146  1.00  0.00     0.040 A 
ATOM     93  C   UNL     1     -10.057   4.808 -16.353  1.00  0.00     0.040 A 
ATOM     94  F   UNL     1     -10.520   4.874 -14.054  1.00  0.00    -0.206 F 
ATOM     95  C   UNL     1      -9.225   4.441 -17.409  1.00  0.00     0.006 A 
ENDBRANCH  71  88
ENDBRANCH  45  46
ENDBRANCH  37  40
ENDBRANCH  35  36
ENDBRANCH  34  35
ENDBRANCH   1  34
TORSDOF 15
