REMARK SMILES COc1ccc(NC(=O)[C@@H]2[C@@H](C(=O)NCCCNC(=O)c3ccc(-c4c5nc(c(-c6c(F)cccc6F)c6ccc([nH]6)c(-c6c(F)cccc6F)c6nc(c(-c7c(F)cccc7F)c7ccc4[nH]7)C=C6)C=C5)cc3)[C@@H]3CC[C@H]2C3=C(C)C)cc1
REMARK SMILES IDX 15 1 14 2 12 3 13 4 11 6 10 7 78 8 75 9 77 10 79 11 76 12
REMARK SMILES IDX 80 13 81 14 82 15 8 16 7 17 9 19 6 20 3 21 4 22 84 23 5 24
REMARK SMILES IDX 83 25 2 26 1 27 16 28 17 29 18 30 19 31 20 33 21 34 22 35
REMARK SMILES IDX 74 36 23 37 73 38 24 39 25 40 26 41 67 42 27 43 72 44 66 45
REMARK SMILES IDX 68 46 28 47 71 48 65 49 64 50 29 52 55 53 38 54 54 55 39 56
REMARK SMILES IDX 42 57 53 58 69 59 40 60 41 61 52 63 70 64 43 65 30 66 31 67
REMARK SMILES IDX 36 68 32 69 33 70 35 71 37 72 34 73 56 74 57 75 62 76 58 77
REMARK SMILES IDX 59 78 61 79 63 80 60 81 44 82 45 83 50 84 46 85 47 86 49 87
REMARK SMILES IDX 51 88 48 89
REMARK H PARENT 14 5 7 18 18 32 68 51 42 62
REMARK Flexibility Score: inf
ROOT
ATOM      1  C   UNL     1      -1.286  -3.244   7.559  1.00  0.00     0.117 C 
ENDROOT
BRANCH   1   2
ATOM      2  N   UNL     1      -1.827  -3.189   6.215  1.00  0.00    -0.356 N 
ATOM      3  C   UNL     1      -1.769  -4.115   5.216  1.00  0.00     0.224 C 
ATOM      4  O   UNL     1      -2.466  -3.908   4.223  1.00  0.00    -0.275 OA
ATOM      5  H   UNL     1      -2.307  -2.359   5.990  1.00  0.00     0.163 HD
BRANCH   3   6
ATOM      6  C   UNL     1      -0.923  -5.370   5.417  1.00  0.00     0.098 C 
ATOM      7  C   UNL     1      -0.639  -6.204   4.126  1.00  0.00     0.099 C 
ATOM      8  C   UNL     1      -1.318  -7.570   4.446  1.00  0.00     0.028 C 
ATOM      9  C   UNL     1      -1.802  -6.318   6.270  1.00  0.00     0.028 C 
ATOM     10  C   UNL     1      -0.718  -8.355   5.624  1.00  0.00     0.009 C 
ATOM     11  C   UNL     1      -2.530  -7.026   5.159  1.00  0.00    -0.064 C 
ATOM     12  C   UNL     1      -0.953  -7.453   6.839  1.00  0.00     0.009 C 
ATOM     13  C   UNL     1      -3.828  -7.048   4.818  1.00  0.00    -0.077 C 
ATOM     14  C   UNL     1      -4.898  -6.322   5.585  1.00  0.00     0.039 C 
ATOM     15  C   UNL     1      -4.292  -7.729   3.560  1.00  0.00     0.039 C 
BRANCH   7  16
ATOM     16  C   UNL     1       0.839  -6.321   3.760  1.00  0.00     0.228 C 
ATOM     17  N   UNL     1       1.564  -5.364   3.116  1.00  0.00    -0.326 N 
ATOM     18  H   UNL     1       2.506  -5.630   3.016  1.00  0.00     0.169 HD
ATOM     19  O   UNL     1       1.489  -7.332   4.051  1.00  0.00    -0.274 OA
BRANCH  17  20
ATOM     20  C   UNL     1       1.323  -4.098   2.557  1.00  0.00     0.041 A 
ATOM     21  C   UNL     1       1.058  -1.494   1.509  1.00  0.00     0.119 A 
ATOM     22  C   UNL     1      -0.045  -2.171   2.003  1.00  0.00     0.048 A 
ATOM     23  C   UNL     1       2.302  -2.115   1.508  1.00  0.00     0.048 A 
ATOM     24  C   UNL     1       0.088  -3.477   2.480  1.00  0.00     0.030 A 
ATOM     25  C   UNL     1       2.431  -3.410   2.035  1.00  0.00     0.030 A 
BRANCH  21  26
ATOM     26  O   UNL     1       0.861  -0.204   1.108  1.00  0.00    -0.497 OA
ATOM     27  C   UNL     1       1.242   0.009  -0.248  1.00  0.00     0.278 C 
ENDBRANCH  21  26
ENDBRANCH  17  20
ENDBRANCH   7  16
ENDBRANCH   3   6
ENDBRANCH   1   2
BRANCH   1  28
ATOM     28  C   UNL     1      -0.442  -2.023   7.892  1.00  0.00     0.042 C 
BRANCH  28  29
ATOM     29  C   UNL     1      -1.190  -0.696   7.810  1.00  0.00     0.118 C 
BRANCH  29  30
ATOM     30  N   UNL     1      -2.305  -0.606   8.744  1.00  0.00    -0.352 N 
ATOM     31  C   UNL     1      -2.545   0.288   9.758  1.00  0.00     0.251 C 
ATOM     32  H   UNL     1      -2.998  -1.296   8.628  1.00  0.00     0.163 HD
ATOM     33  O   UNL     1      -3.481   0.093  10.531  1.00  0.00    -0.269 OA
BRANCH  31  34
ATOM     34  C   UNL     1      -1.669   1.464   9.951  1.00  0.00     0.039 A 
ATOM     35  C   UNL     1      -1.278   1.805  11.249  1.00  0.00     0.014 A 
ATOM     36  C   UNL     1      -1.238   2.234   8.868  1.00  0.00     0.014 A 
ATOM     37  C   UNL     1      -0.389   2.863  11.451  1.00  0.00     0.010 A 
ATOM     38  C   UNL     1      -0.288   3.233   9.063  1.00  0.00     0.010 A 
ATOM     39  C   UNL     1       0.152   3.554  10.356  1.00  0.00    -0.014 A 
BRANCH  39  40
ATOM     40  C   UNL     1       1.200   4.593  10.540  1.00  0.00     0.031 A 
ATOM     41  C   UNL     1       0.946   6.016  10.127  1.00  0.00     0.074 A 
ATOM     42  C   UNL     1       2.412   4.236  11.007  1.00  0.00     0.049 A 
ATOM     43  N   UNL     1       1.764   7.038  10.137  1.00  0.00    -0.248 NA
ATOM     44  C   UNL     1      -0.397   6.325   9.612  1.00  0.00     0.031 C 
ATOM     45  C   UNL     1       2.803   2.879  11.397  1.00  0.00     0.029 A 
ATOM     46  N   UNL     1       3.546   4.980  11.219  1.00  0.00    -0.354 N 
ATOM     47  C   UNL     1       1.042   8.105   9.617  1.00  0.00     0.074 A 
ATOM     48  C   UNL     1      -0.262   7.594   9.254  1.00  0.00     0.031 C 
ATOM     49  C   UNL     1       4.077   2.892  11.817  1.00  0.00     0.029 A 
ATOM     50  C   UNL     1       4.609   4.244  11.683  1.00  0.00     0.049 A 
ATOM     51  H   UNL     1       3.593   5.950  11.054  1.00  0.00     0.167 HD
ATOM     52  C   UNL     1       1.426   9.396   9.471  1.00  0.00     0.037 A 
ATOM     53  C   UNL     1       5.876   4.611  11.956  1.00  0.00     0.037 A 
ATOM     54  C   UNL     1       2.720   9.904   9.847  1.00  0.00     0.049 A 
ATOM     55  C   UNL     1       6.284   6.045  11.768  1.00  0.00     0.074 A 
ATOM     56  C   UNL     1       3.179  11.209   9.803  1.00  0.00     0.029 A 
ATOM     57  N   UNL     1       3.767   9.128  10.323  1.00  0.00    -0.354 N 
ATOM     58  N   UNL     1       5.568   7.060  11.349  1.00  0.00    -0.248 NA
ATOM     59  C   UNL     1       7.676   6.387  12.095  1.00  0.00     0.031 C 
ATOM     60  C   UNL     1       4.522  11.214  10.195  1.00  0.00     0.029 A 
ATOM     61  C   UNL     1       4.882   9.922  10.544  1.00  0.00     0.049 A 
ATOM     62  H   UNL     1       3.725   8.158  10.482  1.00  0.00     0.167 HD
ATOM     63  C   UNL     1       6.412   8.163  11.385  1.00  0.00     0.074 A 
ATOM     64  C   UNL     1       7.689   7.696  11.883  1.00  0.00     0.031 C 
ATOM     65  C   UNL     1       6.150   9.447  11.038  1.00  0.00     0.037 A 
BRANCH  52  66
ATOM     66  C   UNL     1       0.433  10.351   8.870  1.00  0.00     0.057 A 
ATOM     67  C   UNL     1      -0.731  10.736   9.548  1.00  0.00     0.134 A 
ATOM     68  C   UNL     1       0.661  10.917   7.609  1.00  0.00     0.134 A 
ATOM     69  F   UNL     1      -1.016  10.225  10.755  1.00  0.00    -0.206 F 
ATOM     70  C   UNL     1      -1.648  11.623   8.980  1.00  0.00     0.040 A 
ATOM     71  C   UNL     1      -0.232  11.829   7.045  1.00  0.00     0.040 A 
ATOM     72  F   UNL     1       1.761  10.601   6.908  1.00  0.00    -0.206 F 
ATOM     73  C   UNL     1      -1.396  12.178   7.728  1.00  0.00     0.006 A 
ENDBRANCH  52  66
BRANCH  53  74
ATOM     74  C   UNL     1       6.849   3.600  12.444  1.00  0.00     0.057 A 
ATOM     75  C   UNL     1       7.325   3.631  13.760  1.00  0.00     0.134 A 
ATOM     76  C   UNL     1       7.322   2.578  11.612  1.00  0.00     0.134 A 
ATOM     77  F   UNL     1       6.925   4.597  14.600  1.00  0.00    -0.206 F 
ATOM     78  C   UNL     1       8.248   2.694  14.226  1.00  0.00     0.040 A 
ATOM     79  C   UNL     1       8.223   1.618  12.072  1.00  0.00     0.040 A 
ATOM     80  F   UNL     1       6.898   2.488  10.342  1.00  0.00    -0.206 F 
ATOM     81  C   UNL     1       8.694   1.678  13.382  1.00  0.00     0.006 A 
ENDBRANCH  53  74
BRANCH  65  82
ATOM     82  C   UNL     1       7.256  10.448  11.210  1.00  0.00     0.057 A 
ATOM     83  C   UNL     1       8.382  10.460  10.376  1.00  0.00     0.134 A 
ATOM     84  C   UNL     1       7.172  11.440  12.196  1.00  0.00     0.134 A 
ATOM     85  F   UNL     1       8.531   9.530   9.421  1.00  0.00    -0.206 F 
ATOM     86  C   UNL     1       9.393  11.411  10.530  1.00  0.00     0.040 A 
ATOM     87  C   UNL     1       8.162  12.413  12.340  1.00  0.00     0.040 A 
ATOM     88  F   UNL     1       6.117  11.492  13.023  1.00  0.00    -0.206 F 
ATOM     89  C   UNL     1       9.280  12.396  11.509  1.00  0.00     0.006 A 
ENDBRANCH  65  82
ENDBRANCH  39  40
ENDBRANCH  31  34
ENDBRANCH  29  30
ENDBRANCH  28  29
ENDBRANCH   1  28
TORSDOF 13
