REMARK SMILES O=C(CCCc1csc2ccccc12)NCCCNC(=O)c1ccc(-c2c3nc(c(-c4c(F)cccc4F)c4ccc([nH]4)c(-c4c(F)cccc4F)c4nc(c(-c5c(F)cccc5F)c5ccc2[nH]5)C=C4)C=C3)cc1
REMARK SMILES IDX 16 1 15 2 1 3 2 4 3 6 4 7 5 8 6 9 7 10 14 11 8 12 9 13 13 14
REMARK SMILES IDX 10 15 12 16 11 17 17 18 18 19 19 20 20 21 21 23 22 24 23 25
REMARK SMILES IDX 75 26 24 27 74 28 25 29 26 30 27 31 68 32 28 33 73 34 67 35
REMARK SMILES IDX 69 36 29 37 72 38 66 39 65 40 30 42 56 43 39 44 55 45 40 46
REMARK SMILES IDX 43 47 54 48 70 49 41 50 42 51 53 53 71 54 44 55 31 56 32 57
REMARK SMILES IDX 37 58 33 59 34 60 36 61 38 62 35 63 57 64 58 65 63 66 59 67
REMARK SMILES IDX 60 68 62 69 64 70 61 71 45 72 46 73 51 74 47 75 48 76 50 77
REMARK SMILES IDX 52 78 49 79
REMARK H PARENT 15 5 19 22 69 41 43 52
REMARK Flexibility Score: inf
ROOT
ATOM      1  C   UNL     1       1.965  -0.228   2.569  1.00  0.00     0.117 C 
ENDROOT
BRANCH   1   2
ATOM      2  N   UNL     1       2.589  -0.218   1.262  1.00  0.00    -0.356 N 
ATOM      3  O   UNL     1       0.773   0.558   0.102  1.00  0.00    -0.275 OA
ATOM      4  C   UNL     1       1.947   0.204   0.123  1.00  0.00     0.220 C 
ATOM      5  H   UNL     1       3.520  -0.530   1.185  1.00  0.00     0.163 HD
BRANCH   4   6
ATOM      6  C   UNL     1       2.793   0.159  -1.138  1.00  0.00     0.100 C 
BRANCH   6   7
ATOM      7  C   UNL     1       3.899   1.214  -1.218  1.00  0.00     0.015 C 
BRANCH   7   8
ATOM      8  C   UNL     1       5.076   1.118  -0.238  1.00  0.00     0.037 C 
BRANCH   8   9
ATOM      9  C   UNL     1       5.988  -0.081  -0.387  1.00  0.00    -0.029 A 
ATOM     10  C   UNL     1       5.612  -1.402  -0.223  1.00  0.00     0.069 A 
ATOM     11  C   UNL     1       7.418   0.005  -0.656  1.00  0.00    -0.004 A 
ATOM     12  S   UNL     1       6.884  -2.511  -0.419  1.00  0.00    -0.144 S 
ATOM     13  C   UNL     1       8.020  -1.258  -0.703  1.00  0.00     0.035 A 
ATOM     14  C   UNL     1       8.263   1.130  -0.856  1.00  0.00     0.010 A 
ATOM     15  C   UNL     1       9.398  -1.424  -0.949  1.00  0.00     0.019 A 
ATOM     16  C   UNL     1       9.633   0.971  -1.093  1.00  0.00     0.001 A 
ATOM     17  C   UNL     1      10.193  -0.295  -1.142  1.00  0.00     0.001 A 
ENDBRANCH   8   9
ENDBRANCH   7   8
ENDBRANCH   6   7
ENDBRANCH   4   6
ENDBRANCH   1   2
BRANCH   1  18
ATOM     18  C   UNL     1       2.311  -1.484   3.365  1.00  0.00     0.042 C 
BRANCH  18  19
ATOM     19  C   UNL     1       3.797  -1.694   3.656  1.00  0.00     0.118 C 
BRANCH  19  20
ATOM     20  N   UNL     1       4.385  -0.650   4.480  1.00  0.00    -0.352 N 
ATOM     21  C   UNL     1       5.175  -0.748   5.599  1.00  0.00     0.251 C 
ATOM     22  H   UNL     1       4.187   0.269   4.190  1.00  0.00     0.163 HD
ATOM     23  O   UNL     1       5.482   0.278   6.209  1.00  0.00    -0.269 OA
BRANCH  21  24
ATOM     24  C   UNL     1       5.630  -2.062   6.111  1.00  0.00     0.039 A 
ATOM     25  C   UNL     1       5.594  -2.282   7.492  1.00  0.00     0.014 A 
ATOM     26  C   UNL     1       6.111  -3.064   5.264  1.00  0.00     0.014 A 
ATOM     27  C   UNL     1       5.965  -3.525   8.013  1.00  0.00     0.010 A 
ATOM     28  C   UNL     1       6.418  -4.327   5.778  1.00  0.00     0.010 A 
ATOM     29  C   UNL     1       6.342  -4.573   7.157  1.00  0.00    -0.014 A 
BRANCH  29  30
ATOM     30  C   UNL     1       6.613  -5.932   7.700  1.00  0.00     0.031 A 
ATOM     31  C   UNL     1       7.983  -6.546   7.610  1.00  0.00     0.074 A 
ATOM     32  C   UNL     1       5.603  -6.638   8.245  1.00  0.00     0.049 A 
ATOM     33  N   UNL     1       8.392  -7.719   8.028  1.00  0.00    -0.248 NA
ATOM     34  C   UNL     1       9.025  -5.750   6.945  1.00  0.00     0.031 C 
ATOM     35  C   UNL     1       4.213  -6.186   8.345  1.00  0.00     0.029 A 
ATOM     36  N   UNL     1       5.586  -7.887   8.816  1.00  0.00    -0.354 N 
ATOM     37  C   UNL     1       9.732  -7.805   7.672  1.00  0.00     0.074 A 
ATOM     38  C   UNL     1      10.055  -6.586   6.960  1.00  0.00     0.031 C 
ATOM     39  C   UNL     1       3.488  -7.129   8.967  1.00  0.00     0.029 A 
ATOM     40  C   UNL     1       4.350  -8.264   9.283  1.00  0.00     0.049 A 
ATOM     41  H   UNL     1       6.385  -8.459   8.884  1.00  0.00     0.167 HD
ATOM     42  C   UNL     1      10.618  -8.797   7.931  1.00  0.00     0.037 A 
ATOM     43  C   UNL     1       3.953  -9.393   9.898  1.00  0.00     0.037 A 
ATOM     44  C   UNL     1      10.305 -10.004   8.654  1.00  0.00     0.049 A 
ATOM     45  C   UNL     1       4.958 -10.472  10.185  1.00  0.00     0.074 A 
ATOM     46  C   UNL     1      11.152 -11.039   9.012  1.00  0.00     0.029 A 
ATOM     47  N   UNL     1       9.046 -10.339   9.127  1.00  0.00    -0.354 N 
ATOM     48  N   UNL     1       6.238 -10.506   9.906  1.00  0.00    -0.248 NA
ATOM     49  C   UNL     1       4.463 -11.666  10.886  1.00  0.00     0.031 C 
ATOM     50  C   UNL     1      10.398 -12.019   9.667  1.00  0.00     0.029 A 
ATOM     51  C   UNL     1       9.090 -11.573   9.758  1.00  0.00     0.049 A 
ATOM     52  H   UNL     1       8.239  -9.784   9.029  1.00  0.00     0.167 HD
ATOM     53  C   UNL     1       6.707 -11.709  10.418  1.00  0.00     0.074 A 
ATOM     54  C   UNL     1       5.577 -12.367  11.041  1.00  0.00     0.031 C 
ATOM     55  C   UNL     1       7.961 -12.220  10.377  1.00  0.00     0.037 A 
BRANCH  42  56
ATOM     56  C   UNL     1      12.023  -8.616   7.432  1.00  0.00     0.057 A 
ATOM     57  C   UNL     1      12.895  -7.683   8.008  1.00  0.00     0.134 A 
ATOM     58  C   UNL     1      12.523  -9.412   6.394  1.00  0.00     0.134 A 
ATOM     59  F   UNL     1      12.476  -6.883   9.000  1.00  0.00    -0.206 F 
ATOM     60  C   UNL     1      14.206  -7.531   7.553  1.00  0.00     0.040 A 
ATOM     61  C   UNL     1      13.840  -9.288   5.948  1.00  0.00     0.040 A 
ATOM     62  F   UNL     1      11.745 -10.332   5.804  1.00  0.00    -0.206 F 
ATOM     63  C   UNL     1      14.684  -8.340   6.525  1.00  0.00     0.006 A 
ENDBRANCH  42  56
BRANCH  43  64
ATOM     64  C   UNL     1       2.538  -9.549  10.319  1.00  0.00     0.057 A 
ATOM     65  C   UNL     1       2.181  -9.516  11.672  1.00  0.00     0.134 A 
ATOM     66  C   UNL     1       1.514  -9.742   9.385  1.00  0.00     0.134 A 
ATOM     67  F   UNL     1       3.121  -9.354  12.615  1.00  0.00    -0.206 F 
ATOM     68  C   UNL     1       0.859  -9.690  12.084  1.00  0.00     0.040 A 
ATOM     69  C   UNL     1       0.184  -9.893   9.781  1.00  0.00     0.040 A 
ATOM     70  F   UNL     1       1.792  -9.776   8.073  1.00  0.00    -0.206 F 
ATOM     71  C   UNL     1      -0.145  -9.874  11.135  1.00  0.00     0.006 A 
ENDBRANCH  43  64
BRANCH  55  72
ATOM     72  C   UNL     1       8.182 -13.542  11.053  1.00  0.00     0.057 A 
ATOM     73  C   UNL     1       7.682 -14.739  10.523  1.00  0.00     0.134 A 
ATOM     74  C   UNL     1       8.912 -13.619  12.246  1.00  0.00     0.134 A 
ATOM     75  F   UNL     1       6.962 -14.733   9.391  1.00  0.00    -0.206 F 
ATOM     76  C   UNL     1       7.873 -15.960  11.172  1.00  0.00     0.040 A 
ATOM     77  C   UNL     1       9.132 -14.837  12.890  1.00  0.00     0.040 A 
ATOM     78  F   UNL     1       9.425 -12.512  12.804  1.00  0.00    -0.206 F 
ATOM     79  C   UNL     1       8.604 -16.012  12.358  1.00  0.00     0.006 A 
ENDBRANCH  55  72
ENDBRANCH  29  30
ENDBRANCH  21  24
ENDBRANCH  19  20
ENDBRANCH  18  19
ENDBRANCH   1  18
TORSDOF 13
