REMARK SMILES CCOc1ccccc1N1CCN(c2ncc(N)cc2C(=O)NCCCNC(=O)c2ccc(-c3c4nc(c(-c5c(F)cccc5F)c5ccc([nH]5)c(-c5c(F)cccc5F)c5nc(c(-c6c(F)cccc6F)c6ccc3[nH]6)C=C5)C=C4)cc2)CC1
REMARK SMILES IDX 24 1 23 2 21 3 22 4 20 6 14 7 15 8 16 9 19 10 17 11 13 12
REMARK SMILES IDX 10 13 11 14 85 15 12 16 84 17 9 18 4 19 5 20 6 21 8 22 7 23
REMARK SMILES IDX 3 24 2 25 1 26 18 27 25 30 26 31 27 32 28 33 29 35 30 36
REMARK SMILES IDX 31 37 83 38 32 39 82 40 33 41 34 42 35 43 76 44 36 45 81 46
REMARK SMILES IDX 75 47 77 48 37 49 80 50 74 51 73 52 38 54 64 55 47 56 63 57
REMARK SMILES IDX 48 58 51 59 62 60 78 61 49 62 50 63 61 65 79 66 52 67 39 68
REMARK SMILES IDX 40 69 45 70 41 71 42 72 44 73 46 74 43 75 65 76 66 77 71 78
REMARK SMILES IDX 67 79 68 80 70 81 72 82 69 83 53 84 54 85 59 86 55 87 56 88
REMARK SMILES IDX 58 89 60 90 57 91
REMARK H PARENT 23 5 18 28 18 29 27 34 77 53 51 64
REMARK Flexibility Score: inf
ROOT
ATOM      1  C   UNL     1       0.968   2.337  -7.122  1.00  0.00     0.118 C 
ENDROOT
BRANCH   1   2
ATOM      2  N   UNL     1       1.642   2.130  -5.862  1.00  0.00    -0.352 N 
ATOM      3  C   UNL     1       1.600   1.238  -4.829  1.00  0.00     0.255 C 
ATOM      4  O   UNL     1       2.435   1.513  -3.963  1.00  0.00    -0.269 OA
ATOM      5  H   UNL     1       2.320   2.826  -5.703  1.00  0.00     0.163 HD
BRANCH   3   6
ATOM      6  C   UNL     1       0.701   0.034  -4.722  1.00  0.00     0.084 A 
ATOM      7  C   UNL     1       0.736  -0.739  -3.541  1.00  0.00     0.141 A 
ATOM      8  N   UNL     1       0.096  -1.932  -3.429  1.00  0.00    -0.236 NA
ATOM      9  C   UNL     1      -0.631  -2.364  -4.479  1.00  0.00     0.139 A 
ATOM     10  C   UNL     1      -0.114  -0.441  -5.757  1.00  0.00     0.044 A 
ATOM     11  C   UNL     1      -0.766  -1.672  -5.671  1.00  0.00     0.051 A 
BRANCH   7  12
ATOM     12  N   UNL     1       1.392  -0.304  -2.411  1.00  0.00    -0.352 N 
ATOM     13  N   UNL     1       2.569   0.445   0.056  1.00  0.00    -0.365 N 
ATOM     14  C   UNL     1       3.293  -0.444  -0.865  1.00  0.00     0.138 C 
ATOM     15  C   UNL     1       1.674   1.410  -0.610  1.00  0.00     0.138 C 
ATOM     16  C   UNL     1       2.292  -1.231  -1.736  1.00  0.00     0.139 C 
ATOM     17  C   UNL     1       0.706   0.698  -1.583  1.00  0.00     0.139 C 
BRANCH  13  18
ATOM     18  C   UNL     1       3.125   0.803   1.274  1.00  0.00     0.079 A 
ATOM     19  C   UNL     1       2.333   0.935   2.433  1.00  0.00     0.142 A 
ATOM     20  C   UNL     1       2.897   1.252   3.673  1.00  0.00     0.048 A 
ATOM     21  C   UNL     1       4.273   1.433   3.784  1.00  0.00     0.004 A 
ATOM     22  C   UNL     1       4.506   1.011   1.414  1.00  0.00     0.030 A 
ATOM     23  C   UNL     1       5.076   1.323   2.653  1.00  0.00     0.002 A 
BRANCH  19  24
ATOM     24  O   UNL     1       0.966   0.796   2.359  1.00  0.00    -0.492 OA
BRANCH  24  25
ATOM     25  C   UNL     1       0.542  -0.510   2.763  1.00  0.00     0.226 C 
ATOM     26  C   UNL     1       0.051  -1.292   1.559  1.00  0.00     0.049 C 
ENDBRANCH  24  25
ENDBRANCH  19  24
ENDBRANCH  13  18
ENDBRANCH   7  12
BRANCH  11  27
ATOM     27  N   UNL     1      -1.593  -2.110  -6.693  1.00  0.00    -0.397 N 
ATOM     28  H   UNL     1      -2.048  -2.980  -6.621  1.00  0.00     0.156 HD
ATOM     29  H   UNL     1      -1.727  -1.550  -7.492  1.00  0.00     0.156 HD
ENDBRANCH  11  27
ENDBRANCH   3   6
ENDBRANCH   1   2
BRANCH   1  30
ATOM     30  C   UNL     1      -0.216   3.283  -6.979  1.00  0.00     0.042 C 
BRANCH  30  31
ATOM     31  C   UNL     1       0.192   4.683  -6.511  1.00  0.00     0.118 C 
BRANCH  31  32
ATOM     32  N   UNL     1       1.232   5.262  -7.357  1.00  0.00    -0.352 N 
ATOM     33  C   UNL     1       1.143   6.172  -8.377  1.00  0.00     0.251 C 
ATOM     34  H   UNL     1       2.144   4.947  -7.162  1.00  0.00     0.163 HD
ATOM     35  O   UNL     1       2.053   6.268  -9.193  1.00  0.00    -0.269 OA
BRANCH  33  36
ATOM     36  C   UNL     1      -0.038   7.049  -8.485  1.00  0.00     0.039 A 
ATOM     37  C   UNL     1      -0.550   7.356  -9.749  1.00  0.00     0.014 A 
ATOM     38  C   UNL     1      -0.598   7.622  -7.341  1.00  0.00     0.014 A 
ATOM     39  C   UNL     1      -1.659   8.197  -9.858  1.00  0.00     0.010 A 
ATOM     40  C   UNL     1      -1.749   8.391  -7.444  1.00  0.00     0.010 A 
ATOM     41  C   UNL     1      -2.283   8.698  -8.704  1.00  0.00    -0.014 A 
BRANCH  41  42
ATOM     42  C   UNL     1      -3.489   9.555  -8.784  1.00  0.00     0.031 A 
ATOM     43  C   UNL     1      -3.442  10.968  -8.274  1.00  0.00     0.074 A 
ATOM     44  C   UNL     1      -4.646   9.027  -9.226  1.00  0.00     0.049 A 
ATOM     45  N   UNL     1      -4.412  11.838  -8.160  1.00  0.00    -0.248 NA
ATOM     46  C   UNL     1      -2.139  11.455  -7.792  1.00  0.00     0.031 C 
ATOM     47  C   UNL     1      -4.827   7.648  -9.683  1.00  0.00     0.029 A 
ATOM     48  N   UNL     1      -5.894   9.583  -9.341  1.00  0.00    -0.354 N 
ATOM     49  C   UNL     1      -3.845  12.960  -7.568  1.00  0.00     0.074 A 
ATOM     50  C   UNL     1      -2.459  12.643  -7.302  1.00  0.00     0.031 C 
ATOM     51  C   UNL     1      -6.108   7.469 -10.040  1.00  0.00     0.029 A 
ATOM     52  C   UNL     1      -6.844   8.707  -9.805  1.00  0.00     0.049 A 
ATOM     53  H   UNL     1      -6.090  10.521  -9.113  1.00  0.00     0.167 HD
ATOM     54  C   UNL     1      -4.423  14.152  -7.290  1.00  0.00     0.037 A 
ATOM     55  C   UNL     1      -8.163   8.880 -10.008  1.00  0.00     0.037 A 
ATOM     56  C   UNL     1      -5.793  14.470  -7.594  1.00  0.00     0.049 A 
ATOM     57  C   UNL     1      -8.775  10.223  -9.728  1.00  0.00     0.074 A 
ATOM     58  C   UNL     1      -6.454  15.676  -7.439  1.00  0.00     0.029 A 
ATOM     59  N   UNL     1      -6.714  13.572  -8.113  1.00  0.00    -0.354 N 
ATOM     60  N   UNL     1      -8.208  11.305  -9.249  1.00  0.00    -0.248 NA
ATOM     61  C   UNL     1     -10.205  10.375 -10.027  1.00  0.00     0.031 C 
ATOM     62  C   UNL     1      -7.787  15.495  -7.824  1.00  0.00     0.029 A 
ATOM     63  C   UNL     1      -7.945  14.190  -8.263  1.00  0.00     0.049 A 
ATOM     64  H   UNL     1      -6.522  12.634  -8.341  1.00  0.00     0.167 HD
ATOM     65  C   UNL     1      -9.204  12.271  -9.208  1.00  0.00     0.074 A 
ATOM     66  C   UNL     1     -10.407  11.650  -9.726  1.00  0.00     0.031 C 
ATOM     67  C   UNL     1      -9.130  13.555  -8.780  1.00  0.00     0.037 A 
BRANCH  54  68
ATOM     68  C   UNL     1      -3.574  15.196  -6.624  1.00  0.00     0.057 A 
ATOM     69  C   UNL     1      -2.517  15.830  -7.291  1.00  0.00     0.134 A 
ATOM     70  C   UNL     1      -3.826  15.584  -5.302  1.00  0.00     0.134 A 
ATOM     71  F   UNL     1      -2.213  15.497  -8.555  1.00  0.00    -0.206 F 
ATOM     72  C   UNL     1      -1.722  16.788  -6.658  1.00  0.00     0.040 A 
ATOM     73  C   UNL     1      -3.057  16.561  -4.668  1.00  0.00     0.040 A 
ATOM     74  F   UNL     1      -4.826  15.023  -4.605  1.00  0.00    -0.206 F 
ATOM     75  C   UNL     1      -1.995  17.160  -5.344  1.00  0.00     0.006 A 
ENDBRANCH  54  68
BRANCH  55  76
ATOM     76  C   UNL     1      -8.980   7.756 -10.526  1.00  0.00     0.057 A 
ATOM     77  C   UNL     1      -9.463   7.761 -11.839  1.00  0.00     0.134 A 
ATOM     78  C   UNL     1      -9.277   6.642  -9.732  1.00  0.00     0.134 A 
ATOM     79  F   UNL     1      -9.223   8.807 -12.643  1.00  0.00    -0.206 F 
ATOM     80  C   UNL     1     -10.224   6.704 -12.342  1.00  0.00     0.040 A 
ATOM     81  C   UNL     1     -10.017   5.567 -10.229  1.00  0.00     0.040 A 
ATOM     82  F   UNL     1      -8.832   6.572  -8.469  1.00  0.00    -0.206 F 
ATOM     83  C   UNL     1     -10.497   5.599 -11.537  1.00  0.00     0.006 A 
ENDBRANCH  55  76
BRANCH  67  84
ATOM     84  C   UNL     1     -10.378  14.381  -8.878  1.00  0.00     0.057 A 
ATOM     85  C   UNL     1     -11.461  14.187  -8.012  1.00  0.00     0.134 A 
ATOM     86  C   UNL     1     -10.479  15.411  -9.822  1.00  0.00     0.134 A 
ATOM     87  F   UNL     1     -11.432  13.208  -7.094  1.00  0.00    -0.206 F 
ATOM     88  C   UNL     1     -12.610  14.975  -8.095  1.00  0.00     0.040 A 
ATOM     89  C   UNL     1     -11.611  16.222  -9.897  1.00  0.00     0.040 A 
ATOM     90  F   UNL     1      -9.472  15.653 -10.675  1.00  0.00    -0.206 F 
ATOM     91  C   UNL     1     -12.683  16.002  -9.035  1.00  0.00     0.006 A 
ENDBRANCH  67  84
ENDBRANCH  41  42
ENDBRANCH  33  36
ENDBRANCH  31  32
ENDBRANCH  30  31
ENDBRANCH   1  30
TORSDOF 15
