REMARK SMILES C[C@H]([NH2+]CC1(O)CCCC1)[C@H](C)C(=O)NCCCNC(=O)c1ccc(-c2c3nc(c(-c4c(F)cccc4F)c4ccc([nH]4)c(-c4c(F)cccc4F)c4nc(c(-c5c(F)cccc5F)c5ccc2[nH]5)C=C4)C=C3)cc1
REMARK SMILES IDX 13 1 14 2 15 3 11 5 12 6 2 7 1 8 3 9 4 12 5 13 7 14 10 15
REMARK SMILES IDX 8 16 9 17 6 18 16 20 17 21 18 22 19 23 20 24 21 26 22 27
REMARK SMILES IDX 23 28 75 29 24 30 74 31 25 32 26 33 27 34 68 35 28 36 73 37
REMARK SMILES IDX 67 38 69 39 29 40 72 41 66 42 65 43 30 45 56 46 39 47 55 48
REMARK SMILES IDX 40 49 43 50 54 51 70 52 41 53 42 54 53 56 71 57 44 58 31 59
REMARK SMILES IDX 32 60 37 61 33 62 34 63 36 64 38 65 35 66 57 67 58 68 63 69
REMARK SMILES IDX 59 70 60 71 62 72 64 73 61 74 45 75 46 76 51 77 47 78 48 79
REMARK SMILES IDX 50 80 52 81 49 82
REMARK H PARENT 15 4 3 10 3 11 6 19 19 25 69 44 43 55
REMARK Flexibility Score: inf
ROOT
ATOM      1  C   UNL     1      -1.382   2.623   1.208  1.00  0.00     0.228 C 
ATOM      2  O   UNL     1      -1.917   3.542   0.579  1.00  0.00    -0.275 OA
ATOM      3  N   UNL     1      -1.102   2.865   2.513  1.00  0.00    -0.356 N 
ATOM      4  H   UNL     1      -1.464   3.714   2.854  1.00  0.00     0.163 HD
ENDROOT
BRANCH   1   5
ATOM      5  C   UNL     1      -1.062   1.300   0.520  1.00  0.00     0.133 C 
ATOM      6  C   UNL     1       0.442   1.235   0.233  1.00  0.00     0.024 C 
BRANCH   5   7
ATOM      7  C   UNL     1      -1.602   0.017   1.214  1.00  0.00     0.191 C 
ATOM      8  C   UNL     1      -1.706  -1.170   0.239  1.00  0.00     0.076 C 
BRANCH   7   9
ATOM      9  N   UNL     1      -2.845   0.135   1.999  1.00  0.00    -0.341 N 
ATOM     10  H   UNL     1      -2.645   0.709   2.818  1.00  0.00     0.346 HD
ATOM     11  H   UNL     1      -3.124  -0.820   2.223  1.00  0.00     0.346 HD
BRANCH   9  12
ATOM     12  C   UNL     1      -3.993   0.736   1.291  1.00  0.00     0.296 C 
BRANCH  12  13
ATOM     13  C   UNL     1      -5.228   0.971   2.204  1.00  0.00     0.113 C 
ATOM     14  C   UNL     1      -6.177   2.020   1.608  1.00  0.00     0.041 C 
ATOM     15  C   UNL     1      -4.918   1.571   3.580  1.00  0.00     0.041 C 
ATOM     16  C   UNL     1      -7.028   2.503   2.783  1.00  0.00     0.003 C 
ATOM     17  C   UNL     1      -6.243   2.169   4.050  1.00  0.00     0.003 C 
BRANCH  13  18
ATOM     18  O   UNL     1      -5.926  -0.270   2.356  1.00  0.00    -0.384 OA
ATOM     19  H   UNL     1      -6.118  -0.642   1.481  1.00  0.00     0.211 HD
ENDBRANCH  13  18
ENDBRANCH  12  13
ENDBRANCH   9  12
ENDBRANCH   7   9
ENDBRANCH   5   7
ENDBRANCH   1   5
BRANCH   3  20
ATOM     20  C   UNL     1      -0.365   2.093   3.493  1.00  0.00     0.117 C 
BRANCH  20  21
ATOM     21  C   UNL     1       0.902   2.811   3.928  1.00  0.00     0.042 C 
BRANCH  21  22
ATOM     22  C   UNL     1       0.640   4.123   4.652  1.00  0.00     0.118 C 
BRANCH  22  23
ATOM     23  N   UNL     1      -0.067   3.936   5.913  1.00  0.00    -0.352 N 
ATOM     24  C   UNL     1       0.336   4.216   7.194  1.00  0.00     0.251 C 
ATOM     25  H   UNL     1      -0.969   3.550   5.834  1.00  0.00     0.163 HD
ATOM     26  O   UNL     1      -0.324   3.803   8.147  1.00  0.00    -0.269 OA
BRANCH  24  27
ATOM     27  C   UNL     1       1.568   4.994   7.431  1.00  0.00     0.039 A 
ATOM     28  C   UNL     1       2.441   4.590   8.444  1.00  0.00     0.014 A 
ATOM     29  C   UNL     1       1.864   6.118   6.657  1.00  0.00     0.014 A 
ATOM     30  C   UNL     1       3.643   5.274   8.632  1.00  0.00     0.010 A 
ATOM     31  C   UNL     1       3.102   6.737   6.780  1.00  0.00     0.010 A 
ATOM     32  C   UNL     1       4.002   6.327   7.775  1.00  0.00    -0.014 A 
BRANCH  32  33
ATOM     33  C   UNL     1       5.307   7.022   7.905  1.00  0.00     0.031 A 
ATOM     34  C   UNL     1       5.350   8.490   8.227  1.00  0.00     0.074 A 
ATOM     35  C   UNL     1       6.449   6.346   7.669  1.00  0.00     0.049 A 
ATOM     36  N   UNL     1       6.384   9.289   8.311  1.00  0.00    -0.248 NA
ATOM     37  C   UNL     1       4.058   9.156   8.457  1.00  0.00     0.031 C 
ATOM     38  C   UNL     1       6.537   4.931   7.303  1.00  0.00     0.029 A 
ATOM     39  N   UNL     1       7.755   6.764   7.693  1.00  0.00    -0.354 N 
ATOM     40  C   UNL     1       5.866  10.548   8.588  1.00  0.00     0.074 A 
ATOM     41  C   UNL     1       4.426  10.421   8.596  1.00  0.00     0.031 C 
ATOM     42  C   UNL     1       7.828   4.592   7.167  1.00  0.00     0.029 A 
ATOM     43  C   UNL     1       8.656   5.772   7.392  1.00  0.00     0.049 A 
ATOM     44  H   UNL     1       8.022   7.688   7.906  1.00  0.00     0.167 HD
ATOM     45  C   UNL     1       6.531  11.700   8.842  1.00  0.00     0.037 A 
ATOM     46  C   UNL     1       9.999   5.811   7.302  1.00  0.00     0.037 A 
ATOM     47  C   UNL     1       7.965  11.818   8.852  1.00  0.00     0.049 A 
ATOM     48  C   UNL     1      10.713   7.109   7.566  1.00  0.00     0.074 A 
ATOM     49  C   UNL     1       8.737  12.928   9.148  1.00  0.00     0.029 A 
ATOM     50  N   UNL     1       8.843  10.788   8.550  1.00  0.00    -0.354 N 
ATOM     51  N   UNL     1      10.214   8.276   7.892  1.00  0.00    -0.248 NA
ATOM     52  C   UNL     1      12.178   7.091   7.453  1.00  0.00     0.031 C 
ATOM     53  C   UNL     1      10.081  12.582   8.976  1.00  0.00     0.029 A 
ATOM     54  C   UNL     1      10.149  11.243   8.628  1.00  0.00     0.049 A 
ATOM     55  H   UNL     1       8.578   9.870   8.314  1.00  0.00     0.167 HD
ATOM     56  C   UNL     1      11.303   9.123   8.055  1.00  0.00     0.074 A 
ATOM     57  C   UNL     1      12.489   8.331   7.804  1.00  0.00     0.031 C 
ATOM     58  C   UNL     1      11.320  10.438   8.384  1.00  0.00     0.037 A 
BRANCH  45  59
ATOM     59  C   UNL     1       5.707  12.922   9.133  1.00  0.00     0.057 A 
ATOM     60  C   UNL     1       4.957  13.046  10.310  1.00  0.00     0.134 A 
ATOM     61  C   UNL     1       5.680  13.998   8.237  1.00  0.00     0.134 A 
ATOM     62  F   UNL     1       4.928  12.047  11.206  1.00  0.00    -0.206 F 
ATOM     63  C   UNL     1       4.185  14.180  10.571  1.00  0.00     0.040 A 
ATOM     64  C   UNL     1       4.937  15.150   8.500  1.00  0.00     0.040 A 
ATOM     65  F   UNL     1       6.380  13.951   7.093  1.00  0.00    -0.206 F 
ATOM     66  C   UNL     1       4.179  15.239   9.666  1.00  0.00     0.006 A 
ENDBRANCH  45  59
BRANCH  46  67
ATOM     67  C   UNL     1      10.761   4.580   6.971  1.00  0.00     0.057 A 
ATOM     68  C   UNL     1      11.575   3.959   7.925  1.00  0.00     0.134 A 
ATOM     69  C   UNL     1      10.704   4.001   5.697  1.00  0.00     0.134 A 
ATOM     70  F   UNL     1      11.684   4.476   9.158  1.00  0.00    -0.206 F 
ATOM     71  C   UNL     1      12.323   2.821   7.620  1.00  0.00     0.040 A 
ATOM     72  C   UNL     1      11.425   2.847   5.386  1.00  0.00     0.040 A 
ATOM     73  F   UNL     1       9.935   4.542   4.740  1.00  0.00    -0.206 F 
ATOM     74  C   UNL     1      12.245   2.259   6.348  1.00  0.00     0.006 A 
ENDBRANCH  46  67
BRANCH  58  75
ATOM     75  C   UNL     1      12.663  11.092   8.531  1.00  0.00     0.057 A 
ATOM     76  C   UNL     1      13.480  11.367   7.428  1.00  0.00     0.134 A 
ATOM     77  C   UNL     1      13.127  11.486   9.794  1.00  0.00     0.134 A 
ATOM     78  F   UNL     1      13.101  11.004   6.193  1.00  0.00    -0.206 F 
ATOM     79  C   UNL     1      14.722  11.988   7.577  1.00  0.00     0.040 A 
ATOM     80  C   UNL     1      14.352  12.133   9.952  1.00  0.00     0.040 A 
ATOM     81  F   UNL     1      12.389  11.260  10.892  1.00  0.00    -0.206 F 
ATOM     82  C   UNL     1      15.157  12.379   8.842  1.00  0.00     0.006 A 
ENDBRANCH  58  75
ENDBRANCH  32  33
ENDBRANCH  24  27
ENDBRANCH  22  23
ENDBRANCH  21  22
ENDBRANCH  20  21
ENDBRANCH   3  20
TORSDOF 15
