REMARK SMILES C[C@@H]1C(C(=O)NCCCNC(=O)c2ccc(-c3c4nc(c(-c5c(F)cccc5F)c5ccc([nH]5)c(-c5c(F)cccc5F)c5nc(c(-c6c(F)cccc6F)c6ccc3[nH]6)C=C5)C=C4)cc2)=NC2=C1C(=O)C[C@H](c1ccccc1)C2
REMARK SMILES IDX 8 1 7 2 6 3 4 4 5 5 3 7 1 8 2 9 69 10 67 11 68 12 70 13
REMARK SMILES IDX 80 14 71 15 72 16 73 17 74 18 75 19 79 20 76 21 78 22 77 23
REMARK SMILES IDX 9 24 10 25 11 26 12 28 13 29 14 30 66 31 15 32 65 33 16 34
REMARK SMILES IDX 17 35 18 36 59 37 19 38 64 39 58 40 60 41 20 42 63 43 57 44
REMARK SMILES IDX 56 45 21 47 47 48 30 49 46 50 31 51 34 52 45 53 61 54 32 55
REMARK SMILES IDX 33 56 44 58 62 59 35 60 22 61 23 62 28 63 24 64 25 65 27 66
REMARK SMILES IDX 29 67 26 68 48 69 49 70 54 71 50 72 51 73 53 74 55 75 52 76
REMARK SMILES IDX 36 77 37 78 42 79 38 80 39 81 41 82 43 83 40 84
REMARK H PARENT 6 6 10 27 60 46 34 57
REMARK Flexibility Score: inf
ROOT
ATOM      1  C   UNL     1      -0.010  -1.974  -1.237  1.00  0.00     0.042 C 
ENDROOT
BRANCH   1   2
ATOM      2  C   UNL     1       0.566  -0.564  -1.066  1.00  0.00     0.118 C 
BRANCH   2   3
ATOM      3  N   UNL     1      -0.376   0.410  -0.530  1.00  0.00    -0.351 N 
ATOM      4  C   UNL     1      -0.128   1.391   0.417  1.00  0.00     0.266 C 
ATOM      5  O   UNL     1      -0.507   2.538   0.214  1.00  0.00    -0.268 OA
ATOM      6  H   UNL     1      -1.294   0.367  -0.881  1.00  0.00     0.163 HD
BRANCH   4   7
ATOM      7  C   UNL     1       0.368   1.000   1.804  1.00  0.00     0.113 C 
ATOM      8  C   UNL     1       2.763   0.545   2.108  1.00  0.00     0.020 C 
ATOM      9  C   UNL     1       1.377  -0.087   2.031  1.00  0.00     0.076 C 
ATOM     10  C   UNL     1       0.794  -0.449   3.350  1.00  0.00     0.026 C 
ATOM     11  N   UNL     1      -0.121   1.535   2.897  1.00  0.00    -0.251 NA
ATOM     12  C   UNL     1       0.119   0.583   3.866  1.00  0.00     0.049 C 
ATOM     13  C   UNL     1       0.186  -1.783   3.555  1.00  0.00     0.161 C 
ATOM     14  C   UNL     1      -0.858   0.369   4.984  1.00  0.00     0.065 C 
ATOM     15  O   UNL     1       0.827  -2.784   3.237  1.00  0.00    -0.294 OA
ATOM     16  C   UNL     1      -1.284  -1.880   3.996  1.00  0.00     0.089 C 
ATOM     17  C   UNL     1      -1.974  -0.553   4.450  1.00  0.00     0.033 C 
BRANCH  17  18
ATOM     18  C   UNL     1      -2.906   0.138   3.432  1.00  0.00    -0.044 A 
ATOM     19  C   UNL     1      -3.070   1.541   3.438  1.00  0.00     0.004 A 
ATOM     20  C   UNL     1      -3.662  -0.575   2.490  1.00  0.00     0.004 A 
ATOM     21  C   UNL     1      -3.835   2.208   2.478  1.00  0.00     0.000 A 
ATOM     22  C   UNL     1      -4.450   0.091   1.537  1.00  0.00     0.000 A 
ATOM     23  C   UNL     1      -4.516   1.481   1.516  1.00  0.00     0.000 A 
ENDBRANCH  17  18
ENDBRANCH   4   7
ENDBRANCH   2   3
ENDBRANCH   1   2
BRANCH   1  24
ATOM     24  C   UNL     1      -0.688  -2.144  -2.589  1.00  0.00     0.118 C 
BRANCH  24  25
ATOM     25  N   UNL     1       0.223  -1.995  -3.736  1.00  0.00    -0.352 N 
ATOM     26  C   UNL     1      -0.056  -2.124  -5.093  1.00  0.00     0.251 C 
ATOM     27  H   UNL     1       1.156  -1.774  -3.513  1.00  0.00     0.163 HD
ATOM     28  O   UNL     1       0.827  -2.146  -5.928  1.00  0.00    -0.269 OA
BRANCH  26  29
ATOM     29  C   UNL     1      -1.471  -2.262  -5.481  1.00  0.00     0.039 A 
ATOM     30  C   UNL     1      -1.919  -3.312  -6.285  1.00  0.00     0.014 A 
ATOM     31  C   UNL     1      -2.365  -1.429  -4.836  1.00  0.00     0.014 A 
ATOM     32  C   UNL     1      -3.287  -3.593  -6.316  1.00  0.00     0.010 A 
ATOM     33  C   UNL     1      -3.645  -1.875  -4.659  1.00  0.00     0.010 A 
ATOM     34  C   UNL     1      -4.151  -2.896  -5.458  1.00  0.00    -0.014 A 
BRANCH  34  35
ATOM     35  C   UNL     1      -5.573  -3.232  -5.338  1.00  0.00     0.031 A 
ATOM     36  C   UNL     1      -5.917  -4.673  -5.186  1.00  0.00     0.074 A 
ATOM     37  C   UNL     1      -6.535  -2.296  -5.155  1.00  0.00     0.049 A 
ATOM     38  N   UNL     1      -6.570  -5.418  -6.016  1.00  0.00    -0.248 NA
ATOM     39  C   UNL     1      -5.442  -5.391  -3.993  1.00  0.00     0.031 C 
ATOM     40  C   UNL     1      -6.367  -0.846  -4.958  1.00  0.00     0.029 A 
ATOM     41  N   UNL     1      -7.881  -2.459  -4.994  1.00  0.00    -0.354 N 
ATOM     42  C   UNL     1      -6.774  -6.634  -5.366  1.00  0.00     0.074 A 
ATOM     43  C   UNL     1      -5.933  -6.617  -4.198  1.00  0.00     0.031 C 
ATOM     44  C   UNL     1      -7.491  -0.321  -4.435  1.00  0.00     0.029 A 
ATOM     45  C   UNL     1      -8.525  -1.330  -4.513  1.00  0.00     0.049 A 
ATOM     46  H   UNL     1      -8.351  -3.299  -5.201  1.00  0.00     0.167 HD
ATOM     47  C   UNL     1      -7.819  -7.443  -5.702  1.00  0.00     0.037 A 
ATOM     48  C   UNL     1      -9.836  -1.167  -4.246  1.00  0.00     0.037 A 
ATOM     49  C   UNL     1      -8.452  -7.005  -6.918  1.00  0.00     0.049 A 
ATOM     50  C   UNL     1     -10.591  -2.141  -5.057  1.00  0.00     0.074 A 
ATOM     51  C   UNL     1      -8.240  -7.120  -8.273  1.00  0.00     0.029 A 
ATOM     52  N   UNL     1      -9.367  -6.007  -6.731  1.00  0.00    -0.354 N 
ATOM     53  N   UNL     1     -10.611  -2.127  -6.362  1.00  0.00    -0.248 NA
ATOM     54  C   UNL     1     -11.096  -3.359  -4.436  1.00  0.00     0.031 C 
ATOM     55  C   UNL     1      -8.938  -6.032  -8.882  1.00  0.00     0.029 A 
ATOM     56  C   UNL     1      -9.569  -5.296  -7.883  1.00  0.00     0.049 A 
ATOM     57  H   UNL     1      -9.821  -5.822  -5.877  1.00  0.00     0.167 HD
ATOM     58  C   UNL     1     -10.721  -3.456  -6.712  1.00  0.00     0.074 A 
ATOM     59  C   UNL     1     -11.203  -4.135  -5.518  1.00  0.00     0.031 C 
ATOM     60  C   UNL     1     -10.092  -3.950  -7.816  1.00  0.00     0.037 A 
BRANCH  47  61
ATOM     61  C   UNL     1      -8.578  -8.335  -4.746  1.00  0.00     0.057 A 
ATOM     62  C   UNL     1      -9.489  -9.280  -5.255  1.00  0.00     0.134 A 
ATOM     63  C   UNL     1      -8.688  -8.083  -3.364  1.00  0.00     0.134 A 
ATOM     64  F   UNL     1      -9.502  -9.587  -6.562  1.00  0.00    -0.206 F 
ATOM     65  C   UNL     1     -10.468  -9.889  -4.458  1.00  0.00     0.040 A 
ATOM     66  C   UNL     1      -9.629  -8.722  -2.549  1.00  0.00     0.040 A 
ATOM     67  F   UNL     1      -7.968  -7.131  -2.757  1.00  0.00    -0.206 F 
ATOM     68  C   UNL     1     -10.542  -9.608  -3.099  1.00  0.00     0.006 A 
ENDBRANCH  47  61
BRANCH  48  69
ATOM     69  C   UNL     1     -10.439  -0.327  -3.198  1.00  0.00     0.057 A 
ATOM     70  C   UNL     1     -11.756   0.127  -3.295  1.00  0.00     0.134 A 
ATOM     71  C   UNL     1      -9.807  -0.172  -1.950  1.00  0.00     0.134 A 
ATOM     72  F   UNL     1     -12.436   0.001  -4.444  1.00  0.00    -0.206 F 
ATOM     73  C   UNL     1     -12.430   0.671  -2.196  1.00  0.00     0.040 A 
ATOM     74  C   UNL     1     -10.467   0.371  -0.846  1.00  0.00     0.040 A 
ATOM     75  F   UNL     1      -8.559  -0.623  -1.747  1.00  0.00    -0.206 F 
ATOM     76  C   UNL     1     -11.791   0.777  -0.963  1.00  0.00     0.006 A 
ENDBRANCH  48  69
BRANCH  60  77
ATOM     77  C   UNL     1      -9.754  -2.990  -8.912  1.00  0.00     0.057 A 
ATOM     78  C   UNL     1      -8.778  -1.990  -8.817  1.00  0.00     0.134 A 
ATOM     79  C   UNL     1     -10.408  -3.122 -10.141  1.00  0.00     0.134 A 
ATOM     80  F   UNL     1      -8.049  -1.839  -7.707  1.00  0.00    -0.206 F 
ATOM     81  C   UNL     1      -8.497  -1.131  -9.884  1.00  0.00     0.040 A 
ATOM     82  C   UNL     1     -10.119  -2.290 -11.224  1.00  0.00     0.040 A 
ATOM     83  F   UNL     1     -11.324  -4.087 -10.318  1.00  0.00    -0.206 F 
ATOM     84  C   UNL     1      -9.168  -1.281 -11.094  1.00  0.00     0.006 A 
ENDBRANCH  60  77
ENDBRANCH  34  35
ENDBRANCH  26  29
ENDBRANCH  24  25
ENDBRANCH   1  24
TORSDOF 11
