REMARK SMILES Cc1ccc(C)c(/C=C2\SC(=S)N(CC(=O)NCCCNC(=O)c3ccc(-c4c5nc(c(-c6c(F)cccc6F)c6ccc([nH]6)c(-c6c(F)cccc6F)c6nc(c(-c7c(F)cccc7F)c7ccc4[nH]7)C=C6)C=C5)cc3)C2=O)c1
REMARK SMILES IDX 19 1 18 2 17 3 15 4 16 5 14 7 13 8 8 9 9 10 10 11 78 12
REMARK SMILES IDX 11 13 79 14 12 15 7 16 1 17 2 18 3 19 80 20 4 21 5 22 6 23
REMARK SMILES IDX 20 24 21 25 22 26 23 28 24 29 25 30 77 31 26 32 76 33 27 34
REMARK SMILES IDX 28 35 29 36 70 37 30 38 75 39 69 40 71 41 31 42 74 43 68 44
REMARK SMILES IDX 67 45 32 47 58 48 41 49 57 50 42 51 45 52 56 53 72 54 43 55
REMARK SMILES IDX 44 56 55 58 73 59 46 60 33 61 34 62 39 63 35 64 36 65 38 66
REMARK SMILES IDX 40 67 37 68 59 69 60 70 65 71 61 72 62 73 64 74 66 75 63 76
REMARK SMILES IDX 47 77 48 78 53 79 49 80 50 81 52 82 54 83 51 84
REMARK H PARENT 17 6 21 27 71 46 45 57
REMARK Flexibility Score: inf
ROOT
ATOM      1  C   UNL     1      -3.003   3.828  -4.742  1.00  0.00     0.042 C 
ENDROOT
BRANCH   1   2
ATOM      2  C   UNL     1      -3.298   5.330  -4.785  1.00  0.00     0.117 C 
BRANCH   2   3
ATOM      3  N   UNL     1      -4.043   5.835  -3.643  1.00  0.00    -0.354 N 
ATOM      4  C   UNL     1      -3.619   6.619  -2.606  1.00  0.00     0.240 C 
ATOM      5  O   UNL     1      -4.475   7.288  -2.022  1.00  0.00    -0.273 OA
ATOM      6  H   UNL     1      -4.992   5.574  -3.612  1.00  0.00     0.163 HD
BRANCH   4   7
ATOM      7  C   UNL     1      -2.132   6.784  -2.267  1.00  0.00     0.227 C 
BRANCH   7   8
ATOM      8  N   UNL     1      -1.451   5.505  -2.078  1.00  0.00    -0.283 N 
ATOM      9  C   UNL     1      -1.299   2.518  -0.043  1.00  0.00     0.029 C 
ATOM     10  C   UNL     1      -1.071   3.459  -0.970  1.00  0.00     0.081 C 
ATOM     11  S   UNL     1       0.040   3.423  -2.280  1.00  0.00    -0.054 SA
ATOM     12  C   UNL     1      -1.835   4.733  -0.993  1.00  0.00     0.266 C 
ATOM     13  C   UNL     1      -0.373   5.049  -2.802  1.00  0.00     0.148 C 
ATOM     14  O   UNL     1      -2.676   5.031  -0.158  1.00  0.00    -0.268 OA
ATOM     15  S   UNL     1       0.490   5.831  -3.995  1.00  0.00    -0.052 S 
BRANCH   9  16
ATOM     16  C   UNL     1      -0.644   1.202   0.025  1.00  0.00    -0.021 A 
ATOM     17  C   UNL     1       2.940  -0.116   0.093  1.00  0.00     0.044 C 
ATOM     18  C   UNL     1       1.442  -0.076   0.091  1.00  0.00    -0.051 A 
ATOM     19  C   UNL     1       0.705  -1.260   0.061  1.00  0.00     0.004 A 
ATOM     20  C   UNL     1       0.759   1.144   0.100  1.00  0.00     0.011 A 
ATOM     21  C   UNL     1      -0.691  -1.220   0.036  1.00  0.00     0.004 A 
ATOM     22  C   UNL     1      -1.383   0.003   0.017  1.00  0.00    -0.044 A 
ATOM     23  C   UNL     1      -2.887  -0.054  -0.027  1.00  0.00     0.045 C 
ENDBRANCH   9  16
ENDBRANCH   7   8
ENDBRANCH   4   7
ENDBRANCH   2   3
ENDBRANCH   1   2
BRANCH   1  24
ATOM     24  C   UNL     1      -4.169   2.919  -5.120  1.00  0.00     0.118 C 
BRANCH  24  25
ATOM     25  N   UNL     1      -4.646   3.134  -6.494  1.00  0.00    -0.352 N 
ATOM     26  C   UNL     1      -5.899   3.062  -7.096  1.00  0.00     0.251 C 
ATOM     27  H   UNL     1      -3.928   3.382  -7.120  1.00  0.00     0.163 HD
ATOM     28  O   UNL     1      -5.984   3.015  -8.304  1.00  0.00    -0.269 OA
BRANCH  26  29
ATOM     29  C   UNL     1      -7.132   3.055  -6.278  1.00  0.00     0.039 A 
ATOM     30  C   UNL     1      -8.405   2.756  -6.779  1.00  0.00     0.014 A 
ATOM     31  C   UNL     1      -7.036   3.467  -4.975  1.00  0.00     0.014 A 
ATOM     32  C   UNL     1      -9.519   2.967  -5.953  1.00  0.00     0.010 A 
ATOM     33  C   UNL     1      -8.026   3.160  -4.111  1.00  0.00     0.010 A 
ATOM     34  C   UNL     1      -9.301   3.234  -4.605  1.00  0.00    -0.014 A 
BRANCH  34  35
ATOM     35  C   UNL     1     -10.300   3.582  -3.614  1.00  0.00     0.031 A 
ATOM     36  C   UNL     1     -11.048   2.436  -3.064  1.00  0.00     0.074 A 
ATOM     37  C   UNL     1     -10.262   4.761  -2.950  1.00  0.00     0.049 A 
ATOM     38  N   UNL     1     -12.273   2.107  -3.293  1.00  0.00    -0.248 NA
ATOM     39  C   UNL     1     -10.291   1.437  -2.292  1.00  0.00     0.031 C 
ATOM     40  C   UNL     1      -9.269   5.843  -3.037  1.00  0.00     0.029 A 
ATOM     41  N   UNL     1     -11.075   5.189  -1.947  1.00  0.00    -0.354 N 
ATOM     42  C   UNL     1     -12.493   0.970  -2.524  1.00  0.00     0.074 A 
ATOM     43  C   UNL     1     -11.195   0.465  -2.176  1.00  0.00     0.031 C 
ATOM     44  C   UNL     1      -9.439   6.700  -2.003  1.00  0.00     0.029 A 
ATOM     45  C   UNL     1     -10.626   6.311  -1.262  1.00  0.00     0.049 A 
ATOM     46  H   UNL     1     -11.921   4.737  -1.724  1.00  0.00     0.167 HD
ATOM     47  C   UNL     1     -13.713   0.698  -1.985  1.00  0.00     0.037 A 
ATOM     48  C   UNL     1     -11.180   6.838  -0.141  1.00  0.00     0.037 A 
ATOM     49  C   UNL     1     -14.729   1.551  -2.555  1.00  0.00     0.049 A 
ATOM     50  C   UNL     1     -12.546   6.263  -0.013  1.00  0.00     0.074 A 
ATOM     51  C   UNL     1     -15.177   1.807  -3.837  1.00  0.00     0.029 A 
ATOM     52  N   UNL     1     -15.181   2.600  -1.789  1.00  0.00    -0.354 N 
ATOM     53  N   UNL     1     -13.536   6.536  -0.818  1.00  0.00    -0.248 NA
ATOM     54  C   UNL     1     -12.693   5.035   0.755  1.00  0.00     0.031 C 
ATOM     55  C   UNL     1     -15.439   3.209  -3.865  1.00  0.00     0.029 A 
ATOM     56  C   UNL     1     -15.194   3.715  -2.587  1.00  0.00     0.049 A 
ATOM     57  H   UNL     1     -15.446   2.559  -0.842  1.00  0.00     0.167 HD
ATOM     58  C   UNL     1     -14.214   5.334  -0.971  1.00  0.00     0.074 A 
ATOM     59  C   UNL     1     -13.712   4.475   0.098  1.00  0.00     0.031 C 
ATOM     60  C   UNL     1     -14.895   5.050  -2.120  1.00  0.00     0.037 A 
BRANCH  47  61
ATOM     61  C   UNL     1     -13.937  -0.062  -0.697  1.00  0.00     0.057 A 
ATOM     62  C   UNL     1     -15.253  -0.411  -0.344  1.00  0.00     0.134 A 
ATOM     63  C   UNL     1     -12.981  -0.246   0.325  1.00  0.00     0.134 A 
ATOM     64  F   UNL     1     -16.259  -0.279  -1.220  1.00  0.00    -0.206 F 
ATOM     65  C   UNL     1     -15.600  -0.832   0.945  1.00  0.00     0.040 A 
ATOM     66  C   UNL     1     -13.308  -0.725   1.596  1.00  0.00     0.040 A 
ATOM     67  F   UNL     1     -11.700   0.115   0.198  1.00  0.00    -0.206 F 
ATOM     68  C   UNL     1     -14.627  -0.986   1.923  1.00  0.00     0.006 A 
ENDBRANCH  47  61
BRANCH  48  69
ATOM     69  C   UNL     1     -10.546   7.607   0.953  1.00  0.00     0.057 A 
ATOM     70  C   UNL     1     -11.313   8.368   1.848  1.00  0.00     0.134 A 
ATOM     71  C   UNL     1      -9.201   7.410   1.311  1.00  0.00     0.134 A 
ATOM     72  F   UNL     1     -12.617   8.580   1.617  1.00  0.00    -0.206 F 
ATOM     73  C   UNL     1     -10.781   8.884   3.038  1.00  0.00     0.040 A 
ATOM     74  C   UNL     1      -8.654   7.928   2.490  1.00  0.00     0.040 A 
ATOM     75  F   UNL     1      -8.398   6.630   0.573  1.00  0.00    -0.206 F 
ATOM     76  C   UNL     1      -9.448   8.656   3.366  1.00  0.00     0.006 A 
ENDBRANCH  48  69
BRANCH  60  77
ATOM     77  C   UNL     1     -15.113   6.169  -3.103  1.00  0.00     0.057 A 
ATOM     78  C   UNL     1     -14.077   6.818  -3.791  1.00  0.00     0.134 A 
ATOM     79  C   UNL     1     -16.419   6.483  -3.489  1.00  0.00     0.134 A 
ATOM     80  F   UNL     1     -12.795   6.511  -3.565  1.00  0.00    -0.206 F 
ATOM     81  C   UNL     1     -14.329   7.763  -4.789  1.00  0.00     0.040 A 
ATOM     82  C   UNL     1     -16.686   7.401  -4.508  1.00  0.00     0.040 A 
ATOM     83  F   UNL     1     -17.462   5.861  -2.916  1.00  0.00    -0.206 F 
ATOM     84  C   UNL     1     -15.639   8.052  -5.157  1.00  0.00     0.006 A 
ENDBRANCH  60  77
ENDBRANCH  34  35
ENDBRANCH  26  29
ENDBRANCH  24  25
ENDBRANCH   1  24
TORSDOF 12
