REMARK SMILES [NH3+][C@H](CC(F)(F)C(F)(F)C(F)(F)C(F)(F)Cl)C(=O)NCCCNC(=O)c1ccc(-c2c3nc(c(-c4c(F)cccc4F)c4ccc([nH]4)c(-c4c(F)cccc4F)c4nc(c(-c5c(F)cccc5F)c5ccc2[nH]5)C=C4)C=C3)cc1
REMARK SMILES IDX 17 1 18 2 19 3 2 5 1 6 3 10 4 11 5 12 6 13 7 14 8 15 9 16
REMARK SMILES IDX 10 17 11 18 12 19 13 20 14 21 15 22 16 23 20 24 21 25 22 26
REMARK SMILES IDX 23 27 24 28 25 30 26 31 27 32 79 33 28 34 78 35 29 36 30 37
REMARK SMILES IDX 31 38 72 39 32 40 77 41 71 42 73 43 33 44 76 45 70 46 69 47
REMARK SMILES IDX 34 49 60 50 43 51 59 52 44 53 47 54 58 55 74 56 45 57 46 58
REMARK SMILES IDX 57 60 75 61 48 62 35 63 36 64 41 65 37 66 38 67 40 68 42 69
REMARK SMILES IDX 39 70 61 71 62 72 67 73 63 74 64 75 66 76 68 77 65 78 49 79
REMARK SMILES IDX 50 80 55 81 51 82 52 83 54 84 56 85 53 86
REMARK H PARENT 19 4 1 7 1 8 1 9 23 29 73 48 47 59
REMARK Flexibility Score: inf
ROOT
ATOM      1  C   UNL     1      -0.881  -0.757  -1.290  1.00  0.00     0.278 C 
ATOM      2  O   UNL     1      -0.998  -0.026  -2.284  1.00  0.00    -0.268 OA
ATOM      3  N   UNL     1      -2.045  -1.064  -0.660  1.00  0.00    -0.351 N 
ATOM      4  H   UNL     1      -2.835  -0.718  -1.135  1.00  0.00     0.163 HD
ENDROOT
BRANCH   1   5
ATOM      5  C   UNL     1       0.542  -1.168  -0.828  1.00  0.00     0.277 C 
BRANCH   5   6
ATOM      6  N   UNL     1       0.667  -2.597  -0.531  1.00  0.00    -0.347 N 
ATOM      7  H   UNL     1       0.185  -3.137  -1.250  1.00  0.00     0.345 HD
ATOM      8  H   UNL     1       0.248  -2.793   0.378  1.00  0.00     0.345 HD
ATOM      9  H   UNL     1       1.653  -2.856  -0.514  1.00  0.00     0.345 HD
ENDBRANCH   5   6
BRANCH   5  10
ATOM     10  C   UNL     1       1.189  -0.135   0.118  1.00  0.00     0.159 C 
BRANCH  10  11
ATOM     11  C   UNL     1       1.831  -0.606   1.426  1.00  0.00     0.323 C 
ATOM     12  F   UNL     1       2.729  -1.588   1.159  1.00  0.00    -0.199 F 
ATOM     13  F   UNL     1       2.557   0.438   1.921  1.00  0.00    -0.199 F 
BRANCH  11  14
ATOM     14  C   UNL     1       0.825  -1.049   2.470  1.00  0.00     0.379 C 
ATOM     15  F   UNL     1      -0.063  -0.032   2.660  1.00  0.00    -0.192 F 
ATOM     16  F   UNL     1       0.109  -2.092   1.968  1.00  0.00    -0.192 F 
BRANCH  14  17
ATOM     17  C   UNL     1       1.422  -1.459   3.794  1.00  0.00     0.392 C 
ATOM     18  F   UNL     1       2.340  -2.449   3.615  1.00  0.00    -0.191 F 
ATOM     19  F   UNL     1       2.087  -0.419   4.366  1.00  0.00    -0.191 F 
BRANCH  17  20
ATOM     20  C   UNL     1       0.286  -1.943   4.698  1.00  0.00     0.390 C 
ATOM     21  F   UNL     1      -0.647  -0.969   4.874  1.00  0.00    -0.181 F 
ATOM     22  F   UNL     1      -0.372  -2.990   4.130  1.00  0.00    -0.181 F 
ATOM     23  Cl  UNL     1       0.864  -2.458   6.301  1.00  0.00    -0.041 Cl
ENDBRANCH  17  20
ENDBRANCH  14  17
ENDBRANCH  11  14
ENDBRANCH  10  11
ENDBRANCH   5  10
ENDBRANCH   1   5
BRANCH   3  24
ATOM     24  C   UNL     1      -2.393  -1.786   0.553  1.00  0.00     0.118 C 
BRANCH  24  25
ATOM     25  C   UNL     1      -2.576  -0.829   1.732  1.00  0.00     0.042 C 
BRANCH  25  26
ATOM     26  C   UNL     1      -4.019  -0.659   2.195  1.00  0.00     0.118 C 
BRANCH  26  27
ATOM     27  N   UNL     1      -4.422  -1.732   3.094  1.00  0.00    -0.352 N 
ATOM     28  C   UNL     1      -4.670  -1.762   4.447  1.00  0.00     0.251 C 
ATOM     29  H   UNL     1      -4.540  -2.602   2.648  1.00  0.00     0.163 HD
ATOM     30  O   UNL     1      -4.750  -2.865   4.987  1.00  0.00    -0.269 OA
BRANCH  28  31
ATOM     31  C   UNL     1      -4.849  -0.539   5.279  1.00  0.00     0.039 A 
ATOM     32  C   UNL     1      -4.590  -0.634   6.655  1.00  0.00     0.014 A 
ATOM     33  C   UNL     1      -5.368   0.657   4.783  1.00  0.00     0.014 A 
ATOM     34  C   UNL     1      -4.832   0.453   7.508  1.00  0.00     0.010 A 
ATOM     35  C   UNL     1      -5.511   1.773   5.614  1.00  0.00     0.010 A 
ATOM     36  C   UNL     1      -5.280   1.678   6.994  1.00  0.00    -0.014 A 
BRANCH  36  37
ATOM     37  C   UNL     1      -5.575   2.838   7.885  1.00  0.00     0.031 A 
ATOM     38  C   UNL     1      -6.967   3.424   7.938  1.00  0.00     0.074 A 
ATOM     39  C   UNL     1      -4.594   3.402   8.616  1.00  0.00     0.049 A 
ATOM     40  N   UNL     1      -7.401   4.479   8.583  1.00  0.00    -0.248 NA
ATOM     41  C   UNL     1      -7.999   2.756   7.130  1.00  0.00     0.031 C 
ATOM     42  C   UNL     1      -3.193   2.978   8.627  1.00  0.00     0.029 A 
ATOM     43  N   UNL     1      -4.626   4.460   9.492  1.00  0.00    -0.354 N 
ATOM     44  C   UNL     1      -8.737   4.623   8.224  1.00  0.00     0.074 A 
ATOM     45  C   UNL     1      -9.030   3.576   7.270  1.00  0.00     0.031 C 
ATOM     46  C   UNL     1      -2.508   3.744   9.492  1.00  0.00     0.029 A 
ATOM     47  C   UNL     1      -3.411   4.733  10.072  1.00  0.00     0.049 A 
ATOM     48  H   UNL     1      -5.443   4.974   9.685  1.00  0.00     0.167 HD
ATOM     49  C   UNL     1      -9.648   5.526   8.663  1.00  0.00     0.037 A 
ATOM     50  C   UNL     1      -3.063   5.670  10.975  1.00  0.00     0.037 A 
ATOM     51  C   UNL     1      -9.382   6.527   9.662  1.00  0.00     0.049 A 
ATOM     52  C   UNL     1      -4.107   6.613  11.504  1.00  0.00     0.074 A 
ATOM     53  C   UNL     1     -10.255   7.446  10.220  1.00  0.00     0.029 A 
ATOM     54  N   UNL     1      -8.151   6.729  10.267  1.00  0.00    -0.354 N 
ATOM     55  N   UNL     1      -5.374   6.709  11.183  1.00  0.00    -0.248 NA
ATOM     56  C   UNL     1      -3.674   7.571  12.532  1.00  0.00     0.031 C 
ATOM     57  C   UNL     1      -9.547   8.216  11.149  1.00  0.00     0.029 A 
ATOM     58  C   UNL     1      -8.242   7.755  11.193  1.00  0.00     0.049 A 
ATOM     59  H   UNL     1      -7.333   6.218  10.068  1.00  0.00     0.167 HD
ATOM     60  C   UNL     1      -5.894   7.716  11.984  1.00  0.00     0.074 A 
ATOM     61  C   UNL     1      -4.810   8.190  12.819  1.00  0.00     0.031 C 
ATOM     62  C   UNL     1      -7.157   8.208  12.023  1.00  0.00     0.037 A 
BRANCH  49  63
ATOM     63  C   UNL     1     -11.027   5.460   8.071  1.00  0.00     0.057 A 
ATOM     64  C   UNL     1     -11.910   4.412   8.364  1.00  0.00     0.134 A 
ATOM     65  C   UNL     1     -11.487   6.468   7.213  1.00  0.00     0.134 A 
ATOM     66  F   UNL     1     -11.529   3.408   9.169  1.00  0.00    -0.206 F 
ATOM     67  C   UNL     1     -13.186   4.350   7.801  1.00  0.00     0.040 A 
ATOM     68  C   UNL     1     -12.771   6.432   6.665  1.00  0.00     0.040 A 
ATOM     69  F   UNL     1     -10.698   7.505   6.896  1.00  0.00    -0.206 F 
ATOM     70  C   UNL     1     -13.622   5.366   6.952  1.00  0.00     0.006 A 
ENDBRANCH  49  63
BRANCH  50  71
ATOM     71  C   UNL     1      -1.668   5.732  11.478  1.00  0.00     0.057 A 
ATOM     72  C   UNL     1      -1.354   5.317  12.778  1.00  0.00     0.134 A 
ATOM     73  C   UNL     1      -0.620   6.204  10.680  1.00  0.00     0.134 A 
ATOM     74  F   UNL     1      -2.321   4.874  13.595  1.00  0.00    -0.206 F 
ATOM     75  C   UNL     1      -0.052   5.386  13.274  1.00  0.00     0.040 A 
ATOM     76  C   UNL     1       0.692   6.257  11.155  1.00  0.00     0.040 A 
ATOM     77  F   UNL     1      -0.854   6.610   9.424  1.00  0.00    -0.206 F 
ATOM     78  C   UNL     1       0.977   5.852  12.459  1.00  0.00     0.006 A 
ENDBRANCH  50  71
BRANCH  62  79
ATOM     79  C   UNL     1      -7.437   9.287  13.027  1.00  0.00     0.057 A 
ATOM     80  C   UNL     1      -6.968  10.595  12.854  1.00  0.00     0.134 A 
ATOM     81  C   UNL     1      -8.195   9.015  14.172  1.00  0.00     0.134 A 
ATOM     82  F   UNL     1      -6.225  10.916  11.784  1.00  0.00    -0.206 F 
ATOM     83  C   UNL     1      -7.219  11.589  13.802  1.00  0.00     0.040 A 
ATOM     84  C   UNL     1      -8.472  10.006  15.114  1.00  0.00     0.040 A 
ATOM     85  F   UNL     1      -8.680   7.784  14.392  1.00  0.00    -0.206 F 
ATOM     86  C   UNL     1      -7.976  11.296  14.934  1.00  0.00     0.006 A 
ENDBRANCH  62  79
ENDBRANCH  36  37
ENDBRANCH  28  31
ENDBRANCH  26  27
ENDBRANCH  25  26
ENDBRANCH  24  25
ENDBRANCH   3  24
TORSDOF 16
