REMARK SMILES C[C@@H]1[NH2+]CC[C@H]1C(=O)N[C@@H]1CCC[C@H](C(=O)NCCCNC(=O)c2ccc(-c3c4nc(c(-c5c(F)cccc5F)c5ccc([nH]5)c(-c5c(F)cccc5F)c5nc(c(-c6c(F)cccc6F)c6ccc3[nH]6)C=C5)C=C4)cc2)C1
REMARK SMILES IDX 19 1 18 2 17 3 15 4 16 5 14 7 10 8 11 9 78 10 12 11 13 12
REMARK SMILES IDX 9 13 7 14 8 15 6 17 1 18 2 19 3 20 4 21 5 24 20 25 21 26
REMARK SMILES IDX 22 27 23 29 24 30 25 31 77 32 26 33 76 34 27 35 28 36 29 37
REMARK SMILES IDX 70 38 30 39 75 40 69 41 71 42 31 43 74 44 68 45 67 46 32 48
REMARK SMILES IDX 58 49 41 50 57 51 42 52 45 53 56 54 72 55 43 56 44 57 55 59
REMARK SMILES IDX 73 60 46 61 33 62 34 63 39 64 35 65 36 66 38 67 40 68 37 69
REMARK SMILES IDX 59 70 60 71 65 72 61 73 62 74 64 75 66 76 63 77 47 78 48 79
REMARK SMILES IDX 53 80 49 81 50 82 52 83 54 84 51 85
REMARK H PARENT 17 6 9 16 3 22 3 23 21 28 71 47 45 58
REMARK Flexibility Score: inf
ROOT
ATOM      1  C   UNL     1       2.954  -3.172   2.856  1.00  0.00     0.042 C 
ENDROOT
BRANCH   1   2
ATOM      2  C   UNL     1       1.926  -2.352   2.097  1.00  0.00     0.117 C 
BRANCH   2   3
ATOM      3  N   UNL     1       0.846  -3.182   1.575  1.00  0.00    -0.356 N 
ATOM      4  C   UNL     1      -0.488  -3.217   1.852  1.00  0.00     0.223 C 
ATOM      5  O   UNL     1      -1.168  -4.061   1.264  1.00  0.00    -0.275 OA
ATOM      6  H   UNL     1       1.133  -3.836   0.897  1.00  0.00     0.163 HD
BRANCH   4   7
ATOM      7  C   UNL     1      -1.149  -2.201   2.781  1.00  0.00     0.080 C 
ATOM      8  C   UNL     1      -1.166   0.419   3.017  1.00  0.00     0.082 C 
ATOM      9  C   UNL     1      -0.668   0.174   4.454  1.00  0.00     0.025 C 
ATOM     10  C   UNL     1      -0.998  -0.815   2.157  1.00  0.00     0.038 C 
ATOM     11  C   UNL     1      -1.170  -1.135   5.052  1.00  0.00     0.003 C 
ATOM     12  C   UNL     1      -0.701  -2.327   4.230  1.00  0.00     0.013 C 
BRANCH   8  13
ATOM     13  N   UNL     1      -0.477   1.627   2.498  1.00  0.00    -0.353 N 
ATOM     14  C   UNL     1      -0.093   2.190   1.326  1.00  0.00     0.229 C 
ATOM     15  O   UNL     1       0.354   3.341   1.441  1.00  0.00    -0.275 OA
ATOM     16  H   UNL     1      -0.212   2.208   3.248  1.00  0.00     0.163 HD
BRANCH  14  17
ATOM     17  C   UNL     1      -0.096   1.565  -0.069  1.00  0.00     0.142 C 
ATOM     18  C   UNL     1       2.135   0.855  -1.106  1.00  0.00     0.076 C 
ATOM     19  C   UNL     1       0.925   0.449  -0.268  1.00  0.00     0.192 C 
ATOM     20  N   UNL     1       0.252  -0.657  -0.960  1.00  0.00    -0.343 N 
ATOM     21  C   UNL     1      -1.133  -0.283  -1.239  1.00  0.00     0.261 C 
ATOM     22  H   UNL     1       0.267  -1.489  -0.369  1.00  0.00     0.346 HD
ATOM     23  H   UNL     1       0.735  -0.856  -1.837  1.00  0.00     0.346 HD
ATOM     24  C   UNL     1      -1.430   1.045  -0.563  1.00  0.00     0.081 C 
ENDBRANCH  14  17
ENDBRANCH   8  13
ENDBRANCH   4   7
ENDBRANCH   2   3
ENDBRANCH   1   2
BRANCH   1  25
ATOM     25  C   UNL     1       3.779  -4.082   1.956  1.00  0.00     0.118 C 
BRANCH  25  26
ATOM     26  N   UNL     1       4.679  -3.345   1.078  1.00  0.00    -0.352 N 
ATOM     27  C   UNL     1       6.046  -3.383   0.973  1.00  0.00     0.251 C 
ATOM     28  H   UNL     1       4.234  -2.719   0.462  1.00  0.00     0.163 HD
ATOM     29  O   UNL     1       6.621  -2.544   0.277  1.00  0.00    -0.269 OA
BRANCH  27  30
ATOM     30  C   UNL     1       6.841  -4.393   1.705  1.00  0.00     0.039 A 
ATOM     31  C   UNL     1       8.069  -4.011   2.252  1.00  0.00     0.014 A 
ATOM     32  C   UNL     1       6.402  -5.712   1.844  1.00  0.00     0.014 A 
ATOM     33  C   UNL     1       8.813  -4.928   2.997  1.00  0.00     0.010 A 
ATOM     34  C   UNL     1       7.092  -6.594   2.674  1.00  0.00     0.010 A 
ATOM     35  C   UNL     1       8.309  -6.215   3.254  1.00  0.00    -0.014 A 
BRANCH  35  36
ATOM     36  C   UNL     1       9.047  -7.154   4.138  1.00  0.00     0.031 A 
ATOM     37  C   UNL     1       9.554  -8.470   3.611  1.00  0.00     0.074 A 
ATOM     38  C   UNL     1       9.235  -6.831   5.433  1.00  0.00     0.049 A 
ATOM     39  N   UNL     1      10.227  -9.405   4.235  1.00  0.00    -0.248 NA
ATOM     40  C   UNL     1       9.245  -8.793   2.209  1.00  0.00     0.031 C 
ATOM     41  C   UNL     1       8.729  -5.620   6.085  1.00  0.00     0.029 A 
ATOM     42  N   UNL     1       9.904  -7.489   6.434  1.00  0.00    -0.354 N 
ATOM     43  C   UNL     1      10.423 -10.417   3.304  1.00  0.00     0.074 A 
ATOM     44  C   UNL     1       9.737 -10.018   2.096  1.00  0.00     0.031 C 
ATOM     45  C   UNL     1       9.138  -5.604   7.363  1.00  0.00     0.029 A 
ATOM     46  C   UNL     1       9.903  -6.816   7.632  1.00  0.00     0.049 A 
ATOM     47  H   UNL     1      10.344  -8.361   6.305  1.00  0.00     0.167 HD
ATOM     48  C   UNL     1      11.139 -11.560   3.432  1.00  0.00     0.037 A 
ATOM     49  C   UNL     1      10.458  -7.138   8.815  1.00  0.00     0.037 A 
ATOM     50  C   UNL     1      11.830 -11.953   4.632  1.00  0.00     0.049 A 
ATOM     51  C   UNL     1      11.253  -8.410   8.928  1.00  0.00     0.074 A 
ATOM     52  C   UNL     1      12.613 -13.073   4.850  1.00  0.00     0.029 A 
ATOM     53  N   UNL     1      11.821 -11.236   5.820  1.00  0.00    -0.354 N 
ATOM     54  N   UNL     1      11.490  -9.321   8.015  1.00  0.00    -0.248 NA
ATOM     55  C   UNL     1      11.869  -8.690  10.232  1.00  0.00     0.031 C 
ATOM     56  C   UNL     1      13.043 -13.056   6.181  1.00  0.00     0.029 A 
ATOM     57  C   UNL     1      12.571 -11.898   6.778  1.00  0.00     0.049 A 
ATOM     58  H   UNL     1      11.350 -10.383   5.961  1.00  0.00     0.167 HD
ATOM     59  C   UNL     1      12.297 -10.271   8.628  1.00  0.00     0.074 A 
ATOM     60  C   UNL     1      12.534  -9.807   9.979  1.00  0.00     0.031 C 
ATOM     61  C   UNL     1      12.792 -11.427   8.121  1.00  0.00     0.037 A 
BRANCH  48  62
ATOM     62  C   UNL     1      11.227 -12.460   2.232  1.00  0.00     0.057 A 
ATOM     63  C   UNL     1      11.958 -12.094   1.093  1.00  0.00     0.134 A 
ATOM     64  C   UNL     1      10.617 -13.720   2.229  1.00  0.00     0.134 A 
ATOM     65  F   UNL     1      12.556 -10.895   1.024  1.00  0.00    -0.206 F 
ATOM     66  C   UNL     1      12.060 -12.940  -0.014  1.00  0.00     0.040 A 
ATOM     67  C   UNL     1      10.737 -14.586   1.140  1.00  0.00     0.040 A 
ATOM     68  F   UNL     1       9.907 -14.137   3.288  1.00  0.00    -0.206 F 
ATOM     69  C   UNL     1      11.455 -14.194   0.012  1.00  0.00     0.006 A 
ENDBRANCH  48  62
BRANCH  49  70
ATOM     70  C   UNL     1      10.300  -6.236   9.985  1.00  0.00     0.057 A 
ATOM     71  C   UNL     1      11.389  -5.538  10.519  1.00  0.00     0.134 A 
ATOM     72  C   UNL     1       9.058  -6.066  10.610  1.00  0.00     0.134 A 
ATOM     73  F   UNL     1      12.608  -5.671   9.976  1.00  0.00    -0.206 F 
ATOM     74  C   UNL     1      11.257  -4.728  11.648  1.00  0.00     0.040 A 
ATOM     75  C   UNL     1       8.905  -5.236  11.721  1.00  0.00     0.040 A 
ATOM     76  F   UNL     1       7.972  -6.698  10.141  1.00  0.00    -0.206 F 
ATOM     77  C   UNL     1      10.010  -4.573  12.250  1.00  0.00     0.006 A 
ENDBRANCH  49  70
BRANCH  61  78
ATOM     78  C   UNL     1      13.653 -12.253   9.032  1.00  0.00     0.057 A 
ATOM     79  C   UNL     1      13.123 -12.930  10.139  1.00  0.00     0.134 A 
ATOM     80  C   UNL     1      15.029 -12.376   8.799  1.00  0.00     0.134 A 
ATOM     81  F   UNL     1      11.815 -12.843  10.427  1.00  0.00    -0.206 F 
ATOM     82  C   UNL     1      13.936 -13.666  11.003  1.00  0.00     0.040 A 
ATOM     83  C   UNL     1      15.846 -13.135   9.637  1.00  0.00     0.040 A 
ATOM     84  F   UNL     1      15.600 -11.764   7.750  1.00  0.00    -0.206 F 
ATOM     85  C   UNL     1      15.302 -13.773  10.750  1.00  0.00     0.006 A 
ENDBRANCH  61  78
ENDBRANCH  35  36
ENDBRANCH  27  30
ENDBRANCH  25  26
ENDBRANCH   1  25
TORSDOF 12
