REMARK SMILES CC[N@@H+](Cc1cccc(C)n1)Cc1csc(C(=O)NCCCNC(=O)c2ccc(-c3c4nc(c(-c5c(F)cccc5F)c5ccc([nH]5)c(-c5c(F)cccc5F)c5nc(c(-c6c(F)cccc6F)c6ccc3[nH]6)C=C5)C=C4)cc2)n1
REMARK SMILES IDX 20 1 19 2 17 3 18 4 16 6 13 7 14 8 80 9 15 10 12 11 3 12
REMARK SMILES IDX 2 14 1 15 4 16 5 17 6 18 11 19 7 20 9 21 8 22 10 23 21 24
REMARK SMILES IDX 22 25 23 26 24 27 25 29 26 30 27 31 79 32 28 33 78 34 29 35
REMARK SMILES IDX 30 36 31 37 72 38 32 39 77 40 71 41 73 42 33 43 76 44 70 45
REMARK SMILES IDX 69 46 34 48 60 49 43 50 59 51 44 52 47 53 58 54 74 55 45 56
REMARK SMILES IDX 46 57 57 59 75 60 48 61 35 62 36 63 41 64 37 65 38 66 40 67
REMARK SMILES IDX 42 68 39 69 61 70 62 71 67 72 63 73 64 74 66 75 68 76 65 77
REMARK SMILES IDX 49 78 50 79 55 80 51 81 52 82 54 83 56 84 53 85
REMARK H PARENT 19 5 3 13 23 28 73 47 47 58
REMARK Flexibility Score: inf
ROOT
ATOM      1  C   UNL     1      -0.008   4.226  -2.877  1.00  0.00     0.118 C 
ENDROOT
BRANCH   1   2
ATOM      2  N   UNL     1       1.040   5.193  -2.607  1.00  0.00    -0.350 N 
ATOM      3  C   UNL     1       2.397   5.006  -2.415  1.00  0.00     0.280 C 
ATOM      4  O   UNL     1       3.056   6.045  -2.275  1.00  0.00    -0.267 OA
ATOM      5  H   UNL     1       0.738   6.129  -2.550  1.00  0.00     0.163 HD
BRANCH   3   6
ATOM      6  C   UNL     1       2.984   3.664  -2.397  1.00  0.00     0.181 A 
ATOM      7  C   UNL     1       3.151   1.432  -2.443  1.00  0.00     0.106 A 
ATOM      8  C   UNL     1       4.494   1.766  -2.445  1.00  0.00     0.097 A 
ATOM      9  N   UNL     1       2.304   2.535  -2.381  1.00  0.00    -0.230 NA
ATOM     10  S   UNL     1       4.692   3.467  -2.396  1.00  0.00    -0.117 S 
BRANCH   7  11
ATOM     11  C   UNL     1       2.606   0.021  -2.539  1.00  0.00     0.320 C 
BRANCH  11  12
ATOM     12  N   UNL     1       1.142  -0.124  -2.435  1.00  0.00    -0.325 N 
ATOM     13  H   UNL     1       0.991  -1.133  -2.438  1.00  0.00     0.348 HD
BRANCH  12  14
ATOM     14  C   UNL     1       0.553   0.333  -1.171  1.00  0.00     0.259 C 
ATOM     15  C   UNL     1       1.094  -0.374   0.065  1.00  0.00     0.071 C 
ENDBRANCH  12  14
BRANCH  12  16
ATOM     16  C   UNL     1       0.445   0.461  -3.602  1.00  0.00     0.319 C 
BRANCH  16  17
ATOM     17  C   UNL     1       0.001  -0.522  -4.671  1.00  0.00     0.095 A 
ATOM     18  C   UNL     1      -0.180  -1.876  -4.410  1.00  0.00     0.030 A 
ATOM     19  N   UNL     1      -0.313   0.026  -5.876  1.00  0.00    -0.252 NA
ATOM     20  C   UNL     1      -0.684  -2.693  -5.418  1.00  0.00     0.004 A 
ATOM     21  C   UNL     1      -0.813  -0.778  -6.844  1.00  0.00     0.038 A 
ATOM     22  C   UNL     1      -1.010  -2.139  -6.651  1.00  0.00     0.023 A 
ATOM     23  C   UNL     1      -1.177  -0.118  -8.139  1.00  0.00     0.067 C 
ENDBRANCH  16  17
ENDBRANCH  12  16
ENDBRANCH  11  12
ENDBRANCH   7  11
ENDBRANCH   3   6
ENDBRANCH   1   2
BRANCH   1  24
ATOM     24  C   UNL     1      -0.830   3.898  -1.633  1.00  0.00     0.042 C 
BRANCH  24  25
ATOM     25  C   UNL     1      -1.842   4.983  -1.270  1.00  0.00     0.118 C 
BRANCH  25  26
ATOM     26  N   UNL     1      -2.896   5.118  -2.269  1.00  0.00    -0.352 N 
ATOM     27  C   UNL     1      -4.260   5.099  -2.143  1.00  0.00     0.251 C 
ATOM     28  H   UNL     1      -2.572   5.245  -3.191  1.00  0.00     0.163 HD
ATOM     29  O   UNL     1      -4.957   5.063  -3.157  1.00  0.00    -0.269 OA
BRANCH  27  30
ATOM     30  C   UNL     1      -4.910   5.107  -0.815  1.00  0.00     0.039 A 
ATOM     31  C   UNL     1      -6.056   4.326  -0.629  1.00  0.00     0.014 A 
ATOM     32  C   UNL     1      -4.440   5.911   0.226  1.00  0.00     0.014 A 
ATOM     33  C   UNL     1      -6.695   4.307   0.613  1.00  0.00     0.010 A 
ATOM     34  C   UNL     1      -5.037   5.840   1.483  1.00  0.00     0.010 A 
ATOM     35  C   UNL     1      -6.171   5.040   1.689  1.00  0.00    -0.014 A 
BRANCH  35  36
ATOM     36  C   UNL     1      -6.792   4.977   3.037  1.00  0.00     0.031 A 
ATOM     37  C   UNL     1      -7.408   6.204   3.648  1.00  0.00     0.074 A 
ATOM     38  C   UNL     1      -6.738   3.829   3.739  1.00  0.00     0.049 A 
ATOM     39  N   UNL     1      -7.916   6.366   4.844  1.00  0.00    -0.248 NA
ATOM     40  C   UNL     1      -7.432   7.417   2.816  1.00  0.00     0.031 C 
ATOM     41  C   UNL     1      -6.130   2.580   3.274  1.00  0.00     0.029 A 
ATOM     42  N   UNL     1      -7.189   3.529   5.000  1.00  0.00    -0.354 N 
ATOM     43  C   UNL     1      -8.301   7.699   4.914  1.00  0.00     0.074 A 
ATOM     44  C   UNL     1      -7.929   8.312   3.658  1.00  0.00     0.031 C 
ATOM     45  C   UNL     1      -6.260   1.646   4.230  1.00  0.00     0.029 A 
ATOM     46  C   UNL     1      -6.926   2.238   5.386  1.00  0.00     0.049 A 
ATOM     47  H   UNL     1      -7.657   4.179   5.573  1.00  0.00     0.167 HD
ATOM     48  C   UNL     1      -8.924   8.348   5.927  1.00  0.00     0.037 A 
ATOM     49  C   UNL     1      -7.182   1.604   6.546  1.00  0.00     0.037 A 
ATOM     50  C   UNL     1      -9.321   7.728   7.165  1.00  0.00     0.049 A 
ATOM     51  C   UNL     1      -7.878   2.345   7.652  1.00  0.00     0.074 A 
ATOM     52  C   UNL     1     -10.015   8.286   8.224  1.00  0.00     0.029 A 
ATOM     53  N   UNL     1      -9.058   6.411   7.508  1.00  0.00    -0.354 N 
ATOM     54  N   UNL     1      -8.291   3.588   7.681  1.00  0.00    -0.248 NA
ATOM     55  C   UNL     1      -8.149   1.592   8.885  1.00  0.00     0.031 C 
ATOM     56  C   UNL     1     -10.138   7.317   9.226  1.00  0.00     0.029 A 
ATOM     57  C   UNL     1      -9.559   6.144   8.772  1.00  0.00     0.049 A 
ATOM     58  H   UNL     1      -8.585   5.762   6.939  1.00  0.00     0.167 HD
ATOM     59  C   UNL     1      -8.891   3.761   8.921  1.00  0.00     0.074 A 
ATOM     60  C   UNL     1      -8.801   2.490   9.611  1.00  0.00     0.031 C 
ATOM     61  C   UNL     1      -9.467   4.872   9.442  1.00  0.00     0.037 A 
BRANCH  48  62
ATOM     62  C   UNL     1      -9.219   9.807   5.736  1.00  0.00     0.057 A 
ATOM     63  C   UNL     1     -10.205  10.251   4.846  1.00  0.00     0.134 A 
ATOM     64  C   UNL     1      -8.534  10.778   6.477  1.00  0.00     0.134 A 
ATOM     65  F   UNL     1     -10.891   9.373   4.098  1.00  0.00    -0.206 F 
ATOM     66  C   UNL     1     -10.482  11.609   4.681  1.00  0.00     0.040 A 
ATOM     67  C   UNL     1      -8.819  12.137   6.340  1.00  0.00     0.040 A 
ATOM     68  F   UNL     1      -7.582  10.421   7.353  1.00  0.00    -0.206 F 
ATOM     69  C   UNL     1      -9.792  12.557   5.434  1.00  0.00     0.006 A 
ENDBRANCH  48  62
BRANCH  49  70
ATOM     70  C   UNL     1      -6.795   0.181   6.713  1.00  0.00     0.057 A 
ATOM     71  C   UNL     1      -7.764  -0.829   6.749  1.00  0.00     0.134 A 
ATOM     72  C   UNL     1      -5.455  -0.204   6.839  1.00  0.00     0.134 A 
ATOM     73  F   UNL     1      -9.065  -0.519   6.651  1.00  0.00    -0.206 F 
ATOM     74  C   UNL     1      -7.416  -2.169   6.922  1.00  0.00     0.040 A 
ATOM     75  C   UNL     1      -5.091  -1.543   6.990  1.00  0.00     0.040 A 
ATOM     76  F   UNL     1      -4.480   0.716   6.804  1.00  0.00    -0.206 F 
ATOM     77  C   UNL     1      -6.075  -2.529   7.038  1.00  0.00     0.006 A 
ENDBRANCH  49  70
BRANCH  61  78
ATOM     78  C   UNL     1     -10.071   4.754  10.809  1.00  0.00     0.057 A 
ATOM     79  C   UNL     1      -9.281   4.671  11.962  1.00  0.00     0.134 A 
ATOM     80  C   UNL     1     -11.462   4.761  10.976  1.00  0.00     0.134 A 
ATOM     81  F   UNL     1      -7.943   4.645  11.868  1.00  0.00    -0.206 F 
ATOM     82  C   UNL     1      -9.853   4.579  13.232  1.00  0.00     0.040 A 
ATOM     83  C   UNL     1     -12.045   4.694  12.242  1.00  0.00     0.040 A 
ATOM     84  F   UNL     1     -12.275   4.846   9.912  1.00  0.00    -0.206 F 
ATOM     85  C   UNL     1     -11.239   4.597  13.374  1.00  0.00     0.006 A 
ENDBRANCH  61  78
ENDBRANCH  35  36
ENDBRANCH  27  30
ENDBRANCH  25  26
ENDBRANCH  24  25
ENDBRANCH   1  24
TORSDOF 15
