REMARK SMILES C[C@]1(c2nnnn2CCC(=O)NCCCNC(=O)c2ccc(-c3c4nc(c(-c5c(F)cccc5F)c5ccc([nH]5)c(-c5c(F)cccc5F)c5nc(c(-c6c(F)cccc6F)c6ccc3[nH]6)C=C5)C=C4)cc2)CCCO1
REMARK SMILES IDX 13 1 12 2 10 3 11 4 9 6 8 7 7 8 3 9 4 10 5 11 6 12 2 13 1 14
REMARK SMILES IDX 73 15 76 16 74 17 75 18 14 19 15 20 16 21 17 22 18 24 19 25
REMARK SMILES IDX 20 26 72 27 21 28 71 29 22 30 23 31 24 32 65 33 25 34 70 35
REMARK SMILES IDX 64 36 66 37 26 38 69 39 63 40 62 41 27 43 53 44 36 45 52 46
REMARK SMILES IDX 37 47 40 48 51 49 67 50 38 51 39 52 50 54 68 55 41 56 28 57
REMARK SMILES IDX 29 58 34 59 30 60 31 61 33 62 35 63 32 64 54 65 55 66 60 67
REMARK SMILES IDX 56 68 57 69 59 70 61 71 58 72 42 73 43 74 48 75 44 76 45 77
REMARK SMILES IDX 47 78 49 79 46 80
REMARK H PARENT 12 5 16 23 66 42 40 53
REMARK Flexibility Score: inf
ROOT
ATOM      1  C   UNL     1       4.498  -0.109  -0.031  1.00  0.00     0.117 C 
ENDROOT
BRANCH   1   2
ATOM      2  N   UNL     1       4.622   0.758   1.137  1.00  0.00    -0.356 N 
ATOM      3  C   UNL     1       3.806   0.885   2.224  1.00  0.00     0.221 C 
ATOM      4  O   UNL     1       4.020   1.799   3.022  1.00  0.00    -0.275 OA
ATOM      5  H   UNL     1       5.415   1.341   1.142  1.00  0.00     0.163 HD
BRANCH   3   6
ATOM      6  C   UNL     1       2.700  -0.118   2.476  1.00  0.00     0.124 C 
BRANCH   6   7
ATOM      7  C   UNL     1       1.297   0.462   2.334  1.00  0.00     0.158 C 
BRANCH   7   8
ATOM      8  N   UNL     1       0.888   0.768   0.984  1.00  0.00    -0.226 N 
ATOM      9  C   UNL     1       0.444  -0.013  -0.061  1.00  0.00     0.183 A 
ATOM     10  N   UNL     1       0.332   0.785  -1.114  1.00  0.00    -0.111 NA
ATOM     11  N   UNL     1       0.586   2.056  -0.685  1.00  0.00    -0.024 NA
ATOM     12  N   UNL     1       0.918   2.060   0.594  1.00  0.00    -0.045 NA
BRANCH   9  13
ATOM     13  C   UNL     1       0.049  -1.458  -0.065  1.00  0.00     0.126 C 
ATOM     14  C   UNL     1      -1.107  -1.657  -1.069  1.00  0.00     0.051 C 
ATOM     15  C   UNL     1       1.180  -2.441  -0.351  1.00  0.00     0.046 C 
ATOM     16  O   UNL     1      -0.424  -1.827   1.243  1.00  0.00    -0.367 OA
ATOM     17  C   UNL     1       0.639  -3.721   0.248  1.00  0.00     0.032 C 
ATOM     18  C   UNL     1      -0.119  -3.217   1.462  1.00  0.00     0.161 C 
ENDBRANCH   9  13
ENDBRANCH   7   8
ENDBRANCH   6   7
ENDBRANCH   3   6
ENDBRANCH   1   2
BRANCH   1  19
ATOM     19  C   UNL     1       3.615   0.526  -1.101  1.00  0.00     0.042 C 
BRANCH  19  20
ATOM     20  C   UNL     1       4.350   1.511  -1.974  1.00  0.00     0.118 C 
BRANCH  20  21
ATOM     21  N   UNL     1       4.982   0.934  -3.162  1.00  0.00    -0.352 N 
ATOM     22  C   UNL     1       5.490   1.617  -4.260  1.00  0.00     0.251 C 
ATOM     23  H   UNL     1       5.056  -0.048  -3.185  1.00  0.00     0.163 HD
ATOM     24  O   UNL     1       5.745   1.025  -5.307  1.00  0.00    -0.269 OA
BRANCH  22  25
ATOM     25  C   UNL     1       5.703   3.077  -4.154  1.00  0.00     0.039 A 
ATOM     26  C   UNL     1       5.546   3.964  -5.221  1.00  0.00     0.014 A 
ATOM     27  C   UNL     1       6.011   3.571  -2.898  1.00  0.00     0.014 A 
ATOM     28  C   UNL     1       5.659   5.333  -4.965  1.00  0.00     0.010 A 
ATOM     29  C   UNL     1       5.741   4.867  -2.599  1.00  0.00     0.010 A 
ATOM     30  C   UNL     1       5.755   5.772  -3.634  1.00  0.00    -0.014 A 
BRANCH  30  31
ATOM     31  C   UNL     1       5.872   7.170  -3.249  1.00  0.00     0.031 A 
ATOM     32  C   UNL     1       4.788   8.024  -3.769  1.00  0.00     0.074 A 
ATOM     33  C   UNL     1       6.741   7.614  -2.308  1.00  0.00     0.049 A 
ATOM     34  N   UNL     1       4.853   8.856  -4.752  1.00  0.00    -0.248 NA
ATOM     35  C   UNL     1       3.431   7.821  -3.240  1.00  0.00     0.031 C 
ATOM     36  C   UNL     1       7.602   6.816  -1.415  1.00  0.00     0.029 A 
ATOM     37  N   UNL     1       6.973   8.886  -1.872  1.00  0.00    -0.354 N 
ATOM     38  C   UNL     1       3.614   9.483  -4.776  1.00  0.00     0.074 A 
ATOM     39  C   UNL     1       2.724   8.653  -4.009  1.00  0.00     0.031 C 
ATOM     40  C   UNL     1       8.062   7.586  -0.407  1.00  0.00     0.029 A 
ATOM     41  C   UNL     1       7.722   8.962  -0.703  1.00  0.00     0.049 A 
ATOM     42  H   UNL     1       6.638   9.682  -2.345  1.00  0.00     0.167 HD
ATOM     43  C   UNL     1       3.524  10.795  -5.125  1.00  0.00     0.037 A 
ATOM     44  C   UNL     1       8.076  10.079  -0.027  1.00  0.00     0.037 A 
ATOM     45  C   UNL     1       4.776  11.265  -5.666  1.00  0.00     0.049 A 
ATOM     46  C   UNL     1       7.997  11.214  -0.970  1.00  0.00     0.074 A 
ATOM     47  C   UNL     1       5.456  11.182  -6.860  1.00  0.00     0.029 A 
ATOM     48  N   UNL     1       5.680  11.635  -4.706  1.00  0.00    -0.354 N 
ATOM     49  N   UNL     1       8.773  11.341  -2.011  1.00  0.00    -0.248 NA
ATOM     50  C   UNL     1       6.811  12.062  -0.965  1.00  0.00     0.031 C 
ATOM     51  C   UNL     1       6.834  11.400  -6.556  1.00  0.00     0.029 A 
ATOM     52  C   UNL     1       6.960  11.640  -5.191  1.00  0.00     0.049 A 
ATOM     53  H   UNL     1       5.438  11.868  -3.780  1.00  0.00     0.167 HD
ATOM     54  C   UNL     1       7.971  11.943  -2.958  1.00  0.00     0.074 A 
ATOM     55  C   UNL     1       6.859  12.524  -2.217  1.00  0.00     0.031 C 
ATOM     56  C   UNL     1       8.082  11.625  -4.278  1.00  0.00     0.037 A 
BRANCH  43  57
ATOM     57  C   UNL     1       2.536  11.782  -4.550  1.00  0.00     0.057 A 
ATOM     58  C   UNL     1       2.444  13.061  -5.131  1.00  0.00     0.134 A 
ATOM     59  C   UNL     1       1.907  11.650  -3.296  1.00  0.00     0.134 A 
ATOM     60  F   UNL     1       3.019  13.321  -6.314  1.00  0.00    -0.206 F 
ATOM     61  C   UNL     1       1.824  14.137  -4.484  1.00  0.00     0.040 A 
ATOM     62  C   UNL     1       1.240  12.704  -2.665  1.00  0.00     0.040 A 
ATOM     63  F   UNL     1       1.994  10.534  -2.562  1.00  0.00    -0.206 F 
ATOM     64  C   UNL     1       1.222  13.962  -3.245  1.00  0.00     0.006 A 
ENDBRANCH  43  57
BRANCH  44  65
ATOM     65  C   UNL     1       8.271  10.265   1.423  1.00  0.00     0.057 A 
ATOM     66  C   UNL     1       9.026  11.333   1.925  1.00  0.00     0.134 A 
ATOM     67  C   UNL     1       7.474   9.573   2.352  1.00  0.00     0.134 A 
ATOM     68  F   UNL     1       9.796  12.063   1.106  1.00  0.00    -0.206 F 
ATOM     69  C   UNL     1       8.959  11.722   3.268  1.00  0.00     0.040 A 
ATOM     70  C   UNL     1       7.398   9.951   3.696  1.00  0.00     0.040 A 
ATOM     71  F   UNL     1       6.675   8.570   1.960  1.00  0.00    -0.206 F 
ATOM     72  C   UNL     1       8.128  11.041   4.154  1.00  0.00     0.006 A 
ENDBRANCH  44  65
BRANCH  56  73
ATOM     73  C   UNL     1       9.387  11.073  -4.755  1.00  0.00     0.057 A 
ATOM     74  C   UNL     1       9.886   9.805  -4.429  1.00  0.00     0.134 A 
ATOM     75  C   UNL     1      10.139  11.841  -5.650  1.00  0.00     0.134 A 
ATOM     76  F   UNL     1       9.203   8.977  -3.628  1.00  0.00    -0.206 F 
ATOM     77  C   UNL     1      11.095   9.336  -4.952  1.00  0.00     0.040 A 
ATOM     78  C   UNL     1      11.333  11.374  -6.202  1.00  0.00     0.040 A 
ATOM     79  F   UNL     1       9.704  13.053  -6.031  1.00  0.00    -0.206 F 
ATOM     80  C   UNL     1      11.819  10.120  -5.847  1.00  0.00     0.006 A 
ENDBRANCH  56  73
ENDBRANCH  30  31
ENDBRANCH  22  25
ENDBRANCH  20  21
ENDBRANCH  19  20
ENDBRANCH   1  19
TORSDOF 13
