REMARK SMILES O=CN[C@H](C(=O)NCCCNC(=O)c1ccc(-c2c3nc(c(-c4c(F)cccc4F)c4ccc([nH]4)c(-c4c(F)cccc4F)c4nc(c(-c5c(F)cccc5F)c5ccc2[nH]5)C=C4)C=C3)cc1)[C@@H]1CCO[C@@]2(CCOC2)C1
REMARK SMILES IDX 9 1 8 2 7 3 5 4 6 5 4 7 3 8 1 9 2 10 68 12 69 13 77 14 70 15
REMARK SMILES IDX 72 16 71 17 73 18 76 19 74 20 75 21 10 22 11 23 12 24 13 26
REMARK SMILES IDX 14 27 15 28 67 29 16 30 66 31 17 32 18 33 19 34 60 35 20 36
REMARK SMILES IDX 65 37 59 38 61 39 21 40 64 41 58 42 57 43 22 45 48 46 31 47
REMARK SMILES IDX 47 48 32 49 35 50 46 51 62 52 33 53 34 54 45 56 63 57 36 58
REMARK SMILES IDX 23 59 24 60 29 61 25 62 26 63 28 64 30 65 27 66 49 67 50 68
REMARK SMILES IDX 55 69 51 70 52 71 54 72 56 73 53 74 37 75 38 76 43 77 39 78
REMARK SMILES IDX 40 79 42 80 44 81 41 82
REMARK H PARENT 7 6 3 11 11 25 61 44 35 55
REMARK Flexibility Score: inf
ROOT
ATOM      1  C   UNL     1       2.375   2.401  -3.099  1.00  0.00     0.042 C 
ENDROOT
BRANCH   1   2
ATOM      2  C   UNL     1       2.677   1.982  -1.653  1.00  0.00     0.117 C 
BRANCH   2   3
ATOM      3  N   UNL     1       2.183   0.657  -1.292  1.00  0.00    -0.354 N 
ATOM      4  C   UNL     1       2.806  -0.531  -1.029  1.00  0.00     0.242 C 
ATOM      5  O   UNL     1       2.076  -1.494  -0.780  1.00  0.00    -0.273 OA
ATOM      6  H   UNL     1       1.202   0.609  -1.223  1.00  0.00     0.163 HD
BRANCH   4   7
ATOM      7  C   UNL     1       4.350  -0.670  -1.085  1.00  0.00     0.174 C 
BRANCH   7   8
ATOM      8  N   UNL     1       4.922  -1.350   0.078  1.00  0.00    -0.347 N 
ATOM      9  O   UNL     1       5.179  -3.052   1.539  1.00  0.00    -0.279 OA
ATOM     10  C   UNL     1       4.526  -2.522   0.651  1.00  0.00     0.337 C 
ATOM     11  H   UNL     1       5.691  -0.905   0.501  1.00  0.00     0.164 HD
ENDBRANCH   7   8
BRANCH   7  12
ATOM     12  C   UNL     1       4.971  -1.054  -2.467  1.00  0.00     0.026 C 
ATOM     13  C   UNL     1       4.051  -0.855  -3.677  1.00  0.00     0.035 C 
ATOM     14  C   UNL     1       5.739  -2.390  -2.607  1.00  0.00     0.044 C 
ATOM     15  C   UNL     1       3.267  -2.100  -4.025  1.00  0.00     0.161 C 
ATOM     16  C   UNL     1       5.000  -3.556  -3.314  1.00  0.00     0.094 C 
ATOM     17  O   UNL     1       4.188  -3.110  -4.396  1.00  0.00    -0.372 OA
ATOM     18  C   UNL     1       5.999  -4.561  -3.876  1.00  0.00     0.066 C 
ATOM     19  C   UNL     1       4.247  -4.478  -2.358  1.00  0.00     0.195 C 
ATOM     20  C   UNL     1       6.353  -5.403  -2.671  1.00  0.00     0.163 C 
ATOM     21  O   UNL     1       5.220  -5.367  -1.791  1.00  0.00    -0.378 OA
ENDBRANCH   7  12
ENDBRANCH   4   7
ENDBRANCH   2   3
ENDBRANCH   1   2
BRANCH   1  22
ATOM     22  C   UNL     1       0.966   2.085  -3.602  1.00  0.00     0.118 C 
BRANCH  22  23
ATOM     23  N   UNL     1       0.042   3.167  -3.319  1.00  0.00    -0.352 N 
ATOM     24  C   UNL     1      -0.610   3.995  -4.201  1.00  0.00     0.251 C 
ATOM     25  H   UNL     1      -0.143   3.331  -2.366  1.00  0.00     0.163 HD
ATOM     26  O   UNL     1      -1.129   5.029  -3.791  1.00  0.00    -0.269 OA
BRANCH  24  27
ATOM     27  C   UNL     1      -0.697   3.655  -5.642  1.00  0.00     0.039 A 
ATOM     28  C   UNL     1      -0.507   4.671  -6.585  1.00  0.00     0.014 A 
ATOM     29  C   UNL     1      -1.052   2.371  -6.068  1.00  0.00     0.014 A 
ATOM     30  C   UNL     1      -0.655   4.399  -7.949  1.00  0.00     0.010 A 
ATOM     31  C   UNL     1      -1.153   2.089  -7.433  1.00  0.00     0.010 A 
ATOM     32  C   UNL     1      -0.976   3.104  -8.386  1.00  0.00    -0.014 A 
BRANCH  32  33
ATOM     33  C   UNL     1      -1.177   2.815  -9.831  1.00  0.00     0.031 A 
ATOM     34  C   UNL     1      -2.547   2.471 -10.353  1.00  0.00     0.074 A 
ATOM     35  C   UNL     1      -0.128   2.829 -10.676  1.00  0.00     0.049 A 
ATOM     36  N   UNL     1      -2.914   2.147 -11.568  1.00  0.00    -0.248 NA
ATOM     37  C   UNL     1      -3.646   2.473  -9.375  1.00  0.00     0.031 C 
ATOM     38  C   UNL     1       1.256   3.116 -10.302  1.00  0.00     0.029 A 
ATOM     39  N   UNL     1      -0.066   2.588 -12.027  1.00  0.00    -0.354 N 
ATOM     40  C   UNL     1      -4.278   1.889 -11.496  1.00  0.00     0.074 A 
ATOM     41  C   UNL     1      -4.666   2.059 -10.112  1.00  0.00     0.031 C 
ATOM     42  C   UNL     1       2.030   3.046 -11.398  1.00  0.00     0.029 A 
ATOM     43  C   UNL     1       1.202   2.686 -12.546  1.00  0.00     0.049 A 
ATOM     44  H   UNL     1      -0.855   2.366 -12.572  1.00  0.00     0.167 HD
ATOM     45  C   UNL     1      -5.134   1.560 -12.493  1.00  0.00     0.037 A 
ATOM     46  C   UNL     1       1.649   2.502 -13.803  1.00  0.00     0.037 A 
ATOM     47  C   UNL     1      -4.762   1.425 -13.877  1.00  0.00     0.049 A 
ATOM     48  C   UNL     1       0.679   2.146 -14.894  1.00  0.00     0.074 A 
ATOM     49  C   UNL     1      -5.574   1.158 -14.966  1.00  0.00     0.029 A 
ATOM     50  N   UNL     1      -3.470   1.550 -14.363  1.00  0.00    -0.354 N 
ATOM     51  N   UNL     1      -0.617   1.962 -14.820  1.00  0.00    -0.248 NA
ATOM     52  C   UNL     1       1.232   1.978 -16.246  1.00  0.00     0.031 C 
ATOM     53  C   UNL     1      -4.768   1.089 -16.108  1.00  0.00     0.029 A 
ATOM     54  C   UNL     1      -3.460   1.348 -15.734  1.00  0.00     0.049 A 
ATOM     55  H   UNL     1      -2.678   1.751 -13.816  1.00  0.00     0.167 HD
ATOM     56  C   UNL     1      -1.036   1.680 -16.114  1.00  0.00     0.074 A 
ATOM     57  C   UNL     1       0.141   1.728 -16.956  1.00  0.00     0.031 C 
ATOM     58  C   UNL     1      -2.284   1.405 -16.562  1.00  0.00     0.037 A 
BRANCH  45  59
ATOM     59  C   UNL     1      -6.568   1.325 -12.122  1.00  0.00     0.057 A 
ATOM     60  C   UNL     1      -7.423   2.379 -11.779  1.00  0.00     0.134 A 
ATOM     61  C   UNL     1      -7.110   0.033 -12.145  1.00  0.00     0.134 A 
ATOM     62  F   UNL     1      -6.963   3.638 -11.728  1.00  0.00    -0.206 F 
ATOM     63  C   UNL     1      -8.761   2.156 -11.449  1.00  0.00     0.040 A 
ATOM     64  C   UNL     1      -8.452  -0.200 -11.839  1.00  0.00     0.040 A 
ATOM     65  F   UNL     1      -6.346  -1.020 -12.472  1.00  0.00    -0.206 F 
ATOM     66  C   UNL     1      -9.280   0.863 -11.485  1.00  0.00     0.006 A 
ENDBRANCH  45  59
BRANCH  46  67
ATOM     67  C   UNL     1       3.091   2.673 -14.106  1.00  0.00     0.057 A 
ATOM     68  C   UNL     1       3.550   3.783 -14.823  1.00  0.00     0.134 A 
ATOM     69  C   UNL     1       4.040   1.731 -13.693  1.00  0.00     0.134 A 
ATOM     70  F   UNL     1       2.684   4.708 -15.262  1.00  0.00    -0.206 F 
ATOM     71  C   UNL     1       4.901   3.946 -15.131  1.00  0.00     0.040 A 
ATOM     72  C   UNL     1       5.397   1.890 -13.977  1.00  0.00     0.040 A 
ATOM     73  F   UNL     1       3.662   0.648 -12.999  1.00  0.00    -0.206 F 
ATOM     74  C   UNL     1       5.830   2.998 -14.703  1.00  0.00     0.006 A 
ENDBRANCH  46  67
BRANCH  58  75
ATOM     75  C   UNL     1      -2.448   1.163 -18.033  1.00  0.00     0.057 A 
ATOM     76  C   UNL     1      -2.039  -0.036 -18.631  1.00  0.00     0.134 A 
ATOM     77  C   UNL     1      -3.054   2.123 -18.852  1.00  0.00     0.134 A 
ATOM     78  F   UNL     1      -1.440  -0.989 -17.902  1.00  0.00    -0.206 F 
ATOM     79  C   UNL     1      -2.213  -0.264 -19.997  1.00  0.00     0.040 A 
ATOM     80  C   UNL     1      -3.252   1.898 -20.215  1.00  0.00     0.040 A 
ATOM     81  F   UNL     1      -3.474   3.289 -18.338  1.00  0.00    -0.206 F 
ATOM     82  C   UNL     1      -2.827   0.703 -20.791  1.00  0.00     0.006 A 
ENDBRANCH  58  75
ENDBRANCH  32  33
ENDBRANCH  24  27
ENDBRANCH  22  23
ENDBRANCH   1  22
TORSDOF 12
