REMARK SMILES CCCCOCc1cc(C(=O)NCCCNC(=O)c2ccc(-c3c4nc(c(-c5c(F)cccc5F)c5ccc([nH]5)c(-c5c(F)cccc5F)c5nc(c(-c6c(F)cccc6F)c6ccc3[nH]6)C=C5)C=C4)cc2)[nH]n1
REMARK SMILES IDX 10 1 11 2 12 3 9 5 7 6 8 7 74 8 73 9 6 11 5 12 4 13 3 14
REMARK SMILES IDX 2 15 1 16 13 17 14 18 15 19 16 20 17 21 18 23 19 24 20 25
REMARK SMILES IDX 72 26 21 27 71 28 22 29 23 30 24 31 65 32 25 33 70 34 64 35
REMARK SMILES IDX 66 36 26 37 69 38 63 39 62 40 27 42 53 43 36 44 52 45 37 46
REMARK SMILES IDX 40 47 51 48 67 49 38 50 39 51 50 53 68 54 41 55 28 56 29 57
REMARK SMILES IDX 34 58 30 59 31 60 33 61 35 62 32 63 54 64 55 65 60 66 56 67
REMARK SMILES IDX 57 68 59 69 61 70 58 71 42 72 43 73 48 74 44 75 45 76 47 77
REMARK SMILES IDX 49 78 46 79
REMARK H PARENT 12 4 73 10 16 22 66 41 40 52
REMARK Flexibility Score: inf
ROOT
ATOM      1  C   UNL     1       0.042  -2.462   2.883  1.00  0.00     0.269 C 
ATOM      2  O   UNL     1       0.037  -3.570   3.416  1.00  0.00    -0.268 OA
ATOM      3  N   UNL     1       0.656  -1.442   3.562  1.00  0.00    -0.351 N 
ATOM      4  H   UNL     1       0.873  -1.641   4.502  1.00  0.00     0.163 HD
ENDROOT
BRANCH   1   5
ATOM      5  C   UNL     1      -0.518  -2.253   1.577  1.00  0.00     0.123 A 
ATOM      6  C   UNL     1      -1.309  -1.624  -0.414  1.00  0.00     0.089 A 
ATOM      7  C   UNL     1      -1.037  -1.167   0.900  1.00  0.00     0.061 A 
ATOM      8  N   UNL     1      -1.104  -2.944  -0.514  1.00  0.00    -0.178 NA
ATOM      9  N   UNL     1      -0.666  -3.299   0.703  1.00  0.00    -0.273 N 
ATOM     10  H   UNL     1      -0.467  -4.232   0.948  1.00  0.00     0.190 HD
BRANCH   6  11
ATOM     11  C   UNL     1      -1.748  -0.798  -1.587  1.00  0.00     0.218 C 
BRANCH  11  12
ATOM     12  O   UNL     1      -0.995  -0.963  -2.796  1.00  0.00    -0.375 OA
BRANCH  12  13
ATOM     13  C   UNL     1       0.422  -0.850  -2.698  1.00  0.00     0.160 C 
BRANCH  13  14
ATOM     14  C   UNL     1       0.923   0.596  -2.718  1.00  0.00     0.028 C 
BRANCH  14  15
ATOM     15  C   UNL     1       1.033   1.289  -1.357  1.00  0.00    -0.001 C 
ATOM     16  C   UNL     1       2.052   0.647  -0.429  1.00  0.00     0.004 C 
ENDBRANCH  14  15
ENDBRANCH  13  14
ENDBRANCH  12  13
ENDBRANCH  11  12
ENDBRANCH   6  11
ENDBRANCH   1   5
BRANCH   3  17
ATOM     17  C   UNL     1       1.037  -0.115   3.117  1.00  0.00     0.118 C 
BRANCH  17  18
ATOM     18  C   UNL     1       0.231   0.980   3.803  1.00  0.00     0.042 C 
BRANCH  18  19
ATOM     19  C   UNL     1       0.626   1.203   5.260  1.00  0.00     0.118 C 
BRANCH  19  20
ATOM     20  N   UNL     1       1.973   1.741   5.399  1.00  0.00    -0.352 N 
ATOM     21  C   UNL     1       2.426   2.871   6.033  1.00  0.00     0.251 C 
ATOM     22  H   UNL     1       2.675   1.205   4.966  1.00  0.00     0.163 HD
ATOM     23  O   UNL     1       3.593   3.219   5.873  1.00  0.00    -0.269 OA
BRANCH  21  24
ATOM     24  C   UNL     1       1.530   3.686   6.883  1.00  0.00     0.039 A 
ATOM     25  C   UNL     1       1.665   5.078   6.851  1.00  0.00     0.014 A 
ATOM     26  C   UNL     1       0.589   3.101   7.734  1.00  0.00     0.014 A 
ATOM     27  C   UNL     1       0.817   5.879   7.619  1.00  0.00     0.010 A 
ATOM     28  C   UNL     1      -0.310   3.901   8.436  1.00  0.00     0.010 A 
ATOM     29  C   UNL     1      -0.205   5.299   8.388  1.00  0.00    -0.014 A 
BRANCH  29  30
ATOM     30  C   UNL     1      -1.176   6.145   9.127  1.00  0.00     0.031 A 
ATOM     31  C   UNL     1      -1.249   6.102  10.628  1.00  0.00     0.074 A 
ATOM     32  C   UNL     1      -2.033   6.921   8.436  1.00  0.00     0.049 A 
ATOM     33  N   UNL     1      -2.039   6.764  11.436  1.00  0.00    -0.248 NA
ATOM     34  C   UNL     1      -0.333   5.175  11.309  1.00  0.00     0.031 C 
ATOM     35  C   UNL     1      -2.105   7.009   6.976  1.00  0.00     0.029 A 
ATOM     36  N   UNL     1      -3.007   7.785   8.869  1.00  0.00    -0.354 N 
ATOM     37  C   UNL     1      -1.724   6.325  12.716  1.00  0.00     0.074 A 
ATOM     38  C   UNL     1      -0.713   5.300  12.572  1.00  0.00     0.031 C 
ATOM     39  C   UNL     1      -3.041   7.908   6.636  1.00  0.00     0.029 A 
ATOM     40  C   UNL     1      -3.658   8.434   7.849  1.00  0.00     0.049 A 
ATOM     41  H   UNL     1      -3.218   7.926   9.820  1.00  0.00     0.167 HD
ATOM     42  C   UNL     1      -2.214   6.754  13.905  1.00  0.00     0.037 A 
ATOM     43  C   UNL     1      -4.638   9.355   7.886  1.00  0.00     0.037 A 
ATOM     44  C   UNL     1      -3.208   7.786  14.047  1.00  0.00     0.049 A 
ATOM     45  C   UNL     1      -5.164   9.817   9.214  1.00  0.00     0.074 A 
ATOM     46  C   UNL     1      -3.720   8.338  15.209  1.00  0.00     0.029 A 
ATOM     47  N   UNL     1      -3.846   8.419  12.991  1.00  0.00    -0.354 N 
ATOM     48  N   UNL     1      -4.804   9.449  10.420  1.00  0.00    -0.248 NA
ATOM     49  C   UNL     1      -6.229  10.829   9.186  1.00  0.00     0.031 C 
ATOM     50  C   UNL     1      -4.700   9.273  14.855  1.00  0.00     0.029 A 
ATOM     51  C   UNL     1      -4.766   9.338  13.473  1.00  0.00     0.049 A 
ATOM     52  H   UNL     1      -3.671   8.242  12.038  1.00  0.00     0.167 HD
ATOM     53  C   UNL     1      -5.583  10.196  11.294  1.00  0.00     0.074 A 
ATOM     54  C   UNL     1      -6.421  11.052  10.478  1.00  0.00     0.031 C 
ATOM     55  C   UNL     1      -5.603  10.174  12.649  1.00  0.00     0.037 A 
BRANCH  42  56
ATOM     56  C   UNL     1      -1.675   6.098  15.144  1.00  0.00     0.057 A 
ATOM     57  C   UNL     1      -0.355   6.299  15.573  1.00  0.00     0.134 A 
ATOM     58  C   UNL     1      -2.484   5.261  15.922  1.00  0.00     0.134 A 
ATOM     59  F   UNL     1       0.477   7.079  14.867  1.00  0.00    -0.206 F 
ATOM     60  C   UNL     1       0.151   5.662  16.707  1.00  0.00     0.040 A 
ATOM     61  C   UNL     1      -1.998   4.641  17.075  1.00  0.00     0.040 A 
ATOM     62  F   UNL     1      -3.759   5.030  15.575  1.00  0.00    -0.206 F 
ATOM     63  C   UNL     1      -0.674   4.832  17.465  1.00  0.00     0.006 A 
ENDBRANCH  42  56
BRANCH  43  64
ATOM     64  C   UNL     1      -5.150   9.937   6.621  1.00  0.00     0.057 A 
ATOM     65  C   UNL     1      -4.840  11.253   6.261  1.00  0.00     0.134 A 
ATOM     66  C   UNL     1      -5.939   9.193   5.737  1.00  0.00     0.134 A 
ATOM     67  F   UNL     1      -4.101  12.019   7.077  1.00  0.00    -0.206 F 
ATOM     68  C   UNL     1      -5.306  11.814   5.072  1.00  0.00     0.040 A 
ATOM     69  C   UNL     1      -6.394   9.734   4.533  1.00  0.00     0.040 A 
ATOM     70  F   UNL     1      -6.263   7.923   6.022  1.00  0.00    -0.206 F 
ATOM     71  C   UNL     1      -6.080  11.051   4.200  1.00  0.00     0.006 A 
ENDBRANCH  43  64
BRANCH  55  72
ATOM     72  C   UNL     1      -6.553  11.116  13.329  1.00  0.00     0.057 A 
ATOM     73  C   UNL     1      -7.939  10.909  13.308  1.00  0.00     0.134 A 
ATOM     74  C   UNL     1      -6.077  12.236  14.021  1.00  0.00     0.134 A 
ATOM     75  F   UNL     1      -8.460   9.862  12.650  1.00  0.00    -0.206 F 
ATOM     76  C   UNL     1      -8.819  11.799  13.926  1.00  0.00     0.040 A 
ATOM     77  C   UNL     1      -6.945  13.119  14.665  1.00  0.00     0.040 A 
ATOM     78  F   UNL     1      -4.761  12.489  14.086  1.00  0.00    -0.206 F 
ATOM     79  C   UNL     1      -8.321  12.906  14.611  1.00  0.00     0.006 A 
ENDBRANCH  55  72
ENDBRANCH  29  30
ENDBRANCH  21  24
ENDBRANCH  19  20
ENDBRANCH  18  19
ENDBRANCH  17  18
ENDBRANCH   3  17
TORSDOF 15
