REMARK SMILES CC(C)[C@H](NS(=O)(=O)c1cccc(F)c1)C(=O)NCCCNC(=O)c1ccc(-c2c3nc(c(-c4c(F)cccc4F)c4ccc([nH]4)c(-c4c(F)cccc4F)c4nc(c(-c5c(F)cccc5F)c5ccc2[nH]5)C=C4)C=C3)cc1
REMARK SMILES IDX 19 1 18 2 16 3 17 4 4 6 2 7 1 8 3 9 5 10 6 12 7 13 8 14 9 15
REMARK SMILES IDX 10 16 15 17 11 18 13 19 12 20 14 21 20 22 21 23 22 24 23 25
REMARK SMILES IDX 24 27 25 28 26 29 78 30 27 31 77 32 28 33 29 34 30 35 71 36
REMARK SMILES IDX 31 37 76 38 70 39 72 40 32 41 75 42 69 43 68 44 33 46 59 47
REMARK SMILES IDX 42 48 58 49 43 50 46 51 57 52 73 53 44 54 45 55 56 57 74 58
REMARK SMILES IDX 47 59 34 60 35 61 40 62 36 63 37 64 39 65 41 66 38 67 60 68
REMARK SMILES IDX 61 69 66 70 62 71 63 72 65 73 67 74 64 75 48 76 49 77 54 78
REMARK SMILES IDX 50 79 51 80 53 81 55 82 52 83
REMARK H PARENT 18 5 5 11 22 26 72 45 46 56
REMARK Flexibility Score: inf
ROOT
ATOM      1  C   UNL     1      -1.133   1.883   3.925  1.00  0.00     0.117 C 
ENDROOT
BRANCH   1   2
ATOM      2  N   UNL     1      -1.425   2.629   2.718  1.00  0.00    -0.355 N 
ATOM      3  C   UNL     1      -1.251   2.316   1.409  1.00  0.00     0.238 C 
ATOM      4  O   UNL     1      -1.332   3.266   0.618  1.00  0.00    -0.273 OA
ATOM      5  H   UNL     1      -1.818   3.518   2.874  1.00  0.00     0.163 HD
BRANCH   3   6
ATOM      6  C   UNL     1      -1.028   0.897   0.858  1.00  0.00     0.161 C 
BRANCH   6   7
ATOM      7  C   UNL     1      -1.932  -0.260   1.343  1.00  0.00     0.010 C 
ATOM      8  C   UNL     1      -3.382   0.162   1.602  1.00  0.00     0.009 C 
ATOM      9  C   UNL     1      -1.959  -1.390   0.294  1.00  0.00     0.009 C 
ENDBRANCH   6   7
BRANCH   6  10
ATOM     10  N   UNL     1       0.362   0.465   0.604  1.00  0.00    -0.198 NA
ATOM     11  H   UNL     1       0.756   1.206   0.023  1.00  0.00     0.142 HD
BRANCH  10  12
ATOM     12  S   UNL     1       1.565   0.114   1.694  1.00  0.00     0.241 S 
ATOM     13  O   UNL     1       2.722  -0.235   0.908  1.00  0.00    -0.207 OA
ATOM     14  O   UNL     1       1.626   1.178   2.669  1.00  0.00    -0.207 OA
BRANCH  12  15
ATOM     15  C   UNL     1       1.034  -1.368   2.510  1.00  0.00     0.085 A 
ATOM     16  C   UNL     1       0.682  -1.344   3.865  1.00  0.00     0.022 A 
ATOM     17  C   UNL     1       0.943  -2.551   1.778  1.00  0.00     0.061 A 
ATOM     18  C   UNL     1       0.122  -2.475   4.461  1.00  0.00     0.004 A 
ATOM     19  C   UNL     1       0.396  -3.673   2.388  1.00  0.00     0.124 A 
ATOM     20  C   UNL     1      -0.035  -3.640   3.712  1.00  0.00     0.039 A 
ATOM     21  F   UNL     1       0.254  -4.801   1.681  1.00  0.00    -0.207 F 
ENDBRANCH  12  15
ENDBRANCH  10  12
ENDBRANCH   6  10
ENDBRANCH   3   6
ENDBRANCH   1   2
BRANCH   1  22
ATOM     22  C   UNL     1       0.055   2.502   4.660  1.00  0.00     0.042 C 
BRANCH  22  23
ATOM     23  C   UNL     1      -0.333   3.588   5.649  1.00  0.00     0.118 C 
BRANCH  23  24
ATOM     24  N   UNL     1      -0.700   3.037   6.946  1.00  0.00    -0.352 N 
ATOM     25  C   UNL     1       0.026   2.870   8.102  1.00  0.00     0.251 C 
ATOM     26  H   UNL     1      -1.633   2.730   7.006  1.00  0.00     0.163 HD
ATOM     27  O   UNL     1      -0.440   2.148   8.983  1.00  0.00    -0.269 OA
BRANCH  25  28
ATOM     28  C   UNL     1       1.349   3.513   8.316  1.00  0.00     0.039 A 
ATOM     29  C   UNL     1       2.287   2.866   9.132  1.00  0.00     0.014 A 
ATOM     30  C   UNL     1       1.659   4.775   7.809  1.00  0.00     0.014 A 
ATOM     31  C   UNL     1       3.530   3.457   9.393  1.00  0.00     0.010 A 
ATOM     32  C   UNL     1       2.936   5.311   7.974  1.00  0.00     0.010 A 
ATOM     33  C   UNL     1       3.879   4.674   8.791  1.00  0.00    -0.014 A 
BRANCH  33  34
ATOM     34  C   UNL     1       5.190   5.333   9.044  1.00  0.00     0.031 A 
ATOM     35  C   UNL     1       5.237   6.708   9.662  1.00  0.00     0.074 A 
ATOM     36  C   UNL     1       6.338   4.730   8.678  1.00  0.00     0.049 A 
ATOM     37  N   UNL     1       6.264   7.497   9.855  1.00  0.00    -0.248 NA
ATOM     38  C   UNL     1       3.953   7.287  10.090  1.00  0.00     0.031 C 
ATOM     39  C   UNL     1       6.440   3.414   8.046  1.00  0.00     0.029 A 
ATOM     40  N   UNL     1       7.641   5.149   8.784  1.00  0.00    -0.354 N 
ATOM     41  C   UNL     1       5.746   8.668  10.395  1.00  0.00     0.074 A 
ATOM     42  C   UNL     1       4.310   8.511  10.448  1.00  0.00     0.031 C 
ATOM     43  C   UNL     1       7.735   3.115   7.862  1.00  0.00     0.029 A 
ATOM     44  C   UNL     1       8.554   4.234   8.318  1.00  0.00     0.049 A 
ATOM     45  H   UNL     1       7.897   6.023   9.158  1.00  0.00     0.167 HD
ATOM     46  C   UNL     1       6.405   9.766  10.837  1.00  0.00     0.037 A 
ATOM     47  C   UNL     1       9.899   4.289   8.264  1.00  0.00     0.037 A 
ATOM     48  C   UNL     1       7.837   9.908  10.833  1.00  0.00     0.049 A 
ATOM     49  C   UNL     1      10.611   5.516   8.759  1.00  0.00     0.074 A 
ATOM     50  C   UNL     1       8.599  10.966  11.296  1.00  0.00     0.029 A 
ATOM     51  N   UNL     1       8.721   8.954  10.355  1.00  0.00    -0.354 N 
ATOM     52  N   UNL     1      10.108   6.609   9.277  1.00  0.00    -0.248 NA
ATOM     53  C   UNL     1      12.078   5.518   8.659  1.00  0.00     0.031 C 
ATOM     54  C   UNL     1       9.946  10.662  11.076  1.00  0.00     0.029 A 
ATOM     55  C   UNL     1      10.023   9.400  10.509  1.00  0.00     0.049 A 
ATOM     56  H   UNL     1       8.463   8.088   9.964  1.00  0.00     0.167 HD
ATOM     57  C   UNL     1      11.193   7.419   9.585  1.00  0.00     0.074 A 
ATOM     58  C   UNL     1      12.383   6.688   9.204  1.00  0.00     0.031 C 
ATOM     59  C   UNL     1      11.199   8.657  10.134  1.00  0.00     0.037 A 
BRANCH  46  60
ATOM     60  C   UNL     1       5.580  10.895  11.384  1.00  0.00     0.057 A 
ATOM     61  C   UNL     1       5.474  12.109  10.694  1.00  0.00     0.134 A 
ATOM     62  C   UNL     1       4.913  10.789  12.612  1.00  0.00     0.134 A 
ATOM     63  F   UNL     1       6.094  12.280   9.517  1.00  0.00    -0.206 F 
ATOM     64  C   UNL     1       4.735  13.177  11.206  1.00  0.00     0.040 A 
ATOM     65  C   UNL     1       4.149  11.840  13.121  1.00  0.00     0.040 A 
ATOM     66  F   UNL     1       4.963   9.649  13.316  1.00  0.00    -0.206 F 
ATOM     67  C   UNL     1       4.064  13.041  12.420  1.00  0.00     0.006 A 
ENDBRANCH  46  60
BRANCH  47  68
ATOM     68  C   UNL     1      10.659   3.117   7.764  1.00  0.00     0.057 A 
ATOM     69  C   UNL     1      10.675   2.770   6.409  1.00  0.00     0.134 A 
ATOM     70  C   UNL     1      11.361   2.294   8.651  1.00  0.00     0.134 A 
ATOM     71  F   UNL     1      10.017   3.517   5.510  1.00  0.00    -0.206 F 
ATOM     72  C   UNL     1      11.348   1.634   5.955  1.00  0.00     0.040 A 
ATOM     73  C   UNL     1      12.054   1.166   8.210  1.00  0.00     0.040 A 
ATOM     74  F   UNL     1      11.396   2.588   9.960  1.00  0.00    -0.206 F 
ATOM     75  C   UNL     1      12.041   0.829   6.858  1.00  0.00     0.006 A 
ENDBRANCH  47  68
BRANCH  59  76
ATOM     76  C   UNL     1      12.530   9.298  10.387  1.00  0.00     0.057 A 
ATOM     77  C   UNL     1      13.018   9.434  11.692  1.00  0.00     0.134 A 
ATOM     78  C   UNL     1      13.287   9.852   9.348  1.00  0.00     0.134 A 
ATOM     79  F   UNL     1      12.334   8.933  12.732  1.00  0.00    -0.206 F 
ATOM     80  C   UNL     1      14.209  10.110  11.958  1.00  0.00     0.040 A 
ATOM     81  C   UNL     1      14.491  10.513   9.599  1.00  0.00     0.040 A 
ATOM     82  F   UNL     1      12.877   9.746   8.076  1.00  0.00    -0.206 F 
ATOM     83  C   UNL     1      14.950  10.652  10.909  1.00  0.00     0.006 A 
ENDBRANCH  59  76
ENDBRANCH  33  34
ENDBRANCH  25  28
ENDBRANCH  23  24
ENDBRANCH  22  23
ENDBRANCH   1  22
TORSDOF 14
