REMARK SMILES CC(C)(C)c1cc2c(cc1Cl)C=C(C(=O)NCCCNC(=O)c1ccc(-c3c4nc(c(-c5c(F)cccc5F)c5ccc([nH]5)c(-c5c(F)cccc5F)c5nc(c(-c6c(F)cccc6F)c6ccc3[nH]6)C=C5)C=C4)cc1)[C@H](C(F)(F)F)O2
REMARK SMILES IDX 18 1 17 2 16 3 14 4 15 5 13 7 5 8 6 9 10 10 7 11 9 12 11 13
REMARK SMILES IDX 8 14 82 15 12 16 77 17 2 18 1 19 3 20 4 21 78 22 79 23 80 24
REMARK SMILES IDX 81 25 19 26 20 27 21 28 22 30 23 31 24 32 76 33 25 34 75 35
REMARK SMILES IDX 26 36 27 37 28 38 69 39 29 40 74 41 68 42 70 43 30 44 73 45
REMARK SMILES IDX 67 46 66 47 31 49 57 50 40 51 56 52 41 53 44 54 55 55 71 56
REMARK SMILES IDX 42 57 43 58 54 60 72 61 45 62 32 63 33 64 38 65 34 66 35 67
REMARK SMILES IDX 37 68 39 69 36 70 58 71 59 72 64 73 60 74 61 75 63 76 65 77
REMARK SMILES IDX 62 78 46 79 47 80 52 81 48 82 49 83 51 84 53 85 50 86
REMARK H PARENT 16 6 20 29 70 48 44 59
REMARK Flexibility Score: inf
ROOT
ATOM      1  C   UNL     1      -0.677  10.296  -0.431  1.00  0.00     0.042 C 
ENDROOT
BRANCH   1   2
ATOM      2  C   UNL     1      -0.158   9.808  -1.776  1.00  0.00     0.118 C 
BRANCH   2   3
ATOM      3  N   UNL     1       1.263   9.506  -1.721  1.00  0.00    -0.352 N 
ATOM      4  C   UNL     1       2.041   8.403  -1.639  1.00  0.00     0.251 C 
ATOM      5  O   UNL     1       3.257   8.618  -1.667  1.00  0.00    -0.270 OA
ATOM      6  H   UNL     1       1.806  10.327  -1.751  1.00  0.00     0.163 HD
BRANCH   4   7
ATOM      7  C   UNL     1       1.542   7.003  -1.525  1.00  0.00     0.067 C 
ATOM      8  C   UNL     1       1.185   1.931  -1.458  1.00  0.00    -0.020 A 
ATOM      9  C   UNL     1       0.286   3.017  -1.419  1.00  0.00     0.053 A 
ATOM     10  C   UNL     1       2.556   2.268  -1.582  1.00  0.00     0.045 A 
ATOM     11  C   UNL     1       0.714   4.341  -1.492  1.00  0.00     0.128 A 
ATOM     12  C   UNL     1       2.978   3.608  -1.677  1.00  0.00     0.032 A 
ATOM     13  Cl  UNL     1       3.841   1.110  -1.624  1.00  0.00    -0.084 Cl
ATOM     14  C   UNL     1       2.057   4.651  -1.633  1.00  0.00     0.019 A 
ATOM     15  O   UNL     1      -0.267   5.288  -1.458  1.00  0.00    -0.475 OA
ATOM     16  C   UNL     1       2.456   6.044  -1.768  1.00  0.00     0.025 C 
ATOM     17  C   UNL     1       0.153   6.627  -1.088  1.00  0.00     0.314 C 
BRANCH   8  18
ATOM     18  C   UNL     1       0.628   0.490  -1.355  1.00  0.00    -0.012 C 
ATOM     19  C   UNL     1       1.114  -0.181  -0.054  1.00  0.00     0.016 C 
ATOM     20  C   UNL     1       1.020  -0.353  -2.588  1.00  0.00     0.016 C 
ATOM     21  C   UNL     1      -0.927   0.429  -1.301  1.00  0.00     0.016 C 
ENDBRANCH   8  18
BRANCH  17  22
ATOM     22  C   UNL     1      -0.115   6.868   0.407  1.00  0.00     0.429 C 
ATOM     23  F   UNL     1       0.761   7.737   0.962  1.00  0.00    -0.167 F 
ATOM     24  F   UNL     1      -1.353   7.401   0.577  1.00  0.00    -0.167 F 
ATOM     25  F   UNL     1      -0.065   5.735   1.141  1.00  0.00    -0.167 F 
ENDBRANCH  17  22
ENDBRANCH   4   7
ENDBRANCH   2   3
ENDBRANCH   1   2
BRANCH   1  26
ATOM     26  C   UNL     1      -0.324  11.753  -0.165  1.00  0.00     0.118 C 
BRANCH  26  27
ATOM     27  N   UNL     1      -1.091  12.662  -1.010  1.00  0.00    -0.352 N 
ATOM     28  C   UNL     1      -2.086  13.550  -0.687  1.00  0.00     0.251 C 
ATOM     29  H   UNL     1      -0.858  12.633  -1.966  1.00  0.00     0.163 HD
ATOM     30  O   UNL     1      -2.779  14.034  -1.583  1.00  0.00    -0.269 OA
BRANCH  28  31
ATOM     31  C   UNL     1      -2.342  13.918   0.722  1.00  0.00     0.039 A 
ATOM     32  C   UNL     1      -1.287  14.066   1.621  1.00  0.00     0.014 A 
ATOM     33  C   UNL     1      -3.654  14.141   1.149  1.00  0.00     0.014 A 
ATOM     34  C   UNL     1      -1.550  14.235   2.973  1.00  0.00     0.010 A 
ATOM     35  C   UNL     1      -3.909  14.438   2.492  1.00  0.00     0.010 A 
ATOM     36  C   UNL     1      -2.862  14.439   3.427  1.00  0.00    -0.014 A 
BRANCH  36  37
ATOM     37  C   UNL     1      -3.097  14.661   4.878  1.00  0.00     0.031 A 
ATOM     38  C   UNL     1      -3.946  13.710   5.679  1.00  0.00     0.074 A 
ATOM     39  C   UNL     1      -2.482  15.693   5.489  1.00  0.00     0.049 A 
ATOM     40  N   UNL     1      -4.233  13.736   6.957  1.00  0.00    -0.248 NA
ATOM     41  C   UNL     1      -4.561  12.589   4.952  1.00  0.00     0.031 C 
ATOM     42  C   UNL     1      -1.625  16.679   4.824  1.00  0.00     0.029 A 
ATOM     43  N   UNL     1      -2.452  16.067   6.808  1.00  0.00    -0.354 N 
ATOM     44  C   UNL     1      -5.068  12.649   7.183  1.00  0.00     0.074 A 
ATOM     45  C   UNL     1      -5.279  12.009   5.902  1.00  0.00     0.031 C 
ATOM     46  C   UNL     1      -1.101  17.500   5.745  1.00  0.00     0.029 A 
ATOM     47  C   UNL     1      -1.645  17.152   7.051  1.00  0.00     0.049 A 
ATOM     48  H   UNL     1      -2.959  15.603   7.512  1.00  0.00     0.167 HD
ATOM     49  C   UNL     1      -5.599  12.213   8.352  1.00  0.00     0.037 A 
ATOM     50  C   UNL     1      -1.385  17.808   8.196  1.00  0.00     0.037 A 
ATOM     51  C   UNL     1      -5.383  12.850   9.627  1.00  0.00     0.049 A 
ATOM     52  C   UNL     1      -2.044  17.343   9.463  1.00  0.00     0.074 A 
ATOM     53  C   UNL     1      -5.871  12.485  10.870  1.00  0.00     0.029 A 
ATOM     54  N   UNL     1      -4.614  13.988   9.821  1.00  0.00    -0.354 N 
ATOM     55  N   UNL     1      -2.825  16.309   9.661  1.00  0.00    -0.248 NA
ATOM     56  C   UNL     1      -1.789  18.147  10.665  1.00  0.00     0.031 C 
ATOM     57  C   UNL     1      -5.439  13.430  11.806  1.00  0.00     0.029 A 
ATOM     58  C   UNL     1      -4.634  14.353  11.158  1.00  0.00     0.049 A 
ATOM     59  H   UNL     1      -4.126  14.467   9.113  1.00  0.00     0.167 HD
ATOM     60  C   UNL     1      -3.137  16.325  11.014  1.00  0.00     0.074 A 
ATOM     61  C   UNL     1      -2.438  17.456  11.590  1.00  0.00     0.031 C 
ATOM     62  C   UNL     1      -3.935  15.483  11.716  1.00  0.00     0.037 A 
BRANCH  49  63
ATOM     63  C   UNL     1      -6.485  11.000   8.297  1.00  0.00     0.057 A 
ATOM     64  C   UNL     1      -7.862  11.108   8.535  1.00  0.00     0.134 A 
ATOM     65  C   UNL     1      -5.979   9.722   8.022  1.00  0.00     0.134 A 
ATOM     66  F   UNL     1      -8.414  12.299   8.813  1.00  0.00    -0.206 F 
ATOM     67  C   UNL     1      -8.701   9.993   8.498  1.00  0.00     0.040 A 
ATOM     68  C   UNL     1      -6.814   8.604   7.952  1.00  0.00     0.040 A 
ATOM     69  F   UNL     1      -4.673   9.547   7.772  1.00  0.00    -0.206 F 
ATOM     70  C   UNL     1      -8.179   8.738   8.196  1.00  0.00     0.006 A 
ENDBRANCH  49  63
BRANCH  50  71
ATOM     71  C   UNL     1      -0.477  18.983   8.200  1.00  0.00     0.057 A 
ATOM     72  C   UNL     1      -0.825  20.176   7.555  1.00  0.00     0.134 A 
ATOM     73  C   UNL     1       0.747  18.950   8.877  1.00  0.00     0.134 A 
ATOM     74  F   UNL     1      -1.981  20.272   6.882  1.00  0.00    -0.206 F 
ATOM     75  C   UNL     1       0.013  21.292   7.579  1.00  0.00     0.040 A 
ATOM     76  C   UNL     1       1.580  20.068   8.937  1.00  0.00     0.040 A 
ATOM     77  F   UNL     1       1.128  17.842   9.530  1.00  0.00    -0.206 F 
ATOM     78  C   UNL     1       1.214  21.243   8.283  1.00  0.00     0.006 A 
ENDBRANCH  50  71
BRANCH  62  79
ATOM     79  C   UNL     1      -4.055  15.741  13.190  1.00  0.00     0.057 A 
ATOM     80  C   UNL     1      -3.471  14.867  14.116  1.00  0.00     0.134 A 
ATOM     81  C   UNL     1      -4.737  16.856  13.696  1.00  0.00     0.134 A 
ATOM     82  F   UNL     1      -2.810  13.776  13.700  1.00  0.00    -0.206 F 
ATOM     83  C   UNL     1      -3.555  15.096  15.489  1.00  0.00     0.040 A 
ATOM     84  C   UNL     1      -4.799  17.113  15.066  1.00  0.00     0.040 A 
ATOM     85  F   UNL     1      -5.304  17.742  12.863  1.00  0.00    -0.206 F 
ATOM     86  C   UNL     1      -4.210  16.228  15.968  1.00  0.00     0.006 A 
ENDBRANCH  62  79
ENDBRANCH  36  37
ENDBRANCH  28  31
ENDBRANCH  26  27
ENDBRANCH   1  26
TORSDOF 12
