REMARK SMILES O=C(C[NH+]1CCN(c2nccc(N3CCCCC3)n2)CC1)NCCCNC(=O)c1ccc(-c2c3nc(c(-c4c(F)cccc4F)c4ccc([nH]4)c(-c4c(F)cccc4F)c4nc(c(-c5c(F)cccc5F)c5ccc2[nH]5)C=C4)C=C3)cc1
REMARK SMILES IDX 23 1 22 2 1 3 2 4 3 6 4 7 5 8 21 9 6 11 20 12 7 13 8 14 9 15
REMARK SMILES IDX 19 16 10 17 12 18 11 19 13 20 14 21 18 22 15 23 17 24 16 25
REMARK SMILES IDX 24 26 25 27 26 28 27 29 28 31 29 32 30 33 82 34 31 35 81 36
REMARK SMILES IDX 32 37 33 38 34 39 75 40 35 41 80 42 74 43 76 44 36 45 79 46
REMARK SMILES IDX 73 47 72 48 37 50 63 51 46 52 62 53 47 54 50 55 61 56 77 57
REMARK SMILES IDX 48 58 49 59 60 61 78 62 51 63 38 64 39 65 44 66 40 67 41 68
REMARK SMILES IDX 43 69 45 70 42 71 64 72 65 73 70 74 66 75 67 76 69 77 71 78
REMARK SMILES IDX 68 79 52 80 53 81 58 82 54 83 55 84 57 85 59 86 56 87
REMARK H PARENT 22 5 4 10 26 30 76 49 50 60
REMARK Flexibility Score: inf
ROOT
ATOM      1  C   UNL     1       1.538   0.609   2.353  1.00  0.00     0.118 C 
ENDROOT
BRANCH   1   2
ATOM      2  N   UNL     1       2.220  -0.034   1.248  1.00  0.00    -0.351 N 
ATOM      3  O   UNL     1       0.778   0.782  -0.341  1.00  0.00    -0.269 OA
ATOM      4  C   UNL     1       1.787   0.143  -0.054  1.00  0.00     0.275 C 
ATOM      5  H   UNL     1       3.002  -0.605   1.426  1.00  0.00     0.163 HD
BRANCH   4   6
ATOM      6  C   UNL     1       2.685  -0.510  -1.105  1.00  0.00     0.363 C 
BRANCH   6   7
ATOM      7  N   UNL     1       3.787   0.323  -1.623  1.00  0.00    -0.324 N 
ATOM      8  C   UNL     1       3.911   1.705  -1.122  1.00  0.00     0.284 C 
ATOM      9  C   UNL     1       5.100  -0.345  -1.553  1.00  0.00     0.284 C 
ATOM     10  H   UNL     1       3.488   0.430  -2.592  1.00  0.00     0.348 HD
ATOM     11  C   UNL     1       4.614   1.901   0.245  1.00  0.00     0.181 C 
ATOM     12  C   UNL     1       5.739  -0.338  -0.153  1.00  0.00     0.181 C 
ATOM     13  N   UNL     1       5.745   1.002   0.405  1.00  0.00    -0.329 N 
BRANCH  13  14
ATOM     14  C   UNL     1       6.675   1.289   1.370  1.00  0.00     0.227 A 
ATOM     15  N   UNL     1       6.265   1.769   2.551  1.00  0.00    -0.221 NA
ATOM     16  N   UNL     1       7.963   1.137   1.041  1.00  0.00    -0.196 NA
ATOM     17  C   UNL     1       7.225   2.089   3.437  1.00  0.00     0.119 A 
ATOM     18  C   UNL     1       8.896   1.518   1.925  1.00  0.00     0.134 A 
ATOM     19  C   UNL     1       8.564   1.961   3.183  1.00  0.00     0.067 A 
BRANCH  18  20
ATOM     20  N   UNL     1      10.205   1.606   1.503  1.00  0.00    -0.356 N 
ATOM     21  C   UNL     1      10.465   2.400   0.310  1.00  0.00     0.118 C 
ATOM     22  C   UNL     1      11.199   0.662   1.974  1.00  0.00     0.118 C 
ATOM     23  C   UNL     1      10.941   1.520  -0.837  1.00  0.00     0.022 C 
ATOM     24  C   UNL     1      11.689  -0.212   0.818  1.00  0.00     0.022 C 
ATOM     25  C   UNL     1      12.098   0.630  -0.391  1.00  0.00     0.004 C 
ENDBRANCH  18  20
ENDBRANCH  13  14
ENDBRANCH   6   7
ENDBRANCH   4   6
ENDBRANCH   1   2
BRANCH   1  26
ATOM     26  C   UNL     1       1.819  -0.048   3.699  1.00  0.00     0.042 C 
BRANCH  26  27
ATOM     27  C   UNL     1       3.255   0.082   4.202  1.00  0.00     0.118 C 
BRANCH  27  28
ATOM     28  N   UNL     1       3.644   1.444   4.517  1.00  0.00    -0.352 N 
ATOM     29  C   UNL     1       4.462   1.935   5.504  1.00  0.00     0.251 C 
ATOM     30  H   UNL     1       3.257   2.129   3.925  1.00  0.00     0.163 HD
ATOM     31  O   UNL     1       4.613   3.150   5.607  1.00  0.00    -0.269 OA
BRANCH  29  32
ATOM     32  C   UNL     1       5.160   1.045   6.468  1.00  0.00     0.039 A 
ATOM     33  C   UNL     1       5.341   1.521   7.772  1.00  0.00     0.014 A 
ATOM     34  C   UNL     1       5.673  -0.209   6.123  1.00  0.00     0.014 A 
ATOM     35  C   UNL     1       5.929   0.709   8.743  1.00  0.00     0.010 A 
ATOM     36  C   UNL     1       6.195  -1.051   7.109  1.00  0.00     0.010 A 
ATOM     37  C   UNL     1       6.302  -0.609   8.434  1.00  0.00    -0.014 A 
BRANCH  37  38
ATOM     38  C   UNL     1       6.684  -1.543   9.524  1.00  0.00     0.031 A 
ATOM     39  C   UNL     1       8.070  -2.104   9.639  1.00  0.00     0.074 A 
ATOM     40  C   UNL     1       5.734  -1.913  10.406  1.00  0.00     0.049 A 
ATOM     41  N   UNL     1       8.569  -2.875  10.573  1.00  0.00    -0.248 NA
ATOM     42  C   UNL     1       9.014  -1.780   8.560  1.00  0.00     0.031 C 
ATOM     43  C   UNL     1       4.329  -1.503  10.353  1.00  0.00     0.029 A 
ATOM     44  N   UNL     1       5.804  -2.708  11.522  1.00  0.00    -0.354 N 
ATOM     45  C   UNL     1       9.882  -3.129  10.198  1.00  0.00     0.074 A 
ATOM     46  C   UNL     1      10.088  -2.467   8.925  1.00  0.00     0.031 C 
ATOM     47  C   UNL     1       3.680  -2.012  11.411  1.00  0.00     0.029 A 
ATOM     48  C   UNL     1       4.615  -2.802  12.204  1.00  0.00     0.049 A 
ATOM     49  H   UNL     1       6.627  -3.168  11.806  1.00  0.00     0.167 HD
ATOM     50  C   UNL     1      10.831  -3.832  10.862  1.00  0.00     0.037 A 
ATOM     51  C   UNL     1       4.313  -3.438  13.350  1.00  0.00     0.037 A 
ATOM     52  C   UNL     1      10.624  -4.484  12.131  1.00  0.00     0.049 A 
ATOM     53  C   UNL     1       5.394  -4.171  14.088  1.00  0.00     0.074 A 
ATOM     54  C   UNL     1      11.540  -5.172  12.909  1.00  0.00     0.029 A 
ATOM     55  N   UNL     1       9.414  -4.533  12.807  1.00  0.00    -0.354 N 
ATOM     56  N   UNL     1       6.655  -4.324  13.767  1.00  0.00    -0.248 NA
ATOM     57  C   UNL     1       5.013  -4.804  15.358  1.00  0.00     0.031 C 
ATOM     58  C   UNL     1      10.875  -5.666  14.039  1.00  0.00     0.029 A 
ATOM     59  C   UNL     1       9.555  -5.251  13.984  1.00  0.00     0.049 A 
ATOM     60  H   UNL     1       8.577  -4.118  12.496  1.00  0.00     0.167 HD
ATOM     61  C   UNL     1       7.224  -5.052  14.802  1.00  0.00     0.074 A 
ATOM     62  C   UNL     1       6.173  -5.291  15.772  1.00  0.00     0.031 C 
ATOM     63  C   UNL     1       8.501  -5.485  14.937  1.00  0.00     0.037 A 
BRANCH  50  64
ATOM     64  C   UNL     1      12.190  -3.926  10.231  1.00  0.00     0.057 A 
ATOM     65  C   UNL     1      13.053  -2.823  10.176  1.00  0.00     0.134 A 
ATOM     66  C   UNL     1      12.660  -5.139   9.713  1.00  0.00     0.134 A 
ATOM     67  F   UNL     1      12.660  -1.629  10.646  1.00  0.00    -0.206 F 
ATOM     68  C   UNL     1      14.325  -2.918   9.609  1.00  0.00     0.040 A 
ATOM     69  C   UNL     1      13.940  -5.252   9.164  1.00  0.00     0.040 A 
ATOM     70  F   UNL     1      11.889  -6.237   9.739  1.00  0.00    -0.206 F 
ATOM     71  C   UNL     1      14.774  -4.138   9.107  1.00  0.00     0.006 A 
ENDBRANCH  50  64
BRANCH  51  72
ATOM     72  C   UNL     1       2.937  -3.357  13.897  1.00  0.00     0.057 A 
ATOM     73  C   UNL     1       2.656  -2.586  15.030  1.00  0.00     0.134 A 
ATOM     74  C   UNL     1       1.871  -4.036  13.296  1.00  0.00     0.134 A 
ATOM     75  F   UNL     1       3.641  -1.924  15.656  1.00  0.00    -0.206 F 
ATOM     76  C   UNL     1       1.368  -2.506  15.559  1.00  0.00     0.040 A 
ATOM     77  C   UNL     1       0.573  -3.947  13.800  1.00  0.00     0.040 A 
ATOM     78  F   UNL     1       2.075  -4.782  12.200  1.00  0.00    -0.206 F 
ATOM     79  C   UNL     1       0.320  -3.185  14.939  1.00  0.00     0.006 A 
ENDBRANCH  51  72
BRANCH  63  80
ATOM     80  C   UNL     1       8.828  -6.242  16.190  1.00  0.00     0.057 A 
ATOM     81  C   UNL     1       8.372  -7.549  16.404  1.00  0.00     0.134 A 
ATOM     82  C   UNL     1       9.604  -5.654  17.197  1.00  0.00     0.134 A 
ATOM     83  F   UNL     1       7.610  -8.162  15.484  1.00  0.00    -0.206 F 
ATOM     84  C   UNL     1       8.649  -8.233  17.588  1.00  0.00     0.040 A 
ATOM     85  C   UNL     1       9.909  -6.337  18.375  1.00  0.00     0.040 A 
ATOM     86  F   UNL     1      10.077  -4.407  17.052  1.00  0.00    -0.206 F 
ATOM     87  C   UNL     1       9.423  -7.628  18.576  1.00  0.00     0.006 A 
ENDBRANCH  63  80
ENDBRANCH  37  38
ENDBRANCH  29  32
ENDBRANCH  27  28
ENDBRANCH  26  27
ENDBRANCH   1  26
TORSDOF 13
