REMARK SMILES [NH3+][C@H](CCC(=O)NCCCNC(=O)c1ccc(-c2c3nc(c(-c4c(F)cccc4F)c4ccc([nH]4)c(-c4c(F)cccc4F)c4nc(c(-c5c(F)cccc5F)c5ccc2[nH]5)C=C4)C=C3)cc1)c1nccc2[nH]ccc12
REMARK SMILES IDX 8 1 7 2 5 3 6 4 4 6 3 7 2 8 1 9 68 13 69 14 76 15 70 16
REMARK SMILES IDX 72 17 75 18 71 19 73 20 74 21 9 23 10 24 11 25 12 26 13 28
REMARK SMILES IDX 14 29 15 30 67 31 16 32 66 33 17 34 18 35 19 36 60 37 20 38
REMARK SMILES IDX 65 39 59 40 61 41 21 42 64 43 58 44 57 45 22 47 48 48 31 49
REMARK SMILES IDX 47 50 32 51 35 52 46 53 62 54 33 55 34 56 45 58 63 59 36 60
REMARK SMILES IDX 23 61 24 62 29 63 25 64 26 65 28 66 30 67 27 68 49 69 50 70
REMARK SMILES IDX 55 71 51 72 52 73 54 74 56 75 53 76 37 77 38 78 43 79 39 80
REMARK SMILES IDX 40 81 42 82 44 83 41 84
REMARK H PARENT 7 5 1 10 1 11 1 12 73 22 11 27 61 46 35 57
REMARK Flexibility Score: inf
ROOT
ATOM      1  C   UNL     1       0.856   3.400  -0.625  1.00  0.00     0.117 C 
ENDROOT
BRANCH   1   2
ATOM      2  N   UNL     1       1.802   2.388  -1.054  1.00  0.00    -0.356 N 
ATOM      3  C   UNL     1       1.579   1.094  -1.416  1.00  0.00     0.220 C 
ATOM      4  O   UNL     1       2.558   0.351  -1.516  1.00  0.00    -0.275 OA
ATOM      5  H   UNL     1       2.742   2.679  -1.089  1.00  0.00     0.163 HD
BRANCH   3   6
ATOM      6  C   UNL     1       0.186   0.604  -1.766  1.00  0.00     0.106 C 
BRANCH   6   7
ATOM      7  C   UNL     1      -0.331  -0.547  -0.900  1.00  0.00     0.082 C 
BRANCH   7   8
ATOM      8  C   UNL     1      -1.198  -0.232   0.338  1.00  0.00     0.232 C 
BRANCH   8   9
ATOM      9  N   UNL     1      -0.368   0.255   1.462  1.00  0.00    -0.350 N 
ATOM     10  H   UNL     1      -0.966   0.455   2.264  1.00  0.00     0.345 HD
ATOM     11  H   UNL     1       0.120   1.105   1.182  1.00  0.00     0.345 HD
ATOM     12  H   UNL     1       0.313  -0.461   1.716  1.00  0.00     0.345 HD
ENDBRANCH   8   9
BRANCH   8  13
ATOM     13  C   UNL     1      -2.376   0.733   0.182  1.00  0.00     0.107 A 
ATOM     14  N   UNL     1      -2.032   2.058   0.046  1.00  0.00    -0.254 NA
ATOM     15  C   UNL     1      -3.697   0.437   0.601  1.00  0.00     0.027 A 
ATOM     16  C   UNL     1      -2.866   3.030   0.467  1.00  0.00     0.114 A 
ATOM     17  C   UNL     1      -4.471   1.476   1.130  1.00  0.00     0.049 A 
ATOM     18  C   UNL     1      -4.489  -0.745   0.710  1.00  0.00     0.030 A 
ATOM     19  C   UNL     1      -4.062   2.804   1.112  1.00  0.00     0.047 A 
ATOM     20  N   UNL     1      -5.597   0.910   1.682  1.00  0.00    -0.361 N 
ATOM     21  C   UNL     1      -5.663  -0.415   1.352  1.00  0.00     0.083 A 
ATOM     22  H   UNL     1      -6.257   1.389   2.233  1.00  0.00     0.166 HD
ENDBRANCH   8  13
ENDBRANCH   7   8
ENDBRANCH   6   7
ENDBRANCH   3   6
ENDBRANCH   1   2
BRANCH   1  23
ATOM     23  C   UNL     1       0.934   3.593   0.888  1.00  0.00     0.042 C 
BRANCH  23  24
ATOM     24  C   UNL     1       1.978   4.626   1.293  1.00  0.00     0.118 C 
BRANCH  24  25
ATOM     25  N   UNL     1       1.476   5.983   1.124  1.00  0.00    -0.352 N 
ATOM     26  C   UNL     1       1.303   6.979   2.052  1.00  0.00     0.251 C 
ATOM     27  H   UNL     1       1.223   6.222   0.203  1.00  0.00     0.163 HD
ATOM     28  O   UNL     1       0.632   7.964   1.758  1.00  0.00    -0.269 OA
BRANCH  26  29
ATOM     29  C   UNL     1       1.907   6.881   3.402  1.00  0.00     0.039 A 
ATOM     30  C   UNL     1       1.190   7.379   4.496  1.00  0.00     0.014 A 
ATOM     31  C   UNL     1       3.195   6.371   3.595  1.00  0.00     0.014 A 
ATOM     32  C   UNL     1       1.744   7.330   5.779  1.00  0.00     0.010 A 
ATOM     33  C   UNL     1       3.719   6.260   4.883  1.00  0.00     0.010 A 
ATOM     34  C   UNL     1       3.006   6.753   5.986  1.00  0.00    -0.014 A 
BRANCH  34  35
ATOM     35  C   UNL     1       3.608   6.684   7.343  1.00  0.00     0.031 A 
ATOM     36  C   UNL     1       4.859   7.460   7.655  1.00  0.00     0.074 A 
ATOM     37  C   UNL     1       3.064   5.884   8.279  1.00  0.00     0.049 A 
ATOM     38  N   UNL     1       5.574   7.473   8.752  1.00  0.00    -0.248 NA
ATOM     39  C   UNL     1       5.390   8.318   6.584  1.00  0.00     0.031 C 
ATOM     40  C   UNL     1       1.876   5.050   8.094  1.00  0.00     0.029 A 
ATOM     41  N   UNL     1       3.448   5.633   9.573  1.00  0.00    -0.354 N 
ATOM     42  C   UNL     1       6.646   8.318   8.496  1.00  0.00     0.074 A 
ATOM     43  C   UNL     1       6.512   8.768   7.127  1.00  0.00     0.031 C 
ATOM     44  C   UNL     1       1.618   4.392   9.236  1.00  0.00     0.029 A 
ATOM     45  C   UNL     1       2.640   4.732  10.222  1.00  0.00     0.049 A 
ATOM     46  H   UNL     1       4.229   6.058   9.995  1.00  0.00     0.167 HD
ATOM     47  C   UNL     1       7.642   8.702   9.331  1.00  0.00     0.037 A 
ATOM     48  C   UNL     1       2.717   4.231  11.470  1.00  0.00     0.037 A 
ATOM     49  C   UNL     1       7.758   8.283  10.703  1.00  0.00     0.049 A 
ATOM     50  C   UNL     1       3.826   4.679  12.380  1.00  0.00     0.074 A 
ATOM     51  C   UNL     1       8.698   8.666  11.645  1.00  0.00     0.029 A 
ATOM     52  N   UNL     1       6.905   7.389  11.330  1.00  0.00    -0.354 N 
ATOM     53  N   UNL     1       4.801   5.522  12.141  1.00  0.00    -0.248 NA
ATOM     54  C   UNL     1       3.842   4.110  13.735  1.00  0.00     0.031 C 
ATOM     55  C   UNL     1       8.432   7.978  12.833  1.00  0.00     0.029 A 
ATOM     56  C   UNL     1       7.305   7.196  12.642  1.00  0.00     0.049 A 
ATOM     57  H   UNL     1       6.130   6.955  10.905  1.00  0.00     0.167 HD
ATOM     58  C   UNL     1       5.531   5.603  13.320  1.00  0.00     0.074 A 
ATOM     59  C   UNL     1       4.879   4.733  14.277  1.00  0.00     0.031 C 
ATOM     60  C   UNL     1       6.641   6.333  13.585  1.00  0.00     0.037 A 
BRANCH  47  61
ATOM     61  C   UNL     1       8.686   9.628   8.780  1.00  0.00     0.057 A 
ATOM     62  C   UNL     1       8.409  10.974   8.509  1.00  0.00     0.134 A 
ATOM     63  C   UNL     1       9.992   9.178   8.548  1.00  0.00     0.134 A 
ATOM     64  F   UNL     1       7.175  11.466   8.699  1.00  0.00    -0.206 F 
ATOM     65  C   UNL     1       9.386  11.834   8.004  1.00  0.00     0.040 A 
ATOM     66  C   UNL     1      10.984  10.033   8.066  1.00  0.00     0.040 A 
ATOM     67  F   UNL     1      10.326   7.902   8.792  1.00  0.00    -0.206 F 
ATOM     68  C   UNL     1      10.680  11.364   7.787  1.00  0.00     0.006 A 
ENDBRANCH  47  61
BRANCH  48  69
ATOM     69  C   UNL     1       1.697   3.263  11.942  1.00  0.00     0.057 A 
ATOM     70  C   UNL     1       0.734   3.636  12.886  1.00  0.00     0.134 A 
ATOM     71  C   UNL     1       1.661   1.947  11.467  1.00  0.00     0.134 A 
ATOM     72  F   UNL     1       0.731   4.879  13.392  1.00  0.00    -0.206 F 
ATOM     73  C   UNL     1      -0.221   2.732  13.354  1.00  0.00     0.040 A 
ATOM     74  C   UNL     1       0.699   1.038  11.909  1.00  0.00     0.040 A 
ATOM     75  F   UNL     1       2.555   1.531  10.558  1.00  0.00    -0.206 F 
ATOM     76  C   UNL     1      -0.242   1.429  12.860  1.00  0.00     0.006 A 
ENDBRANCH  48  69
BRANCH  60  77
ATOM     77  C   UNL     1       7.202   6.246  14.972  1.00  0.00     0.057 A 
ATOM     78  C   UNL     1       7.902   5.119  15.416  1.00  0.00     0.134 A 
ATOM     79  C   UNL     1       7.071   7.321  15.863  1.00  0.00     0.134 A 
ATOM     80  F   UNL     1       8.050   4.052  14.616  1.00  0.00    -0.206 F 
ATOM     81  C   UNL     1       8.437   5.054  16.704  1.00  0.00     0.040 A 
ATOM     82  C   UNL     1       7.620   7.277  17.144  1.00  0.00     0.040 A 
ATOM     83  F   UNL     1       6.417   8.433  15.495  1.00  0.00    -0.206 F 
ATOM     84  C   UNL     1       8.302   6.137  17.570  1.00  0.00     0.006 A 
ENDBRANCH  60  77
ENDBRANCH  34  35
ENDBRANCH  26  29
ENDBRANCH  24  25
ENDBRANCH  23  24
ENDBRANCH   1  23
TORSDOF 14
