REMARK SMILES CC(=O)Nc1ccc(/C(=C\c2ccc(S(C)(=O)=O)cc2)C(=O)NCCCNC(=O)c2ccc(-c3c4nc(c(-c5c(F)cccc5F)c5ccc([nH]5)c(-c5c(F)cccc5F)c5nc(c(-c6c(F)cccc6F)c6ccc3[nH]6)C=C5)C=C4)cc2)cc1
REMARK SMILES IDX 25 1 24 2 23 3 21 4 22 5 9 7 10 8 8 9 5 10 6 11 85 12 7 13
REMARK SMILES IDX 84 14 4 15 1 16 2 17 3 18 11 20 12 21 20 22 13 23 19 24
REMARK SMILES IDX 14 25 15 26 16 27 17 28 18 29 26 30 27 31 28 32 29 34 30 35
REMARK SMILES IDX 31 36 83 37 32 38 82 39 33 40 34 41 35 42 76 43 36 44 81 45
REMARK SMILES IDX 75 46 77 47 37 48 80 49 74 50 73 51 38 53 64 54 47 55 63 56
REMARK SMILES IDX 48 57 51 58 62 59 78 60 49 61 50 62 61 64 79 65 52 66 39 67
REMARK SMILES IDX 40 68 45 69 41 70 42 71 44 72 46 73 43 74 65 75 66 76 71 77
REMARK SMILES IDX 67 78 68 79 70 80 72 81 69 82 53 83 54 84 59 85 55 86 56 87
REMARK SMILES IDX 58 88 60 89 57 90
REMARK H PARENT 23 6 4 19 27 33 77 52 51 63
REMARK Flexibility Score: inf
ROOT
ATOM      1  C   UNL     1       6.164   1.268   8.446  1.00  0.00     0.042 C 
ENDROOT
BRANCH   1   2
ATOM      2  C   UNL     1       6.556   2.179   7.279  1.00  0.00     0.118 C 
BRANCH   2   3
ATOM      3  N   UNL     1       6.457   1.469   6.019  1.00  0.00    -0.352 N 
ATOM      4  C   UNL     1       5.545   1.387   5.016  1.00  0.00     0.251 C 
ATOM      5  O   UNL     1       5.874   0.598   4.128  1.00  0.00    -0.269 OA
ATOM      6  H   UNL     1       7.247   0.907   5.847  1.00  0.00     0.163 HD
BRANCH   4   7
ATOM      7  C   UNL     1       4.259   2.210   4.933  1.00  0.00     0.047 C 
ATOM      8  C   UNL     1       3.671   2.575   6.097  1.00  0.00     0.022 C 
BRANCH   7   9
ATOM      9  C   UNL     1       3.579   2.412   3.596  1.00  0.00    -0.013 A 
ATOM     10  C   UNL     1       1.926   2.455   1.260  1.00  0.00     0.041 A 
ATOM     11  C   UNL     1       1.933   3.527   2.152  1.00  0.00     0.027 A 
ATOM     12  C   UNL     1       2.866   1.457   1.446  1.00  0.00     0.027 A 
ATOM     13  C   UNL     1       2.772   3.518   3.283  1.00  0.00     0.011 A 
ATOM     14  C   UNL     1       3.649   1.421   2.605  1.00  0.00     0.011 A 
BRANCH  10  15
ATOM     15  N   UNL     1       0.974   2.456   0.227  1.00  0.00    -0.326 N 
ATOM     16  C   UNL     1       0.853   0.013  -0.322  1.00  0.00     0.114 C 
ATOM     17  C   UNL     1       0.493   1.454  -0.570  1.00  0.00     0.221 C 
ATOM     18  O   UNL     1      -0.289   1.748  -1.478  1.00  0.00    -0.275 OA
ATOM     19  H   UNL     1       0.582   3.340   0.043  1.00  0.00     0.169 HD
ENDBRANCH  10  15
ENDBRANCH   7   9
BRANCH   8  20
ATOM     20  C   UNL     1       2.513   3.446   6.338  1.00  0.00    -0.025 A 
ATOM     21  C   UNL     1       2.759   4.760   6.774  1.00  0.00     0.009 A 
ATOM     22  C   UNL     1       1.201   3.031   6.095  1.00  0.00     0.009 A 
ATOM     23  C   UNL     1       1.711   5.670   6.905  1.00  0.00     0.021 A 
ATOM     24  C   UNL     1       0.146   3.940   6.222  1.00  0.00     0.021 A 
ATOM     25  C   UNL     1       0.409   5.256   6.617  1.00  0.00     0.067 A 
BRANCH  25  26
ATOM     26  S   UNL     1      -0.900   6.460   6.636  1.00  0.00     0.175 S 
ATOM     27  C   UNL     1      -1.258   6.674   8.358  1.00  0.00     0.163 C 
ATOM     28  O   UNL     1      -0.343   7.699   6.130  1.00  0.00    -0.224 OA
ATOM     29  O   UNL     1      -2.061   5.856   6.010  1.00  0.00    -0.224 OA
ENDBRANCH  25  26
ENDBRANCH   8  20
ENDBRANCH   4   7
ENDBRANCH   2   3
ENDBRANCH   1   2
BRANCH   1  30
ATOM     30  C   UNL     1       7.149   0.126   8.695  1.00  0.00     0.118 C 
BRANCH  30  31
ATOM     31  N   UNL     1       8.451   0.616   9.116  1.00  0.00    -0.352 N 
ATOM     32  C   UNL     1       9.141   0.418  10.282  1.00  0.00     0.251 C 
ATOM     33  H   UNL     1       8.911   1.182   8.456  1.00  0.00     0.163 HD
ATOM     34  O   UNL     1      10.095   1.149  10.539  1.00  0.00    -0.269 OA
BRANCH  32  35
ATOM     35  C   UNL     1       8.771  -0.660  11.227  1.00  0.00     0.039 A 
ATOM     36  C   UNL     1       8.965  -0.439  12.594  1.00  0.00     0.014 A 
ATOM     37  C   UNL     1       8.339  -1.913  10.783  1.00  0.00     0.014 A 
ATOM     38  C   UNL     1       8.718  -1.464  13.510  1.00  0.00     0.010 A 
ATOM     39  C   UNL     1       8.017  -2.910  11.703  1.00  0.00     0.010 A 
ATOM     40  C   UNL     1       8.232  -2.707  13.073  1.00  0.00    -0.014 A 
BRANCH  40  41
ATOM     41  C   UNL     1       8.004  -3.811  14.039  1.00  0.00     0.031 A 
ATOM     42  C   UNL     1       8.834  -5.066  13.966  1.00  0.00     0.074 A 
ATOM     43  C   UNL     1       7.043  -3.690  14.976  1.00  0.00     0.049 A 
ATOM     44  N   UNL     1       8.785  -6.137  14.720  1.00  0.00    -0.248 NA
ATOM     45  C   UNL     1       9.836  -5.139  12.891  1.00  0.00     0.031 C 
ATOM     46  C   UNL     1       6.146  -2.543  15.124  1.00  0.00     0.029 A 
ATOM     47  N   UNL     1       6.665  -4.540  15.984  1.00  0.00    -0.354 N 
ATOM     48  C   UNL     1       9.740  -7.006  14.206  1.00  0.00     0.074 A 
ATOM     49  C   UNL     1      10.307  -6.368  13.039  1.00  0.00     0.031 C 
ATOM     50  C   UNL     1       5.346  -2.744  16.183  1.00  0.00     0.029 A 
ATOM     51  C   UNL     1       5.651  -4.046  16.768  1.00  0.00     0.049 A 
ATOM     52  H   UNL     1       7.080  -5.421  16.131  1.00  0.00     0.167 HD
ATOM     53  C   UNL     1      10.132  -8.213  14.680  1.00  0.00     0.037 A 
ATOM     54  C   UNL     1       5.040  -4.582  17.842  1.00  0.00     0.037 A 
ATOM     55  C   UNL     1       9.582  -8.836  15.855  1.00  0.00     0.049 A 
ATOM     56  C   UNL     1       5.488  -5.929  18.341  1.00  0.00     0.074 A 
ATOM     57  C   UNL     1       9.940 -10.036  16.444  1.00  0.00     0.029 A 
ATOM     58  N   UNL     1       8.557  -8.303  16.623  1.00  0.00    -0.354 N 
ATOM     59  N   UNL     1       6.437  -6.710  17.883  1.00  0.00    -0.248 NA
ATOM     60  C   UNL     1       4.785  -6.463  19.516  1.00  0.00     0.031 C 
ATOM     61  C   UNL     1       9.103 -10.249  17.545  1.00  0.00     0.029 A 
ATOM     62  C   UNL     1       8.257  -9.159  17.670  1.00  0.00     0.049 A 
ATOM     63  H   UNL     1       8.109  -7.444  16.449  1.00  0.00     0.167 HD
ATOM     64  C   UNL     1       6.463  -7.812  18.727  1.00  0.00     0.074 A 
ATOM     65  C   UNL     1       5.451  -7.587  19.739  1.00  0.00     0.031 C 
ATOM     66  C   UNL     1       7.250  -8.915  18.670  1.00  0.00     0.037 A 
BRANCH  53  67
ATOM     67  C   UNL     1      11.219  -8.931  13.931  1.00  0.00     0.057 A 
ATOM     68  C   UNL     1      12.543  -8.470  13.931  1.00  0.00     0.134 A 
ATOM     69  C   UNL     1      10.949 -10.113  13.229  1.00  0.00     0.134 A 
ATOM     70  F   UNL     1      12.868  -7.338  14.573  1.00  0.00    -0.206 F 
ATOM     71  C   UNL     1      13.551  -9.141  13.236  1.00  0.00     0.040 A 
ATOM     72  C   UNL     1      11.955 -10.808  12.555  1.00  0.00     0.040 A 
ATOM     73  F   UNL     1       9.706 -10.615  13.193  1.00  0.00    -0.206 F 
ATOM     74  C   UNL     1      13.259 -10.318  12.551  1.00  0.00     0.006 A 
ENDBRANCH  53  67
BRANCH  54  75
ATOM     75  C   UNL     1       3.961  -3.839  18.540  1.00  0.00     0.057 A 
ATOM     76  C   UNL     1       4.150  -3.337  19.833  1.00  0.00     0.134 A 
ATOM     77  C   UNL     1       2.709  -3.635  17.947  1.00  0.00     0.134 A 
ATOM     78  F   UNL     1       5.322  -3.515  20.461  1.00  0.00    -0.206 F 
ATOM     79  C   UNL     1       3.126  -2.685  20.523  1.00  0.00     0.040 A 
ATOM     80  C   UNL     1       1.685  -2.961  18.614  1.00  0.00     0.040 A 
ATOM     81  F   UNL     1       2.466  -4.083  16.706  1.00  0.00    -0.206 F 
ATOM     82  C   UNL     1       1.889  -2.493  19.911  1.00  0.00     0.006 A 
ENDBRANCH  54  75
BRANCH  66  83
ATOM     83  C   UNL     1       7.064  -9.941  19.750  1.00  0.00     0.057 A 
ATOM     84  C   UNL     1       5.922 -10.749  19.814  1.00  0.00     0.134 A 
ATOM     85  C   UNL     1       8.049 -10.134  20.727  1.00  0.00     0.134 A 
ATOM     86  F   UNL     1       4.936 -10.605  18.915  1.00  0.00    -0.206 F 
ATOM     87  C   UNL     1       5.751 -11.690  20.830  1.00  0.00     0.040 A 
ATOM     88  C   UNL     1       7.903 -11.092  21.731  1.00  0.00     0.040 A 
ATOM     89  F   UNL     1       9.172  -9.400  20.718  1.00  0.00    -0.206 F 
ATOM     90  C   UNL     1       6.746 -11.867  21.789  1.00  0.00     0.006 A 
ENDBRANCH  66  83
ENDBRANCH  40  41
ENDBRANCH  32  35
ENDBRANCH  30  31
ENDBRANCH   1  30
TORSDOF 14
