REMARK SMILES C[N@@H+]1CCN(C(=O)c2ccc3[nH]c4c(c3c2)CSCC4)C[C@H]1C(=O)NCCCNC(=O)c1ccc(-c2c3nc(c(-c4c(F)cccc4F)c4ccc([nH]4)c(-c4c(F)cccc4F)c4nc(c(-c5c(F)cccc5F)c5ccc2[nH]5)C=C4)C=C3)cc1
REMARK SMILES IDX 27 1 26 2 25 3 23 4 24 5 22 7 1 8 2 9 3 10 4 12 21 13 5 14
REMARK SMILES IDX 6 15 7 16 8 17 9 18 16 19 10 20 15 21 11 22 14 23 12 24
REMARK SMILES IDX 13 25 17 26 20 28 18 29 19 30 28 31 29 32 30 33 31 35 32 36
REMARK SMILES IDX 33 37 85 38 34 39 84 40 35 41 36 42 37 43 78 44 38 45 83 46
REMARK SMILES IDX 77 47 79 48 39 49 82 50 76 51 75 52 40 54 66 55 49 56 65 57
REMARK SMILES IDX 50 58 53 59 64 60 80 61 51 62 52 63 63 65 81 66 54 67 41 68
REMARK SMILES IDX 42 69 47 70 43 71 44 72 46 73 48 74 45 75 67 76 68 77 73 78
REMARK SMILES IDX 69 79 70 80 72 81 74 82 71 83 55 84 56 85 61 86 57 87 58 88
REMARK SMILES IDX 60 89 62 90 59 91
REMARK H PARENT 25 6 2 11 12 27 29 34 79 53 53 64
REMARK Flexibility Score: inf
ROOT
ATOM      1  C   UNL     1       1.766  -1.329  -3.790  1.00  0.00     0.042 C 
ENDROOT
BRANCH   1   2
ATOM      2  C   UNL     1       0.637  -1.801  -2.880  1.00  0.00     0.118 C 
BRANCH   2   3
ATOM      3  N   UNL     1       1.099  -2.642  -1.792  1.00  0.00    -0.351 N 
ATOM      4  C   UNL     1       1.036  -2.449  -0.444  1.00  0.00     0.280 C 
ATOM      5  O   UNL     1       1.501  -3.337   0.279  1.00  0.00    -0.268 OA
ATOM      6  H   UNL     1       1.526  -3.484  -2.071  1.00  0.00     0.163 HD
BRANCH   4   7
ATOM      7  C   UNL     1       0.384  -1.203   0.175  1.00  0.00     0.293 C 
ATOM      8  C   UNL     1       2.432   0.126   0.099  1.00  0.00     0.333 C 
ATOM      9  N   UNL     1       1.020   0.067  -0.297  1.00  0.00    -0.324 N 
ATOM     10  C   UNL     1       0.296   1.215   0.299  1.00  0.00     0.284 C 
ATOM     11  H   UNL     1       0.969   0.101  -1.315  1.00  0.00     0.348 HD
ATOM     12  C   UNL     1      -1.215   1.192   0.011  1.00  0.00     0.181 C 
ATOM     13  C   UNL     1      -1.140  -1.271  -0.064  1.00  0.00     0.195 C 
ATOM     14  N   UNL     1      -1.837  -0.069   0.417  1.00  0.00    -0.326 N 
BRANCH  14  15
ATOM     15  C   UNL     1      -3.134  -0.043   0.909  1.00  0.00     0.254 C 
ATOM     16  O   UNL     1      -3.777   1.002   1.076  1.00  0.00    -0.269 OA
BRANCH  15  17
ATOM     17  C   UNL     1      -3.816  -1.315   1.220  1.00  0.00     0.040 A 
ATOM     18  C   UNL     1      -3.287  -2.194   2.168  1.00  0.00     0.016 A 
ATOM     19  C   UNL     1      -5.017  -1.600   0.555  1.00  0.00     0.024 A 
ATOM     20  C   UNL     1      -3.902  -3.422   2.420  1.00  0.00     0.027 A 
ATOM     21  C   UNL     1      -5.665  -2.823   0.814  1.00  0.00     0.004 A 
ATOM     22  C   UNL     1      -5.084  -3.709   1.725  1.00  0.00     0.046 A 
ATOM     23  C   UNL     1      -6.878  -3.420   0.349  1.00  0.00    -0.009 A 
ATOM     24  N   UNL     1      -5.890  -4.824   1.779  1.00  0.00    -0.358 N 
ATOM     25  C   UNL     1      -6.989  -4.643   0.986  1.00  0.00     0.021 A 
ATOM     26  C   UNL     1      -7.877  -2.822  -0.589  1.00  0.00     0.107 C 
ATOM     27  H   UNL     1      -5.703  -5.631   2.310  1.00  0.00     0.166 HD
ATOM     28  C   UNL     1      -8.098  -5.629   0.866  1.00  0.00     0.065 C 
ATOM     29  S   UNL     1      -9.185  -3.992  -1.115  1.00  0.00    -0.157 SA
ATOM     30  C   UNL     1      -9.394  -4.927   0.446  1.00  0.00     0.076 C 
ENDBRANCH  15  17
ENDBRANCH  14  15
ENDBRANCH   4   7
ENDBRANCH   2   3
ENDBRANCH   1   2
BRANCH   1  31
ATOM     31  C   UNL     1       2.550  -2.447  -4.479  1.00  0.00     0.118 C 
BRANCH  31  32
ATOM     32  N   UNL     1       1.729  -3.426  -5.166  1.00  0.00    -0.352 N 
ATOM     33  C   UNL     1       1.216  -3.554  -6.426  1.00  0.00     0.251 C 
ATOM     34  H   UNL     1       1.481  -4.180  -4.583  1.00  0.00     0.163 HD
ATOM     35  O   UNL     1       0.678  -4.635  -6.679  1.00  0.00    -0.269 OA
BRANCH  33  36
ATOM     36  C   UNL     1       1.214  -2.498  -7.476  1.00  0.00     0.039 A 
ATOM     37  C   UNL     1       1.689  -1.198  -7.318  1.00  0.00     0.014 A 
ATOM     38  C   UNL     1       0.613  -2.841  -8.704  1.00  0.00     0.014 A 
ATOM     39  C   UNL     1       1.493  -0.248  -8.319  1.00  0.00     0.010 A 
ATOM     40  C   UNL     1       0.435  -1.901  -9.718  1.00  0.00     0.010 A 
ATOM     41  C   UNL     1       0.839  -0.587  -9.509  1.00  0.00    -0.014 A 
BRANCH  41  42
ATOM     42  C   UNL     1       0.667   0.467 -10.508  1.00  0.00     0.031 A 
ATOM     43  C   UNL     1       1.913   1.140 -10.973  1.00  0.00     0.074 A 
ATOM     44  C   UNL     1      -0.506   0.827 -11.065  1.00  0.00     0.049 A 
ATOM     45  N   UNL     1       2.261   2.374 -10.797  1.00  0.00    -0.248 NA
ATOM     46  C   UNL     1       2.917   0.325 -11.669  1.00  0.00     0.031 C 
ATOM     47  C   UNL     1      -1.806   0.163 -10.981  1.00  0.00     0.029 A 
ATOM     48  N   UNL     1      -0.745   1.877 -11.907  1.00  0.00    -0.354 N 
ATOM     49  C   UNL     1       3.456   2.545 -11.492  1.00  0.00     0.074 A 
ATOM     50  C   UNL     1       3.861   1.232 -11.930  1.00  0.00     0.031 C 
ATOM     51  C   UNL     1      -2.644   0.709 -11.892  1.00  0.00     0.029 A 
ATOM     52  C   UNL     1      -1.987   1.845 -12.519  1.00  0.00     0.049 A 
ATOM     53  H   UNL     1      -0.090   2.595 -12.065  1.00  0.00     0.167 HD
ATOM     54  C   UNL     1       3.944   3.779 -11.800  1.00  0.00     0.037 A 
ATOM     55  C   UNL     1      -2.432   2.670 -13.498  1.00  0.00     0.037 A 
ATOM     56  C   UNL     1       3.351   4.812 -10.994  1.00  0.00     0.049 A 
ATOM     57  C   UNL     1      -1.627   3.914 -13.454  1.00  0.00     0.074 A 
ATOM     58  C   UNL     1       3.268   5.066  -9.637  1.00  0.00     0.029 A 
ATOM     59  N   UNL     1       2.433   5.653 -11.572  1.00  0.00    -0.354 N 
ATOM     60  N   UNL     1      -1.723   4.815 -12.518  1.00  0.00    -0.248 NA
ATOM     61  C   UNL     1      -0.421   3.985 -14.264  1.00  0.00     0.031 C 
ATOM     62  C   UNL     1       1.975   5.638  -9.446  1.00  0.00     0.029 A 
ATOM     63  C   UNL     1       1.375   5.723 -10.702  1.00  0.00     0.049 A 
ATOM     64  H   UNL     1       2.517   6.114 -12.437  1.00  0.00     0.167 HD
ATOM     65  C   UNL     1      -0.428   5.271 -12.335  1.00  0.00     0.074 A 
ATOM     66  C   UNL     1       0.305   4.814 -13.512  1.00  0.00     0.031 C 
ATOM     67  C   UNL     1      -0.005   5.734 -11.122  1.00  0.00     0.037 A 
BRANCH  54  68
ATOM     68  C   UNL     1       4.740   4.093 -13.041  1.00  0.00     0.057 A 
ATOM     69  C   UNL     1       4.652   3.344 -14.230  1.00  0.00     0.134 A 
ATOM     70  C   UNL     1       5.387   5.337 -13.161  1.00  0.00     0.134 A 
ATOM     71  F   UNL     1       3.988   2.182 -14.291  1.00  0.00    -0.206 F 
ATOM     72  C   UNL     1       5.155   3.801 -15.452  1.00  0.00     0.040 A 
ATOM     73  C   UNL     1       5.850   5.826 -14.389  1.00  0.00     0.040 A 
ATOM     74  F   UNL     1       5.515   6.151 -12.103  1.00  0.00    -0.206 F 
ATOM     75  C   UNL     1       5.729   5.060 -15.541  1.00  0.00     0.006 A 
ENDBRANCH  54  68
BRANCH  55  76
ATOM     76  C   UNL     1      -3.371   2.378 -14.602  1.00  0.00     0.057 A 
ATOM     77  C   UNL     1      -3.486   1.084 -15.137  1.00  0.00     0.134 A 
ATOM     78  C   UNL     1      -3.977   3.406 -15.338  1.00  0.00     0.134 A 
ATOM     79  F   UNL     1      -2.878   0.038 -14.559  1.00  0.00    -0.206 F 
ATOM     80  C   UNL     1      -4.154   0.825 -16.337  1.00  0.00     0.040 A 
ATOM     81  C   UNL     1      -4.641   3.162 -16.548  1.00  0.00     0.040 A 
ATOM     82  F   UNL     1      -3.886   4.681 -14.935  1.00  0.00    -0.206 F 
ATOM     83  C   UNL     1      -4.722   1.869 -17.056  1.00  0.00     0.006 A 
ENDBRANCH  55  76
BRANCH  67  84
ATOM     84  C   UNL     1      -1.048   5.995 -10.072  1.00  0.00     0.057 A 
ATOM     85  C   UNL     1      -1.119   7.261  -9.481  1.00  0.00     0.134 A 
ATOM     86  C   UNL     1      -1.902   5.007  -9.557  1.00  0.00     0.134 A 
ATOM     87  F   UNL     1      -0.287   8.239  -9.873  1.00  0.00    -0.206 F 
ATOM     88  C   UNL     1      -2.020   7.545  -8.451  1.00  0.00     0.040 A 
ATOM     89  C   UNL     1      -2.834   5.288  -8.554  1.00  0.00     0.040 A 
ATOM     90  F   UNL     1      -1.827   3.737  -9.976  1.00  0.00    -0.206 F 
ATOM     91  C   UNL     1      -2.894   6.561  -7.997  1.00  0.00     0.006 A 
ENDBRANCH  67  84
ENDBRANCH  41  42
ENDBRANCH  33  36
ENDBRANCH  31  32
ENDBRANCH   1  31
TORSDOF 12
