REMARK SMILES COCC1CC[NH+]([C@@H]2CCC[C@@]([NH3+])(C(=O)NCCCNC(=O)c3ccc(-c4c5nc(c(-c6c(F)cccc6F)c6ccc([nH]6)c(-c6c(F)cccc6F)c6nc(c(-c7c(F)cccc7F)c7ccc4[nH]7)C=C6)C=C5)cc3)C2)CC1
REMARK SMILES IDX 17 1 16 2 14 3 15 4 12 6 8 7 9 8 77 9 10 10 11 11 7 12 4 13
REMARK SMILES IDX 5 14 79 15 6 16 78 17 3 19 2 20 1 21 13 22 18 26 19 27 20 28
REMARK SMILES IDX 21 29 22 31 23 32 24 33 76 34 25 35 75 36 26 37 27 38 28 39
REMARK SMILES IDX 69 40 29 41 74 42 68 43 70 44 30 45 73 46 67 47 66 48 31 50
REMARK SMILES IDX 57 51 40 52 56 53 41 54 44 55 55 56 71 57 42 58 43 59 54 61
REMARK SMILES IDX 72 62 45 63 32 64 33 65 38 66 34 67 35 68 37 69 39 70 36 71
REMARK SMILES IDX 58 72 59 73 64 74 60 75 61 76 63 77 65 78 62 79 46 80 47 81
REMARK SMILES IDX 52 82 48 83 49 84 51 85 53 86 50 87
REMARK H PARENT 16 5 7 18 13 23 13 24 13 25 20 30 70 49 44 60
REMARK Flexibility Score: inf
ROOT
ATOM      1  C   UNL     1       1.225 -10.524   5.552  1.00  0.00     0.118 C 
ENDROOT
BRANCH   1   2
ATOM      2  N   UNL     1       0.377  -9.398   5.895  1.00  0.00    -0.351 N 
ATOM      3  C   UNL     1       0.129  -8.229   5.238  1.00  0.00     0.281 C 
ATOM      4  O   UNL     1      -0.688  -7.473   5.771  1.00  0.00    -0.268 OA
ATOM      5  H   UNL     1      -0.103  -9.494   6.750  1.00  0.00     0.163 HD
BRANCH   3   6
ATOM      6  C   UNL     1       0.817  -7.880   3.875  1.00  0.00     0.179 C 
ATOM      7  C   UNL     1       0.816  -5.285   4.124  1.00  0.00     0.190 C 
ATOM      8  C   UNL     1       2.348  -5.349   4.332  1.00  0.00     0.065 C 
ATOM      9  C   UNL     1       0.304  -6.520   3.333  1.00  0.00     0.144 C 
ATOM     10  C   UNL     1       2.817  -6.693   4.871  1.00  0.00     0.013 C 
ATOM     11  C   UNL     1       2.351  -7.825   3.967  1.00  0.00     0.079 C 
BRANCH   7  12
ATOM     12  N   UNL     1       0.338  -4.003   3.526  1.00  0.00    -0.332 N 
ATOM     13  C   UNL     1       0.870  -1.304   2.436  1.00  0.00     0.026 C 
ATOM     14  C   UNL     1       0.239  -1.502   3.821  1.00  0.00     0.067 C 
ATOM     15  C   UNL     1       0.363  -2.438   1.549  1.00  0.00     0.067 C 
ATOM     16  C   UNL     1       0.632  -2.859   4.404  1.00  0.00     0.262 C 
ATOM     17  C   UNL     1       0.755  -3.797   2.135  1.00  0.00     0.262 C 
ATOM     18  H   UNL     1      -0.678  -4.076   3.464  1.00  0.00     0.348 HD
BRANCH  13  19
ATOM     19  C   UNL     1       0.620   0.125   1.921  1.00  0.00     0.163 C 
BRANCH  19  20
ATOM     20  O   UNL     1       0.090   0.204   0.603  1.00  0.00    -0.384 OA
ATOM     21  C   UNL     1       1.060   0.146  -0.433  1.00  0.00     0.194 C 
ENDBRANCH  19  20
ENDBRANCH  13  19
ENDBRANCH   7  12
BRANCH   6  22
ATOM     22  N   UNL     1       0.431  -8.933   2.896  1.00  0.00    -0.345 N 
ATOM     23  H   UNL     1       0.757  -9.841   3.227  1.00  0.00     0.345 HD
ATOM     24  H   UNL     1       0.857  -8.729   1.991  1.00  0.00     0.345 HD
ATOM     25  H   UNL     1      -0.584  -8.951   2.798  1.00  0.00     0.345 HD
ENDBRANCH   6  22
ENDBRANCH   3   6
ENDBRANCH   1   2
BRANCH   1  26
ATOM     26  C   UNL     1       2.468 -10.583   6.435  1.00  0.00     0.042 C 
BRANCH  26  27
ATOM     27  C   UNL     1       2.168 -10.792   7.915  1.00  0.00     0.118 C 
BRANCH  27  28
ATOM     28  N   UNL     1       1.522 -12.070   8.180  1.00  0.00    -0.352 N 
ATOM     29  C   UNL     1       1.939 -13.126   8.945  1.00  0.00     0.251 C 
ATOM     30  H   UNL     1       0.650 -12.194   7.740  1.00  0.00     0.163 HD
ATOM     31  O   UNL     1       1.341 -14.201   8.878  1.00  0.00    -0.269 OA
BRANCH  29  32
ATOM     32  C   UNL     1       3.107 -12.995   9.839  1.00  0.00     0.039 A 
ATOM     33  C   UNL     1       4.017 -14.053   9.919  1.00  0.00     0.014 A 
ATOM     34  C   UNL     1       3.292 -11.854  10.624  1.00  0.00     0.014 A 
ATOM     35  C   UNL     1       5.141 -13.943  10.740  1.00  0.00     0.010 A 
ATOM     36  C   UNL     1       4.451 -11.713  11.383  1.00  0.00     0.010 A 
ATOM     37  C   UNL     1       5.383 -12.759  11.454  1.00  0.00    -0.014 A 
BRANCH  37  38
ATOM     38  C   UNL     1       6.601 -12.599  12.288  1.00  0.00     0.031 A 
ATOM     39  C   UNL     1       6.480 -12.428  13.777  1.00  0.00     0.074 A 
ATOM     40  C   UNL     1       7.810 -12.544  11.697  1.00  0.00     0.049 A 
ATOM     41  N   UNL     1       7.418 -12.202  14.662  1.00  0.00    -0.248 NA
ATOM     42  C   UNL     1       5.123 -12.491  14.343  1.00  0.00     0.031 C 
ATOM     43  C   UNL     1       8.054 -12.651  10.257  1.00  0.00     0.029 A 
ATOM     44  N   UNL     1       9.060 -12.374  12.234  1.00  0.00    -0.354 N 
ATOM     45  C   UNL     1       6.764 -12.079  15.882  1.00  0.00     0.074 A 
ATOM     46  C   UNL     1       5.347 -12.204  15.617  1.00  0.00     0.031 C 
ATOM     47  C   UNL     1       9.374 -12.565  10.028  1.00  0.00     0.029 A 
ATOM     48  C   UNL     1      10.065 -12.361  11.297  1.00  0.00     0.049 A 
ATOM     49  H   UNL     1       9.223 -12.270  13.200  1.00  0.00     0.167 HD
ATOM     50  C   UNL     1       7.297 -11.900  17.114  1.00  0.00     0.037 A 
ATOM     51  C   UNL     1      11.393 -12.196  11.445  1.00  0.00     0.037 A 
ATOM     52  C   UNL     1       8.709 -11.805  17.378  1.00  0.00     0.049 A 
ATOM     53  C   UNL     1      11.960 -12.002  12.823  1.00  0.00     0.074 A 
ATOM     54  C   UNL     1       9.352 -11.685  18.597  1.00  0.00     0.029 A 
ATOM     55  N   UNL     1       9.696 -11.818  16.404  1.00  0.00    -0.354 N 
ATOM     56  N   UNL     1      11.336 -11.952  13.975  1.00  0.00    -0.248 NA
ATOM     57  C   UNL     1      13.418 -11.848  12.923  1.00  0.00     0.031 C 
ATOM     58  C   UNL     1      10.727 -11.586  18.359  1.00  0.00     0.029 A 
ATOM     59  C   UNL     1      10.943 -11.690  16.994  1.00  0.00     0.049 A 
ATOM     60  H   UNL     1       9.535 -11.906  15.437  1.00  0.00     0.167 HD
ATOM     61  C   UNL     1      12.324 -11.788  14.937  1.00  0.00     0.074 A 
ATOM     62  C   UNL     1      13.590 -11.761  14.234  1.00  0.00     0.031 C 
ATOM     63  C   UNL     1      12.194 -11.671  16.281  1.00  0.00     0.037 A 
BRANCH  50  64
ATOM     64  C   UNL     1       6.346 -11.802  18.271  1.00  0.00     0.057 A 
ATOM     65  C   UNL     1       5.626 -12.912  18.732  1.00  0.00     0.134 A 
ATOM     66  C   UNL     1       6.171 -10.591  18.953  1.00  0.00     0.134 A 
ATOM     67  F   UNL     1       5.739 -14.099  18.115  1.00  0.00    -0.206 F 
ATOM     68  C   UNL     1       4.746 -12.816  19.811  1.00  0.00     0.040 A 
ATOM     69  C   UNL     1       5.314 -10.489  20.050  1.00  0.00     0.040 A 
ATOM     70  F   UNL     1       6.834  -9.490  18.569  1.00  0.00    -0.206 F 
ATOM     71  C   UNL     1       4.593 -11.602  20.478  1.00  0.00     0.006 A 
ENDBRANCH  50  64
BRANCH  51  72
ATOM     72  C   UNL     1      12.281 -12.233  10.257  1.00  0.00     0.057 A 
ATOM     73  C   UNL     1      13.149 -13.310  10.040  1.00  0.00     0.134 A 
ATOM     74  C   UNL     1      12.289 -11.198   9.315  1.00  0.00     0.134 A 
ATOM     75  F   UNL     1      13.199 -14.323  10.918  1.00  0.00    -0.206 F 
ATOM     76  C   UNL     1      14.006 -13.348   8.940  1.00  0.00     0.040 A 
ATOM     77  C   UNL     1      13.124 -11.234   8.197  1.00  0.00     0.040 A 
ATOM     78  F   UNL     1      11.475 -10.143   9.462  1.00  0.00    -0.206 F 
ATOM     79  C   UNL     1      13.991 -12.309   8.011  1.00  0.00     0.006 A 
ENDBRANCH  51  72
BRANCH  63  80
ATOM     80  C   UNL     1      13.455 -11.538  17.081  1.00  0.00     0.057 A 
ATOM     81  C   UNL     1      14.208 -10.357  17.084  1.00  0.00     0.134 A 
ATOM     82  C   UNL     1      13.900 -12.593  17.889  1.00  0.00     0.134 A 
ATOM     83  F   UNL     1      13.842  -9.316  16.321  1.00  0.00    -0.206 F 
ATOM     84  C   UNL     1      15.372 -10.238  17.845  1.00  0.00     0.040 A 
ATOM     85  C   UNL     1      15.048 -12.476  18.674  1.00  0.00     0.040 A 
ATOM     86  F   UNL     1      13.220 -13.748  17.937  1.00  0.00    -0.206 F 
ATOM     87  C   UNL     1      15.790 -11.297  18.648  1.00  0.00     0.006 A 
ENDBRANCH  63  80
ENDBRANCH  37  38
ENDBRANCH  29  32
ENDBRANCH  27  28
ENDBRANCH  26  27
ENDBRANCH   1  26
TORSDOF 14
