REMARK SMILES O=C(NCCCNC(=O)[C@@H]1CCCC[C@@H]1C(=O)Nc1ccccc1C(=O)N1CCN(c2ccc(F)cc2)CC1)c1ccc(-c2c3nc(c(-c4c(F)cccc4F)c4ccc([nH]4)c(-c4c(F)cccc4F)c4nc(c(-c5c(F)cccc5F)c5ccc2[nH]5)C=C4)C=C3)cc1
REMARK SMILES IDX 6 1 5 2 4 3 3 4 1 5 2 6 40 8 41 9 93 10 42 11 92 12 43 13
REMARK SMILES IDX 44 14 45 15 86 16 46 17 91 18 85 19 87 20 47 21 90 22 84 23
REMARK SMILES IDX 83 24 48 26 74 27 57 28 73 29 58 30 61 31 72 32 88 33 59 34
REMARK SMILES IDX 60 35 71 37 89 38 62 39 49 40 50 41 55 42 51 43 52 44 54 45
REMARK SMILES IDX 56 46 53 47 75 48 76 49 81 50 77 51 78 52 80 53 82 54 79 55
REMARK SMILES IDX 63 56 64 57 69 58 65 59 66 60 68 61 70 62 67 63 7 64 8 65
REMARK SMILES IDX 9 67 10 68 11 69 15 70 12 71 14 72 13 73 16 74 17 75 18 76
REMARK SMILES IDX 19 78 20 79 24 80 21 81 23 82 22 83 25 84 26 85 27 86 28 87
REMARK SMILES IDX 39 88 29 89 38 90 30 91 31 92 32 93 37 94 33 95 36 96 34 97
REMARK SMILES IDX 35 98
REMARK H PARENT 3 7 87 25 61 36 7 66 18 77
REMARK Flexibility Score: inf
ROOT
ATOM      1  C   UNL     1       6.907  -3.043   1.639  1.00  0.00     0.117 C 
ENDROOT
BRANCH   1   2
ATOM      2  C   UNL     1       6.870  -1.702   0.857  1.00  0.00     0.042 C 
BRANCH   2   3
ATOM      3  C   UNL     1       5.766  -1.447  -0.218  1.00  0.00     0.118 C 
BRANCH   3   4
ATOM      4  N   UNL     1       4.384  -1.165   0.199  1.00  0.00    -0.352 N 
ATOM      5  O   UNL     1       2.332  -0.218   0.369  1.00  0.00    -0.269 OA
ATOM      6  C   UNL     1       3.429  -0.230  -0.160  1.00  0.00     0.251 C 
ATOM      7  H   UNL     1       4.065  -1.784   0.895  1.00  0.00     0.163 HD
BRANCH   6   8
ATOM      8  C   UNL     1       3.672   0.832  -1.157  1.00  0.00     0.039 A 
ATOM      9  C   UNL     1       4.529   0.649  -2.229  1.00  0.00     0.014 A 
ATOM     10  C   UNL     1       2.978   2.047  -1.012  1.00  0.00     0.014 A 
ATOM     11  C   UNL     1       4.881   1.740  -3.004  1.00  0.00     0.010 A 
ATOM     12  C   UNL     1       3.244   3.113  -1.868  1.00  0.00     0.010 A 
ATOM     13  C   UNL     1       4.257   2.986  -2.821  1.00  0.00    -0.014 A 
BRANCH  13  14
ATOM     14  C   UNL     1       4.706   4.136  -3.633  1.00  0.00     0.031 A 
ATOM     15  C   UNL     1       5.352   5.323  -2.978  1.00  0.00     0.074 A 
ATOM     16  C   UNL     1       4.596   4.059  -4.971  1.00  0.00     0.049 A 
ATOM     17  N   UNL     1       5.834   6.406  -3.532  1.00  0.00    -0.248 NA
ATOM     18  C   UNL     1       5.463   5.301  -1.511  1.00  0.00     0.031 C 
ATOM     19  C   UNL     1       3.981   2.946  -5.698  1.00  0.00     0.029 A 
ATOM     20  N   UNL     1       5.023   4.907  -5.956  1.00  0.00    -0.354 N 
ATOM     21  C   UNL     1       6.270   7.206  -2.483  1.00  0.00     0.074 A 
ATOM     22  C   UNL     1       5.983   6.494  -1.258  1.00  0.00     0.031 C 
ATOM     23  C   UNL     1       4.129   3.148  -7.014  1.00  0.00     0.029 A 
ATOM     24  C   UNL     1       4.775   4.439  -7.221  1.00  0.00     0.049 A 
ATOM     25  H   UNL     1       5.465   5.768  -5.775  1.00  0.00     0.167 HD
ATOM     26  C   UNL     1       6.859   8.424  -2.545  1.00  0.00     0.037 A 
ATOM     27  C   UNL     1       5.019   4.998  -8.419  1.00  0.00     0.037 A 
ATOM     28  C   UNL     1       7.170   9.100  -3.778  1.00  0.00     0.049 A 
ATOM     29  C   UNL     1       5.680   6.340  -8.463  1.00  0.00     0.074 A 
ATOM     30  C   UNL     1       7.795  10.320  -3.960  1.00  0.00     0.029 A 
ATOM     31  N   UNL     1       6.879   8.605  -5.042  1.00  0.00    -0.354 N 
ATOM     32  N   UNL     1       6.088   7.087  -7.465  1.00  0.00    -0.248 NA
ATOM     33  C   UNL     1       5.905   6.926  -9.790  1.00  0.00     0.031 C 
ATOM     34  C   UNL     1       7.847  10.582  -5.334  1.00  0.00     0.029 A 
ATOM     35  C   UNL     1       7.295   9.504  -6.009  1.00  0.00     0.049 A 
ATOM     36  H   UNL     1       6.442   7.742  -5.224  1.00  0.00     0.167 HD
ATOM     37  C   UNL     1       6.622   8.230  -8.039  1.00  0.00     0.074 A 
ATOM     38  C   UNL     1       6.500   8.069  -9.476  1.00  0.00     0.031 C 
ATOM     39  C   UNL     1       7.160   9.316  -7.432  1.00  0.00     0.037 A 
BRANCH  26  40
ATOM     40  C   UNL     1       7.168   9.113  -1.247  1.00  0.00     0.057 A 
ATOM     41  C   UNL     1       8.192   8.681  -0.394  1.00  0.00     0.134 A 
ATOM     42  C   UNL     1       6.432  10.237  -0.850  1.00  0.00     0.134 A 
ATOM     43  F   UNL     1       8.926   7.602  -0.705  1.00  0.00    -0.206 F 
ATOM     44  C   UNL     1       8.455   9.325   0.817  1.00  0.00     0.040 A 
ATOM     45  C   UNL     1       6.702  10.905   0.346  1.00  0.00     0.040 A 
ATOM     46  F   UNL     1       5.440  10.708  -1.620  1.00  0.00    -0.206 F 
ATOM     47  C   UNL     1       7.712  10.444   1.188  1.00  0.00     0.006 A 
ENDBRANCH  26  40
BRANCH  27  48
ATOM     48  C   UNL     1       4.605   4.275  -9.645  1.00  0.00     0.057 A 
ATOM     49  C   UNL     1       5.542   3.666 -10.483  1.00  0.00     0.134 A 
ATOM     50  C   UNL     1       3.249   4.093  -9.948  1.00  0.00     0.134 A 
ATOM     51  F   UNL     1       6.855   3.811 -10.249  1.00  0.00    -0.206 F 
ATOM     52  C   UNL     1       5.146   2.892 -11.576  1.00  0.00     0.040 A 
ATOM     53  C   UNL     1       2.839   3.302 -11.021  1.00  0.00     0.040 A 
ATOM     54  F   UNL     1       2.303   4.641  -9.170  1.00  0.00    -0.206 F 
ATOM     55  C   UNL     1       3.790   2.698 -11.838  1.00  0.00     0.006 A 
ENDBRANCH  27  48
BRANCH  39  56
ATOM     56  C   UNL     1       7.675  10.403  -8.324  1.00  0.00     0.057 A 
ATOM     57  C   UNL     1       6.811  11.296  -8.967  1.00  0.00     0.134 A 
ATOM     58  C   UNL     1       9.052  10.587  -8.495  1.00  0.00     0.134 A 
ATOM     59  F   UNL     1       5.482  11.161  -8.849  1.00  0.00    -0.206 F 
ATOM     60  C   UNL     1       7.301  12.332  -9.762  1.00  0.00     0.040 A 
ATOM     61  C   UNL     1       9.554  11.631  -9.272  1.00  0.00     0.040 A 
ATOM     62  F   UNL     1       9.929   9.766  -7.899  1.00  0.00    -0.206 F 
ATOM     63  C   UNL     1       8.676  12.506  -9.910  1.00  0.00     0.006 A 
ENDBRANCH  39  56
ENDBRANCH  13  14
ENDBRANCH   6   8
ENDBRANCH   3   4
ENDBRANCH   2   3
ENDBRANCH   1   2
BRANCH   1  64
ATOM     64  N   UNL     1       7.132  -2.888   3.114  1.00  0.00    -0.356 N 
ATOM     65  C   UNL     1       6.545  -3.722   4.060  1.00  0.00     0.223 C 
ATOM     66  H   UNL     1       7.721  -2.164   3.426  1.00  0.00     0.163 HD
ATOM     67  O   UNL     1       5.952  -4.735   3.684  1.00  0.00    -0.275 OA
BRANCH  65  68
ATOM     68  C   UNL     1       6.678  -3.386   5.594  1.00  0.00     0.091 C 
ATOM     69  C   UNL     1       6.229  -4.633   6.394  1.00  0.00     0.014 C 
ATOM     70  C   UNL     1       6.079  -2.070   6.251  1.00  0.00     0.091 C 
ATOM     71  C   UNL     1       6.435  -4.547   7.906  1.00  0.00     0.001 C 
ATOM     72  C   UNL     1       6.651  -2.013   7.692  1.00  0.00     0.014 C 
ATOM     73  C   UNL     1       6.159  -3.188   8.542  1.00  0.00     0.001 C 
BRANCH  70  74
ATOM     74  C   UNL     1       4.532  -1.965   6.445  1.00  0.00     0.228 C 
ATOM     75  O   UNL     1       3.817  -2.974   6.403  1.00  0.00    -0.274 OA
ATOM     76  N   UNL     1       3.881  -0.833   6.873  1.00  0.00    -0.325 N 
ATOM     77  H   UNL     1       2.955  -1.011   7.154  1.00  0.00     0.169 HD
BRANCH  76  78
ATOM     78  C   UNL     1       4.238   0.525   7.003  1.00  0.00     0.054 A 
ATOM     79  C   UNL     1       3.781   1.171   8.160  1.00  0.00     0.027 A 
ATOM     80  C   UNL     1       4.968   1.286   6.087  1.00  0.00     0.063 A 
ATOM     81  C   UNL     1       4.236   2.452   8.499  1.00  0.00     0.002 A 
ATOM     82  C   UNL     1       5.491   2.539   6.460  1.00  0.00     0.016 A 
ATOM     83  C   UNL     1       5.145   3.109   7.680  1.00  0.00     0.001 A 
BRANCH  80  84
ATOM     84  C   UNL     1       5.178   0.887   4.688  1.00  0.00     0.256 C 
ATOM     85  O   UNL     1       6.248   1.193   4.159  1.00  0.00    -0.269 OA
ATOM     86  N   UNL     1       4.268   0.014   4.104  1.00  0.00    -0.335 N 
ATOM     87  C   UNL     1       4.887  -0.947   3.263  1.00  0.00     0.141 C 
ATOM     88  C   UNL     1       2.871   0.294   3.705  1.00  0.00     0.141 C 
ATOM     89  C   UNL     1       4.099  -2.238   3.214  1.00  0.00     0.138 C 
ATOM     90  C   UNL     1       2.000  -0.999   3.382  1.00  0.00     0.138 C 
ATOM     91  N   UNL     1       2.772  -2.036   2.662  1.00  0.00    -0.368 N 
BRANCH  91  92
ATOM     92  C   UNL     1       2.246  -3.273   2.240  1.00  0.00     0.037 A 
ATOM     93  C   UNL     1       2.290  -4.412   3.069  1.00  0.00     0.029 A 
ATOM     94  C   UNL     1       2.051  -3.486   0.864  1.00  0.00     0.029 A 
ATOM     95  C   UNL     1       2.279  -5.704   2.527  1.00  0.00     0.041 A 
ATOM     96  C   UNL     1       2.047  -4.774   0.318  1.00  0.00     0.041 A 
ATOM     97  C   UNL     1       2.187  -5.871   1.154  1.00  0.00     0.123 A 
ATOM     98  F   UNL     1       2.263  -7.100   0.626  1.00  0.00    -0.207 F 
ENDBRANCH  91  92
ENDBRANCH  80  84
ENDBRANCH  76  78
ENDBRANCH  70  74
ENDBRANCH  65  68
ENDBRANCH   1  64
TORSDOF 14
