REMARK SMILES CC1=C(C(=O)OCC(C)C)[C@@H](c2ccc(C(=O)NCCCNC(=O)c3ccc(-c4c5nc(c(-c6c(F)cccc6F)c6ccc([nH]6)c(-c6c(F)cccc6F)c6nc(c(-c7c(F)cccc7F)c7ccc4[nH]7)C=C6)C=C5)cc3)cc2)c2c(n(C)c(=O)n(C)c2=O)N1
REMARK SMILES IDX 16 1 17 2 18 3 15 5 12 6 13 7 80 8 14 9 79 10 11 11 1 12
REMARK SMILES IDX 2 13 3 14 91 15 82 16 81 18 83 19 89 20 84 21 85 22 87 23
REMARK SMILES IDX 90 24 86 25 88 26 4 27 5 28 6 29 7 30 8 31 9 32 10 33 19 34
REMARK SMILES IDX 20 35 21 36 22 37 23 38 24 40 25 41 26 42 78 43 27 44 77 45
REMARK SMILES IDX 28 46 29 47 30 48 71 49 31 50 76 51 70 52 72 53 32 54 75 55
REMARK SMILES IDX 69 56 68 57 33 59 59 60 42 61 58 62 43 63 46 64 57 65 73 66
REMARK SMILES IDX 44 67 45 68 56 70 74 71 47 72 34 73 35 74 40 75 36 76 37 77
REMARK SMILES IDX 39 78 41 79 38 80 60 81 61 82 66 83 62 84 63 85 65 86 67 87
REMARK SMILES IDX 64 88 48 89 49 90 54 91 50 92 51 93 53 94 55 95 52 96
REMARK H PARENT 18 4 91 17 22 39 72 58 46 69
REMARK Flexibility Score: inf
ROOT
ATOM      1  C   UNL     1      -4.410  -3.604  -4.866  1.00  0.00     0.251 C 
ATOM      2  O   UNL     1      -3.915  -3.206  -5.923  1.00  0.00    -0.269 OA
ATOM      3  N   UNL     1      -5.605  -4.268  -4.949  1.00  0.00    -0.352 N 
ATOM      4  H   UNL     1      -5.947  -4.356  -5.868  1.00  0.00     0.163 HD
ENDROOT
BRANCH   1   5
ATOM      5  C   UNL     1      -3.666  -3.394  -3.593  1.00  0.00     0.039 A 
ATOM      6  C   UNL     1      -2.064  -3.085  -1.284  1.00  0.00    -0.035 A 
ATOM      7  C   UNL     1      -1.484  -3.072  -2.562  1.00  0.00     0.005 A 
ATOM      8  C   UNL     1      -3.455  -3.194  -1.180  1.00  0.00     0.005 A 
ATOM      9  C   UNL     1      -2.277  -3.234  -3.699  1.00  0.00     0.014 A 
ATOM     10  C   UNL     1      -4.247  -3.320  -2.325  1.00  0.00     0.014 A 
BRANCH   6  11
ATOM     11  C   UNL     1      -1.213  -2.963  -0.016  1.00  0.00     0.098 C 
ATOM     12  C   UNL     1       1.331   0.017   0.072  1.00  0.00     0.065 C 
ATOM     13  C   UNL     1       0.686  -1.342  -0.005  1.00  0.00     0.025 C 
ATOM     14  C   UNL     1      -0.646  -1.554   0.091  1.00  0.00     0.068 C 
ATOM     15  N   UNL     1       1.543  -2.426  -0.138  1.00  0.00    -0.344 N 
ATOM     16  C   UNL     1       1.171  -3.762  -0.071  1.00  0.00     0.123 A 
ATOM     17  H   UNL     1       2.496  -2.231  -0.293  1.00  0.00     0.168 HD
ATOM     18  C   UNL     1      -0.142  -4.043   0.013  1.00  0.00     0.071 A 
ATOM     19  N   UNL     1       2.090  -4.800  -0.087  1.00  0.00    -0.282 N 
ATOM     20  C   UNL     1      -0.598  -5.441   0.143  1.00  0.00     0.262 A 
ATOM     21  C   UNL     1       3.517  -4.499  -0.104  1.00  0.00     0.157 C 
ATOM     22  C   UNL     1       1.721  -6.144  -0.106  1.00  0.00     0.332 A 
ATOM     23  N   UNL     1       0.362  -6.408  -0.049  1.00  0.00    -0.263 N 
ATOM     24  O   UNL     1      -1.771  -5.686   0.418  1.00  0.00    -0.269 OA
ATOM     25  O   UNL     1       2.550  -7.056  -0.154  1.00  0.00    -0.247 OA
ATOM     26  C   UNL     1      -0.046  -7.800  -0.075  1.00  0.00     0.158 C 
BRANCH  14  27
ATOM     27  C   UNL     1      -1.667  -0.506   0.345  1.00  0.00     0.336 C 
ATOM     28  O   UNL     1      -2.632  -0.691   1.066  1.00  0.00    -0.246 OA
BRANCH  27  29
ATOM     29  O   UNL     1      -1.411   0.615  -0.372  1.00  0.00    -0.462 OA
BRANCH  29  30
ATOM     30  C   UNL     1      -2.342   1.700  -0.218  1.00  0.00     0.236 C 
BRANCH  30  31
ATOM     31  C   UNL     1      -3.216   1.845  -1.472  1.00  0.00     0.021 C 
ATOM     32  C   UNL     1      -4.091   0.614  -1.704  1.00  0.00     0.011 C 
ATOM     33  C   UNL     1      -4.086   3.096  -1.369  1.00  0.00     0.011 C 
ENDBRANCH  30  31
ENDBRANCH  29  30
ENDBRANCH  27  29
ENDBRANCH  14  27
ENDBRANCH   6  11
ENDBRANCH   1   5
BRANCH   3  34
ATOM     34  C   UNL     1      -6.464  -4.867  -3.947  1.00  0.00     0.118 C 
BRANCH  34  35
ATOM     35  C   UNL     1      -7.583  -3.905  -3.551  1.00  0.00     0.042 C 
BRANCH  35  36
ATOM     36  C   UNL     1      -8.634  -3.737  -4.644  1.00  0.00     0.118 C 
BRANCH  36  37
ATOM     37  N   UNL     1      -9.399  -4.959  -4.846  1.00  0.00    -0.352 N 
ATOM     38  C   UNL     1     -10.725  -5.214  -4.608  1.00  0.00     0.251 C 
ATOM     39  H   UNL     1      -8.887  -5.718  -5.208  1.00  0.00     0.163 HD
ATOM     40  O   UNL     1     -11.128  -6.373  -4.580  1.00  0.00    -0.269 OA
BRANCH  38  41
ATOM     41  C   UNL     1     -11.671  -4.101  -4.392  1.00  0.00     0.039 A 
ATOM     42  C   UNL     1     -12.665  -4.238  -3.419  1.00  0.00     0.014 A 
ATOM     43  C   UNL     1     -11.618  -2.950  -5.184  1.00  0.00     0.014 A 
ATOM     44  C   UNL     1     -13.581  -3.205  -3.215  1.00  0.00     0.010 A 
ATOM     45  C   UNL     1     -12.484  -1.892  -4.931  1.00  0.00     0.010 A 
ATOM     46  C   UNL     1     -13.483  -2.016  -3.955  1.00  0.00    -0.014 A 
BRANCH  46  47
ATOM     47  C   UNL     1     -14.441  -0.904  -3.748  1.00  0.00     0.031 A 
ATOM     48  C   UNL     1     -15.391  -0.518  -4.848  1.00  0.00     0.074 A 
ATOM     49  C   UNL     1     -14.430  -0.222  -2.587  1.00  0.00     0.049 A 
ATOM     50  N   UNL     1     -16.262   0.458  -4.883  1.00  0.00    -0.248 NA
ATOM     51  C   UNL     1     -15.343  -1.323  -6.080  1.00  0.00     0.031 C 
ATOM     52  C   UNL     1     -13.537  -0.490  -1.458  1.00  0.00     0.029 A 
ATOM     53  N   UNL     1     -15.191   0.838  -2.164  1.00  0.00    -0.354 N 
ATOM     54  C   UNL     1     -16.860   0.384  -6.135  1.00  0.00     0.074 A 
ATOM     55  C   UNL     1     -16.213  -0.691  -6.853  1.00  0.00     0.031 C 
ATOM     56  C   UNL     1     -13.824   0.361  -0.460  1.00  0.00     0.029 A 
ATOM     57  C   UNL     1     -14.890   1.260  -0.892  1.00  0.00     0.049 A 
ATOM     58  H   UNL     1     -15.888   1.256  -2.720  1.00  0.00     0.167 HD
ATOM     59  C   UNL     1     -17.878   1.127  -6.627  1.00  0.00     0.037 A 
ATOM     60  C   UNL     1     -15.413   2.261  -0.160  1.00  0.00     0.037 A 
ATOM     61  C   UNL     1     -18.532   2.181  -5.899  1.00  0.00     0.049 A 
ATOM     62  C   UNL     1     -16.516   3.098  -0.748  1.00  0.00     0.074 A 
ATOM     63  C   UNL     1     -19.596   2.970  -6.298  1.00  0.00     0.029 A 
ATOM     64  N   UNL     1     -18.187   2.589  -4.620  1.00  0.00    -0.354 N 
ATOM     65  N   UNL     1     -17.101   2.990  -1.916  1.00  0.00    -0.248 NA
ATOM     66  C   UNL     1     -17.033   4.195   0.083  1.00  0.00     0.031 C 
ATOM     67  C   UNL     1     -19.867   3.885  -5.277  1.00  0.00     0.029 A 
ATOM     68  C   UNL     1     -19.004   3.633  -4.222  1.00  0.00     0.049 A 
ATOM     69  H   UNL     1     -17.468   2.194  -4.075  1.00  0.00     0.167 HD
ATOM     70  C   UNL     1     -18.068   3.986  -1.952  1.00  0.00     0.074 A 
ATOM     71  C   UNL     1     -18.004   4.677  -0.680  1.00  0.00     0.031 C 
ATOM     72  C   UNL     1     -18.930   4.303  -2.949  1.00  0.00     0.037 A 
BRANCH  59  73
ATOM     73  C   UNL     1     -18.366   0.815  -8.012  1.00  0.00     0.057 A 
ATOM     74  C   UNL     1     -19.087  -0.354  -8.288  1.00  0.00     0.134 A 
ATOM     75  C   UNL     1     -18.175   1.719  -9.063  1.00  0.00     0.134 A 
ATOM     76  F   UNL     1     -19.295  -1.268  -7.328  1.00  0.00    -0.206 F 
ATOM     77  C   UNL     1     -19.591  -0.618  -9.563  1.00  0.00     0.040 A 
ATOM     78  C   UNL     1     -18.696   1.479 -10.336  1.00  0.00     0.040 A 
ATOM     79  F   UNL     1     -17.497   2.860  -8.867  1.00  0.00    -0.206 F 
ATOM     80  C   UNL     1     -19.405   0.306 -10.589  1.00  0.00     0.006 A 
ENDBRANCH  59  73
BRANCH  60  81
ATOM     81  C   UNL     1     -14.922   2.509   1.220  1.00  0.00     0.057 A 
ATOM     82  C   UNL     1     -15.736   2.252   2.329  1.00  0.00     0.134 A 
ATOM     83  C   UNL     1     -13.636   3.003   1.467  1.00  0.00     0.134 A 
ATOM     84  F   UNL     1     -16.986   1.795   2.158  1.00  0.00    -0.206 F 
ATOM     85  C   UNL     1     -15.296   2.489   3.632  1.00  0.00     0.040 A 
ATOM     86  C   UNL     1     -13.172   3.221   2.765  1.00  0.00     0.040 A 
ATOM     87  F   UNL     1     -12.803   3.265   0.448  1.00  0.00    -0.206 F 
ATOM     88  C   UNL     1     -14.007   2.970   3.853  1.00  0.00     0.006 A 
ENDBRANCH  60  81
BRANCH  72  89
ATOM     89  C   UNL     1     -19.887   5.431  -2.705  1.00  0.00     0.057 A 
ATOM     90  C   UNL     1     -19.463   6.765  -2.691  1.00  0.00     0.134 A 
ATOM     91  C   UNL     1     -21.259   5.186  -2.559  1.00  0.00     0.134 A 
ATOM     92  F   UNL     1     -18.161   7.066  -2.815  1.00  0.00    -0.206 F 
ATOM     93  C   UNL     1     -20.367   7.815  -2.527  1.00  0.00     0.040 A 
ATOM     94  C   UNL     1     -22.176   6.228  -2.423  1.00  0.00     0.040 A 
ATOM     95  F   UNL     1     -21.732   3.930  -2.575  1.00  0.00    -0.206 F 
ATOM     96  C   UNL     1     -21.730   7.548  -2.403  1.00  0.00     0.006 A 
ENDBRANCH  72  89
ENDBRANCH  46  47
ENDBRANCH  38  41
ENDBRANCH  36  37
ENDBRANCH  35  36
ENDBRANCH  34  35
ENDBRANCH   3  34
TORSDOF 15
