REMARK SMILES O=C(NCCCNC(=O)c1ccc(-c2c3nc(c(-c4c(F)cccc4F)c4ccc([nH]4)c(-c4c(F)cccc4F)c4nc(c(-c5c(F)cccc5F)c5ccc2[nH]5)C=C4)C=C3)cc1)C1=Cc2cc(Cl)c(Cl)c(Cl)c2O[C@@H]1C(F)(F)F
REMARK SMILES IDX 5 1 4 2 3 3 1 4 2 5 64 7 65 8 76 9 66 10 75 11 67 12 74 13
REMARK SMILES IDX 68 14 72 15 69 16 70 17 73 18 71 19 77 20 78 21 79 22 80 23
REMARK SMILES IDX 6 24 7 25 8 26 9 28 10 29 11 30 63 31 12 32 62 33 13 34
REMARK SMILES IDX 14 35 15 36 56 37 16 38 61 39 55 40 57 41 17 42 60 43 54 44
REMARK SMILES IDX 53 45 18 47 44 48 27 49 43 50 28 51 31 52 42 53 58 54 29 55
REMARK SMILES IDX 30 56 41 58 59 59 32 60 19 61 20 62 25 63 21 64 22 65 24 66
REMARK SMILES IDX 26 67 23 68 45 69 46 70 51 71 47 72 48 73 50 74 52 75 49 76
REMARK SMILES IDX 33 77 34 78 39 79 35 80 36 81 38 82 40 83 37 84
REMARK H PARENT 3 6 7 27 57 46 31 57
REMARK Flexibility Score: inf
ROOT
ATOM      1  C   UNL     1       4.143  -2.328  -1.580  1.00  0.00     0.042 C 
ENDROOT
BRANCH   1   2
ATOM      2  C   UNL     1       3.330  -1.052  -1.385  1.00  0.00     0.118 C 
BRANCH   2   3
ATOM      3  N   UNL     1       2.368  -1.147  -0.284  1.00  0.00    -0.352 N 
ATOM      4  O   UNL     1       1.290  -0.486   1.601  1.00  0.00    -0.270 OA
ATOM      5  C   UNL     1       2.266  -0.410   0.871  1.00  0.00     0.251 C 
ATOM      6  H   UNL     1       1.687  -1.849  -0.388  1.00  0.00     0.163 HD
BRANCH   5   7
ATOM      7  C   UNL     1       3.382   0.504   1.171  1.00  0.00     0.067 C 
ATOM      8  C   UNL     1       4.541  -0.077   1.501  1.00  0.00     0.025 C 
ATOM      9  C   UNL     1       3.269   1.914   0.691  1.00  0.00     0.314 C 
ATOM     10  C   UNL     1       5.701   0.488   0.807  1.00  0.00     0.020 A 
ATOM     11  O   UNL     1       4.374   2.292  -0.166  1.00  0.00    -0.474 OA
ATOM     12  C   UNL     1       6.851  -0.301   0.753  1.00  0.00     0.034 A 
ATOM     13  C   UNL     1       5.525   1.536  -0.116  1.00  0.00     0.148 A 
ATOM     14  C   UNL     1       7.758  -0.142  -0.296  1.00  0.00     0.062 A 
ATOM     15  C   UNL     1       6.455   1.714  -1.156  1.00  0.00     0.103 A 
ATOM     16  Cl  UNL     1       9.037  -1.305  -0.395  1.00  0.00    -0.083 Cl
ATOM     17  C   UNL     1       7.555   0.846  -1.272  1.00  0.00     0.082 A 
ATOM     18  Cl  UNL     1       6.120   2.905  -2.378  1.00  0.00    -0.079 Cl
ATOM     19  Cl  UNL     1       8.601   0.924  -2.657  1.00  0.00    -0.081 Cl
BRANCH   9  20
ATOM     20  C   UNL     1       3.124   2.900   1.862  1.00  0.00     0.429 C 
ATOM     21  F   UNL     1       2.861   4.152   1.414  1.00  0.00    -0.167 F 
ATOM     22  F   UNL     1       2.111   2.558   2.690  1.00  0.00    -0.167 F 
ATOM     23  F   UNL     1       4.252   2.969   2.608  1.00  0.00    -0.167 F 
ENDBRANCH   9  20
ENDBRANCH   5   7
ENDBRANCH   2   3
ENDBRANCH   1   2
BRANCH   1  24
ATOM     24  C   UNL     1       4.032  -2.880  -2.997  1.00  0.00     0.118 C 
BRANCH  24  25
ATOM     25  N   UNL     1       4.662  -2.045  -4.014  1.00  0.00    -0.352 N 
ATOM     26  C   UNL     1       5.545  -2.380  -5.022  1.00  0.00     0.251 C 
ATOM     27  H   UNL     1       4.419  -1.091  -3.975  1.00  0.00     0.163 HD
ATOM     28  O   UNL     1       6.002  -1.508  -5.744  1.00  0.00    -0.269 OA
BRANCH  26  29
ATOM     29  C   UNL     1       5.973  -3.788  -5.202  1.00  0.00     0.039 A 
ATOM     30  C   UNL     1       7.319  -4.064  -5.462  1.00  0.00     0.014 A 
ATOM     31  C   UNL     1       5.061  -4.835  -5.089  1.00  0.00     0.014 A 
ATOM     32  C   UNL     1       7.763  -5.390  -5.500  1.00  0.00     0.010 A 
ATOM     33  C   UNL     1       5.521  -6.143  -5.006  1.00  0.00     0.010 A 
ATOM     34  C   UNL     1       6.877  -6.440  -5.214  1.00  0.00    -0.014 A 
BRANCH  34  35
ATOM     35  C   UNL     1       7.317  -7.859  -5.141  1.00  0.00     0.031 A 
ATOM     36  C   UNL     1       6.653  -8.889  -6.018  1.00  0.00     0.074 A 
ATOM     37  C   UNL     1       8.219  -8.245  -4.215  1.00  0.00     0.049 A 
ATOM     38  N   UNL     1       6.737 -10.194  -5.976  1.00  0.00    -0.248 NA
ATOM     39  C   UNL     1       5.725  -8.382  -7.043  1.00  0.00     0.031 C 
ATOM     40  C   UNL     1       8.893  -7.361  -3.261  1.00  0.00     0.029 A 
ATOM     41  N   UNL     1       8.709  -9.491  -3.912  1.00  0.00    -0.354 N 
ATOM     42  C   UNL     1       5.838 -10.659  -6.929  1.00  0.00     0.074 A 
ATOM     43  C   UNL     1       5.179  -9.502  -7.492  1.00  0.00     0.031 C 
ATOM     44  C   UNL     1       9.728  -8.088  -2.501  1.00  0.00     0.029 A 
ATOM     45  C   UNL     1       9.616  -9.492  -2.879  1.00  0.00     0.049 A 
ATOM     46  H   UNL     1       8.436 -10.308  -4.389  1.00  0.00     0.167 HD
ATOM     47  C   UNL     1       5.602 -11.933  -7.322  1.00  0.00     0.037 A 
ATOM     48  C   UNL     1      10.276 -10.512  -2.298  1.00  0.00     0.037 A 
ATOM     49  C   UNL     1       6.316 -13.075  -6.817  1.00  0.00     0.049 A 
ATOM     50  C   UNL     1      10.043 -11.912  -2.793  1.00  0.00     0.074 A 
ATOM     51  C   UNL     1       6.216 -14.398  -7.210  1.00  0.00     0.029 A 
ATOM     52  N   UNL     1       7.279 -13.021  -5.821  1.00  0.00    -0.354 N 
ATOM     53  N   UNL     1       9.226 -12.332  -3.729  1.00  0.00    -0.248 NA
ATOM     54  C   UNL     1      10.825 -12.981  -2.155  1.00  0.00     0.031 C 
ATOM     55  C   UNL     1       7.103 -15.150  -6.433  1.00  0.00     0.029 A 
ATOM     56  C   UNL     1       7.779 -14.290  -5.582  1.00  0.00     0.049 A 
ATOM     57  H   UNL     1       7.564 -12.204  -5.353  1.00  0.00     0.167 HD
ATOM     58  C   UNL     1       9.419 -13.704  -3.814  1.00  0.00     0.074 A 
ATOM     59  C   UNL     1      10.436 -14.046  -2.842  1.00  0.00     0.031 C 
ATOM     60  C   UNL     1       8.807 -14.602  -4.624  1.00  0.00     0.037 A 
BRANCH  47  61
ATOM     61  C   UNL     1       4.544 -12.152  -8.365  1.00  0.00     0.057 A 
ATOM     62  C   UNL     1       4.719 -11.745  -9.694  1.00  0.00     0.134 A 
ATOM     63  C   UNL     1       3.343 -12.797  -8.040  1.00  0.00     0.134 A 
ATOM     64  F   UNL     1       5.840 -11.110 -10.068  1.00  0.00    -0.206 F 
ATOM     65  C   UNL     1       3.725 -11.939 -10.655  1.00  0.00     0.040 A 
ATOM     66  C   UNL     1       2.354 -13.023  -9.000  1.00  0.00     0.040 A 
ATOM     67  F   UNL     1       3.112 -13.219  -6.788  1.00  0.00    -0.206 F 
ATOM     68  C   UNL     1       2.541 -12.586 -10.310  1.00  0.00     0.006 A 
ENDBRANCH  47  61
BRANCH  48  69
ATOM     69  C   UNL     1      11.248 -10.247  -1.206  1.00  0.00     0.057 A 
ATOM     70  C   UNL     1      12.624 -10.388  -1.422  1.00  0.00     0.134 A 
ATOM     71  C   UNL     1      10.833  -9.858   0.072  1.00  0.00     0.134 A 
ATOM     72  F   UNL     1      13.082 -10.776  -2.621  1.00  0.00    -0.206 F 
ATOM     73  C   UNL     1      13.552 -10.172  -0.402  1.00  0.00     0.040 A 
ATOM     74  C   UNL     1      11.751  -9.615   1.096  1.00  0.00     0.040 A 
ATOM     75  F   UNL     1       9.529  -9.696   0.342  1.00  0.00    -0.206 F 
ATOM     76  C   UNL     1      13.115  -9.780   0.862  1.00  0.00     0.006 A 
ENDBRANCH  48  69
BRANCH  60  77
ATOM     77  C   UNL     1       9.253 -16.030  -4.527  1.00  0.00     0.057 A 
ATOM     78  C   UNL     1       8.889 -16.845  -3.449  1.00  0.00     0.134 A 
ATOM     79  C   UNL     1      10.011 -16.608  -5.553  1.00  0.00     0.134 A 
ATOM     80  F   UNL     1       8.173 -16.346  -2.430  1.00  0.00    -0.206 F 
ATOM     81  C   UNL     1       9.278 -18.184  -3.386  1.00  0.00     0.040 A 
ATOM     82  C   UNL     1      10.386 -17.951  -5.513  1.00  0.00     0.040 A 
ATOM     83  F   UNL     1      10.384 -15.881  -6.617  1.00  0.00    -0.206 F 
ATOM     84  C   UNL     1      10.023 -18.741  -4.424  1.00  0.00     0.006 A 
ENDBRANCH  60  77
ENDBRANCH  34  35
ENDBRANCH  26  29
ENDBRANCH  24  25
ENDBRANCH   1  24
TORSDOF 11
