REMARK SMILES Cc1cc(O[C@@H](C)C(=O)NCCCNC(=O)c2ccc(-c3c4nc(c(-c5c(F)cccc5F)c5ccc([nH]5)c(-c5c(F)cccc5F)c5nc(c(-c6c(F)cccc6F)c6ccc3[nH]6)C=C5)C=C4)cc2)n(C)n1
REMARK SMILES IDX 12 1 11 2 10 3 8 4 9 5 6 7 7 8 5 9 4 10 1 11 2 12 3 13 73 14
REMARK SMILES IDX 71 15 72 16 13 17 14 18 15 19 16 21 17 22 18 23 70 24 19 25
REMARK SMILES IDX 69 26 20 27 21 28 22 29 63 30 23 31 68 32 62 33 64 34 24 35
REMARK SMILES IDX 67 36 61 37 60 38 25 40 51 41 34 42 50 43 35 44 38 45 49 46
REMARK SMILES IDX 65 47 36 48 37 49 48 51 66 52 39 53 26 54 27 55 32 56 28 57
REMARK SMILES IDX 29 58 31 59 33 60 30 61 52 62 53 63 58 64 54 65 55 66 57 67
REMARK SMILES IDX 59 68 56 69 40 70 41 71 46 72 42 73 43 74 45 75 47 76 44 77
REMARK H PARENT 10 6 14 20 64 39 38 50
REMARK Flexibility Score: inf
ROOT
ATOM      1  C   UNL     1      -1.579  -1.316  -1.871  1.00  0.00     0.042 C 
ENDROOT
BRANCH   1   2
ATOM      2  C   UNL     1      -1.708  -2.675  -1.195  1.00  0.00     0.118 C 
BRANCH   2   3
ATOM      3  N   UNL     1      -0.684  -3.584  -1.656  1.00  0.00    -0.353 N 
ATOM      4  C   UNL     1       0.549  -3.866  -1.156  1.00  0.00     0.260 C 
ATOM      5  O   UNL     1       1.264  -4.583  -1.868  1.00  0.00    -0.271 OA
ATOM      6  H   UNL     1      -0.918  -4.085  -2.470  1.00  0.00     0.163 HD
BRANCH   4   7
ATOM      7  C   UNL     1       1.053  -3.404   0.243  1.00  0.00     0.260 C 
ATOM      8  C   UNL     1       0.266  -4.016   1.399  1.00  0.00     0.064 C 
BRANCH   7   9
ATOM      9  O   UNL     1       1.557  -2.089   0.439  1.00  0.00    -0.465 OA
BRANCH   9  10
ATOM     10  C   UNL     1       0.771  -1.046   0.703  1.00  0.00     0.212 A 
ATOM     11  C   UNL     1      -2.110   1.155   1.221  1.00  0.00     0.069 C 
ATOM     12  C   UNL     1      -0.786   0.504   1.057  1.00  0.00     0.063 A 
ATOM     13  C   UNL     1      -0.440  -0.842   1.331  1.00  0.00     0.093 A 
ATOM     14  N   UNL     1       0.228   1.162   0.490  1.00  0.00    -0.175 NA
ATOM     15  N   UNL     1       1.190   0.224   0.369  1.00  0.00    -0.237 N 
ATOM     16  C   UNL     1       2.489   0.622  -0.119  1.00  0.00     0.178 C 
ENDBRANCH   9  10
ENDBRANCH   7   9
ENDBRANCH   4   7
ENDBRANCH   2   3
ENDBRANCH   1   2
BRANCH   1  17
ATOM     17  C   UNL     1      -2.637  -1.065  -2.930  1.00  0.00     0.118 C 
BRANCH  17  18
ATOM     18  N   UNL     1      -3.973  -0.933  -2.351  1.00  0.00    -0.352 N 
ATOM     19  C   UNL     1      -4.810   0.151  -2.239  1.00  0.00     0.251 C 
ATOM     20  H   UNL     1      -4.338  -1.767  -1.976  1.00  0.00     0.163 HD
ATOM     21  O   UNL     1      -5.798   0.070  -1.510  1.00  0.00    -0.269 OA
BRANCH  19  22
ATOM     22  C   UNL     1      -4.537   1.413  -2.963  1.00  0.00     0.039 A 
ATOM     23  C   UNL     1      -4.899   2.634  -2.381  1.00  0.00     0.014 A 
ATOM     24  C   UNL     1      -3.958   1.404  -4.230  1.00  0.00     0.014 A 
ATOM     25  C   UNL     1      -4.604   3.837  -3.031  1.00  0.00     0.010 A 
ATOM     26  C   UNL     1      -3.554   2.595  -4.817  1.00  0.00     0.010 A 
ATOM     27  C   UNL     1      -3.885   3.828  -4.235  1.00  0.00    -0.014 A 
BRANCH  27  28
ATOM     28  C   UNL     1      -3.493   5.066  -4.957  1.00  0.00     0.031 A 
ATOM     29  C   UNL     1      -3.942   5.254  -6.382  1.00  0.00     0.074 A 
ATOM     30  C   UNL     1      -2.637   5.942  -4.394  1.00  0.00     0.049 A 
ATOM     31  N   UNL     1      -3.518   6.101  -7.283  1.00  0.00    -0.248 NA
ATOM     32  C   UNL     1      -4.974   4.324  -6.875  1.00  0.00     0.031 C 
ATOM     33  C   UNL     1      -2.103   5.858  -3.034  1.00  0.00     0.029 A 
ATOM     34  N   UNL     1      -2.036   7.061  -4.917  1.00  0.00    -0.354 N 
ATOM     35  C   UNL     1      -4.189   5.773  -8.454  1.00  0.00     0.074 A 
ATOM     36  C   UNL     1      -5.015   4.622  -8.164  1.00  0.00     0.031 C 
ATOM     37  C   UNL     1      -1.260   6.882  -2.827  1.00  0.00     0.029 A 
ATOM     38  C   UNL     1      -1.147   7.660  -4.056  1.00  0.00     0.049 A 
ATOM     39  H   UNL     1      -2.225   7.401  -5.821  1.00  0.00     0.167 HD
ATOM     40  C   UNL     1      -4.135   6.387  -9.659  1.00  0.00     0.037 A 
ATOM     41  C   UNL     1      -0.312   8.700  -4.249  1.00  0.00     0.037 A 
ATOM     42  C   UNL     1      -3.357   7.566  -9.922  1.00  0.00     0.049 A 
ATOM     43  C   UNL     1      -0.280   9.375  -5.595  1.00  0.00     0.074 A 
ATOM     44  C   UNL     1      -3.287   8.310 -11.086  1.00  0.00     0.029 A 
ATOM     45  N   UNL     1      -2.521   8.179  -9.001  1.00  0.00    -0.354 N 
ATOM     46  N   UNL     1      -0.952   9.082  -6.682  1.00  0.00    -0.248 NA
ATOM     47  C   UNL     1       0.624  10.524  -5.742  1.00  0.00     0.031 C 
ATOM     48  C   UNL     1      -2.377   9.350 -10.883  1.00  0.00     0.029 A 
ATOM     49  C   UNL     1      -1.923   9.286  -9.575  1.00  0.00     0.049 A 
ATOM     50  H   UNL     1      -2.375   7.872  -8.076  1.00  0.00     0.167 HD
ATOM     51  C   UNL     1      -0.587  10.035  -7.624  1.00  0.00     0.074 A 
ATOM     52  C   UNL     1       0.368  10.914  -6.983  1.00  0.00     0.031 C 
ATOM     53  C   UNL     1      -1.008  10.173  -8.904  1.00  0.00     0.037 A 
BRANCH  40  54
ATOM     54  C   UNL     1      -4.944   5.804 -10.782  1.00  0.00     0.057 A 
ATOM     55  C   UNL     1      -6.343   5.860 -10.796  1.00  0.00     0.134 A 
ATOM     56  C   UNL     1      -4.311   5.223 -11.889  1.00  0.00     0.134 A 
ATOM     57  F   UNL     1      -7.013   6.392  -9.762  1.00  0.00    -0.206 F 
ATOM     58  C   UNL     1      -7.085   5.338 -11.857  1.00  0.00     0.040 A 
ATOM     59  C   UNL     1      -5.040   4.727 -12.970  1.00  0.00     0.040 A 
ATOM     60  F   UNL     1      -2.973   5.143 -11.945  1.00  0.00    -0.206 F 
ATOM     61  C   UNL     1      -6.432   4.778 -12.953  1.00  0.00     0.006 A 
ENDBRANCH  40  54
BRANCH  41  62
ATOM     62  C   UNL     1       0.563   9.174  -3.146  1.00  0.00     0.057 A 
ATOM     63  C   UNL     1       0.349  10.419  -2.542  1.00  0.00     0.134 A 
ATOM     64  C   UNL     1       1.642   8.412  -2.682  1.00  0.00     0.134 A 
ATOM     65  F   UNL     1      -0.657  11.204  -2.954  1.00  0.00    -0.206 F 
ATOM     66  C   UNL     1       1.191  10.901  -1.538  1.00  0.00     0.040 A 
ATOM     67  C   UNL     1       2.475   8.869  -1.659  1.00  0.00     0.040 A 
ATOM     68  F   UNL     1       1.899   7.207  -3.212  1.00  0.00    -0.206 F 
ATOM     69  C   UNL     1       2.256  10.123  -1.091  1.00  0.00     0.006 A 
ENDBRANCH  41  62
BRANCH  53  70
ATOM     70  C   UNL     1      -0.511  11.355  -9.681  1.00  0.00     0.057 A 
ATOM     71  C   UNL     1       0.792  11.419 -10.186  1.00  0.00     0.134 A 
ATOM     72  C   UNL     1      -1.386  12.401 -10.004  1.00  0.00     0.134 A 
ATOM     73  F   UNL     1       1.680  10.454  -9.903  1.00  0.00    -0.206 F 
ATOM     74  C   UNL     1       1.210  12.486 -10.983  1.00  0.00     0.040 A 
ATOM     75  C   UNL     1      -0.988  13.459 -10.820  1.00  0.00     0.040 A 
ATOM     76  F   UNL     1      -2.652  12.392  -9.559  1.00  0.00    -0.206 F 
ATOM     77  C   UNL     1       0.315  13.503 -11.312  1.00  0.00     0.006 A 
ENDBRANCH  53  70
ENDBRANCH  27  28
ENDBRANCH  19  22
ENDBRANCH  17  18
ENDBRANCH   1  17
TORSDOF 12
