REMARK SMILES C[C@@H](C(=O)NCCCNC(=O)c1ccc(-c2c3nc(c(-c4c(F)cccc4F)c4ccc([nH]4)c(-c4c(F)cccc4F)c4nc(c(-c5c(F)cccc5F)c5ccc2[nH]5)C=C4)C=C3)cc1)c1ccc(C[C@@H]2CCC[C@@H]2O)cc1
REMARK SMILES IDX 6 1 5 2 3 3 4 4 2 6 1 7 66 8 67 9 78 10 68 11 77 12 69 13
REMARK SMILES IDX 70 14 71 15 72 16 75 17 73 18 74 19 76 20 7 22 8 23 9 24
REMARK SMILES IDX 10 25 11 27 12 28 13 29 65 30 14 31 64 32 15 33 16 34 17 35
REMARK SMILES IDX 58 36 18 37 63 38 57 39 59 40 19 41 62 42 56 43 55 44 20 46
REMARK SMILES IDX 46 47 29 48 45 49 30 50 33 51 44 52 60 53 31 54 32 55 43 57
REMARK SMILES IDX 61 58 34 59 21 60 22 61 27 62 23 63 24 64 26 65 28 66 25 67
REMARK SMILES IDX 47 68 48 69 53 70 49 71 50 72 52 73 54 74 51 75 35 76 36 77
REMARK SMILES IDX 41 78 37 79 38 80 40 81 42 82 39 83
REMARK H PARENT 5 5 76 21 9 26 59 45 33 56
REMARK Flexibility Score: inf
ROOT
ATOM      1  C   UNL     1     -11.390   4.466   7.460  1.00  0.00     0.117 C 
ENDROOT
BRANCH   1   2
ATOM      2  N   UNL     1     -11.916   3.984   6.198  1.00  0.00    -0.356 N 
ATOM      3  C   UNL     1     -11.285   3.715   5.017  1.00  0.00     0.227 C 
ATOM      4  O   UNL     1     -12.007   3.421   4.063  1.00  0.00    -0.274 OA
ATOM      5  H   UNL     1     -12.887   3.826   6.191  1.00  0.00     0.163 HD
BRANCH   3   6
ATOM      6  C   UNL     1      -9.755   3.779   4.935  1.00  0.00     0.105 C 
ATOM      7  C   UNL     1      -9.250   5.226   4.936  1.00  0.00     0.023 C 
BRANCH   6   8
ATOM      8  C   UNL     1      -9.198   3.031   3.729  1.00  0.00    -0.036 A 
ATOM      9  C   UNL     1      -8.519   1.817   3.904  1.00  0.00     0.005 A 
ATOM     10  C   UNL     1      -9.323   3.546   2.431  1.00  0.00     0.005 A 
ATOM     11  C   UNL     1      -7.925   1.171   2.817  1.00  0.00     0.004 A 
ATOM     12  C   UNL     1      -8.716   2.908   1.350  1.00  0.00     0.004 A 
ATOM     13  C   UNL     1      -7.977   1.734   1.537  1.00  0.00    -0.048 A 
BRANCH  13  14
ATOM     14  C   UNL     1      -7.242   1.117   0.374  1.00  0.00     0.041 C 
BRANCH  14  15
ATOM     15  C   UNL     1      -5.726   1.397   0.250  1.00  0.00     0.022 C 
ATOM     16  C   UNL     1      -4.870   0.808   1.377  1.00  0.00     0.007 C 
ATOM     17  C   UNL     1      -5.274   2.860   0.220  1.00  0.00     0.117 C 
ATOM     18  C   UNL     1      -4.572   1.952   2.350  1.00  0.00     0.003 C 
ATOM     19  C   UNL     1      -5.051   3.235   1.680  1.00  0.00     0.032 C 
BRANCH  17  20
ATOM     20  O   UNL     1      -6.184   3.716  -0.438  1.00  0.00    -0.393 OA
ATOM     21  H   UNL     1      -7.042   3.684   0.014  1.00  0.00     0.210 HD
ENDBRANCH  17  20
ENDBRANCH  14  15
ENDBRANCH  13  14
ENDBRANCH   6   8
ENDBRANCH   3   6
ENDBRANCH   1   2
BRANCH   1  22
ATOM     22  C   UNL     1     -11.682   5.951   7.668  1.00  0.00     0.042 C 
BRANCH  22  23
ATOM     23  C   UNL     1     -13.166   6.313   7.694  1.00  0.00     0.118 C 
BRANCH  23  24
ATOM     24  N   UNL     1     -13.879   5.694   8.800  1.00  0.00    -0.352 N 
ATOM     25  C   UNL     1     -14.675   6.251   9.766  1.00  0.00     0.251 C 
ATOM     26  H   UNL     1     -13.773   4.718   8.864  1.00  0.00     0.163 HD
ATOM     27  O   UNL     1     -15.053   5.551  10.706  1.00  0.00    -0.269 OA
BRANCH  25  28
ATOM     28  C   UNL     1     -15.070   7.677   9.717  1.00  0.00     0.039 A 
ATOM     29  C   UNL     1     -15.100   8.396  10.917  1.00  0.00     0.014 A 
ATOM     30  C   UNL     1     -15.463   8.299   8.527  1.00  0.00     0.014 A 
ATOM     31  C   UNL     1     -15.468   9.743  10.917  1.00  0.00     0.010 A 
ATOM     32  C   UNL     1     -15.772   9.661   8.518  1.00  0.00     0.010 A 
ATOM     33  C   UNL     1     -15.778  10.395   9.713  1.00  0.00    -0.014 A 
BRANCH  33  34
ATOM     34  C   UNL     1     -16.091  11.847   9.702  1.00  0.00     0.031 A 
ATOM     35  C   UNL     1     -17.470  12.336   9.356  1.00  0.00     0.074 A 
ATOM     36  C   UNL     1     -15.115  12.734   9.975  1.00  0.00     0.049 A 
ATOM     37  N   UNL     1     -17.917  13.565   9.289  1.00  0.00    -0.248 NA
ATOM     38  C   UNL     1     -18.473  11.313   9.025  1.00  0.00     0.031 C 
ATOM     39  C   UNL     1     -13.723  12.392  10.274  1.00  0.00     0.029 A 
ATOM     40  N   UNL     1     -15.143  14.104  10.042  1.00  0.00    -0.354 N 
ATOM     41  C   UNL     1     -19.247  13.464   8.904  1.00  0.00     0.074 A 
ATOM     42  C   UNL     1     -19.524  12.057   8.708  1.00  0.00     0.031 C 
ATOM     43  C   UNL     1     -13.035  13.520  10.512  1.00  0.00     0.029 A 
ATOM     44  C   UNL     1     -13.930  14.664  10.360  1.00  0.00     0.049 A 
ATOM     45  H   UNL     1     -15.955  14.635   9.877  1.00  0.00     0.167 HD
ATOM     46  C   UNL     1     -20.162  14.452   8.748  1.00  0.00     0.037 A 
ATOM     47  C   UNL     1     -13.576  15.953  10.513  1.00  0.00     0.037 A 
ATOM     48  C   UNL     1     -19.895  15.851   8.958  1.00  0.00     0.049 A 
ATOM     49  C   UNL     1     -14.613  17.027  10.354  1.00  0.00     0.074 A 
ATOM     50  C   UNL     1     -20.771  16.920   8.868  1.00  0.00     0.029 A 
ATOM     51  N   UNL     1     -18.660  16.377   9.303  1.00  0.00    -0.354 N 
ATOM     52  N   UNL     1     -15.882  16.911  10.047  1.00  0.00    -0.248 NA
ATOM     53  C   UNL     1     -14.171  18.412  10.573  1.00  0.00     0.031 C 
ATOM     54  C   UNL     1     -20.058  18.096   9.130  1.00  0.00     0.029 A 
ATOM     55  C   UNL     1     -18.747  17.755   9.417  1.00  0.00     0.049 A 
ATOM     56  H   UNL     1     -17.841  15.848   9.445  1.00  0.00     0.167 HD
ATOM     57  C   UNL     1     -16.393  18.202  10.049  1.00  0.00     0.074 A 
ATOM     58  C   UNL     1     -15.302  19.084  10.410  1.00  0.00     0.031 C 
ATOM     59  C   UNL     1     -17.651  18.619   9.772  1.00  0.00     0.037 A 
BRANCH  46  60
ATOM     60  C   UNL     1     -21.548  14.050   8.339  1.00  0.00     0.057 A 
ATOM     61  C   UNL     1     -22.422  13.420   9.234  1.00  0.00     0.134 A 
ATOM     62  C   UNL     1     -22.028  14.330   7.054  1.00  0.00     0.134 A 
ATOM     63  F   UNL     1     -22.018  13.115  10.477  1.00  0.00    -0.206 F 
ATOM     64  C   UNL     1     -23.719  13.066   8.860  1.00  0.00     0.040 A 
ATOM     65  C   UNL     1     -23.331  13.999   6.675  1.00  0.00     0.040 A 
ATOM     66  F   UNL     1     -21.244  14.936   6.150  1.00  0.00    -0.206 F 
ATOM     67  C   UNL     1     -24.178  13.361   7.578  1.00  0.00     0.006 A 
ENDBRANCH  46  60
BRANCH  47  68
ATOM     68  C   UNL     1     -12.177  16.299  10.862  1.00  0.00     0.057 A 
ATOM     69  C   UNL     1     -11.844  16.753  12.142  1.00  0.00     0.134 A 
ATOM     70  C   UNL     1     -11.144  16.186   9.925  1.00  0.00     0.134 A 
ATOM     71  F   UNL     1     -12.796  16.899  13.076  1.00  0.00    -0.206 F 
ATOM     72  C   UNL     1     -10.534  17.101  12.475  1.00  0.00     0.040 A 
ATOM     73  C   UNL     1      -9.826  16.510  10.250  1.00  0.00     0.040 A 
ATOM     74  F   UNL     1     -11.401  15.749   8.683  1.00  0.00    -0.206 F 
ATOM     75  C   UNL     1      -9.520  16.975  11.527  1.00  0.00     0.006 A 
ENDBRANCH  47  68
BRANCH  59  76
ATOM     76  C   UNL     1     -17.913  20.093   9.861  1.00  0.00     0.057 A 
ATOM     77  C   UNL     1     -17.446  20.982   8.885  1.00  0.00     0.134 A 
ATOM     78  C   UNL     1     -18.649  20.626  10.926  1.00  0.00     0.134 A 
ATOM     79  F   UNL     1     -16.721  20.534   7.848  1.00  0.00    -0.206 F 
ATOM     80  C   UNL     1     -17.683  22.354   8.977  1.00  0.00     0.040 A 
ATOM     81  C   UNL     1     -18.911  21.994  11.017  1.00  0.00     0.040 A 
ATOM     82  F   UNL     1     -19.128  19.827  11.891  1.00  0.00    -0.206 F 
ATOM     83  C   UNL     1     -18.422  22.863  10.044  1.00  0.00     0.006 A 
ENDBRANCH  59  76
ENDBRANCH  33  34
ENDBRANCH  25  28
ENDBRANCH  23  24
ENDBRANCH  22  23
ENDBRANCH   1  22
TORSDOF 14
