REMARK SMILES O=C1C[C@@H](c2cccc(O)c2)c2c(c(C(=O)NCCCNC(=O)c3ccc(-c4c5nc(c(-c6c(F)cccc6F)c6ccc([nH]6)c(-c6c(F)cccc6F)c6nc(c(-c7c(F)cccc7F)c7ccc4[nH]7)C=C6)C=C5)cc3)cn2-c2cccc(C(F)(F)F)c2)N1
REMARK SMILES IDX 19 1 18 2 17 3 15 4 16 5 14 7 1 8 2 9 3 10 90 11 4 12 13 13
REMARK SMILES IDX 12 15 79 16 78 17 5 18 6 19 11 20 7 21 9 22 8 23 10 24 80 26
REMARK SMILES IDX 81 27 89 28 82 29 84 30 83 31 85 32 86 33 87 34 88 35 20 36
REMARK SMILES IDX 21 37 22 38 23 40 24 41 25 42 77 43 26 44 76 45 27 46 28 47
REMARK SMILES IDX 29 48 70 49 30 50 75 51 69 52 71 53 31 54 74 55 68 56 67 57
REMARK SMILES IDX 32 59 58 60 41 61 57 62 42 63 45 64 56 65 72 66 43 67 44 68
REMARK SMILES IDX 55 70 73 71 46 72 33 73 34 74 39 75 35 76 36 77 38 78 40 79
REMARK SMILES IDX 37 80 59 81 60 82 65 83 61 84 62 85 64 86 66 87 63 88 47 89
REMARK SMILES IDX 48 90 53 91 49 92 50 93 52 94 54 95 51 96
REMARK H PARENT 17 6 90 14 10 25 21 39 71 58 45 69
REMARK Flexibility Score: inf
ROOT
ATOM      1  C   UNL     1       7.014  -3.263   4.628  1.00  0.00     0.042 C 
ENDROOT
BRANCH   1   2
ATOM      2  C   UNL     1       7.255  -3.401   3.116  1.00  0.00     0.118 C 
BRANCH   2   3
ATOM      3  N   UNL     1       6.055  -3.787   2.389  1.00  0.00    -0.352 N 
ATOM      4  C   UNL     1       5.067  -3.034   1.801  1.00  0.00     0.254 C 
ATOM      5  O   UNL     1       4.207  -3.630   1.153  1.00  0.00    -0.269 OA
ATOM      6  H   UNL     1       5.928  -4.760   2.303  1.00  0.00     0.163 HD
BRANCH   4   7
ATOM      7  C   UNL     1       5.037  -1.580   1.922  1.00  0.00     0.081 A 
ATOM      8  O   UNL     1       1.588  -0.274  -1.137  1.00  0.00    -0.275 OA
ATOM      9  C   UNL     1       2.542   0.001  -0.410  1.00  0.00     0.225 C 
ATOM     10  C   UNL     1       3.117   1.412  -0.338  1.00  0.00     0.115 C 
ATOM     11  N   UNL     1       3.216  -0.980   0.276  1.00  0.00    -0.324 N 
ATOM     12  C   UNL     1       3.712   1.792   1.032  1.00  0.00     0.078 C 
ATOM     13  C   UNL     1       4.184  -0.695   1.210  1.00  0.00     0.076 A 
ATOM     14  H   UNL     1       2.997  -1.922   0.092  1.00  0.00     0.170 HD
ATOM     15  C   UNL     1       4.417   0.602   1.610  1.00  0.00     0.055 A 
ATOM     16  N   UNL     1       5.413   0.572   2.558  1.00  0.00    -0.317 N 
ATOM     17  C   UNL     1       5.768  -0.749   2.748  1.00  0.00     0.107 A 
BRANCH  12  18
ATOM     18  C   UNL     1       2.652   2.357   1.962  1.00  0.00    -0.035 A 
ATOM     19  C   UNL     1       1.625   1.561   2.494  1.00  0.00     0.005 A 
ATOM     20  C   UNL     1       2.742   3.698   2.367  1.00  0.00     0.050 A 
ATOM     21  C   UNL     1       0.742   2.079   3.442  1.00  0.00     0.004 A 
ATOM     22  C   UNL     1       1.878   4.194   3.337  1.00  0.00     0.115 A 
ATOM     23  C   UNL     1       0.877   3.396   3.879  1.00  0.00     0.046 A 
BRANCH  22  24
ATOM     24  O   UNL     1       2.086   5.468   3.772  1.00  0.00    -0.508 OA
ATOM     25  H   UNL     1       1.525   5.838   4.425  1.00  0.00     0.293 HD
ENDBRANCH  22  24
ENDBRANCH  12  18
BRANCH  16  26
ATOM     26  C   UNL     1       5.974   1.600   3.347  1.00  0.00     0.046 A 
ATOM     27  C   UNL     1       7.368   1.700   3.438  1.00  0.00     0.026 A 
ATOM     28  C   UNL     1       5.157   2.353   4.191  1.00  0.00     0.039 A 
ATOM     29  C   UNL     1       7.940   2.604   4.332  1.00  0.00     0.003 A 
ATOM     30  C   UNL     1       5.725   3.255   5.103  1.00  0.00     0.058 A 
ATOM     31  C   UNL     1       7.123   3.382   5.154  1.00  0.00     0.013 A 
BRANCH  30  32
ATOM     32  C   UNL     1       4.860   4.057   6.045  1.00  0.00     0.416 C 
ATOM     33  F   UNL     1       5.262   3.934   7.342  1.00  0.00    -0.166 F 
ATOM     34  F   UNL     1       4.885   5.390   5.774  1.00  0.00    -0.166 F 
ATOM     35  F   UNL     1       3.547   3.694   6.038  1.00  0.00    -0.166 F 
ENDBRANCH  30  32
ENDBRANCH  16  26
ENDBRANCH   4   7
ENDBRANCH   2   3
ENDBRANCH   1   2
BRANCH   1  36
ATOM     36  C   UNL     1       7.165  -4.594   5.338  1.00  0.00     0.118 C 
BRANCH  36  37
ATOM     37  N   UNL     1       8.556  -5.093   5.331  1.00  0.00    -0.352 N 
ATOM     38  C   UNL     1       9.075  -6.314   5.760  1.00  0.00     0.251 C 
ATOM     39  H   UNL     1       9.220  -4.464   4.967  1.00  0.00     0.163 HD
ATOM     40  O   UNL     1      10.263  -6.456   5.974  1.00  0.00    -0.269 OA
BRANCH  38  41
ATOM     41  C   UNL     1       8.142  -7.441   5.928  1.00  0.00     0.039 A 
ATOM     42  C   UNL     1       8.212  -8.405   6.939  1.00  0.00     0.014 A 
ATOM     43  C   UNL     1       7.077  -7.437   5.061  1.00  0.00     0.014 A 
ATOM     44  C   UNL     1       7.166  -9.325   7.028  1.00  0.00     0.010 A 
ATOM     45  C   UNL     1       5.914  -7.906   5.556  1.00  0.00     0.010 A 
ATOM     46  C   UNL     1       6.015  -9.068   6.279  1.00  0.00    -0.014 A 
BRANCH  46  47
ATOM     47  C   UNL     1       4.839  -9.910   6.190  1.00  0.00     0.031 A 
ATOM     48  C   UNL     1       4.125 -10.086   7.466  1.00  0.00     0.074 A 
ATOM     49  C   UNL     1       4.278 -10.221   4.996  1.00  0.00     0.049 A 
ATOM     50  N   UNL     1       4.073 -11.148   8.194  1.00  0.00    -0.248 NA
ATOM     51  C   UNL     1       3.536  -8.893   8.094  1.00  0.00     0.031 C 
ATOM     52  C   UNL     1       4.661  -9.807   3.634  1.00  0.00     0.029 A 
ATOM     53  N   UNL     1       3.141 -10.929   4.768  1.00  0.00    -0.354 N 
ATOM     54  C   UNL     1       3.251 -10.823   9.265  1.00  0.00     0.074 A 
ATOM     55  C   UNL     1       3.143  -9.387   9.270  1.00  0.00     0.031 C 
ATOM     56  C   UNL     1       3.659 -10.082   2.768  1.00  0.00     0.029 A 
ATOM     57  C   UNL     1       2.646 -10.841   3.470  1.00  0.00     0.049 A 
ATOM     58  H   UNL     1       2.700 -11.463   5.468  1.00  0.00     0.167 HD
ATOM     59  C   UNL     1       2.511 -11.774   9.897  1.00  0.00     0.037 A 
ATOM     60  C   UNL     1       1.455 -11.334   3.049  1.00  0.00     0.037 A 
ATOM     61  C   UNL     1       2.935 -13.102   9.522  1.00  0.00     0.049 A 
ATOM     62  C   UNL     1       1.048 -12.370   4.040  1.00  0.00     0.074 A 
ATOM     63  C   UNL     1       4.131 -13.791   9.600  1.00  0.00     0.029 A 
ATOM     64  N   UNL     1       2.191 -13.768   8.575  1.00  0.00    -0.354 N 
ATOM     65  N   UNL     1       1.711 -13.483   4.226  1.00  0.00    -0.248 NA
ATOM     66  C   UNL     1       0.244 -11.930   5.173  1.00  0.00     0.031 C 
ATOM     67  C   UNL     1       4.238 -14.479   8.354  1.00  0.00     0.029 A 
ATOM     68  C   UNL     1       3.069 -14.239   7.629  1.00  0.00     0.049 A 
ATOM     69  H   UNL     1       1.213 -13.884   8.575  1.00  0.00     0.167 HD
ATOM     70  C   UNL     1       1.742 -13.662   5.604  1.00  0.00     0.074 A 
ATOM     71  C   UNL     1       0.774 -12.697   6.131  1.00  0.00     0.031 C 
ATOM     72  C   UNL     1       2.756 -14.342   6.220  1.00  0.00     0.037 A 
BRANCH  59  73
ATOM     73  C   UNL     1       1.182 -11.515  10.551  1.00  0.00     0.057 A 
ATOM     74  C   UNL     1       0.624 -12.503  11.378  1.00  0.00     0.134 A 
ATOM     75  C   UNL     1       0.309 -10.468  10.189  1.00  0.00     0.134 A 
ATOM     76  F   UNL     1       1.352 -13.557  11.777  1.00  0.00    -0.206 F 
ATOM     77  C   UNL     1      -0.722 -12.485  11.761  1.00  0.00     0.040 A 
ATOM     78  C   UNL     1      -1.021 -10.411  10.611  1.00  0.00     0.040 A 
ATOM     79  F   UNL     1       0.660  -9.504   9.329  1.00  0.00    -0.206 F 
ATOM     80  C   UNL     1      -1.551 -11.439  11.373  1.00  0.00     0.006 A 
ENDBRANCH  59  73
BRANCH  60  81
ATOM     81  C   UNL     1       0.511 -10.690   2.103  1.00  0.00     0.057 A 
ATOM     82  C   UNL     1      -0.538 -11.401   1.506  1.00  0.00     0.134 A 
ATOM     83  C   UNL     1       0.463  -9.289   1.960  1.00  0.00     0.134 A 
ATOM     84  F   UNL     1      -0.608 -12.735   1.626  1.00  0.00    -0.206 F 
ATOM     85  C   UNL     1      -1.579 -10.758   0.817  1.00  0.00     0.040 A 
ATOM     86  C   UNL     1      -0.566  -8.636   1.272  1.00  0.00     0.040 A 
ATOM     87  F   UNL     1       1.368  -8.501   2.558  1.00  0.00    -0.206 F 
ATOM     88  C   UNL     1      -1.599  -9.370   0.706  1.00  0.00     0.006 A 
ENDBRANCH  60  81
BRANCH  72  89
ATOM     89  C   UNL     1       3.769 -15.051   5.354  1.00  0.00     0.057 A 
ATOM     90  C   UNL     1       4.654 -14.395   4.483  1.00  0.00     0.134 A 
ATOM     91  C   UNL     1       3.984 -16.419   5.540  1.00  0.00     0.134 A 
ATOM     92  F   UNL     1       4.604 -13.071   4.316  1.00  0.00    -0.206 F 
ATOM     93  C   UNL     1       5.673 -15.070   3.801  1.00  0.00     0.040 A 
ATOM     94  C   UNL     1       5.017 -17.103   4.889  1.00  0.00     0.040 A 
ATOM     95  F   UNL     1       3.225 -17.109   6.406  1.00  0.00    -0.206 F 
ATOM     96  C   UNL     1       5.861 -16.430   4.009  1.00  0.00     0.006 A 
ENDBRANCH  72  89
ENDBRANCH  46  47
ENDBRANCH  38  41
ENDBRANCH  36  37
ENDBRANCH   1  36
TORSDOF 14
