REMARK SMILES NC(=O)c1c(F)cccc1O[C@@H](F)C(=O)NCCCNC(=O)c1ccc(-c2c3nc(c(-c4c(F)cccc4F)c4ccc([nH]4)c(-c4c(F)cccc4F)c4nc(c(-c5c(F)cccc5F)c5ccc2[nH]5)C=C4)C=C3)cc1
REMARK SMILES IDX 17 1 16 2 14 3 15 4 12 6 13 7 11 8 10 9 4 10 5 11 6 12 7 13
REMARK SMILES IDX 9 14 8 15 2 16 1 17 3 20 18 21 19 22 20 23 21 24 22 26 23 27
REMARK SMILES IDX 24 28 76 29 25 30 75 31 26 32 27 33 28 34 69 35 29 36 74 37
REMARK SMILES IDX 68 38 70 39 30 40 73 41 67 42 66 43 31 45 57 46 40 47 56 48
REMARK SMILES IDX 41 49 44 50 55 51 71 52 42 53 43 54 54 56 72 57 45 58 32 59
REMARK SMILES IDX 33 60 38 61 34 62 35 63 37 64 39 65 36 66 58 67 59 68 64 69
REMARK SMILES IDX 60 70 61 71 63 72 65 73 62 74 46 75 47 76 52 77 48 78 49 79
REMARK SMILES IDX 51 80 53 81 50 82
REMARK H PARENT 16 5 1 18 1 19 20 25 70 44 44 55
REMARK Flexibility Score: inf
ROOT
ATOM      1  C   UNL     1       2.062  -0.577  -2.206  1.00  0.00     0.118 C 
ENDROOT
BRANCH   1   2
ATOM      2  N   UNL     1       1.210   0.582  -2.219  1.00  0.00    -0.350 N 
ATOM      3  C   UNL     1      -0.152   0.643  -2.286  1.00  0.00     0.294 C 
ATOM      4  O   UNL     1      -0.629   1.777  -2.128  1.00  0.00    -0.267 OA
ATOM      5  H   UNL     1       1.673   1.450  -2.174  1.00  0.00     0.163 HD
BRANCH   3   6
ATOM      6  C   UNL     1      -1.104  -0.587  -2.571  1.00  0.00     0.440 C 
ATOM      7  F   UNL     1      -2.090  -0.650  -1.630  1.00  0.00    -0.191 F 
BRANCH   6   8
ATOM      8  O   UNL     1      -0.810  -1.906  -2.979  1.00  0.00    -0.451 OA
BRANCH   8   9
ATOM      9  C   UNL     1      -0.054  -2.771  -2.249  1.00  0.00     0.139 A 
ATOM     10  C   UNL     1       0.101  -2.882  -0.863  1.00  0.00     0.117 A 
ATOM     11  C   UNL     1       1.130  -3.684  -0.350  1.00  0.00     0.139 A 
ATOM     12  F   UNL     1       1.361  -3.738   0.970  1.00  0.00    -0.206 F 
ATOM     13  C   UNL     1       1.979  -4.402  -1.190  1.00  0.00     0.040 A 
ATOM     14  C   UNL     1       0.743  -3.584  -3.081  1.00  0.00     0.047 A 
ATOM     15  C   UNL     1       1.767  -4.376  -2.562  1.00  0.00     0.007 A 
BRANCH  10  16
ATOM     16  C   UNL     1      -0.761  -2.204   0.112  1.00  0.00     0.255 C 
ATOM     17  N   UNL     1      -0.156  -1.265   0.903  1.00  0.00    -0.365 N 
ATOM     18  H   UNL     1      -0.681  -0.776   1.577  1.00  0.00     0.159 HD
ATOM     19  H   UNL     1       0.805  -1.078   0.798  1.00  0.00     0.159 HD
ATOM     20  O   UNL     1      -1.940  -2.489   0.214  1.00  0.00    -0.269 OA
ENDBRANCH  10  16
ENDBRANCH   8   9
ENDBRANCH   6   8
ENDBRANCH   3   6
ENDBRANCH   1   2
BRANCH   1  21
ATOM     21  C   UNL     1       3.555  -0.309  -2.218  1.00  0.00     0.042 C 
BRANCH  21  22
ATOM     22  C   UNL     1       4.047   0.489  -1.018  1.00  0.00     0.118 C 
BRANCH  22  23
ATOM     23  N   UNL     1       3.999  -0.218   0.259  1.00  0.00    -0.352 N 
ATOM     24  C   UNL     1       4.902  -0.975   0.971  1.00  0.00     0.251 C 
ATOM     25  H   UNL     1       3.128  -0.134   0.711  1.00  0.00     0.163 HD
ATOM     26  O   UNL     1       4.528  -1.477   2.030  1.00  0.00    -0.269 OA
BRANCH  24  27
ATOM     27  C   UNL     1       6.272  -1.261   0.481  1.00  0.00     0.039 A 
ATOM     28  C   UNL     1       6.878  -2.480   0.814  1.00  0.00     0.014 A 
ATOM     29  C   UNL     1       6.982  -0.359  -0.299  1.00  0.00     0.014 A 
ATOM     30  C   UNL     1       8.117  -2.828   0.260  1.00  0.00     0.010 A 
ATOM     31  C   UNL     1       8.124  -0.766  -0.976  1.00  0.00     0.010 A 
ATOM     32  C   UNL     1       8.712  -2.007  -0.710  1.00  0.00    -0.014 A 
BRANCH  32  33
ATOM     33  C   UNL     1       9.931  -2.401  -1.470  1.00  0.00     0.031 A 
ATOM     34  C   UNL     1      11.115  -1.468  -1.543  1.00  0.00     0.074 A 
ATOM     35  C   UNL     1       9.925  -3.529  -2.211  1.00  0.00     0.049 A 
ATOM     36  N   UNL     1      12.167  -1.524  -2.320  1.00  0.00    -0.248 NA
ATOM     37  C   UNL     1      11.083  -0.282  -0.670  1.00  0.00     0.031 C 
ATOM     38  C   UNL     1       8.820  -4.487  -2.295  1.00  0.00     0.029 A 
ATOM     39  N   UNL     1      10.875  -4.051  -3.055  1.00  0.00    -0.354 N 
ATOM     40  C   UNL     1      12.884  -0.360  -2.070  1.00  0.00     0.074 A 
ATOM     41  C   UNL     1      12.120   0.411  -1.115  1.00  0.00     0.031 C 
ATOM     42  C   UNL     1       9.169  -5.495  -3.108  1.00  0.00     0.029 A 
ATOM     43  C   UNL     1      10.497  -5.231  -3.650  1.00  0.00     0.049 A 
ATOM     44  H   UNL     1      11.746  -3.621  -3.218  1.00  0.00     0.167 HD
ATOM     45  C   UNL     1      14.085   0.019  -2.565  1.00  0.00     0.037 A 
ATOM     46  C   UNL     1      11.138  -6.010  -4.542  1.00  0.00     0.037 A 
ATOM     47  C   UNL     1      14.884  -0.792  -3.443  1.00  0.00     0.049 A 
ATOM     48  C   UNL     1      12.498  -5.604  -5.030  1.00  0.00     0.074 A 
ATOM     49  C   UNL     1      16.165  -0.550  -3.908  1.00  0.00     0.029 A 
ATOM     50  N   UNL     1      14.487  -2.010  -3.974  1.00  0.00    -0.354 N 
ATOM     51  N   UNL     1      13.188  -4.527  -4.739  1.00  0.00    -0.248 NA
ATOM     52  C   UNL     1      13.171  -6.514  -5.967  1.00  0.00     0.031 C 
ATOM     53  C   UNL     1      16.527  -1.602  -4.752  1.00  0.00     0.029 A 
ATOM     54  C   UNL     1      15.491  -2.523  -4.776  1.00  0.00     0.049 A 
ATOM     55  H   UNL     1      13.620  -2.444  -3.805  1.00  0.00     0.167 HD
ATOM     56  C   UNL     1      14.381  -4.639  -5.440  1.00  0.00     0.074 A 
ATOM     57  C   UNL     1      14.328  -5.894  -6.161  1.00  0.00     0.031 C 
ATOM     58  C   UNL     1      15.425  -3.776  -5.483  1.00  0.00     0.037 A 
BRANCH  45  59
ATOM     59  C   UNL     1      14.629   1.357  -2.148  1.00  0.00     0.057 A 
ATOM     60  C   UNL     1      14.772   2.392  -3.082  1.00  0.00     0.134 A 
ATOM     61  C   UNL     1      15.061   1.606  -0.839  1.00  0.00     0.134 A 
ATOM     62  F   UNL     1      14.386   2.220  -4.355  1.00  0.00    -0.206 F 
ATOM     63  C   UNL     1      15.329   3.622  -2.729  1.00  0.00     0.040 A 
ATOM     64  C   UNL     1      15.591   2.843  -0.467  1.00  0.00     0.040 A 
ATOM     65  F   UNL     1      14.944   0.662   0.107  1.00  0.00    -0.206 F 
ATOM     66  C   UNL     1      15.735   3.852  -1.416  1.00  0.00     0.006 A 
ENDBRANCH  45  59
BRANCH  46  67
ATOM     67  C   UNL     1      10.505  -7.276  -4.993  1.00  0.00     0.057 A 
ATOM     68  C   UNL     1       9.389  -7.283  -5.837  1.00  0.00     0.134 A 
ATOM     69  C   UNL     1      10.979  -8.512  -4.539  1.00  0.00     0.134 A 
ATOM     70  F   UNL     1       8.878  -6.130  -6.294  1.00  0.00    -0.206 F 
ATOM     71  C   UNL     1       8.753  -8.472  -6.198  1.00  0.00     0.040 A 
ATOM     72  C   UNL     1      10.367  -9.711  -4.910  1.00  0.00     0.040 A 
ATOM     73  F   UNL     1      12.054  -8.570  -3.739  1.00  0.00    -0.206 F 
ATOM     74  C   UNL     1       9.244  -9.691  -5.735  1.00  0.00     0.006 A 
ENDBRANCH  46  67
BRANCH  58  75
ATOM     75  C   UNL     1      16.610  -4.155  -6.320  1.00  0.00     0.057 A 
ATOM     76  C   UNL     1      17.824  -4.508  -5.717  1.00  0.00     0.134 A 
ATOM     77  C   UNL     1      16.576  -4.076  -7.717  1.00  0.00     0.134 A 
ATOM     78  F   UNL     1      17.924  -4.590  -4.382  1.00  0.00    -0.206 F 
ATOM     79  C   UNL     1      18.971  -4.747  -6.475  1.00  0.00     0.040 A 
ATOM     80  C   UNL     1      17.711  -4.337  -8.487  1.00  0.00     0.040 A 
ATOM     81  F   UNL     1      15.440  -3.752  -8.353  1.00  0.00    -0.206 F 
ATOM     82  C   UNL     1      18.915  -4.662  -7.864  1.00  0.00     0.006 A 
ENDBRANCH  58  75
ENDBRANCH  32  33
ENDBRANCH  24  27
ENDBRANCH  22  23
ENDBRANCH  21  22
ENDBRANCH   1  21
TORSDOF 13
