REMARK SMILES Cc1ccccc1/C=C1\SC(=S)N(CCC(=O)N[C@@H](C)C(=O)NCCCNC(=O)c2ccc(-c3c4nc(c(-c5c(F)cccc5F)c5ccc([nH]5)c(-c5c(F)cccc5F)c5nc(c(-c6c(F)cccc6F)c6ccc3[nH]6)C=C5)C=C4)cc2)C1=O
REMARK SMILES IDX 21 1 22 2 23 3 19 5 20 6 18 7 16 8 17 9 15 11 14 12 13 13
REMARK SMILES IDX 8 14 9 15 10 16 84 17 11 18 85 19 12 20 7 21 1 22 2 23 3 24
REMARK SMILES IDX 4 25 6 26 5 27 24 28 25 29 26 30 27 31 28 32 29 34 30 35
REMARK SMILES IDX 31 36 83 37 32 38 82 39 33 40 34 41 35 42 76 43 36 44 81 45
REMARK SMILES IDX 75 46 77 47 37 48 80 49 74 50 73 51 38 53 64 54 47 55 63 56
REMARK SMILES IDX 48 57 51 58 62 59 78 60 49 61 50 62 61 64 79 65 52 66 39 67
REMARK SMILES IDX 40 68 45 69 41 70 42 71 44 72 46 73 43 74 65 75 66 76 71 77
REMARK SMILES IDX 67 78 68 79 70 80 72 81 69 82 53 83 54 84 59 85 55 86 56 87
REMARK SMILES IDX 58 88 60 89 57 90
REMARK H PARENT 23 4 18 10 27 33 77 52 51 63
REMARK Flexibility Score: inf
ROOT
ATOM      1  C   UNL     1      -0.598   5.501  -1.704  1.00  0.00     0.242 C 
ATOM      2  O   UNL     1      -1.148   6.088  -2.644  1.00  0.00    -0.273 OA
ATOM      3  N   UNL     1      -1.435   4.963  -0.769  1.00  0.00    -0.354 N 
ATOM      4  H   UNL     1      -2.378   4.950  -1.052  1.00  0.00     0.163 HD
ENDROOT
BRANCH   1   5
ATOM      5  C   UNL     1       0.953   5.429  -1.649  1.00  0.00     0.168 C 
ATOM      6  C   UNL     1       1.536   4.610  -0.530  1.00  0.00     0.041 C 
BRANCH   5   7
ATOM      7  N   UNL     1       1.619   6.729  -1.599  1.00  0.00    -0.345 N 
ATOM      8  C   UNL     1       2.951   6.949  -1.847  1.00  0.00     0.222 C 
ATOM      9  O   UNL     1       3.523   7.863  -1.254  1.00  0.00    -0.275 OA
ATOM     10  H   UNL     1       1.067   7.511  -1.368  1.00  0.00     0.164 HD
BRANCH   8  11
ATOM     11  C   UNL     1       3.675   6.105  -2.890  1.00  0.00     0.122 C 
BRANCH  11  12
ATOM     12  C   UNL     1       4.686   5.061  -2.370  1.00  0.00     0.137 C 
BRANCH  12  13
ATOM     13  N   UNL     1       4.181   3.667  -2.355  1.00  0.00    -0.292 N 
ATOM     14  C   UNL     1       2.584   1.290  -0.246  1.00  0.00     0.029 C 
ATOM     15  C   UNL     1       3.238   1.785  -1.307  1.00  0.00     0.081 C 
ATOM     16  S   UNL     1       3.005   1.446  -2.967  1.00  0.00    -0.054 SA
ATOM     17  C   UNL     1       4.136   2.965  -1.159  1.00  0.00     0.266 C 
ATOM     18  C   UNL     1       3.802   2.942  -3.468  1.00  0.00     0.148 C 
ATOM     19  O   UNL     1       4.656   3.290  -0.101  1.00  0.00    -0.268 OA
ATOM     20  S   UNL     1       3.995   3.341  -5.075  1.00  0.00    -0.052 S 
BRANCH  14  21
ATOM     21  C   UNL     1       1.474   0.323  -0.250  1.00  0.00    -0.021 A 
ATOM     22  C   UNL     1       3.062  -1.596   0.241  1.00  0.00     0.045 C 
ATOM     23  C   UNL     1       1.682  -1.034   0.041  1.00  0.00    -0.044 A 
ATOM     24  C   UNL     1       0.575  -1.900   0.091  1.00  0.00     0.004 A 
ATOM     25  C   UNL     1      -0.722  -1.425  -0.109  1.00  0.00     0.000 A 
ATOM     26  C   UNL     1       0.164   0.782  -0.472  1.00  0.00     0.008 A 
ATOM     27  C   UNL     1      -0.929  -0.081  -0.391  1.00  0.00     0.001 A 
ENDBRANCH  14  21
ENDBRANCH  12  13
ENDBRANCH  11  12
ENDBRANCH   8  11
ENDBRANCH   5   7
ENDBRANCH   1   5
BRANCH   3  28
ATOM     28  C   UNL     1      -1.226   4.403   0.565  1.00  0.00     0.117 C 
BRANCH  28  29
ATOM     29  C   UNL     1      -0.901   5.491   1.591  1.00  0.00     0.042 C 
BRANCH  29  30
ATOM     30  C   UNL     1      -2.166   6.036   2.223  1.00  0.00     0.118 C 
BRANCH  30  31
ATOM     31  N   UNL     1      -2.541   5.369   3.464  1.00  0.00    -0.352 N 
ATOM     32  C   UNL     1      -3.770   5.311   4.107  1.00  0.00     0.251 C 
ATOM     33  H   UNL     1      -1.812   4.886   3.915  1.00  0.00     0.163 HD
ATOM     34  O   UNL     1      -3.871   4.753   5.182  1.00  0.00    -0.269 OA
BRANCH  32  35
ATOM     35  C   UNL     1      -4.981   5.793   3.393  1.00  0.00     0.039 A 
ATOM     36  C   UNL     1      -6.096   4.947   3.382  1.00  0.00     0.014 A 
ATOM     37  C   UNL     1      -4.913   6.878   2.529  1.00  0.00     0.014 A 
ATOM     38  C   UNL     1      -6.982   5.013   2.313  1.00  0.00     0.010 A 
ATOM     39  C   UNL     1      -5.700   6.853   1.398  1.00  0.00     0.010 A 
ATOM     40  C   UNL     1      -6.691   5.876   1.260  1.00  0.00    -0.014 A 
BRANCH  40  41
ATOM     41  C   UNL     1      -7.313   5.771  -0.053  1.00  0.00     0.031 A 
ATOM     42  C   UNL     1      -8.282   6.798  -0.482  1.00  0.00     0.074 A 
ATOM     43  C   UNL     1      -6.937   4.781  -0.893  1.00  0.00     0.049 A 
ATOM     44  N   UNL     1      -9.183   6.625  -1.388  1.00  0.00    -0.248 NA
ATOM     45  C   UNL     1      -8.337   8.117   0.136  1.00  0.00     0.031 C 
ATOM     46  C   UNL     1      -7.242   4.661  -2.316  1.00  0.00     0.029 A 
ATOM     47  N   UNL     1      -6.347   3.552  -0.558  1.00  0.00    -0.354 N 
ATOM     48  C   UNL     1      -9.755   7.850  -1.655  1.00  0.00     0.074 A 
ATOM     49  C   UNL     1      -9.229   8.733  -0.642  1.00  0.00     0.031 C 
ATOM     50  C   UNL     1      -7.117   3.373  -2.677  1.00  0.00     0.029 A 
ATOM     51  C   UNL     1      -6.871   2.607  -1.468  1.00  0.00     0.049 A 
ATOM     52  H   UNL     1      -5.700   3.384   0.164  1.00  0.00     0.167 HD
ATOM     53  C   UNL     1     -10.512   8.001  -2.781  1.00  0.00     0.037 A 
ATOM     54  C   UNL     1      -7.640   1.565  -1.036  1.00  0.00     0.037 A 
ATOM     55  C   UNL     1     -10.679   6.720  -3.466  1.00  0.00     0.049 A 
ATOM     56  C   UNL     1      -9.052   1.578  -1.581  1.00  0.00     0.074 A 
ATOM     57  C   UNL     1     -10.007   6.131  -4.526  1.00  0.00     0.029 A 
ATOM     58  N   UNL     1     -11.420   5.710  -2.862  1.00  0.00    -0.354 N 
ATOM     59  N   UNL     1      -9.602   2.612  -2.156  1.00  0.00    -0.248 NA
ATOM     60  C   UNL     1      -9.969   0.444  -1.479  1.00  0.00     0.031 C 
ATOM     61  C   UNL     1     -10.281   4.740  -4.501  1.00  0.00     0.029 A 
ATOM     62  C   UNL     1     -11.142   4.489  -3.447  1.00  0.00     0.049 A 
ATOM     63  H   UNL     1     -12.054   5.847  -2.122  1.00  0.00     0.167 HD
ATOM     64  C   UNL     1     -10.914   2.334  -2.434  1.00  0.00     0.074 A 
ATOM     65  C   UNL     1     -11.087   0.953  -2.025  1.00  0.00     0.031 C 
ATOM     66  C   UNL     1     -11.762   3.272  -2.947  1.00  0.00     0.037 A 
BRANCH  53  67
ATOM     67  C   UNL     1     -10.829   9.343  -3.412  1.00  0.00     0.057 A 
ATOM     68  C   UNL     1     -11.019   9.455  -4.804  1.00  0.00     0.134 A 
ATOM     69  C   UNL     1     -10.887  10.571  -2.729  1.00  0.00     0.134 A 
ATOM     70  F   UNL     1     -11.123   8.376  -5.590  1.00  0.00    -0.206 F 
ATOM     71  C   UNL     1     -11.115  10.687  -5.468  1.00  0.00     0.040 A 
ATOM     72  C   UNL     1     -10.923  11.812  -3.383  1.00  0.00     0.040 A 
ATOM     73  F   UNL     1     -10.984  10.631  -1.397  1.00  0.00    -0.206 F 
ATOM     74  C   UNL     1     -11.020  11.875  -4.763  1.00  0.00     0.006 A 
ENDBRANCH  53  67
BRANCH  54  75
ATOM     75  C   UNL     1      -7.252   1.070   0.311  1.00  0.00     0.057 A 
ATOM     76  C   UNL     1      -5.992   0.464   0.470  1.00  0.00     0.134 A 
ATOM     77  C   UNL     1      -7.897   1.508   1.470  1.00  0.00     0.134 A 
ATOM     78  F   UNL     1      -5.316   0.022  -0.602  1.00  0.00    -0.206 F 
ATOM     79  C   UNL     1      -5.354   0.400   1.712  1.00  0.00     0.040 A 
ATOM     80  C   UNL     1      -7.270   1.443   2.720  1.00  0.00     0.040 A 
ATOM     81  F   UNL     1      -9.090   2.117   1.398  1.00  0.00    -0.206 F 
ATOM     82  C   UNL     1      -5.980   0.925   2.837  1.00  0.00     0.006 A 
ENDBRANCH  54  75
BRANCH  66  83
ATOM     83  C   UNL     1     -13.252   3.112  -3.071  1.00  0.00     0.057 A 
ATOM     84  C   UNL     1     -14.043   2.425  -2.139  1.00  0.00     0.134 A 
ATOM     85  C   UNL     1     -13.960   3.807  -4.074  1.00  0.00     0.134 A 
ATOM     86  F   UNL     1     -13.499   1.804  -1.084  1.00  0.00    -0.206 F 
ATOM     87  C   UNL     1     -15.441   2.394  -2.225  1.00  0.00     0.040 A 
ATOM     88  C   UNL     1     -15.355   3.824  -4.141  1.00  0.00     0.040 A 
ATOM     89  F   UNL     1     -13.321   4.516  -5.017  1.00  0.00    -0.206 F 
ATOM     90  C   UNL     1     -16.102   3.106  -3.219  1.00  0.00     0.006 A 
ENDBRANCH  66  83
ENDBRANCH  40  41
ENDBRANCH  32  35
ENDBRANCH  30  31
ENDBRANCH  29  30
ENDBRANCH  28  29
ENDBRANCH   3  28
TORSDOF 15
