REMARK SMILES CCOC(=O)[C@H](c1ccccc1)N1C(=O)/C(=C/c2ccc(C(=O)NCCCNC(=O)c3ccc(-c4c5nc(c(-c6c(F)cccc6F)c6ccc([nH]6)c(-c6c(F)cccc6F)c6nc(c(-c7c(F)cccc7F)c7ccc4[nH]7)C=C6)C=C5)cc3)cc2)SC1=S
REMARK SMILES IDX 22 1 23 2 24 3 21 5 18 6 19 7 86 8 20 9 85 10 17 11 13 12
REMARK SMILES IDX 14 13 88 14 15 15 16 16 87 17 89 18 6 19 4 20 5 21 3 22 2 23
REMARK SMILES IDX 1 24 7 25 8 26 12 27 9 28 11 29 10 30 25 31 26 32 27 33
REMARK SMILES IDX 28 34 29 35 30 37 31 38 32 39 84 40 33 41 83 42 34 43 35 44
REMARK SMILES IDX 36 45 77 46 37 47 82 48 76 49 78 50 38 51 81 52 75 53 74 54
REMARK SMILES IDX 39 56 65 57 48 58 64 59 49 60 52 61 63 62 79 63 50 64 51 65
REMARK SMILES IDX 62 67 80 68 53 69 40 70 41 71 46 72 42 73 43 74 45 75 47 76
REMARK SMILES IDX 44 77 66 78 67 79 72 80 68 81 69 82 71 83 73 84 70 85 54 86
REMARK SMILES IDX 55 87 60 88 56 89 57 90 59 91 61 92 58 93
REMARK H PARENT 24 4 28 36 78 55 52 66
REMARK Flexibility Score: inf
ROOT
ATOM      1  C   UNL     1      -0.636   7.269  10.345  1.00  0.00     0.251 C 
ATOM      2  O   UNL     1      -0.407   6.866  11.485  1.00  0.00    -0.269 OA
ATOM      3  N   UNL     1      -1.191   8.516  10.205  1.00  0.00    -0.352 N 
ATOM      4  H   UNL     1      -1.404   8.958  11.059  1.00  0.00     0.163 HD
ENDROOT
BRANCH   1   5
ATOM      5  C   UNL     1      -0.258   6.417   9.184  1.00  0.00     0.039 A 
ATOM      6  C   UNL     1       0.629   4.815   7.044  1.00  0.00    -0.024 A 
ATOM      7  C   UNL     1       1.278   4.753   8.279  1.00  0.00     0.009 A 
ATOM      8  C   UNL     1      -0.498   5.628   6.904  1.00  0.00     0.009 A 
ATOM      9  C   UNL     1       0.838   5.555   9.341  1.00  0.00     0.014 A 
ATOM     10  C   UNL     1      -0.952   6.402   7.973  1.00  0.00     0.014 A 
BRANCH   6  11
ATOM     11  C   UNL     1       1.073   4.015   5.901  1.00  0.00     0.029 C 
ATOM     12  N   UNL     1       2.442   4.398   2.561  1.00  0.00    -0.274 N 
ATOM     13  C   UNL     1       1.952   3.647   3.615  1.00  0.00     0.267 C 
ATOM     14  C   UNL     1       2.981   5.599   2.993  1.00  0.00     0.149 C 
ATOM     15  O   UNL     1       1.839   2.427   3.688  1.00  0.00    -0.268 OA
ATOM     16  C   UNL     1       1.660   4.501   4.798  1.00  0.00     0.081 C 
ATOM     17  S   UNL     1       2.198   6.094   4.496  1.00  0.00    -0.054 SA
ATOM     18  S   UNL     1       4.237   6.499   2.362  1.00  0.00    -0.052 S 
BRANCH  12  19
ATOM     19  C   UNL     1       2.647   3.838   1.185  1.00  0.00     0.232 C 
BRANCH  19  20
ATOM     20  C   UNL     1       1.975   4.681   0.031  1.00  0.00     0.333 C 
ATOM     21  O   UNL     1       1.227   4.234  -0.833  1.00  0.00    -0.249 OA
BRANCH  20  22
ATOM     22  O   UNL     1       2.446   5.955  -0.017  1.00  0.00    -0.464 OA
BRANCH  22  23
ATOM     23  C   UNL     1       2.142   6.688  -1.217  1.00  0.00     0.229 C 
ATOM     24  C   UNL     1       3.057   6.253  -2.353  1.00  0.00     0.049 C 
ENDBRANCH  22  23
ENDBRANCH  20  22
ENDBRANCH  19  20
BRANCH  19  25
ATOM     25  C   UNL     1       2.213   2.386   0.930  1.00  0.00    -0.014 A 
ATOM     26  C   UNL     1       0.863   1.998   1.055  1.00  0.00     0.006 A 
ATOM     27  C   UNL     1       3.117   1.479   0.354  1.00  0.00     0.006 A 
ATOM     28  C   UNL     1       0.429   0.753   0.601  1.00  0.00     0.000 A 
ATOM     29  C   UNL     1       2.675   0.239  -0.112  1.00  0.00     0.000 A 
ATOM     30  C   UNL     1       1.333  -0.119   0.004  1.00  0.00     0.000 A 
ENDBRANCH  19  25
ENDBRANCH  12  19
ENDBRANCH   6  11
ENDBRANCH   1   5
BRANCH   3  31
ATOM     31  C   UNL     1      -1.521   9.306   9.032  1.00  0.00     0.118 C 
BRANCH  31  32
ATOM     32  C   UNL     1      -3.020   9.253   8.739  1.00  0.00     0.042 C 
BRANCH  32  33
ATOM     33  C   UNL     1      -3.854  10.083   9.710  1.00  0.00     0.118 C 
BRANCH  33  34
ATOM     34  N   UNL     1      -3.629  11.511   9.536  1.00  0.00    -0.352 N 
ATOM     35  C   UNL     1      -4.514  12.511   9.224  1.00  0.00     0.251 C 
ATOM     36  H   UNL     1      -2.698  11.803   9.661  1.00  0.00     0.163 HD
ATOM     37  O   UNL     1      -4.088  13.612   8.887  1.00  0.00    -0.269 OA
BRANCH  35  38
ATOM     38  C   UNL     1      -5.972  12.274   9.282  1.00  0.00     0.039 A 
ATOM     39  C   UNL     1      -6.786  12.847   8.300  1.00  0.00     0.014 A 
ATOM     40  C   UNL     1      -6.544  11.534  10.320  1.00  0.00     0.014 A 
ATOM     41  C   UNL     1      -8.166  12.636   8.333  1.00  0.00     0.010 A 
ATOM     42  C   UNL     1      -7.909  11.259  10.308  1.00  0.00     0.010 A 
ATOM     43  C   UNL     1      -8.735  11.815   9.320  1.00  0.00    -0.014 A 
BRANCH  43  44
ATOM     44  C   UNL     1     -10.191  11.528   9.334  1.00  0.00     0.031 A 
ATOM     45  C   UNL     1     -11.043  11.983  10.486  1.00  0.00     0.074 A 
ATOM     46  C   UNL     1     -10.732  10.801   8.338  1.00  0.00     0.049 A 
ATOM     47  N   UNL     1     -12.318  11.780  10.703  1.00  0.00    -0.248 NA
ATOM     48  C   UNL     1     -10.368  12.744  11.549  1.00  0.00     0.031 C 
ATOM     49  C   UNL     1     -10.001  10.268   7.187  1.00  0.00     0.029 A 
ATOM     50  N   UNL     1     -12.021  10.379   8.137  1.00  0.00    -0.354 N 
ATOM     51  C   UNL     1     -12.591  12.369  11.931  1.00  0.00     0.074 A 
ATOM     52  C   UNL     1     -11.341  12.892  12.436  1.00  0.00     0.031 C 
ATOM     53  C   UNL     1     -10.858   9.617   6.385  1.00  0.00     0.029 A 
ATOM     54  C   UNL     1     -12.188   9.650   6.985  1.00  0.00     0.049 A 
ATOM     55  H   UNL     1     -12.758  10.580   8.759  1.00  0.00     0.167 HD
ATOM     56  C   UNL     1     -13.780  12.479  12.571  1.00  0.00     0.037 A 
ATOM     57  C   UNL     1     -13.288   9.068   6.473  1.00  0.00     0.037 A 
ATOM     58  C   UNL     1     -15.025  11.974  12.052  1.00  0.00     0.049 A 
ATOM     59  C   UNL     1     -14.592   9.190   7.210  1.00  0.00     0.074 A 
ATOM     60  C   UNL     1     -16.295  12.098  12.587  1.00  0.00     0.029 A 
ATOM     61  N   UNL     1     -15.153  11.239  10.883  1.00  0.00    -0.354 N 
ATOM     62  N   UNL     1     -14.853   9.816   8.332  1.00  0.00    -0.248 NA
ATOM     63  C   UNL     1     -15.757   8.526   6.607  1.00  0.00     0.031 C 
ATOM     64  C   UNL     1     -17.183  11.387  11.772  1.00  0.00     0.029 A 
ATOM     65  C   UNL     1     -16.477  10.873  10.697  1.00  0.00     0.049 A 
ATOM     66  H   UNL     1     -14.413  11.011  10.275  1.00  0.00     0.167 HD
ATOM     67  C   UNL     1     -16.214   9.650   8.554  1.00  0.00     0.074 A 
ATOM     68  C   UNL     1     -16.725   8.874   7.443  1.00  0.00     0.031 C 
ATOM     69  C   UNL     1     -16.972  10.102   9.583  1.00  0.00     0.037 A 
BRANCH  56  70
ATOM     70  C   UNL     1     -13.786  13.163  13.909  1.00  0.00     0.057 A 
ATOM     71  C   UNL     1     -13.539  14.536  14.046  1.00  0.00     0.134 A 
ATOM     72  C   UNL     1     -14.065  12.441  15.077  1.00  0.00     0.134 A 
ATOM     73  F   UNL     1     -13.255  15.286  12.970  1.00  0.00    -0.206 F 
ATOM     74  C   UNL     1     -13.532  15.158  15.296  1.00  0.00     0.040 A 
ATOM     75  C   UNL     1     -14.092  13.058  16.330  1.00  0.00     0.040 A 
ATOM     76  F   UNL     1     -14.320  11.125  15.021  1.00  0.00    -0.206 F 
ATOM     77  C   UNL     1     -13.815  14.418  16.443  1.00  0.00     0.006 A 
ENDBRANCH  56  70
BRANCH  57  78
ATOM     78  C   UNL     1     -13.211   8.345   5.178  1.00  0.00     0.057 A 
ATOM     79  C   UNL     1     -13.824   8.860   4.030  1.00  0.00     0.134 A 
ATOM     80  C   UNL     1     -12.524   7.132   5.052  1.00  0.00     0.134 A 
ATOM     81  F   UNL     1     -14.511  10.011   4.092  1.00  0.00    -0.206 F 
ATOM     82  C   UNL     1     -13.773   8.188   2.808  1.00  0.00     0.040 A 
ATOM     83  C   UNL     1     -12.442   6.462   3.830  1.00  0.00     0.040 A 
ATOM     84  F   UNL     1     -11.907   6.589   6.112  1.00  0.00    -0.206 F 
ATOM     85  C   UNL     1     -13.074   6.987   2.705  1.00  0.00     0.006 A 
ENDBRANCH  57  78
BRANCH  69  86
ATOM     86  C   UNL     1     -18.442   9.801   9.537  1.00  0.00     0.057 A 
ATOM     87  C   UNL     1     -18.943   8.509   9.740  1.00  0.00     0.134 A 
ATOM     88  C   UNL     1     -19.371  10.828   9.323  1.00  0.00     0.134 A 
ATOM     89  F   UNL     1     -18.107   7.478   9.937  1.00  0.00    -0.206 F 
ATOM     90  C   UNL     1     -20.314   8.245   9.707  1.00  0.00     0.040 A 
ATOM     91  C   UNL     1     -20.745  10.581   9.318  1.00  0.00     0.040 A 
ATOM     92  F   UNL     1     -18.960  12.090   9.130  1.00  0.00    -0.206 F 
ATOM     93  C   UNL     1     -21.219   9.284   9.503  1.00  0.00     0.006 A 
ENDBRANCH  69  86
ENDBRANCH  43  44
ENDBRANCH  35  38
ENDBRANCH  33  34
ENDBRANCH  32  33
ENDBRANCH  31  32
ENDBRANCH   3  31
TORSDOF 16
