REMARK SMILES NC(=O)c1ccccc1N[C@@H]1CCCCC[C@@H]1C(=O)NCCCNC(=O)c1ccc(-c2c3nc(c(-c4c(F)cccc4F)c4ccc([nH]4)c(-c4c(F)cccc4F)c4nc(c(-c5c(F)cccc5F)c5ccc2[nH]5)C=C4)C=C3)cc1
REMARK SMILES IDX 21 1 20 2 18 3 19 4 17 6 11 7 10 8 9 10 4 11 5 12 6 13 8 14
REMARK SMILES IDX 7 15 2 16 1 17 3 20 12 21 13 22 14 23 16 25 15 26 22 28
REMARK SMILES IDX 23 29 24 30 25 31 26 33 27 34 28 35 80 36 29 37 79 38 30 39
REMARK SMILES IDX 31 40 32 41 73 42 33 43 78 44 72 45 74 46 34 47 77 48 71 49
REMARK SMILES IDX 70 50 35 52 61 53 44 54 60 55 45 56 48 57 59 58 75 59 46 60
REMARK SMILES IDX 47 61 58 63 76 64 49 65 36 66 37 67 42 68 38 69 39 70 41 71
REMARK SMILES IDX 43 72 40 73 62 74 63 75 68 76 64 77 65 78 67 79 69 80 66 81
REMARK SMILES IDX 50 82 51 83 56 84 52 85 53 86 55 87 57 88 54 89
REMARK H PARENT 20 5 10 9 1 18 1 19 24 32 74 51 48 62
REMARK Flexibility Score: 100.00
ROOT
ATOM      1  C   UNL     1       0.961   5.063   0.251  1.00  0.00     0.117 C 
ENDROOT
BRANCH   1   2
ATOM      2  N   UNL     1       1.101   4.822  -1.166  1.00  0.00    -0.356 N 
ATOM      3  C   UNL     1       2.184   4.366  -1.852  1.00  0.00     0.225 C 
ATOM      4  O   UNL     1       2.001   4.007  -3.020  1.00  0.00    -0.275 OA
ATOM      5  H   UNL     1       0.303   5.015  -1.711  1.00  0.00     0.163 HD
BRANCH   3   6
ATOM      6  C   UNL     1       3.587   4.271  -1.238  1.00  0.00     0.101 C 
BRANCH   6   7
ATOM      7  C   UNL     1       3.914   2.865  -0.683  1.00  0.00     0.091 C 
BRANCH   7   8
ATOM      8  N   UNL     1       2.853   2.219   0.110  1.00  0.00    -0.381 N 
ATOM      9  H   UNL     1       2.390   1.496  -0.372  1.00  0.00     0.160 HD
BRANCH   8  10
ATOM     10  C   UNL     1       2.373   2.420   1.394  1.00  0.00     0.047 A 
ATOM     11  C   UNL     1       1.122   1.876   1.793  1.00  0.00     0.062 A 
ATOM     12  C   UNL     1       0.516   2.234   3.011  1.00  0.00     0.016 A 
ATOM     13  C   UNL     1       1.164   3.092   3.890  1.00  0.00     0.001 A 
ATOM     14  C   UNL     1       3.022   3.228   2.339  1.00  0.00     0.026 A 
ATOM     15  C   UNL     1       2.426   3.569   3.563  1.00  0.00     0.002 A 
BRANCH  11  16
ATOM     16  C   UNL     1       0.330   0.963   0.927  1.00  0.00     0.250 C 
ATOM     17  N   UNL     1       1.030  -0.014   0.277  1.00  0.00    -0.366 N 
ATOM     18  H   UNL     1       0.560  -0.649  -0.311  1.00  0.00     0.159 HD
ATOM     19  H   UNL     1       2.005  -0.084   0.395  1.00  0.00     0.159 HD
ATOM     20  O   UNL     1      -0.884   1.059   0.827  1.00  0.00    -0.269 OA
ENDBRANCH  11  16
ENDBRANCH   8  10
ENDBRANCH   7   8
BRANCH   7  21
ATOM     21  C   UNL     1       5.310   2.621  -0.086  1.00  0.00     0.025 C 
BRANCH  21  22
ATOM     22  C   UNL     1       6.442   3.486  -0.637  1.00  0.00     0.002 C 
BRANCH  22  23
ATOM     23  C   UNL     1       6.486   4.891  -0.037  1.00  0.00     0.000 CG0
ATOM     24  G   UNL     1       5.492   5.873  -0.645  1.00  0.00     0.000 G0
ENDBRANCH  22  23
ENDBRANCH  21  22
ENDBRANCH   7  21
ENDBRANCH   6   7
BRANCH   6  25
ATOM     25  C   UNL     1       4.028   5.495  -0.427  1.00  0.00     0.015 C 
BRANCH  25  26
ATOM     26  C   UNL     1       5.492   5.873  -0.645  1.00  0.00     0.001 CG0
ATOM     27  G   UNL     1       6.486   4.891  -0.037  1.00  0.00     0.000 G0
ENDBRANCH  25  26
ENDBRANCH   6  25
ENDBRANCH   3   6
ENDBRANCH   1   2
BRANCH   1  28
ATOM     28  C   UNL     1       0.625   6.497   0.611  1.00  0.00     0.042 C 
BRANCH  28  29
ATOM     29  C   UNL     1      -0.869   6.767   0.612  1.00  0.00     0.118 C 
BRANCH  29  30
ATOM     30  N   UNL     1      -1.571   6.050   1.674  1.00  0.00    -0.352 N 
ATOM     31  C   UNL     1      -2.327   6.516   2.721  1.00  0.00     0.251 C 
ATOM     32  H   UNL     1      -1.489   5.070   1.631  1.00  0.00     0.163 HD
ATOM     33  O   UNL     1      -2.684   5.745   3.607  1.00  0.00    -0.269 OA
BRANCH  31  34
ATOM     34  C   UNL     1      -2.688   7.948   2.810  1.00  0.00     0.039 A 
ATOM     35  C   UNL     1      -2.689   8.568   4.063  1.00  0.00     0.014 A 
ATOM     36  C   UNL     1      -3.028   8.681   1.672  1.00  0.00     0.014 A 
ATOM     37  C   UNL     1      -2.947   9.938   4.161  1.00  0.00     0.010 A 
ATOM     38  C   UNL     1      -3.184  10.059   1.756  1.00  0.00     0.010 A 
ATOM     39  C   UNL     1      -3.148  10.702   3.002  1.00  0.00    -0.014 A 
BRANCH  39  40
ATOM     40  C   UNL     1      -3.330  12.174   3.060  1.00  0.00     0.031 A 
ATOM     41  C   UNL     1      -4.605  12.793   2.555  1.00  0.00     0.074 A 
ATOM     42  C   UNL     1      -2.316  12.956   3.477  1.00  0.00     0.049 A 
ATOM     43  N   UNL     1      -4.906  14.057   2.401  1.00  0.00    -0.248 NA
ATOM     44  C   UNL     1      -5.668  11.867   2.131  1.00  0.00     0.031 C 
ATOM     45  C   UNL     1      -1.007  12.480   3.932  1.00  0.00     0.029 A 
ATOM     46  N   UNL     1      -2.221  14.322   3.571  1.00  0.00    -0.354 N 
ATOM     47  C   UNL     1      -6.173  14.075   1.833  1.00  0.00     0.074 A 
ATOM     48  C   UNL     1      -6.568  12.699   1.628  1.00  0.00     0.031 C 
ATOM     49  C   UNL     1      -0.250  13.535   4.276  1.00  0.00     0.029 A 
ATOM     50  C   UNL     1      -1.004  14.760   4.032  1.00  0.00     0.049 A 
ATOM     51  H   UNL     1      -2.957  14.930   3.330  1.00  0.00     0.167 HD
ATOM     52  C   UNL     1      -6.948  15.143   1.529  1.00  0.00     0.037 A 
ATOM     53  C   UNL     1      -0.545  16.010   4.229  1.00  0.00     0.037 A 
ATOM     54  C   UNL     1      -6.577  16.508   1.786  1.00  0.00     0.049 A 
ATOM     55  C   UNL     1      -1.444  17.176   3.929  1.00  0.00     0.074 A 
ATOM     56  C   UNL     1      -7.323  17.657   1.589  1.00  0.00     0.029 A 
ATOM     57  N   UNL     1      -5.356  16.907   2.309  1.00  0.00    -0.354 N 
ATOM     58  N   UNL     1      -2.663  17.176   3.449  1.00  0.00    -0.248 NA
ATOM     59  C   UNL     1      -0.905  18.516   4.204  1.00  0.00     0.031 C 
ATOM     60  C   UNL     1      -6.544  18.754   1.969  1.00  0.00     0.029 A 
ATOM     61  C   UNL     1      -5.325  18.285   2.433  1.00  0.00     0.049 A 
ATOM     62  H   UNL     1      -4.621  16.300   2.555  1.00  0.00     0.167 HD
ATOM     63  C   UNL     1      -3.047  18.508   3.387  1.00  0.00     0.074 A 
ATOM     64  C   UNL     1      -1.936  19.289   3.891  1.00  0.00     0.031 C 
ATOM     65  C   UNL     1      -4.214  19.040   2.951  1.00  0.00     0.037 A 
BRANCH  52  66
ATOM     66  C   UNL     1      -8.282  14.875   0.899  1.00  0.00     0.057 A 
ATOM     67  C   UNL     1      -9.346  14.332   1.630  1.00  0.00     0.134 A 
ATOM     68  C   UNL     1      -8.516  15.197  -0.444  1.00  0.00     0.134 A 
ATOM     69  F   UNL     1      -9.181  13.989   2.916  1.00  0.00    -0.206 F 
ATOM     70  C   UNL     1     -10.590  14.098   1.043  1.00  0.00     0.040 A 
ATOM     71  C   UNL     1      -9.764  14.990  -1.036  1.00  0.00     0.040 A 
ATOM     72  F   UNL     1      -7.541  15.724  -1.199  1.00  0.00    -0.206 F 
ATOM     73  C   UNL     1     -10.803  14.434  -0.293  1.00  0.00     0.006 A 
ENDBRANCH  52  66
BRANCH  53  74
ATOM     74  C   UNL     1       0.823  16.226   4.762  1.00  0.00     0.057 A 
ATOM     75  C   UNL     1       1.020  16.680   6.071  1.00  0.00     0.134 A 
ATOM     76  C   UNL     1       1.960  15.996   3.980  1.00  0.00     0.134 A 
ATOM     77  F   UNL     1      -0.033  16.934   6.863  1.00  0.00    -0.206 F 
ATOM     78  C   UNL     1       2.298  16.918   6.578  1.00  0.00     0.040 A 
ATOM     79  C   UNL     1       3.245  16.209   4.480  1.00  0.00     0.040 A 
ATOM     80  F   UNL     1       1.837  15.553   2.720  1.00  0.00    -0.206 F 
ATOM     81  C   UNL     1       3.416  16.679   5.781  1.00  0.00     0.006 A 
ENDBRANCH  53  74
BRANCH  65  82
ATOM     82  C   UNL     1      -4.360  20.528   3.033  1.00  0.00     0.057 A 
ATOM     83  C   UNL     1      -3.711  21.381   2.132  1.00  0.00     0.134 A 
ATOM     84  C   UNL     1      -5.191  21.110   3.998  1.00  0.00     0.134 A 
ATOM     85  F   UNL     1      -2.892  20.884   1.194  1.00  0.00    -0.206 F 
ATOM     86  C   UNL     1      -3.871  22.766   2.200  1.00  0.00     0.040 A 
ATOM     87  C   UNL     1      -5.375  22.491   4.062  1.00  0.00     0.040 A 
ATOM     88  F   UNL     1      -5.845  20.344   4.884  1.00  0.00    -0.206 F 
ATOM     89  C   UNL     1      -4.711  23.323   3.163  1.00  0.00     0.006 A 
ENDBRANCH  65  82
ENDBRANCH  39  40
ENDBRANCH  31  34
ENDBRANCH  29  30
ENDBRANCH  28  29
ENDBRANCH   1  28
TORSDOF 13
