REMARK SMILES CC1(C)[C@@]2(C(=O)NCCCNC(=O)c3ccc(-c4c5nc(c(-c6c(F)cccc6F)c6ccc([nH]6)c(-c6c(F)cccc6F)c6nc(c(-c7c(F)cccc7F)c7ccc4[nH]7)C=C6)C=C5)cc3)CC[C@]1(C)/C(=N/NC(=O)c1ccc(Cl)cc1)C2
REMARK SMILES IDX 9 1 8 2 7 3 5 4 6 5 4 7 1 8 2 9 3 10 70 11 68 12 84 13 69 14
REMARK SMILES IDX 71 15 72 16 73 17 74 18 75 19 76 21 77 22 78 23 83 24 79 25
REMARK SMILES IDX 82 26 80 27 81 28 10 29 11 30 12 31 13 33 14 34 15 35 67 36
REMARK SMILES IDX 16 37 66 38 17 39 18 40 19 41 60 42 20 43 65 44 59 45 61 46
REMARK SMILES IDX 21 47 64 48 58 49 57 50 22 52 48 53 31 54 47 55 32 56 35 57
REMARK SMILES IDX 46 58 62 59 33 60 34 61 45 63 63 64 36 65 23 66 24 67 29 68
REMARK SMILES IDX 25 69 26 70 28 71 30 72 27 73 49 74 50 75 55 76 51 77 52 78
REMARK SMILES IDX 54 79 56 80 53 81 37 82 38 83 43 84 39 85 40 86 42 87 44 88
REMARK SMILES IDX 41 89
REMARK H PARENT 7 6 74 20 11 32 61 51 35 62
REMARK Flexibility Score: inf
ROOT
ATOM      1  C   UNL     1       5.486   2.439  -3.934  1.00  0.00     0.042 C 
ENDROOT
BRANCH   1   2
ATOM      2  C   UNL     1       4.904   1.618  -2.773  1.00  0.00     0.117 C 
BRANCH   2   3
ATOM      3  N   UNL     1       3.933   2.298  -1.933  1.00  0.00    -0.356 N 
ATOM      4  C   UNL     1       2.827   1.832  -1.285  1.00  0.00     0.227 C 
ATOM      5  O   UNL     1       2.594   2.369  -0.198  1.00  0.00    -0.274 OA
ATOM      6  H   UNL     1       4.102   3.260  -1.810  1.00  0.00     0.163 HD
BRANCH   4   7
ATOM      7  C   UNL     1       1.834   0.849  -1.910  1.00  0.00     0.060 C 
ATOM      8  C   UNL     1       1.183  -0.500   0.238  1.00  0.00     0.013 C 
ATOM      9  C   UNL     1       0.680   0.355  -0.950  1.00  0.00    -0.010 C 
ATOM     10  C   UNL     1      -0.268   1.420  -0.355  1.00  0.00     0.013 C 
ATOM     11  C   UNL     1      -0.007  -0.461  -2.082  1.00  0.00     0.014 C 
ATOM     12  C   UNL     1       2.373  -0.491  -2.486  1.00  0.00     0.019 C 
ATOM     13  C   UNL     1       1.061   1.544  -3.062  1.00  0.00     0.071 C 
ATOM     14  C   UNL     1       1.121  -1.394  -2.570  1.00  0.00     0.014 C 
ATOM     15  C   UNL     1      -1.306  -1.172  -1.758  1.00  0.00     0.018 C 
ATOM     16  C   UNL     1      -0.100   0.606  -3.203  1.00  0.00     0.046 C 
ATOM     17  N   UNL     1      -1.017   0.493  -4.100  1.00  0.00    -0.181 NA
BRANCH  17  18
ATOM     18  N   UNL     1      -1.277   1.184  -5.234  1.00  0.00    -0.243 N 
ATOM     19  C   UNL     1      -0.886   2.326  -5.884  1.00  0.00     0.271 C 
ATOM     20  H   UNL     1      -1.968   0.719  -5.760  1.00  0.00     0.194 HD
ATOM     21  O   UNL     1      -1.366   2.579  -6.997  1.00  0.00    -0.267 OA
BRANCH  19  22
ATOM     22  C   UNL     1       0.043   3.313  -5.354  1.00  0.00     0.041 A 
ATOM     23  C   UNL     1      -0.454   4.429  -4.673  1.00  0.00     0.015 A 
ATOM     24  C   UNL     1       1.396   3.234  -5.695  1.00  0.00     0.015 A 
ATOM     25  C   UNL     1       0.432   5.409  -4.219  1.00  0.00     0.021 A 
ATOM     26  C   UNL     1       2.280   4.204  -5.220  1.00  0.00     0.021 A 
ATOM     27  C   UNL     1       1.798   5.274  -4.464  1.00  0.00     0.041 A 
ATOM     28  Cl  UNL     1       2.900   6.431  -3.829  1.00  0.00    -0.084 Cl
ENDBRANCH  19  22
ENDBRANCH  17  18
ENDBRANCH   4   7
ENDBRANCH   2   3
ENDBRANCH   1   2
BRANCH   1  29
ATOM     29  C   UNL     1       5.899   3.888  -3.634  1.00  0.00     0.118 C 
BRANCH  29  30
ATOM     30  N   UNL     1       7.331   4.100  -3.811  1.00  0.00    -0.352 N 
ATOM     31  C   UNL     1       8.040   4.811  -4.736  1.00  0.00     0.251 C 
ATOM     32  H   UNL     1       7.890   3.646  -3.139  1.00  0.00     0.163 HD
ATOM     33  O   UNL     1       9.277   4.662  -4.760  1.00  0.00    -0.269 OA
BRANCH  31  34
ATOM     34  C   UNL     1       7.433   5.745  -5.715  1.00  0.00     0.039 A 
ATOM     35  C   UNL     1       7.968   5.777  -7.012  1.00  0.00     0.014 A 
ATOM     36  C   UNL     1       6.467   6.692  -5.360  1.00  0.00     0.014 A 
ATOM     37  C   UNL     1       7.529   6.722  -7.948  1.00  0.00     0.010 A 
ATOM     38  C   UNL     1       6.008   7.624  -6.308  1.00  0.00     0.010 A 
ATOM     39  C   UNL     1       6.539   7.655  -7.609  1.00  0.00    -0.014 A 
BRANCH  39  40
ATOM     40  C   UNL     1       6.050   8.640  -8.615  1.00  0.00     0.031 A 
ATOM     41  C   UNL     1       6.421  10.097  -8.531  1.00  0.00     0.074 A 
ATOM     42  C   UNL     1       5.240   8.231  -9.610  1.00  0.00     0.049 A 
ATOM     43  N   UNL     1       6.043  11.092  -9.297  1.00  0.00    -0.248 NA
ATOM     44  C   UNL     1       7.331  10.488  -7.446  1.00  0.00     0.031 C 
ATOM     45  C   UNL     1       4.792   6.855  -9.818  1.00  0.00     0.029 A 
ATOM     46  N   UNL     1       4.636   8.938 -10.623  1.00  0.00    -0.354 N 
ATOM     47  C   UNL     1       6.655  12.227  -8.782  1.00  0.00     0.074 A 
ATOM     48  C   UNL     1       7.417  11.800  -7.626  1.00  0.00     0.031 C 
ATOM     49  C   UNL     1       3.972   6.819 -10.881  1.00  0.00     0.029 A 
ATOM     50  C   UNL     1       3.814   8.172 -11.412  1.00  0.00     0.049 A 
ATOM     51  H   UNL     1       4.779   9.901 -10.768  1.00  0.00     0.167 HD
ATOM     52  C   UNL     1       6.595  13.505  -9.233  1.00  0.00     0.037 A 
ATOM     53  C   UNL     1       3.001   8.514 -12.429  1.00  0.00     0.037 A 
ATOM     54  C   UNL     1       5.862  13.939 -10.395  1.00  0.00     0.049 A 
ATOM     55  C   UNL     1       2.912   9.944 -12.880  1.00  0.00     0.074 A 
ATOM     56  C   UNL     1       5.835  15.197 -10.977  1.00  0.00     0.029 A 
ATOM     57  N   UNL     1       5.013  13.139 -11.142  1.00  0.00    -0.354 N 
ATOM     58  N   UNL     1       3.550  10.992 -12.424  1.00  0.00    -0.248 NA
ATOM     59  C   UNL     1       1.982  10.238 -13.982  1.00  0.00     0.031 C 
ATOM     60  C   UNL     1       4.932  15.169 -12.047  1.00  0.00     0.029 A 
ATOM     61  C   UNL     1       4.423  13.886 -12.150  1.00  0.00     0.049 A 
ATOM     62  H   UNL     1       4.852  12.181 -10.980  1.00  0.00     0.167 HD
ATOM     63  C   UNL     1       3.105  12.067 -13.182  1.00  0.00     0.074 A 
ATOM     64  C   UNL     1       2.155  11.544 -14.140  1.00  0.00     0.031 C 
ATOM     65  C   UNL     1       3.457  13.372 -13.087  1.00  0.00     0.037 A 
BRANCH  52  66
ATOM     66  C   UNL     1       7.338  14.550  -8.455  1.00  0.00     0.057 A 
ATOM     67  C   UNL     1       8.730  14.680  -8.536  1.00  0.00     0.134 A 
ATOM     68  C   UNL     1       6.645  15.476  -7.665  1.00  0.00     0.134 A 
ATOM     69  F   UNL     1       9.451  13.823  -9.275  1.00  0.00    -0.206 F 
ATOM     70  C   UNL     1       9.408  15.684  -7.843  1.00  0.00     0.040 A 
ATOM     71  C   UNL     1       7.310  16.494  -6.982  1.00  0.00     0.040 A 
ATOM     72  F   UNL     1       5.309  15.412  -7.556  1.00  0.00    -0.206 F 
ATOM     73  C   UNL     1       8.697  16.598  -7.066  1.00  0.00     0.006 A 
ENDBRANCH  52  66
BRANCH  53  74
ATOM     74  C   UNL     1       2.170   7.471 -13.076  1.00  0.00     0.057 A 
ATOM     75  C   UNL     1       2.481   6.981 -14.348  1.00  0.00     0.134 A 
ATOM     76  C   UNL     1       1.053   6.933 -12.425  1.00  0.00     0.134 A 
ATOM     77  F   UNL     1       3.525   7.478 -15.026  1.00  0.00    -0.206 F 
ATOM     78  C   UNL     1       1.709   5.989 -14.953  1.00  0.00     0.040 A 
ATOM     79  C   UNL     1       0.284   5.928 -13.010  1.00  0.00     0.040 A 
ATOM     80  F   UNL     1       0.707   7.367 -11.205  1.00  0.00    -0.206 F 
ATOM     81  C   UNL     1       0.611   5.454 -14.280  1.00  0.00     0.006 A 
ENDBRANCH  53  74
BRANCH  65  82
ATOM     82  C   UNL     1       2.802  14.333 -14.033  1.00  0.00     0.057 A 
ATOM     83  C   UNL     1       1.482  14.761 -13.839  1.00  0.00     0.134 A 
ATOM     84  C   UNL     1       3.500  14.862 -15.125  1.00  0.00     0.134 A 
ATOM     85  F   UNL     1       0.755  14.279 -12.820  1.00  0.00    -0.206 F 
ATOM     86  C   UNL     1       0.877  15.674 -14.704  1.00  0.00     0.040 A 
ATOM     87  C   UNL     1       2.911  15.788 -15.988  1.00  0.00     0.040 A 
ATOM     88  F   UNL     1       4.768  14.495 -15.365  1.00  0.00    -0.206 F 
ATOM     89  C   UNL     1       1.595  16.195 -15.780  1.00  0.00     0.006 A 
ENDBRANCH  65  82
ENDBRANCH  39  40
ENDBRANCH  31  34
ENDBRANCH  29  30
ENDBRANCH   1  29
TORSDOF 12
