REMARK SMILES Cc1c(NS(=O)(=O)c2ncn(C)c2Cl)cccc1C(=O)NCCCNC(=O)c1ccc(-c2c3nc(c(-c4c(F)cccc4F)c4ccc([nH]4)c(-c4c(F)cccc4F)c4nc(c(-c5c(F)cccc5F)c5ccc2[nH]5)C=C4)C=C3)cc1
REMARK SMILES IDX 22 1 21 2 19 3 20 4 18 6 1 7 2 8 3 9 15 10 17 11 16 12 4 13
REMARK SMILES IDX 5 15 6 16 7 17 8 18 9 19 13 20 10 21 11 22 14 23 12 24 23 25
REMARK SMILES IDX 24 26 25 27 26 28 27 30 28 31 29 32 81 33 30 34 80 35 31 36
REMARK SMILES IDX 32 37 33 38 74 39 34 40 79 41 73 42 75 43 35 44 78 45 72 46
REMARK SMILES IDX 71 47 36 49 62 50 45 51 61 52 46 53 49 54 60 55 76 56 47 57
REMARK SMILES IDX 48 58 59 60 77 61 50 62 37 63 38 64 43 65 39 66 40 67 42 68
REMARK SMILES IDX 44 69 41 70 63 71 64 72 69 73 65 74 66 75 68 76 70 77 67 78
REMARK SMILES IDX 51 79 52 80 57 81 53 82 54 83 56 84 58 85 55 86
REMARK H PARENT 21 5 4 14 25 29 75 48 49 59
REMARK Flexibility Score: inf
ROOT
ATOM      1  C   UNL     1       3.720   1.410   0.443  1.00  0.00     0.118 C 
ENDROOT
BRANCH   1   2
ATOM      2  N   UNL     1       2.584   2.275   0.181  1.00  0.00    -0.352 N 
ATOM      3  C   UNL     1       1.252   2.132  -0.097  1.00  0.00     0.251 C 
ATOM      4  O   UNL     1       0.684   3.221  -0.262  1.00  0.00    -0.269 OA
ATOM      5  H   UNL     1       2.843   3.224   0.213  1.00  0.00     0.163 HD
BRANCH   3   6
ATOM      6  C   UNL     1       0.403   0.877  -0.194  1.00  0.00     0.044 A 
ATOM      7  C   UNL     1       2.099  -0.921  -0.848  1.00  0.00     0.047 C 
ATOM      8  C   UNL     1       0.749  -0.487  -0.393  1.00  0.00    -0.014 A 
ATOM      9  C   UNL     1      -0.241  -1.504  -0.400  1.00  0.00     0.053 A 
ATOM     10  C   UNL     1      -1.545  -1.112  -0.661  1.00  0.00     0.027 A 
ATOM     11  C   UNL     1      -0.977   1.177  -0.221  1.00  0.00     0.014 A 
ATOM     12  C   UNL     1      -1.931   0.214  -0.528  1.00  0.00     0.003 A 
BRANCH   9  13
ATOM     13  N   UNL     1       0.163  -2.890  -0.503  1.00  0.00    -0.278 N 
ATOM     14  H   UNL     1       0.918  -3.109  -1.095  1.00  0.00     0.180 HD
BRANCH  13  15
ATOM     15  S   UNL     1      -0.589  -4.167   0.338  1.00  0.00     0.282 S 
ATOM     16  O   UNL     1      -0.279  -5.360  -0.417  1.00  0.00    -0.199 OA
ATOM     17  O   UNL     1      -0.171  -4.055   1.724  1.00  0.00    -0.199 OA
BRANCH  15  18
ATOM     18  C   UNL     1      -2.311  -4.044   0.349  1.00  0.00     0.213 A 
ATOM     19  N   UNL     1      -3.128  -4.670  -0.585  1.00  0.00    -0.222 NA
ATOM     20  C   UNL     1      -3.058  -3.180   1.116  1.00  0.00     0.149 A 
ATOM     21  C   UNL     1      -4.308  -4.114  -0.436  1.00  0.00     0.202 A 
ATOM     22  N   UNL     1      -4.267  -3.098   0.484  1.00  0.00    -0.324 N 
ATOM     23  Cl  UNL     1      -2.660  -2.133   2.399  1.00  0.00    -0.061 Cl
ATOM     24  C   UNL     1      -5.178  -1.979   0.460  1.00  0.00     0.152 C 
ENDBRANCH  15  18
ENDBRANCH  13  15
ENDBRANCH   9  13
ENDBRANCH   3   6
ENDBRANCH   1   2
BRANCH   1  25
ATOM     25  C   UNL     1       4.348   0.929  -0.860  1.00  0.00     0.042 C 
BRANCH  25  26
ATOM     26  C   UNL     1       5.669   1.530  -1.254  1.00  0.00     0.118 C 
BRANCH  26  27
ATOM     27  N   UNL     1       6.824   0.689  -0.946  1.00  0.00    -0.352 N 
ATOM     28  C   UNL     1       8.138   0.861  -1.355  1.00  0.00     0.251 C 
ATOM     29  H   UNL     1       6.647  -0.095  -0.378  1.00  0.00     0.163 HD
ATOM     30  O   UNL     1       9.024   0.117  -0.951  1.00  0.00    -0.269 OA
BRANCH  28  31
ATOM     31  C   UNL     1       8.469   2.067  -2.154  1.00  0.00     0.039 A 
ATOM     32  C   UNL     1       9.242   3.016  -1.482  1.00  0.00     0.014 A 
ATOM     33  C   UNL     1       7.600   2.441  -3.171  1.00  0.00     0.014 A 
ATOM     34  C   UNL     1       8.846   4.343  -1.535  1.00  0.00     0.010 A 
ATOM     35  C   UNL     1       7.120   3.733  -3.132  1.00  0.00     0.010 A 
ATOM     36  C   UNL     1       7.687   4.653  -2.243  1.00  0.00    -0.014 A 
BRANCH  36  37
ATOM     37  C   UNL     1       7.041   5.949  -2.162  1.00  0.00     0.031 A 
ATOM     38  C   UNL     1       7.391   6.912  -3.213  1.00  0.00     0.074 A 
ATOM     39  C   UNL     1       6.188   6.275  -1.166  1.00  0.00     0.049 A 
ATOM     40  N   UNL     1       7.407   8.186  -3.051  1.00  0.00    -0.248 NA
ATOM     41  C   UNL     1       7.861   6.484  -4.524  1.00  0.00     0.031 C 
ATOM     42  C   UNL     1       5.371   7.480  -1.056  1.00  0.00     0.029 A 
ATOM     43  N   UNL     1       6.039   5.646   0.073  1.00  0.00    -0.354 N 
ATOM     44  C   UNL     1       7.617   8.753  -4.287  1.00  0.00     0.074 A 
ATOM     45  C   UNL     1       8.007   7.658  -5.138  1.00  0.00     0.031 C 
ATOM     46  C   UNL     1       5.040   7.666   0.232  1.00  0.00     0.029 A 
ATOM     47  C   UNL     1       5.732   6.660   1.015  1.00  0.00     0.049 A 
ATOM     48  H   UNL     1       6.130   4.683   0.257  1.00  0.00     0.167 HD
ATOM     49  C   UNL     1       7.293  10.065  -4.461  1.00  0.00     0.037 A 
ATOM     50  C   UNL     1       6.577   6.908   2.061  1.00  0.00     0.037 A 
ATOM     51  C   UNL     1       6.881  10.661  -3.183  1.00  0.00     0.049 A 
ATOM     52  C   UNL     1       7.297   8.233   1.954  1.00  0.00     0.074 A 
ATOM     53  C   UNL     1       5.654  10.897  -2.583  1.00  0.00     0.029 A 
ATOM     54  N   UNL     1       7.818  10.765  -2.168  1.00  0.00    -0.354 N 
ATOM     55  N   UNL     1       7.102   9.106   1.004  1.00  0.00    -0.248 NA
ATOM     56  C   UNL     1       8.375   8.626   2.860  1.00  0.00     0.031 C 
ATOM     57  C   UNL     1       5.873  11.124  -1.191  1.00  0.00     0.029 A 
ATOM     58  C   UNL     1       7.234  11.061  -0.949  1.00  0.00     0.049 A 
ATOM     59  H   UNL     1       8.786  10.643  -2.298  1.00  0.00     0.167 HD
ATOM     60  C   UNL     1       8.019  10.117   1.116  1.00  0.00     0.074 A 
ATOM     61  C   UNL     1       8.807   9.758   2.283  1.00  0.00     0.031 C 
ATOM     62  C   UNL     1       8.089  11.155   0.228  1.00  0.00     0.037 A 
BRANCH  49  63
ATOM     63  C   UNL     1       7.082  10.714  -5.812  1.00  0.00     0.057 A 
ATOM     64  C   UNL     1       6.260  11.851  -5.928  1.00  0.00     0.134 A 
ATOM     65  C   UNL     1       7.588  10.253  -7.043  1.00  0.00     0.134 A 
ATOM     66  F   UNL     1       5.779  12.483  -4.848  1.00  0.00    -0.206 F 
ATOM     67  C   UNL     1       5.885  12.404  -7.160  1.00  0.00     0.040 A 
ATOM     68  C   UNL     1       7.181  10.761  -8.286  1.00  0.00     0.040 A 
ATOM     69  F   UNL     1       8.556   9.336  -7.118  1.00  0.00    -0.206 F 
ATOM     70  C   UNL     1       6.314  11.837  -8.349  1.00  0.00     0.006 A 
ENDBRANCH  49  63
BRANCH  50  71
ATOM     71  C   UNL     1       7.159   5.643   2.595  1.00  0.00     0.057 A 
ATOM     72  C   UNL     1       6.247   4.701   3.105  1.00  0.00     0.134 A 
ATOM     73  C   UNL     1       8.368   5.161   2.090  1.00  0.00     0.134 A 
ATOM     74  F   UNL     1       5.098   5.109   3.668  1.00  0.00    -0.206 F 
ATOM     75  C   UNL     1       6.404   3.338   2.858  1.00  0.00     0.040 A 
ATOM     76  C   UNL     1       8.548   3.794   1.872  1.00  0.00     0.040 A 
ATOM     77  F   UNL     1       9.313   6.003   1.648  1.00  0.00    -0.206 F 
ATOM     78  C   UNL     1       7.530   2.890   2.174  1.00  0.00     0.006 A 
ENDBRANCH  50  71
BRANCH  62  79
ATOM     79  C   UNL     1       9.026  12.329   0.394  1.00  0.00     0.057 A 
ATOM     80  C   UNL     1       9.371  12.855   1.649  1.00  0.00     0.134 A 
ATOM     81  C   UNL     1       9.544  13.043  -0.707  1.00  0.00     0.134 A 
ATOM     82  F   UNL     1       8.812  12.393   2.777  1.00  0.00    -0.206 F 
ATOM     83  C   UNL     1      10.277  13.912   1.800  1.00  0.00     0.040 A 
ATOM     84  C   UNL     1      10.405  14.134  -0.571  1.00  0.00     0.040 A 
ATOM     85  F   UNL     1       9.252  12.721  -1.974  1.00  0.00    -0.206 F 
ATOM     86  C   UNL     1      10.803  14.552   0.687  1.00  0.00     0.006 A 
ENDBRANCH  62  79
ENDBRANCH  36  37
ENDBRANCH  28  31
ENDBRANCH  26  27
ENDBRANCH  25  26
ENDBRANCH   1  25
TORSDOF 13
