REMARK SMILES Cc1nn(-c2ccccc2)c(C)c1CNC(=O)CCCC(=O)NCCCNC(=O)c1ccc(-c2c3nc(c(-c4c(F)cccc4F)c4ccc([nH]4)c(-c4c(F)cccc4F)c4nc(c(-c5c(F)cccc5F)c5ccc2[nH]5)C=C4)C=C3)cc1
REMARK SMILES IDX 21 1 22 2 23 3 20 5 19 6 18 7 16 8 15 9 17 11 14 12 13 13
REMARK SMILES IDX 1 14 2 15 3 16 4 17 11 18 12 19 5 20 6 21 10 22 7 23 9 24
REMARK SMILES IDX 8 25 24 26 25 27 26 28 27 29 28 30 29 32 30 33 31 34 83 35
REMARK SMILES IDX 32 36 82 37 33 38 34 39 35 40 76 41 36 42 81 43 75 44 77 45
REMARK SMILES IDX 37 46 80 47 74 48 73 49 38 51 64 52 47 53 63 54 48 55 51 56
REMARK SMILES IDX 62 57 78 58 49 59 50 60 61 62 79 63 52 64 39 65 40 66 45 67
REMARK SMILES IDX 41 68 42 69 44 70 46 71 43 72 65 73 66 74 71 75 67 76 68 77
REMARK SMILES IDX 70 78 72 79 69 80 53 81 54 82 59 83 55 84 56 85 58 86 60 87
REMARK SMILES IDX 57 88
REMARK H PARENT 23 4 15 10 27 31 77 50 51 61
REMARK Flexibility Score: inf
ROOT
ATOM      1  C   UNL     1       1.887   2.986   4.121  1.00  0.00     0.220 C 
ATOM      2  O   UNL     1       3.112   2.998   4.270  1.00  0.00    -0.275 OA
ATOM      3  N   UNL     1       1.343   3.984   3.372  1.00  0.00    -0.356 N 
ATOM      4  H   UNL     1       1.974   4.689   3.101  1.00  0.00     0.163 HD
ENDROOT
BRANCH   1   5
ATOM      5  C   UNL     1       1.064   1.837   4.680  1.00  0.00     0.100 C 
BRANCH   5   6
ATOM      6  C   UNL     1      -0.028   2.118   5.694  1.00  0.00     0.020 C 
BRANCH   6   7
ATOM      7  C   UNL     1      -1.446   2.547   5.314  1.00  0.00     0.100 C 
BRANCH   7   8
ATOM      8  C   UNL     1      -2.446   2.033   4.261  1.00  0.00     0.220 C 
ATOM      9  N   UNL     1      -2.253   1.398   3.091  1.00  0.00    -0.352 N 
ATOM     10  H   UNL     1      -3.120   1.145   2.699  1.00  0.00     0.163 HD
ATOM     11  O   UNL     1      -3.645   2.277   4.487  1.00  0.00    -0.275 OA
BRANCH   9  12
ATOM     12  C   UNL     1      -1.172   0.967   2.222  1.00  0.00     0.155 C 
BRANCH  12  13
ATOM     13  C   UNL     1      -0.686  -0.407   2.504  1.00  0.00     0.016 A 
ATOM     14  C   UNL     1       0.962  -0.646   0.469  1.00  0.00     0.069 C 
ATOM     15  C   UNL     1       0.280  -1.104   1.713  1.00  0.00     0.065 A 
ATOM     16  N   UNL     1       0.621  -2.277   2.256  1.00  0.00    -0.173 NA
ATOM     17  N   UNL     1      -0.203  -2.411   3.317  1.00  0.00    -0.237 N 
ATOM     18  C   UNL     1      -0.875  -1.233   3.600  1.00  0.00     0.046 A 
ATOM     19  C   UNL     1      -1.503  -1.006   4.929  1.00  0.00     0.067 C 
BRANCH  17  20
ATOM     20  C   UNL     1      -0.226  -3.577   4.117  1.00  0.00     0.065 A 
ATOM     21  C   UNL     1       0.964  -4.241   4.412  1.00  0.00     0.028 A 
ATOM     22  C   UNL     1      -1.430  -3.967   4.724  1.00  0.00     0.028 A 
ATOM     23  C   UNL     1       0.956  -5.219   5.407  1.00  0.00     0.002 A 
ATOM     24  C   UNL     1      -1.429  -4.940   5.714  1.00  0.00     0.002 A 
ATOM     25  C   UNL     1      -0.231  -5.550   6.071  1.00  0.00     0.000 A 
ENDBRANCH  17  20
ENDBRANCH  12  13
ENDBRANCH   9  12
ENDBRANCH   7   8
ENDBRANCH   6   7
ENDBRANCH   5   6
ENDBRANCH   1   5
BRANCH   3  26
ATOM     26  C   UNL     1      -0.015   4.175   2.911  1.00  0.00     0.117 C 
BRANCH  26  27
ATOM     27  C   UNL     1      -0.791   5.275   3.624  1.00  0.00     0.042 C 
BRANCH  27  28
ATOM     28  C   UNL     1      -0.637   6.621   2.977  1.00  0.00     0.118 C 
BRANCH  28  29
ATOM     29  N   UNL     1      -1.355   6.735   1.702  1.00  0.00    -0.352 N 
ATOM     30  C   UNL     1      -1.230   7.767   0.775  1.00  0.00     0.251 C 
ATOM     31  H   UNL     1      -1.985   6.012   1.481  1.00  0.00     0.163 HD
ATOM     32  O   UNL     1      -2.075   8.012  -0.051  1.00  0.00    -0.269 OA
BRANCH  30  33
ATOM     33  C   UNL     1       0.027   8.532   0.847  1.00  0.00     0.039 A 
ATOM     34  C   UNL     1       0.047   9.913   1.045  1.00  0.00     0.014 A 
ATOM     35  C   UNL     1       1.166   7.752   0.986  1.00  0.00     0.014 A 
ATOM     36  C   UNL     1       1.232  10.490   1.495  1.00  0.00     0.010 A 
ATOM     37  C   UNL     1       2.203   8.280   1.697  1.00  0.00     0.010 A 
ATOM     38  C   UNL     1       2.300   9.652   1.862  1.00  0.00    -0.014 A 
BRANCH  38  39
ATOM     39  C   UNL     1       3.500  10.152   2.522  1.00  0.00     0.031 A 
ATOM     40  C   UNL     1       3.234  11.067   3.661  1.00  0.00     0.074 A 
ATOM     41  C   UNL     1       4.735   9.667   2.252  1.00  0.00     0.049 A 
ATOM     42  N   UNL     1       3.313  12.356   3.661  1.00  0.00    -0.248 NA
ATOM     43  C   UNL     1       2.629  10.515   4.885  1.00  0.00     0.031 C 
ATOM     44  C   UNL     1       5.113   8.526   1.401  1.00  0.00     0.029 A 
ATOM     45  N   UNL     1       5.936  10.056   2.757  1.00  0.00    -0.354 N 
ATOM     46  C   UNL     1       3.033  12.752   4.965  1.00  0.00     0.074 A 
ATOM     47  C   UNL     1       2.395  11.625   5.591  1.00  0.00     0.031 C 
ATOM     48  C   UNL     1       6.392   8.170   1.640  1.00  0.00     0.029 A 
ATOM     49  C   UNL     1       6.987   9.186   2.478  1.00  0.00     0.049 A 
ATOM     50  H   UNL     1       6.053  10.884   3.278  1.00  0.00     0.167 HD
ATOM     51  C   UNL     1       3.639  13.852   5.493  1.00  0.00     0.037 A 
ATOM     52  C   UNL     1       8.273   9.306   2.881  1.00  0.00     0.037 A 
ATOM     53  C   UNL     1       4.269  14.626   4.446  1.00  0.00     0.049 A 
ATOM     54  C   UNL     1       8.475  10.726   3.242  1.00  0.00     0.074 A 
ATOM     55  C   UNL     1       3.846  15.316   3.330  1.00  0.00     0.029 A 
ATOM     56  N   UNL     1       5.610  14.392   4.276  1.00  0.00    -0.354 N 
ATOM     57  N   UNL     1       8.427  11.706   2.382  1.00  0.00    -0.248 NA
ATOM     58  C   UNL     1       8.290  11.105   4.632  1.00  0.00     0.031 C 
ATOM     59  C   UNL     1       4.873  15.122   2.357  1.00  0.00     0.029 A 
ATOM     60  C   UNL     1       5.910  14.391   2.942  1.00  0.00     0.049 A 
ATOM     61  H   UNL     1       6.257  14.247   5.003  1.00  0.00     0.167 HD
ATOM     62  C   UNL     1       7.782  12.734   3.054  1.00  0.00     0.074 A 
ATOM     63  C   UNL     1       7.845  12.353   4.464  1.00  0.00     0.031 C 
ATOM     64  C   UNL     1       7.008  13.632   2.375  1.00  0.00     0.037 A 
BRANCH  51  65
ATOM     65  C   UNL     1       4.098  13.984   6.934  1.00  0.00     0.057 A 
ATOM     66  C   UNL     1       4.690  15.196   7.344  1.00  0.00     0.134 A 
ATOM     67  C   UNL     1       4.283  12.908   7.826  1.00  0.00     0.134 A 
ATOM     68  F   UNL     1       4.594  16.300   6.587  1.00  0.00    -0.206 F 
ATOM     69  C   UNL     1       5.484  15.300   8.494  1.00  0.00     0.040 A 
ATOM     70  C   UNL     1       5.033  13.014   9.002  1.00  0.00     0.040 A 
ATOM     71  F   UNL     1       3.843  11.671   7.573  1.00  0.00    -0.206 F 
ATOM     72  C   UNL     1       5.667  14.201   9.323  1.00  0.00     0.006 A 
ENDBRANCH  51  65
BRANCH  52  73
ATOM     73  C   UNL     1       9.214   8.233   3.268  1.00  0.00     0.057 A 
ATOM     74  C   UNL     1      10.596   8.453   3.317  1.00  0.00     0.134 A 
ATOM     75  C   UNL     1       8.752   7.051   3.874  1.00  0.00     0.134 A 
ATOM     76  F   UNL     1      11.123   9.575   2.804  1.00  0.00    -0.206 F 
ATOM     77  C   UNL     1      11.470   7.559   3.952  1.00  0.00     0.040 A 
ATOM     78  C   UNL     1       9.612   6.150   4.510  1.00  0.00     0.040 A 
ATOM     79  F   UNL     1       7.440   6.782   3.948  1.00  0.00    -0.206 F 
ATOM     80  C   UNL     1      10.976   6.409   4.562  1.00  0.00     0.006 A 
ENDBRANCH  52  73
BRANCH  64  81
ATOM     81  C   UNL     1       7.172  13.714   0.880  1.00  0.00     0.057 A 
ATOM     82  C   UNL     1       6.810  12.705  -0.025  1.00  0.00     0.134 A 
ATOM     83  C   UNL     1       7.574  14.937   0.332  1.00  0.00     0.134 A 
ATOM     84  F   UNL     1       6.341  11.526   0.400  1.00  0.00    -0.206 F 
ATOM     85  C   UNL     1       6.866  12.902  -1.410  1.00  0.00     0.040 A 
ATOM     86  C   UNL     1       7.604  15.158  -1.046  1.00  0.00     0.040 A 
ATOM     87  F   UNL     1       7.893  15.963   1.137  1.00  0.00    -0.206 F 
ATOM     88  C   UNL     1       7.254  14.136  -1.924  1.00  0.00     0.006 A 
ENDBRANCH  64  81
ENDBRANCH  38  39
ENDBRANCH  30  33
ENDBRANCH  28  29
ENDBRANCH  27  28
ENDBRANCH  26  27
ENDBRANCH   3  26
TORSDOF 16
