REMARK SMILES Cc1oc2c(C)c3oc(=O)c(CCC(=O)N[C@H](Cc4ccc(Cl)cc4)C(=O)NCCCNC(=O)c4ccc(-c5c6nc(c(-c7c(F)cccc7F)c7ccc([nH]7)c(-c7c(F)cccc7F)c7nc(c(-c8c(F)cccc8F)c8ccc5[nH]8)C=C7)C=C6)cc4)c(C)c3cc2c1C
REMARK SMILES IDX 29 1 28 2 26 3 27 4 17 6 16 7 14 8 15 9 13 11 12 12 11 13
REMARK SMILES IDX 1 14 2 15 3 16 94 17 4 18 93 19 95 20 5 21 92 22 6 23 7 24
REMARK SMILES IDX 91 25 8 26 89 27 9 28 90 29 10 30 18 31 19 32 20 33 25 34
REMARK SMILES IDX 21 35 24 36 22 37 23 38 30 39 31 40 32 41 33 42 34 44 35 45
REMARK SMILES IDX 36 46 88 47 37 48 87 49 38 50 39 51 40 52 81 53 41 54 86 55
REMARK SMILES IDX 80 56 82 57 42 58 85 59 79 60 78 61 43 63 69 64 52 65 68 66
REMARK SMILES IDX 53 67 56 68 67 69 83 70 54 71 55 72 66 74 84 75 57 76 44 77
REMARK SMILES IDX 45 78 50 79 46 80 47 81 49 82 51 83 48 84 70 85 71 86 76 87
REMARK SMILES IDX 72 88 73 89 75 90 77 91 74 92 58 93 59 94 64 95 60 96 61 97
REMARK SMILES IDX 63 98 65 99 62 100
REMARK H PARENT 28 5 16 10 32 43 82 62 56 73
REMARK Flexibility Score: inf
ROOT
ATOM      1  C   UNL     1      -3.481  -2.540   0.383  1.00  0.00     0.117 C 
ENDROOT
BRANCH   1   2
ATOM      2  N   UNL     1      -3.446  -3.741   1.190  1.00  0.00    -0.354 N 
ATOM      3  C   UNL     1      -3.068  -5.010   0.827  1.00  0.00     0.242 C 
ATOM      4  O   UNL     1      -3.113  -5.886   1.696  1.00  0.00    -0.273 OA
ATOM      5  H   UNL     1      -3.732  -3.633   2.126  1.00  0.00     0.163 HD
BRANCH   3   6
ATOM      6  C   UNL     1      -2.914  -5.388  -0.678  1.00  0.00     0.175 C 
BRANCH   6   7
ATOM      7  N   UNL     1      -1.927  -4.587  -1.432  1.00  0.00    -0.344 N 
ATOM      8  C   UNL     1      -1.926  -3.823  -2.563  1.00  0.00     0.220 C 
ATOM      9  O   UNL     1      -0.804  -3.458  -2.938  1.00  0.00    -0.275 OA
ATOM     10  H   UNL     1      -1.039  -4.611  -1.008  1.00  0.00     0.164 HD
BRANCH   8  11
ATOM     11  C   UNL     1      -3.171  -3.307  -3.329  1.00  0.00     0.105 C 
BRANCH  11  12
ATOM     12  C   UNL     1      -4.097  -4.181  -4.235  1.00  0.00     0.053 C 
BRANCH  12  13
ATOM     13  C   UNL     1      -4.474  -5.546  -3.717  1.00  0.00     0.042 A 
ATOM     14  C   UNL     1      -2.138 -13.194   0.313  1.00  0.00     0.088 C 
ATOM     15  C   UNL     1      -2.492 -11.853  -0.188  1.00  0.00     0.105 A 
ATOM     16  O   UNL     1      -3.814 -11.530  -0.173  1.00  0.00    -0.461 OA
ATOM     17  C   UNL     1      -1.746 -10.831  -0.731  1.00  0.00    -0.002 A 
ATOM     18  C   UNL     1      -3.967 -10.344  -0.843  1.00  0.00     0.141 A 
ATOM     19  C   UNL     1      -2.693  -9.913  -1.273  1.00  0.00     0.025 A 
ATOM     20  C   UNL     1      -0.272 -10.693  -0.835  1.00  0.00     0.049 C 
ATOM     21  C   UNL     1      -5.220  -9.727  -1.042  1.00  0.00     0.036 A 
ATOM     22  C   UNL     1      -2.471  -8.767  -2.076  1.00  0.00     0.024 A 
ATOM     23  C   UNL     1      -6.510 -10.119  -0.430  1.00  0.00     0.052 C 
ATOM     24  C   UNL     1      -4.998  -8.646  -1.864  1.00  0.00     0.145 A 
ATOM     25  C   UNL     1      -3.576  -8.054  -2.451  1.00  0.00     0.022 A 
ATOM     26  O   UNL     1      -6.428  -7.609  -2.242  1.00  0.00    -0.422 OA
ATOM     27  C   UNL     1      -3.361  -6.536  -3.416  1.00  0.00    -0.030 A 
ATOM     28  C   UNL     1      -6.369  -5.874  -3.201  1.00  0.00     0.339 A 
ATOM     29  C   UNL     1      -1.953  -6.446  -3.966  1.00  0.00     0.046 C 
ATOM     30  O   UNL     1      -7.282  -5.076  -3.403  1.00  0.00    -0.246 OA
ENDBRANCH  12  13
ENDBRANCH  11  12
ENDBRANCH   8  11
ENDBRANCH   6   7
BRANCH   6  31
ATOM     31  C   UNL     1      -4.322  -5.312  -1.209  1.00  0.00     0.070 C 
BRANCH  31  32
ATOM     32  C   UNL     1      -5.180  -6.450  -1.858  1.00  0.00    -0.045 A 
ATOM     33  C   UNL     1      -6.690  -6.196  -0.928  1.00  0.00     0.005 A 
ATOM     34  C   UNL     1      -5.405  -7.422  -3.620  1.00  0.00     0.005 A 
ATOM     35  C   UNL     1      -8.155  -6.730  -1.549  1.00  0.00     0.021 A 
ATOM     36  C   UNL     1      -7.034  -7.871  -4.107  1.00  0.00     0.021 A 
ATOM     37  C   UNL     1      -8.314  -7.516  -3.052  1.00  0.00     0.041 A 
ATOM     38  Cl  UNL     1      -9.861  -8.209  -3.396  1.00  0.00    -0.084 Cl
ENDBRANCH  31  32
ENDBRANCH   6  31
ENDBRANCH   3   6
ENDBRANCH   1   2
BRANCH   1  39
ATOM     39  C   UNL     1      -4.876  -1.942   0.144  1.00  0.00     0.042 C 
BRANCH  39  40
ATOM     40  C   UNL     1      -5.464  -1.179   1.339  1.00  0.00     0.118 C 
BRANCH  40  41
ATOM     41  N   UNL     1      -4.547  -0.132   1.758  1.00  0.00    -0.352 N 
ATOM     42  C   UNL     1      -4.668   1.223   1.840  1.00  0.00     0.251 C 
ATOM     43  H   UNL     1      -3.665  -0.468   2.037  1.00  0.00     0.163 HD
ATOM     44  O   UNL     1      -3.643   1.883   1.664  1.00  0.00    -0.269 OA
BRANCH  42  45
ATOM     45  C   UNL     1      -5.902   1.925   2.260  1.00  0.00     0.039 A 
ATOM     46  C   UNL     1      -5.985   3.296   1.964  1.00  0.00     0.014 A 
ATOM     47  C   UNL     1      -6.825   1.363   3.139  1.00  0.00     0.014 A 
ATOM     48  C   UNL     1      -6.943   4.112   2.574  1.00  0.00     0.010 A 
ATOM     49  C   UNL     1      -7.779   2.186   3.758  1.00  0.00     0.010 A 
ATOM     50  C   UNL     1      -7.846   3.570   3.493  1.00  0.00    -0.014 A 
BRANCH  50  51
ATOM     51  C   UNL     1      -9.000   4.416   3.915  1.00  0.00     0.031 A 
ATOM     52  C   UNL     1     -10.300   3.718   3.600  1.00  0.00     0.074 A 
ATOM     53  C   UNL     1      -8.964   5.393   4.865  1.00  0.00     0.049 A 
ATOM     54  N   UNL     1     -10.756   2.797   4.396  1.00  0.00    -0.248 NA
ATOM     55  C   UNL     1     -10.938   3.667   2.286  1.00  0.00     0.031 C 
ATOM     56  C   UNL     1      -8.066   5.419   6.029  1.00  0.00     0.029 A 
ATOM     57  N   UNL     1      -9.826   6.476   5.085  1.00  0.00    -0.354 N 
ATOM     58  C   UNL     1     -11.712   2.037   3.728  1.00  0.00     0.074 A 
ATOM     59  C   UNL     1     -11.802   2.639   2.419  1.00  0.00     0.031 C 
ATOM     60  C   UNL     1      -8.521   6.326   6.921  1.00  0.00     0.029 A 
ATOM     61  C   UNL     1      -9.645   7.078   6.352  1.00  0.00     0.049 A 
ATOM     62  H   UNL     1     -10.489   6.785   4.426  1.00  0.00     0.167 HD
ATOM     63  C   UNL     1     -12.350   1.005   4.370  1.00  0.00     0.037 A 
ATOM     64  C   UNL     1     -10.675   7.568   7.111  1.00  0.00     0.037 A 
ATOM     65  C   UNL     1     -11.915   0.772   5.737  1.00  0.00     0.049 A 
ATOM     66  C   UNL     1     -11.386   6.299   7.491  1.00  0.00     0.074 A 
ATOM     67  C   UNL     1     -11.559  -0.227   6.617  1.00  0.00     0.029 A 
ATOM     68  N   UNL     1     -11.752   1.925   6.435  1.00  0.00    -0.354 N 
ATOM     69  N   UNL     1     -11.011   5.448   8.407  1.00  0.00    -0.248 NA
ATOM     70  C   UNL     1     -12.419   5.808   6.575  1.00  0.00     0.031 C 
ATOM     71  C   UNL     1     -11.156   0.421   7.848  1.00  0.00     0.029 A 
ATOM     72  C   UNL     1     -11.357   1.788   7.714  1.00  0.00     0.049 A 
ATOM     73  H   UNL     1     -11.914   2.808   6.030  1.00  0.00     0.167 HD
ATOM     74  C   UNL     1     -11.570   4.232   8.023  1.00  0.00     0.074 A 
ATOM     75  C   UNL     1     -12.530   4.549   6.974  1.00  0.00     0.031 C 
ATOM     76  C   UNL     1     -11.082   3.016   8.424  1.00  0.00     0.037 A 
BRANCH  63  77
ATOM     77  C   UNL     1     -13.644   0.400   3.953  1.00  0.00     0.057 A 
ATOM     78  C   UNL     1     -14.811   0.880   4.580  1.00  0.00     0.134 A 
ATOM     79  C   UNL     1     -13.775  -0.753   3.179  1.00  0.00     0.134 A 
ATOM     80  F   UNL     1     -14.756   1.975   5.357  1.00  0.00    -0.206 F 
ATOM     81  C   UNL     1     -16.043   0.232   4.473  1.00  0.00     0.040 A 
ATOM     82  C   UNL     1     -15.013  -1.407   3.050  1.00  0.00     0.040 A 
ATOM     83  F   UNL     1     -12.707  -1.296   2.578  1.00  0.00    -0.206 F 
ATOM     84  C   UNL     1     -16.146  -0.924   3.708  1.00  0.00     0.006 A 
ENDBRANCH  63  77
BRANCH  64  85
ATOM     85  C   UNL     1     -11.430   8.781   6.630  1.00  0.00     0.057 A 
ATOM     86  C   UNL     1     -10.710   9.895   6.166  1.00  0.00     0.134 A 
ATOM     87  C   UNL     1     -12.828   8.934   6.619  1.00  0.00     0.134 A 
ATOM     88  F   UNL     1      -9.375   9.936   6.289  1.00  0.00    -0.206 F 
ATOM     89  C   UNL     1     -11.330  11.000   5.567  1.00  0.00     0.040 A 
ATOM     90  C   UNL     1     -13.464  10.014   5.988  1.00  0.00     0.040 A 
ATOM     91  F   UNL     1     -13.635   8.043   7.212  1.00  0.00    -0.206 F 
ATOM     92  C   UNL     1     -12.712  11.038   5.430  1.00  0.00     0.006 A 
ENDBRANCH  64  85
BRANCH  76  93
ATOM     93  C   UNL     1     -10.149   3.014   9.575  1.00  0.00     0.057 A 
ATOM     94  C   UNL     1     -10.590   3.492  10.813  1.00  0.00     0.134 A 
ATOM     95  C   UNL     1      -8.869   2.454   9.508  1.00  0.00     0.134 A 
ATOM     96  F   UNL     1     -11.820   4.014  10.946  1.00  0.00    -0.206 F 
ATOM     97  C   UNL     1      -9.798   3.397  11.952  1.00  0.00     0.040 A 
ATOM     98  C   UNL     1      -8.075   2.329  10.650  1.00  0.00     0.040 A 
ATOM     99  F   UNL     1      -8.372   1.994   8.348  1.00  0.00    -0.206 F 
ATOM    100  C   UNL     1      -8.544   2.796  11.877  1.00  0.00     0.006 A 
ENDBRANCH  76  93
ENDBRANCH  50  51
ENDBRANCH  42  45
ENDBRANCH  40  41
ENDBRANCH  39  40
ENDBRANCH   1  39
TORSDOF 16
