REMARK SMILES Cc1cccc(S(=O)(=O)N[C@@H](CCC(N)=O)C(=O)NCCCNC(=O)c2ccc(-c3c4nc(c(-c5c(F)cccc5F)c5ccc([nH]5)c(-c5c(F)cccc5F)c5nc(c(-c6c(F)cccc6F)c6ccc3[nH]6)C=C5)C=C4)cc2)c1
REMARK SMILES IDX 20 1 19 2 17 3 18 4 11 6 10 7 7 9 8 10 9 11 6 12 1 13 2 14
REMARK SMILES IDX 3 15 80 16 4 17 5 18 12 19 13 20 14 21 15 22 16 23 21 26
REMARK SMILES IDX 22 27 23 28 24 29 25 31 26 32 27 33 79 34 28 35 78 36 29 37
REMARK SMILES IDX 30 38 31 39 72 40 32 41 77 42 71 43 73 44 33 45 76 46 70 47
REMARK SMILES IDX 69 48 34 50 60 51 43 52 59 53 44 54 47 55 58 56 74 57 45 58
REMARK SMILES IDX 46 59 57 61 75 62 48 63 35 64 36 65 41 66 37 67 38 68 40 69
REMARK SMILES IDX 42 70 39 71 61 72 62 73 67 74 63 75 64 76 66 77 68 78 65 79
REMARK SMILES IDX 49 80 50 81 55 82 51 83 52 84 54 85 56 86 53 87
REMARK H PARENT 19 5 10 8 15 24 15 25 23 30 73 49 47 60
REMARK Flexibility Score: inf
ROOT
ATOM      1  C   UNL     1      -1.283   6.681  -0.766  1.00  0.00     0.117 C 
ENDROOT
BRANCH   1   2
ATOM      2  N   UNL     1       0.122   6.319  -0.680  1.00  0.00    -0.355 N 
ATOM      3  C   UNL     1       0.734   5.149  -1.059  1.00  0.00     0.238 C 
ATOM      4  O   UNL     1       1.959   5.068  -0.948  1.00  0.00    -0.273 OA
ATOM      5  H   UNL     1       0.715   7.005  -0.298  1.00  0.00     0.163 HD
BRANCH   3   6
ATOM      6  C   UNL     1      -0.112   3.914  -1.454  1.00  0.00     0.159 C 
BRANCH   6   7
ATOM      7  N   UNL     1      -1.051   3.743  -0.320  1.00  0.00    -0.199 NA
ATOM      8  H   UNL     1      -0.461   3.769   0.512  1.00  0.00     0.142 HD
BRANCH   7   9
ATOM      9  S   UNL     1      -2.101   2.490  -0.052  1.00  0.00     0.241 S 
ATOM     10  O   UNL     1      -2.970   2.401  -1.214  1.00  0.00    -0.207 OA
ATOM     11  O   UNL     1      -2.632   2.723   1.264  1.00  0.00    -0.207 OA
BRANCH   9  12
ATOM     12  C   UNL     1      -1.143   1.004   0.030  1.00  0.00     0.082 A 
ATOM     13  C   UNL     1       2.472  -0.154   0.213  1.00  0.00     0.044 C 
ATOM     14  C   UNL     1       0.973  -0.169   0.147  1.00  0.00    -0.050 A 
ATOM     15  C   UNL     1       0.290  -1.381  -0.020  1.00  0.00     0.003 A 
ATOM     16  C   UNL     1       0.241   1.023   0.223  1.00  0.00     0.025 A 
ATOM     17  C   UNL     1      -1.100  -1.403  -0.139  1.00  0.00     0.002 A 
ATOM     18  C   UNL     1      -1.818  -0.209  -0.134  1.00  0.00     0.022 A 
ENDBRANCH   9  12
ENDBRANCH   7   9
ENDBRANCH   6   7
BRANCH   6  19
ATOM     19  C   UNL     1      -0.680   3.853  -2.880  1.00  0.00     0.040 C 
BRANCH  19  20
ATOM     20  C   UNL     1      -1.399   5.043  -3.521  1.00  0.00     0.102 C 
BRANCH  20  21
ATOM     21  C   UNL     1      -0.481   6.193  -3.885  1.00  0.00     0.217 C 
ATOM     22  N   UNL     1      -1.114   7.335  -4.276  1.00  0.00    -0.370 N 
ATOM     23  O   UNL     1       0.741   6.140  -3.848  1.00  0.00    -0.275 OA
ATOM     24  H   UNL     1      -2.098   7.369  -4.302  1.00  0.00     0.159 HD
ATOM     25  H   UNL     1      -0.587   8.127  -4.532  1.00  0.00     0.159 HD
ENDBRANCH  20  21
ENDBRANCH  19  20
ENDBRANCH   6  19
ENDBRANCH   3   6
ENDBRANCH   1   2
BRANCH   1  26
ATOM     26  C   UNL     1      -1.869   7.212   0.523  1.00  0.00     0.042 C 
BRANCH  26  27
ATOM     27  C   UNL     1      -1.608   8.692   0.699  1.00  0.00     0.118 C 
BRANCH  27  28
ATOM     28  N   UNL     1      -2.423   9.567  -0.143  1.00  0.00    -0.352 N 
ATOM     29  C   UNL     1      -2.441  10.950  -0.239  1.00  0.00     0.251 C 
ATOM     30  H   UNL     1      -3.058   9.101  -0.734  1.00  0.00     0.163 HD
ATOM     31  O   UNL     1      -3.225  11.484  -1.020  1.00  0.00    -0.269 OA
BRANCH  29  32
ATOM     32  C   UNL     1      -1.405  11.771   0.445  1.00  0.00     0.039 A 
ATOM     33  C   UNL     1      -0.896  12.880  -0.244  1.00  0.00     0.014 A 
ATOM     34  C   UNL     1      -0.712  11.268   1.532  1.00  0.00     0.014 A 
ATOM     35  C   UNL     1       0.440  13.227  -0.075  1.00  0.00     0.010 A 
ATOM     36  C   UNL     1       0.644  11.461   1.563  1.00  0.00     0.010 A 
ATOM     37  C   UNL     1       1.228  12.397   0.710  1.00  0.00    -0.014 A 
BRANCH  37  38
ATOM     38  C   UNL     1       2.678  12.377   0.717  1.00  0.00     0.031 A 
ATOM     39  C   UNL     1       3.382  12.900   1.898  1.00  0.00     0.074 A 
ATOM     40  C   UNL     1       3.314  11.655  -0.230  1.00  0.00     0.049 A 
ATOM     41  N   UNL     1       4.644  13.126   1.961  1.00  0.00    -0.248 NA
ATOM     42  C   UNL     1       2.677  13.231   3.130  1.00  0.00     0.031 C 
ATOM     43  C   UNL     1       4.696  11.188  -0.226  1.00  0.00     0.029 A 
ATOM     44  N   UNL     1       2.856  11.356  -1.521  1.00  0.00    -0.354 N 
ATOM     45  C   UNL     1       4.966  13.343   3.283  1.00  0.00     0.074 A 
ATOM     46  C   UNL     1       3.697  13.476   3.953  1.00  0.00     0.031 C 
ATOM     47  C   UNL     1       5.078  10.967  -1.496  1.00  0.00     0.029 A 
ATOM     48  C   UNL     1       4.001  11.434  -2.353  1.00  0.00     0.049 A 
ATOM     49  H   UNL     1       1.935  11.139  -1.792  1.00  0.00     0.167 HD
ATOM     50  C   UNL     1       6.278  13.255   3.651  1.00  0.00     0.037 A 
ATOM     51  C   UNL     1       4.104  12.462  -3.249  1.00  0.00     0.037 A 
ATOM     52  C   UNL     1       7.129  13.138   2.460  1.00  0.00     0.049 A 
ATOM     53  C   UNL     1       5.193  13.467  -2.919  1.00  0.00     0.074 A 
ATOM     54  C   UNL     1       7.733  12.083   1.795  1.00  0.00     0.029 A 
ATOM     55  N   UNL     1       7.164  14.206   1.579  1.00  0.00    -0.354 N 
ATOM     56  N   UNL     1       5.957  13.409  -1.862  1.00  0.00    -0.248 NA
ATOM     57  C   UNL     1       5.454  14.662  -3.723  1.00  0.00     0.031 C 
ATOM     58  C   UNL     1       8.035  12.516   0.466  1.00  0.00     0.029 A 
ATOM     59  C   UNL     1       7.640  13.836   0.337  1.00  0.00     0.049 A 
ATOM     60  H   UNL     1       6.883  15.120   1.812  1.00  0.00     0.167 HD
ATOM     61  C   UNL     1       6.734  14.533  -1.795  1.00  0.00     0.074 A 
ATOM     62  C   UNL     1       6.393  15.285  -2.989  1.00  0.00     0.031 C 
ATOM     63  C   UNL     1       7.577  14.799  -0.755  1.00  0.00     0.037 A 
BRANCH  50  64
ATOM     64  C   UNL     1       6.784  13.060   5.067  1.00  0.00     0.057 A 
ATOM     65  C   UNL     1       8.086  12.567   5.286  1.00  0.00     0.134 A 
ATOM     66  C   UNL     1       6.053  13.264   6.253  1.00  0.00     0.134 A 
ATOM     67  F   UNL     1       8.951  12.391   4.277  1.00  0.00    -0.206 F 
ATOM     68  C   UNL     1       8.576  12.225   6.555  1.00  0.00     0.040 A 
ATOM     69  C   UNL     1       6.515  12.893   7.524  1.00  0.00     0.040 A 
ATOM     70  F   UNL     1       4.874  13.886   6.273  1.00  0.00    -0.206 F 
ATOM     71  C   UNL     1       7.780  12.360   7.680  1.00  0.00     0.006 A 
ENDBRANCH  50  64
BRANCH  51  72
ATOM     72  C   UNL     1       2.784  12.778  -3.869  1.00  0.00     0.057 A 
ATOM     73  C   UNL     1       2.165  11.779  -4.646  1.00  0.00     0.134 A 
ATOM     74  C   UNL     1       1.961  13.788  -3.364  1.00  0.00     0.134 A 
ATOM     75  F   UNL     1       2.898  10.789  -5.178  1.00  0.00    -0.206 F 
ATOM     76  C   UNL     1       0.776  11.698  -4.775  1.00  0.00     0.040 A 
ATOM     77  C   UNL     1       0.569  13.727  -3.507  1.00  0.00     0.040 A 
ATOM     78  F   UNL     1       2.471  14.770  -2.606  1.00  0.00    -0.206 F 
ATOM     79  C   UNL     1      -0.029  12.653  -4.164  1.00  0.00     0.006 A 
ENDBRANCH  51  72
BRANCH  63  80
ATOM     80  C   UNL     1       8.425  16.033  -0.711  1.00  0.00     0.057 A 
ATOM     81  C   UNL     1       9.267  16.386  -1.772  1.00  0.00     0.134 A 
ATOM     82  C   UNL     1       8.520  16.830   0.445  1.00  0.00     0.134 A 
ATOM     83  F   UNL     1       9.276  15.672  -2.909  1.00  0.00    -0.206 F 
ATOM     84  C   UNL     1      10.139  17.477  -1.696  1.00  0.00     0.040 A 
ATOM     85  C   UNL     1       9.425  17.887   0.554  1.00  0.00     0.040 A 
ATOM     86  F   UNL     1       7.723  16.624   1.505  1.00  0.00    -0.206 F 
ATOM     87  C   UNL     1      10.234  18.219  -0.523  1.00  0.00     0.006 A 
ENDBRANCH  63  80
ENDBRANCH  37  38
ENDBRANCH  29  32
ENDBRANCH  27  28
ENDBRANCH  26  27
ENDBRANCH   1  26
TORSDOF 16
