REMARK SMILES O=C(C[C@@H]1C[N@@H+]([C@H]2CCO[C@]3(CCOC3)C2)CCO1)NCCCNC(=O)c1ccc(-c2c3nc(c(-c4c(F)cccc4F)c4ccc([nH]4)c(-c4c(F)cccc4F)c4nc(c(-c5c(F)cccc5F)c5ccc2[nH]5)C=C4)C=C3)cc1
REMARK SMILES IDX 22 1 21 2 20 3 1 4 2 5 3 7 4 8 5 9 19 10 6 11 18 12 17 13
REMARK SMILES IDX 7 15 8 16 16 17 9 18 11 19 10 20 12 21 15 22 13 23 14 24
REMARK SMILES IDX 23 25 24 26 25 27 26 29 27 30 28 31 80 32 29 33 79 34 30 35
REMARK SMILES IDX 31 36 32 37 73 38 33 39 78 40 72 41 74 42 34 43 77 44 71 45
REMARK SMILES IDX 70 46 35 48 61 49 44 50 60 51 45 52 48 53 59 54 75 55 46 56
REMARK SMILES IDX 47 57 58 59 76 60 49 61 36 62 37 63 42 64 38 65 39 66 41 67
REMARK SMILES IDX 43 68 40 69 62 70 63 71 68 72 64 73 65 74 67 75 69 76 66 77
REMARK SMILES IDX 50 78 51 79 56 80 52 81 53 82 55 83 57 84 54 85
REMARK H PARENT 20 6 6 14 24 28 74 47 48 58
REMARK Flexibility Score: inf
ROOT
ATOM      1  C   UNL     1       3.831   4.407  -8.317  1.00  0.00     0.042 C 
ENDROOT
BRANCH   1   2
ATOM      2  C   UNL     1       3.453   3.680  -7.034  1.00  0.00     0.117 C 
BRANCH   2   3
ATOM      3  N   UNL     1       4.447   2.699  -6.666  1.00  0.00    -0.356 N 
ATOM      4  O   UNL     1       5.400   3.840  -4.916  1.00  0.00    -0.275 OA
ATOM      5  C   UNL     1       5.336   2.846  -5.630  1.00  0.00     0.222 C 
ATOM      6  H   UNL     1       4.490   1.869  -7.194  1.00  0.00     0.163 HD
BRANCH   5   7
ATOM      7  C   UNL     1       6.279   1.667  -5.466  1.00  0.00     0.138 C 
BRANCH   7   8
ATOM      8  C   UNL     1       5.486   0.360  -5.464  1.00  0.00     0.182 C 
ATOM      9  C   UNL     1       6.284  -0.804  -4.840  1.00  0.00     0.295 C 
ATOM     10  O   UNL     1       5.123   0.036  -6.825  1.00  0.00    -0.366 OA
ATOM     11  N   UNL     1       5.559  -2.091  -4.850  1.00  0.00    -0.328 N 
ATOM     12  C   UNL     1       4.294  -1.137  -6.844  1.00  0.00     0.222 C 
ATOM     13  C   UNL     1       4.997  -2.337  -6.190  1.00  0.00     0.291 C 
ATOM     14  H   UNL     1       6.216  -2.859  -4.708  1.00  0.00     0.348 HD
BRANCH  11  15
ATOM     15  C   UNL     1       4.712  -2.335  -3.661  1.00  0.00     0.189 C 
ATOM     16  C   UNL     1       3.616  -1.302  -3.368  1.00  0.00     0.093 C 
ATOM     17  C   UNL     1       4.116  -3.760  -3.626  1.00  0.00     0.103 C 
ATOM     18  C   UNL     1       2.793  -1.673  -2.146  1.00  0.00     0.167 C 
ATOM     19  C   UNL     1       3.255  -4.004  -2.370  1.00  0.00     0.099 C 
ATOM     20  O   UNL     1       2.259  -2.984  -2.266  1.00  0.00    -0.372 OA
ATOM     21  C   UNL     1       4.063  -4.160  -1.085  1.00  0.00     0.066 C 
ATOM     22  C   UNL     1       2.558  -5.362  -2.452  1.00  0.00     0.195 C 
ATOM     23  C   UNL     1       4.216  -5.657  -0.887  1.00  0.00     0.163 C 
ATOM     24  O   UNL     1       3.481  -6.316  -1.921  1.00  0.00    -0.378 OA
ENDBRANCH  11  15
ENDBRANCH   7   8
ENDBRANCH   5   7
ENDBRANCH   2   3
ENDBRANCH   1   2
BRANCH   1  25
ATOM     25  C   UNL     1       4.082   3.489  -9.511  1.00  0.00     0.118 C 
BRANCH  25  26
ATOM     26  N   UNL     1       2.901   2.747  -9.930  1.00  0.00    -0.352 N 
ATOM     27  C   UNL     1       2.335   2.618 -11.174  1.00  0.00     0.251 C 
ATOM     28  H   UNL     1       2.437   2.264  -9.209  1.00  0.00     0.163 HD
ATOM     29  O   UNL     1       1.260   2.038 -11.293  1.00  0.00    -0.269 OA
BRANCH  27  30
ATOM     30  C   UNL     1       2.992   3.194 -12.370  1.00  0.00     0.039 A 
ATOM     31  C   UNL     1       2.197   3.843 -13.319  1.00  0.00     0.014 A 
ATOM     32  C   UNL     1       4.369   3.079 -12.579  1.00  0.00     0.014 A 
ATOM     33  C   UNL     1       2.789   4.426 -14.443  1.00  0.00     0.010 A 
ATOM     34  C   UNL     1       4.967   3.728 -13.660  1.00  0.00     0.010 A 
ATOM     35  C   UNL     1       4.183   4.403 -14.608  1.00  0.00    -0.014 A 
BRANCH  35  36
ATOM     36  C   UNL     1       4.827   5.077 -15.767  1.00  0.00     0.031 A 
ATOM     37  C   UNL     1       5.588   4.277 -16.790  1.00  0.00     0.074 A 
ATOM     38  C   UNL     1       4.763   6.418 -15.879  1.00  0.00     0.049 A 
ATOM     39  N   UNL     1       6.234   4.692 -17.852  1.00  0.00    -0.248 NA
ATOM     40  C   UNL     1       5.653   2.822 -16.581  1.00  0.00     0.031 C 
ATOM     41  C   UNL     1       4.101   7.316 -14.932  1.00  0.00     0.029 A 
ATOM     42  N   UNL     1       5.265   7.261 -16.840  1.00  0.00    -0.354 N 
ATOM     43  C   UNL     1       6.787   3.556 -18.428  1.00  0.00     0.074 A 
ATOM     44  C   UNL     1       6.450   2.442 -17.568  1.00  0.00     0.031 C 
ATOM     45  C   UNL     1       4.212   8.580 -15.372  1.00  0.00     0.029 A 
ATOM     46  C   UNL     1       4.981   8.586 -16.612  1.00  0.00     0.049 A 
ATOM     47  H   UNL     1       5.779   6.946 -17.617  1.00  0.00     0.167 HD
ATOM     48  C   UNL     1       7.491   3.444 -19.581  1.00  0.00     0.037 A 
ATOM     49  C   UNL     1       5.305   9.684 -17.322  1.00  0.00     0.037 A 
ATOM     50  C   UNL     1       7.811   4.549 -20.447  1.00  0.00     0.049 A 
ATOM     51  C   UNL     1       6.087   9.533 -18.597  1.00  0.00     0.074 A 
ATOM     52  C   UNL     1       8.476   4.528 -21.661  1.00  0.00     0.029 A 
ATOM     53  N   UNL     1       7.492   5.873 -20.190  1.00  0.00    -0.354 N 
ATOM     54  N   UNL     1       6.545   8.444 -19.165  1.00  0.00    -0.248 NA
ATOM     55  C   UNL     1       6.386  10.767 -19.338  1.00  0.00     0.031 C 
ATOM     56  C   UNL     1       8.598   5.845 -22.117  1.00  0.00     0.029 A 
ATOM     57  C   UNL     1       7.962   6.681 -21.214  1.00  0.00     0.049 A 
ATOM     58  H   UNL     1       7.004   6.193 -19.397  1.00  0.00     0.167 HD
ATOM     59  C   UNL     1       7.156   8.856 -20.343  1.00  0.00     0.074 A 
ATOM     60  C   UNL     1       6.995  10.293 -20.415  1.00  0.00     0.031 C 
ATOM     61  C   UNL     1       7.791   8.110 -21.280  1.00  0.00     0.037 A 
BRANCH  48  62
ATOM     62  C   UNL     1       7.960   2.072 -19.974  1.00  0.00     0.057 A 
ATOM     63  C   UNL     1       7.067   1.076 -20.390  1.00  0.00     0.134 A 
ATOM     64  C   UNL     1       9.324   1.751 -19.967  1.00  0.00     0.134 A 
ATOM     65  F   UNL     1       5.746   1.312 -20.409  1.00  0.00    -0.206 F 
ATOM     66  C   UNL     1       7.509  -0.197 -20.758  1.00  0.00     0.040 A 
ATOM     67  C   UNL     1       9.781   0.492 -20.361  1.00  0.00     0.040 A 
ATOM     68  F   UNL     1      10.236   2.659 -19.587  1.00  0.00    -0.206 F 
ATOM     69  C   UNL     1       8.871  -0.488 -20.751  1.00  0.00     0.006 A 
ENDBRANCH  48  62
BRANCH  49  70
ATOM     70  C   UNL     1       4.865  11.025 -16.860  1.00  0.00     0.057 A 
ATOM     71  C   UNL     1       3.892  11.747 -17.562  1.00  0.00     0.134 A 
ATOM     72  C   UNL     1       5.415  11.624 -15.721  1.00  0.00     0.134 A 
ATOM     73  F   UNL     1       3.342  11.235 -18.673  1.00  0.00    -0.206 F 
ATOM     74  C   UNL     1       3.499  13.025 -17.163  1.00  0.00     0.040 A 
ATOM     75  C   UNL     1       5.012  12.890 -15.294  1.00  0.00     0.040 A 
ATOM     76  F   UNL     1       6.346  10.982 -15.001  1.00  0.00    -0.206 F 
ATOM     77  C   UNL     1       4.057  13.598 -16.022  1.00  0.00     0.006 A 
ENDBRANCH  49  70
BRANCH  61  78
ATOM     78  C   UNL     1       8.319   8.832 -22.487  1.00  0.00     0.057 A 
ATOM     79  C   UNL     1       9.419   9.696 -22.416  1.00  0.00     0.134 A 
ATOM     80  C   UNL     1       7.724   8.646 -23.742  1.00  0.00     0.134 A 
ATOM     81  F   UNL     1      10.027   9.927 -21.242  1.00  0.00    -0.206 F 
ATOM     82  C   UNL     1       9.887  10.375 -23.542  1.00  0.00     0.040 A 
ATOM     83  C   UNL     1       8.202   9.297 -24.880  1.00  0.00     0.040 A 
ATOM     84  F   UNL     1       6.673   7.825 -23.884  1.00  0.00    -0.206 F 
ATOM     85  C   UNL     1       9.281  10.172 -24.780  1.00  0.00     0.006 A 
ENDBRANCH  61  78
ENDBRANCH  35  36
ENDBRANCH  27  30
ENDBRANCH  25  26
ENDBRANCH   1  25
TORSDOF 12
