REMARK SMILES Cc1cc(OC(F)(F)F)cc2c1O[C@@H](C(F)(F)F)C(C(=O)NCCCNC(=O)c1ccc(-c3c4nc(c(-c5c(F)cccc5F)c5ccc([nH]5)c(-c5c(F)cccc5F)c5nc(c(-c6c(F)cccc6F)c6ccc3[nH]6)C=C5)C=C4)cc1)=C2
REMARK SMILES IDX 24 1 23 2 22 3 20 4 21 5 19 7 1 8 2 9 3 10 12 11 4 12 11 13
REMARK SMILES IDX 13 14 10 15 83 16 14 17 5 18 6 19 7 20 8 21 9 22 15 23 16 24
REMARK SMILES IDX 17 25 18 26 25 27 26 28 27 29 28 31 29 32 30 33 82 34 31 35
REMARK SMILES IDX 81 36 32 37 33 38 34 39 75 40 35 41 80 42 74 43 76 44 36 45
REMARK SMILES IDX 79 46 73 47 72 48 37 50 63 51 46 52 62 53 47 54 50 55 61 56
REMARK SMILES IDX 77 57 48 58 49 59 60 61 78 62 51 63 38 64 39 65 44 66 40 67
REMARK SMILES IDX 41 68 43 69 45 70 42 71 64 72 65 73 70 74 66 75 67 76 69 77
REMARK SMILES IDX 71 78 68 79 52 80 53 81 58 82 54 83 55 84 57 85 59 86 56 87
REMARK H PARENT 22 6 26 30 76 49 50 60
REMARK Flexibility Score: inf
ROOT
ATOM      1  C   UNL     1      -2.098  -3.435   5.929  1.00  0.00     0.042 C 
ENDROOT
BRANCH   1   2
ATOM      2  C   UNL     1      -3.031  -2.374   5.351  1.00  0.00     0.118 C 
BRANCH   2   3
ATOM      3  N   UNL     1      -2.825  -1.077   5.979  1.00  0.00    -0.352 N 
ATOM      4  C   UNL     1      -2.255   0.105   5.647  1.00  0.00     0.251 C 
ATOM      5  O   UNL     1      -2.399   1.011   6.474  1.00  0.00    -0.270 OA
ATOM      6  H   UNL     1      -3.203  -1.052   6.887  1.00  0.00     0.163 HD
BRANCH   4   7
ATOM      7  C   UNL     1      -1.485   0.365   4.398  1.00  0.00     0.067 C 
ATOM      8  C   UNL     1       0.970   0.181  -0.129  1.00  0.00     0.048 C 
ATOM      9  C   UNL     1       0.576   1.253   0.849  1.00  0.00    -0.005 A 
ATOM     10  C   UNL     1       0.962   2.578   0.594  1.00  0.00     0.054 A 
ATOM     11  C   UNL     1      -0.146   0.969   2.013  1.00  0.00     0.131 A 
ATOM     12  C   UNL     1       0.625   3.606   1.478  1.00  0.00     0.130 A 
ATOM     13  C   UNL     1      -0.498   1.986   2.904  1.00  0.00     0.021 A 
ATOM     14  O   UNL     1      -0.529  -0.327   2.212  1.00  0.00    -0.475 OA
ATOM     15  C   UNL     1      -0.105   3.301   2.633  1.00  0.00     0.058 A 
ATOM     16  C   UNL     1      -1.300   1.660   4.080  1.00  0.00     0.025 C 
ATOM     17  C   UNL     1      -0.836  -0.710   3.575  1.00  0.00     0.314 C 
BRANCH  12  18
ATOM     18  O   UNL     1       0.941   4.927   1.333  1.00  0.00    -0.406 OA
BRANCH  18  19
ATOM     19  C   UNL     1       1.611   5.316   0.144  1.00  0.00     0.573 C 
ATOM     20  F   UNL     1       2.821   4.724   0.050  1.00  0.00    -0.132 F 
ATOM     21  F   UNL     1       0.877   5.017  -0.950  1.00  0.00    -0.132 F 
ATOM     22  F   UNL     1       1.800   6.654   0.168  1.00  0.00    -0.132 F 
ENDBRANCH  18  19
ENDBRANCH  12  18
BRANCH  17  23
ATOM     23  C   UNL     1       0.395  -1.339   4.244  1.00  0.00     0.429 C 
ATOM     24  F   UNL     1       1.551  -0.731   3.900  1.00  0.00    -0.167 F 
ATOM     25  F   UNL     1       0.321  -1.316   5.595  1.00  0.00    -0.167 F 
ATOM     26  F   UNL     1       0.502  -2.644   3.885  1.00  0.00    -0.167 F 
ENDBRANCH  17  23
ENDBRANCH   4   7
ENDBRANCH   2   3
ENDBRANCH   1   2
BRANCH   1  27
ATOM     27  C   UNL     1      -2.559  -3.919   7.300  1.00  0.00     0.118 C 
BRANCH  27  28
ATOM     28  N   UNL     1      -3.734  -4.775   7.191  1.00  0.00    -0.352 N 
ATOM     29  C   UNL     1      -3.821  -6.142   7.299  1.00  0.00     0.251 C 
ATOM     30  H   UNL     1      -4.583  -4.309   7.014  1.00  0.00     0.163 HD
ATOM     31  O   UNL     1      -4.816  -6.733   6.899  1.00  0.00    -0.269 OA
BRANCH  29  32
ATOM     32  C   UNL     1      -2.701  -6.892   7.900  1.00  0.00     0.039 A 
ATOM     33  C   UNL     1      -2.240  -8.053   7.275  1.00  0.00     0.014 A 
ATOM     34  C   UNL     1      -2.120  -6.448   9.091  1.00  0.00     0.014 A 
ATOM     35  C   UNL     1      -1.156  -8.741   7.822  1.00  0.00     0.010 A 
ATOM     36  C   UNL     1      -0.993  -7.089   9.591  1.00  0.00     0.010 A 
ATOM     37  C   UNL     1      -0.513  -8.251   8.970  1.00  0.00    -0.014 A 
BRANCH  37  38
ATOM     38  C   UNL     1       0.634  -8.973   9.569  1.00  0.00     0.031 A 
ATOM     39  C   UNL     1       0.481  -9.626  10.913  1.00  0.00     0.074 A 
ATOM     40  C   UNL     1       1.814  -9.008   8.924  1.00  0.00     0.049 A 
ATOM     41  N   UNL     1       1.359 -10.301  11.610  1.00  0.00    -0.248 NA
ATOM     42  C   UNL     1      -0.827  -9.480  11.572  1.00  0.00     0.031 C 
ATOM     43  C   UNL     1       2.095  -8.374   7.635  1.00  0.00     0.029 A 
ATOM     44  N   UNL     1       3.002  -9.599   9.272  1.00  0.00    -0.354 N 
ATOM     45  C   UNL     1       0.708 -10.664  12.782  1.00  0.00     0.074 A 
ATOM     46  C   UNL     1      -0.610 -10.070  12.737  1.00  0.00     0.031 C 
ATOM     47  C   UNL     1       3.367  -8.632   7.288  1.00  0.00     0.029 A 
ATOM     48  C   UNL     1       3.997  -9.423   8.342  1.00  0.00     0.049 A 
ATOM     49  H   UNL     1       3.129 -10.102  10.108  1.00  0.00     0.167 HD
ATOM     50  C   UNL     1       1.155 -11.448  13.792  1.00  0.00     0.037 A 
ATOM     51  C   UNL     1       5.271  -9.854   8.344  1.00  0.00     0.037 A 
ATOM     52  C   UNL     1       2.471 -12.028  13.838  1.00  0.00     0.049 A 
ATOM     53  C   UNL     1       5.761 -10.680   9.503  1.00  0.00     0.074 A 
ATOM     54  C   UNL     1       3.013 -12.868  14.794  1.00  0.00     0.029 A 
ATOM     55  N   UNL     1       3.459 -11.812  12.888  1.00  0.00    -0.354 N 
ATOM     56  N   UNL     1       5.111 -11.086  10.568  1.00  0.00    -0.248 NA
ATOM     57  C   UNL     1       7.164 -11.113   9.454  1.00  0.00     0.031 C 
ATOM     58  C   UNL     1       4.348 -13.115  14.451  1.00  0.00     0.029 A 
ATOM     59  C   UNL     1       4.619 -12.477  13.251  1.00  0.00     0.049 A 
ATOM     60  H   UNL     1       3.352 -11.267  12.075  1.00  0.00     0.167 HD
ATOM     61  C   UNL     1       6.016 -11.844  11.300  1.00  0.00     0.074 A 
ATOM     62  C   UNL     1       7.253 -11.860  10.545  1.00  0.00     0.031 C 
ATOM     63  C   UNL     1       5.844 -12.471  12.491  1.00  0.00     0.037 A 
BRANCH  50  64
ATOM     64  C   UNL     1       0.204 -11.707  14.925  1.00  0.00     0.057 A 
ATOM     65  C   UNL     1       0.443 -11.178  16.199  1.00  0.00     0.134 A 
ATOM     66  C   UNL     1      -0.959 -12.473  14.754  1.00  0.00     0.134 A 
ATOM     67  F   UNL     1       1.537 -10.439  16.436  1.00  0.00    -0.206 F 
ATOM     68  C   UNL     1      -0.443 -11.392  17.257  1.00  0.00     0.040 A 
ATOM     69  C   UNL     1      -1.868 -12.667  15.795  1.00  0.00     0.040 A 
ATOM     70  F   UNL     1      -1.257 -12.998  13.555  1.00  0.00    -0.206 F 
ATOM     71  C   UNL     1      -1.608 -12.129  17.053  1.00  0.00     0.006 A 
ENDBRANCH  50  64
BRANCH  51  72
ATOM     72  C   UNL     1       6.173  -9.539   7.207  1.00  0.00     0.057 A 
ATOM     73  C   UNL     1       6.631  -8.237   6.974  1.00  0.00     0.134 A 
ATOM     74  C   UNL     1       6.627 -10.546   6.346  1.00  0.00     0.134 A 
ATOM     75  F   UNL     1       6.230  -7.227   7.758  1.00  0.00    -0.206 F 
ATOM     76  C   UNL     1       7.509  -7.948   5.927  1.00  0.00     0.040 A 
ATOM     77  C   UNL     1       7.525 -10.276   5.313  1.00  0.00     0.040 A 
ATOM     78  F   UNL     1       6.238 -11.816   6.530  1.00  0.00    -0.206 F 
ATOM     79  C   UNL     1       7.967  -8.972   5.100  1.00  0.00     0.006 A 
ENDBRANCH  51  72
BRANCH  63  80
ATOM     80  C   UNL     1       7.017 -13.241  13.029  1.00  0.00     0.057 A 
ATOM     81  C   UNL     1       6.986 -14.641  13.085  1.00  0.00     0.134 A 
ATOM     82  C   UNL     1       8.174 -12.602  13.493  1.00  0.00     0.134 A 
ATOM     83  F   UNL     1       5.906 -15.317  12.667  1.00  0.00    -0.206 F 
ATOM     84  C   UNL     1       8.066 -15.376  13.577  1.00  0.00     0.040 A 
ATOM     85  C   UNL     1       9.273 -13.328  13.956  1.00  0.00     0.040 A 
ATOM     86  F   UNL     1       8.275 -11.265  13.455  1.00  0.00    -0.206 F 
ATOM     87  C   UNL     1       9.218 -14.720  14.003  1.00  0.00     0.006 A 
ENDBRANCH  63  80
ENDBRANCH  37  38
ENDBRANCH  29  32
ENDBRANCH  27  28
ENDBRANCH   1  27
TORSDOF 13
