REMARK SMILES O=C(Cn1cc(/C=C2\SC(N3CCOCC3)=[NH+]C2=O)c2ccccc21)NCCCNC(=O)c1ccc(-c2c3nc(c(-c4c(F)cccc4F)c4ccc([nH]4)c(-c4c(F)cccc4F)c4nc(c(-c5c(F)cccc5F)c5ccc2[nH]5)C=C4)C=C3)cc1
REMARK SMILES IDX 28 1 27 2 26 3 1 4 2 5 3 7 4 8 5 9 25 10 6 11 20 12 24 13
REMARK SMILES IDX 21 14 23 15 22 16 7 17 8 18 9 19 18 20 10 21 17 22 19 23
REMARK SMILES IDX 11 24 12 26 16 27 13 28 15 29 14 30 29 31 30 32 31 33 32 35
REMARK SMILES IDX 33 36 34 37 86 38 35 39 85 40 36 41 37 42 38 43 79 44 39 45
REMARK SMILES IDX 84 46 78 47 80 48 40 49 83 50 77 51 76 52 41 54 67 55 50 56
REMARK SMILES IDX 66 57 51 58 54 59 65 60 81 61 52 62 53 63 64 65 82 66 55 67
REMARK SMILES IDX 42 68 43 69 48 70 44 71 45 72 47 73 49 74 46 75 68 76 69 77
REMARK SMILES IDX 74 78 70 79 71 80 73 81 75 82 72 83 56 84 57 85 62 86 58 87
REMARK SMILES IDX 59 88 61 89 63 90 60 91
REMARK H PARENT 26 6 17 25 30 34 80 53 54 64
REMARK Flexibility Score: inf
ROOT
ATOM      1  C   UNL     1       2.554   3.036  -1.827  1.00  0.00     0.042 C 
ENDROOT
BRANCH   1   2
ATOM      2  C   UNL     1       2.143   1.569  -1.924  1.00  0.00     0.117 C 
BRANCH   2   3
ATOM      3  N   UNL     1       2.791   0.771  -0.902  1.00  0.00    -0.354 N 
ATOM      4  O   UNL     1       0.872  -0.010   0.071  1.00  0.00    -0.273 OA
ATOM      5  C   UNL     1       2.099  -0.006   0.004  1.00  0.00     0.239 C 
ATOM      6  H   UNL     1       3.774   0.785  -0.851  1.00  0.00     0.163 HD
BRANCH   5   7
ATOM      7  C   UNL     1       2.951  -0.805   0.975  1.00  0.00     0.222 C 
BRANCH   7   8
ATOM      8  N   UNL     1       3.749  -1.826   0.310  1.00  0.00    -0.337 N 
ATOM      9  C   UNL     1       4.856  -1.568  -0.458  1.00  0.00     0.095 A 
ATOM     10  C   UNL     1       3.533  -3.190   0.372  1.00  0.00     0.049 A 
ATOM     11  C   UNL     1       5.301  -2.758  -0.981  1.00  0.00     0.001 A 
ATOM     12  C   UNL     1       4.479  -3.793  -0.468  1.00  0.00     0.007 A 
ATOM     13  C   UNL     1       2.590  -3.949   1.083  1.00  0.00     0.027 A 
ATOM     14  C   UNL     1       4.474  -5.194  -0.610  1.00  0.00     0.011 A 
ATOM     15  C   UNL     1       2.607  -5.338   0.924  1.00  0.00     0.002 A 
ATOM     16  C   UNL     1       3.533  -5.954   0.089  1.00  0.00     0.001 A 
BRANCH  11  17
ATOM     17  C   UNL     1       6.434  -2.884  -1.838  1.00  0.00     0.034 C 
ATOM     18  C   UNL     1       7.680  -2.503  -1.522  1.00  0.00     0.110 C 
ATOM     19  S   UNL     1       8.219  -1.861  -0.020  1.00  0.00     0.006 SA
ATOM     20  C   UNL     1       8.839  -2.607  -2.453  1.00  0.00     0.346 C 
ATOM     21  C   UNL     1       9.829  -1.686  -0.680  1.00  0.00     0.319 C 
ATOM     22  N   UNL     1       9.982  -2.060  -1.906  1.00  0.00    -0.200 N 
ATOM     23  O   UNL     1       8.761  -3.116  -3.562  1.00  0.00    -0.240 OA
ATOM     24  N   UNL     1      10.771  -1.112   0.122  1.00  0.00    -0.251 N 
ATOM     25  H   UNL     1      10.829  -1.966  -2.400  1.00  0.00     0.316 HD
ATOM     26  C   UNL     1      11.158  -1.640   1.433  1.00  0.00     0.265 C 
ATOM     27  C   UNL     1      11.537   0.063  -0.286  1.00  0.00     0.265 C 
ATOM     28  C   UNL     1      11.071  -0.523   2.480  1.00  0.00     0.206 C 
ATOM     29  C   UNL     1      11.417   1.127   0.821  1.00  0.00     0.206 C 
ATOM     30  O   UNL     1      11.860   0.616   2.091  1.00  0.00    -0.373 OA
ENDBRANCH  11  17
ENDBRANCH   7   8
ENDBRANCH   5   7
ENDBRANCH   2   3
ENDBRANCH   1   2
BRANCH   1  31
ATOM     31  C   UNL     1       4.050   3.288  -2.043  1.00  0.00     0.118 C 
BRANCH  31  32
ATOM     32  N   UNL     1       4.500   3.001  -3.397  1.00  0.00    -0.352 N 
ATOM     33  C   UNL     1       5.043   3.739  -4.422  1.00  0.00     0.251 C 
ATOM     34  H   UNL     1       4.391   2.052  -3.635  1.00  0.00     0.163 HD
ATOM     35  O   UNL     1       5.378   3.099  -5.424  1.00  0.00    -0.269 OA
BRANCH  33  36
ATOM     36  C   UNL     1       5.125   5.236  -4.509  1.00  0.00     0.039 A 
ATOM     37  C   UNL     1       4.569   6.106  -3.617  1.00  0.00     0.014 A 
ATOM     38  C   UNL     1       5.158   5.762  -5.824  1.00  0.00     0.014 A 
ATOM     39  C   UNL     1       3.683   7.126  -4.253  1.00  0.00     0.010 A 
ATOM     40  C   UNL     1       4.779   7.067  -6.128  1.00  0.00     0.010 A 
ATOM     41  C   UNL     1       3.471   7.218  -5.796  1.00  0.00    -0.014 A 
BRANCH  41  42
ATOM     42  C   UNL     1       2.627   8.250  -7.053  1.00  0.00     0.031 A 
ATOM     43  C   UNL     1       3.378   9.646  -6.048  1.00  0.00     0.074 A 
ATOM     44  C   UNL     1       1.670   8.036  -8.454  1.00  0.00     0.049 A 
ATOM     45  N   UNL     1       2.933  10.049  -4.864  1.00  0.00    -0.248 NA
ATOM     46  C   UNL     1       4.969  10.176  -5.775  1.00  0.00     0.031 C 
ATOM     47  C   UNL     1       1.077   6.904  -9.685  1.00  0.00     0.029 A 
ATOM     48  N   UNL     1       0.673   8.877  -9.279  1.00  0.00    -0.354 N 
ATOM     49  C   UNL     1       3.514  11.331  -4.682  1.00  0.00     0.074 A 
ATOM     50  C   UNL     1       4.867  11.300  -5.026  1.00  0.00     0.031 C 
ATOM     51  C   UNL     1       0.510   7.242 -10.951  1.00  0.00     0.029 A 
ATOM     52  C   UNL     1       0.344   8.721 -10.756  1.00  0.00     0.049 A 
ATOM     53  H   UNL     1       0.199   9.593  -8.798  1.00  0.00     0.167 HD
ATOM     54  C   UNL     1       2.758  12.419  -4.915  1.00  0.00     0.037 A 
ATOM     55  C   UNL     1      -0.041   9.754 -11.683  1.00  0.00     0.037 A 
ATOM     56  C   UNL     1       1.420  11.943  -5.024  1.00  0.00     0.049 A 
ATOM     57  C   UNL     1      -0.126  10.903 -10.739  1.00  0.00     0.074 A 
ATOM     58  C   UNL     1       0.658  11.199  -4.145  1.00  0.00     0.029 A 
ATOM     59  N   UNL     1       1.109  11.533  -6.284  1.00  0.00    -0.354 N 
ATOM     60  N   UNL     1      -1.028  10.947  -9.785  1.00  0.00    -0.248 NA
ATOM     61  C   UNL     1       1.223  11.408 -10.449  1.00  0.00     0.031 C 
ATOM     62  C   UNL     1      -0.109  10.303  -4.922  1.00  0.00     0.029 A 
ATOM     63  C   UNL     1       0.110  10.616  -6.253  1.00  0.00     0.049 A 
ATOM     64  H   UNL     1       1.548  11.857  -7.103  1.00  0.00     0.167 HD
ATOM     65  C   UNL     1      -0.276  11.019  -8.612  1.00  0.00     0.074 A 
ATOM     66  C   UNL     1       1.141  11.393  -9.108  1.00  0.00     0.031 C 
ATOM     67  C   UNL     1      -0.569  10.272  -7.455  1.00  0.00     0.037 A 
BRANCH  54  68
ATOM     68  C   UNL     1       3.214  13.707  -5.508  1.00  0.00     0.057 A 
ATOM     69  C   UNL     1       4.264  13.961  -6.422  1.00  0.00     0.134 A 
ATOM     70  C   UNL     1       2.342  14.758  -5.250  1.00  0.00     0.134 A 
ATOM     71  F   UNL     1       5.165  13.038  -6.790  1.00  0.00    -0.206 F 
ATOM     72  C   UNL     1       4.385  15.190  -7.070  1.00  0.00     0.040 A 
ATOM     73  C   UNL     1       2.372  15.926  -5.992  1.00  0.00     0.040 A 
ATOM     74  F   UNL     1       1.410  14.634  -4.294  1.00  0.00    -0.206 F 
ATOM     75  C   UNL     1       3.366  16.123  -6.943  1.00  0.00     0.006 A 
ENDBRANCH  54  68
BRANCH  55  76
ATOM     76  C   UNL     1       0.436   9.990 -13.187  1.00  0.00     0.057 A 
ATOM     77  C   UNL     1       1.741   9.540 -13.454  1.00  0.00     0.134 A 
ATOM     78  C   UNL     1      -0.084  10.782 -14.265  1.00  0.00     0.134 A 
ATOM     79  F   UNL     1       2.377   8.819 -12.526  1.00  0.00    -0.206 F 
ATOM     80  C   UNL     1       2.479   9.814 -14.624  1.00  0.00     0.040 A 
ATOM     81  C   UNL     1       0.620  10.984 -15.506  1.00  0.00     0.040 A 
ATOM     82  F   UNL     1      -1.272  11.404 -14.182  1.00  0.00    -0.206 F 
ATOM     83  C   UNL     1       1.900  10.473 -15.693  1.00  0.00     0.006 A 
ENDBRANCH  55  76
BRANCH  67  84
ATOM     84  C   UNL     1      -1.738   9.247  -7.261  1.00  0.00     0.057 A 
ATOM     85  C   UNL     1      -2.830   9.716  -6.551  1.00  0.00     0.134 A 
ATOM     86  C   UNL     1      -1.819   7.845  -7.517  1.00  0.00     0.134 A 
ATOM     87  F   UNL     1      -2.782  10.931  -5.993  1.00  0.00    -0.206 F 
ATOM     88  C   UNL     1      -3.983   8.954  -6.350  1.00  0.00     0.040 A 
ATOM     89  C   UNL     1      -3.022   7.121  -7.502  1.00  0.00     0.040 A 
ATOM     90  F   UNL     1      -0.745   7.086  -7.734  1.00  0.00    -0.206 F 
ATOM     91  C   UNL     1      -4.142   7.724  -6.976  1.00  0.00     0.006 A 
ENDBRANCH  67  84
ENDBRANCH  41  42
ENDBRANCH  33  36
ENDBRANCH  31  32
ENDBRANCH   1  31
TORSDOF 12
