REMARK SMILES O=C(NCCCNC(=O)c1c(F)cccc1NS(=O)(=O)C(F)(F)F)c1ccc(-c2c3nc(c(-c4c(F)cccc4F)c4ccc([nH]4)c(-c4c(F)cccc4F)c4nc(c(-c5c(F)cccc5F)c5ccc2[nH]5)C=C4)C=C3)cc1
REMARK SMILES IDX 5 1 4 2 3 3 1 4 2 5 25 7 26 8 78 9 27 10 77 11 28 12 29 13
REMARK SMILES IDX 30 14 71 15 31 16 76 17 70 18 72 19 32 20 75 21 69 22 68 23
REMARK SMILES IDX 33 25 59 26 42 27 58 28 43 29 46 30 57 31 73 32 44 33 45 34
REMARK SMILES IDX 56 36 74 37 47 38 34 39 35 40 40 41 36 42 37 43 39 44 41 45
REMARK SMILES IDX 38 46 60 47 61 48 66 49 62 50 63 51 65 52 67 53 64 54 48 55
REMARK SMILES IDX 49 56 54 57 50 58 51 59 53 60 55 61 52 62 6 63 7 64 8 65
REMARK SMILES IDX 9 67 10 68 11 69 16 70 12 71 13 72 15 73 14 74 17 75 18 77
REMARK SMILES IDX 19 78 20 79 21 80 22 81 23 82 24 83
REMARK H PARENT 3 6 72 24 46 35 7 66 17 76
REMARK Flexibility Score: inf
ROOT
ATOM      1  C   UNL     1       4.984  -2.324   0.883  1.00  0.00     0.042 C 
ENDROOT
BRANCH   1   2
ATOM      2  C   UNL     1       4.629  -1.356  -0.238  1.00  0.00     0.118 C 
BRANCH   2   3
ATOM      3  N   UNL     1       3.198  -1.107  -0.340  1.00  0.00    -0.352 N 
ATOM      4  O   UNL     1       1.248  -0.010  -0.097  1.00  0.00    -0.269 OA
ATOM      5  C   UNL     1       2.475   0.041  -0.120  1.00  0.00     0.251 C 
ATOM      6  H   UNL     1       2.661  -1.887  -0.611  1.00  0.00     0.163 HD
BRANCH   5   7
ATOM      7  C   UNL     1       3.159   1.332   0.115  1.00  0.00     0.039 A 
ATOM      8  C   UNL     1       4.276   1.704  -0.634  1.00  0.00     0.014 A 
ATOM      9  C   UNL     1       2.651   2.203   1.085  1.00  0.00     0.014 A 
ATOM     10  C   UNL     1       4.978   2.858  -0.305  1.00  0.00     0.010 A 
ATOM     11  C   UNL     1       3.301   3.413   1.347  1.00  0.00     0.010 A 
ATOM     12  C   UNL     1       4.491   3.734   0.678  1.00  0.00    -0.014 A 
BRANCH  12  13
ATOM     13  C   UNL     1       5.214   5.004   0.941  1.00  0.00     0.031 A 
ATOM     14  C   UNL     1       5.859   5.274   2.271  1.00  0.00     0.074 A 
ATOM     15  C   UNL     1       5.321   5.905  -0.055  1.00  0.00     0.049 A 
ATOM     16  N   UNL     1       6.553   6.318   2.651  1.00  0.00    -0.248 NA
ATOM     17  C   UNL     1       5.703   4.247   3.311  1.00  0.00     0.031 C 
ATOM     18  C   UNL     1       4.734   5.755  -1.389  1.00  0.00     0.029 A 
ATOM     19  N   UNL     1       5.980   7.106  -0.115  1.00  0.00    -0.354 N 
ATOM     20  C   UNL     1       6.904   6.082   3.973  1.00  0.00     0.074 A 
ATOM     21  C   UNL     1       6.322   4.808   4.342  1.00  0.00     0.031 C 
ATOM     22  C   UNL     1       5.110   6.790  -2.153  1.00  0.00     0.029 A 
ATOM     23  C   UNL     1       5.908   7.707  -1.347  1.00  0.00     0.049 A 
ATOM     24  H   UNL     1       6.458   7.498   0.651  1.00  0.00     0.167 HD
ATOM     25  C   UNL     1       7.651   6.853   4.800  1.00  0.00     0.037 A 
ATOM     26  C   UNL     1       6.419   8.873  -1.784  1.00  0.00     0.037 A 
ATOM     27  C   UNL     1       8.239   8.113   4.423  1.00  0.00     0.049 A 
ATOM     28  C   UNL     1       7.215   9.723  -0.841  1.00  0.00     0.074 A 
ATOM     29  C   UNL     1       9.032   8.954   5.185  1.00  0.00     0.029 A 
ATOM     30  N   UNL     1       8.097   8.714   3.182  1.00  0.00    -0.354 N 
ATOM     31  N   UNL     1       7.545   9.482   0.404  1.00  0.00    -0.248 NA
ATOM     32  C   UNL     1       7.700  11.010  -1.357  1.00  0.00     0.031 C 
ATOM     33  C   UNL     1       9.334  10.084   4.419  1.00  0.00     0.029 A 
ATOM     34  C   UNL     1       8.770   9.926   3.163  1.00  0.00     0.049 A 
ATOM     35  H   UNL     1       7.593   8.337   2.425  1.00  0.00     0.167 HD
ATOM     36  C   UNL     1       8.283  10.580   0.820  1.00  0.00     0.074 A 
ATOM     37  C   UNL     1       8.367  11.482  -0.311  1.00  0.00     0.031 C 
ATOM     38  C   UNL     1       8.839  10.817   2.033  1.00  0.00     0.037 A 
BRANCH  25  39
ATOM     39  C   UNL     1       7.870   6.363   6.202  1.00  0.00     0.057 A 
ATOM     40  C   UNL     1       7.263   7.009   7.287  1.00  0.00     0.134 A 
ATOM     41  C   UNL     1       8.724   5.290   6.485  1.00  0.00     0.134 A 
ATOM     42  F   UNL     1       6.440   8.049   7.087  1.00  0.00    -0.206 F 
ATOM     43  C   UNL     1       7.504   6.610   8.603  1.00  0.00     0.040 A 
ATOM     44  C   UNL     1       8.955   4.867   7.796  1.00  0.00     0.040 A 
ATOM     45  F   UNL     1       9.328   4.621   5.491  1.00  0.00    -0.206 F 
ATOM     46  C   UNL     1       8.350   5.533   8.860  1.00  0.00     0.006 A 
ENDBRANCH  25  39
BRANCH  26  47
ATOM     47  C   UNL     1       6.192   9.278  -3.192  1.00  0.00     0.057 A 
ATOM     48  C   UNL     1       4.922   9.653  -3.648  1.00  0.00     0.134 A 
ATOM     49  C   UNL     1       7.228   9.229  -4.130  1.00  0.00     0.134 A 
ATOM     50  F   UNL     1       3.887   9.709  -2.796  1.00  0.00    -0.206 F 
ATOM     51  C   UNL     1       4.683   9.936  -4.993  1.00  0.00     0.040 A 
ATOM     52  C   UNL     1       7.008   9.531  -5.475  1.00  0.00     0.040 A 
ATOM     53  F   UNL     1       8.468   8.889  -3.749  1.00  0.00    -0.206 F 
ATOM     54  C   UNL     1       5.729   9.874  -5.911  1.00  0.00     0.006 A 
ENDBRANCH  26  47
BRANCH  38  55
ATOM     55  C   UNL     1       9.598  12.099   2.203  1.00  0.00     0.057 A 
ATOM     56  C   UNL     1      10.995  12.095   2.301  1.00  0.00     0.134 A 
ATOM     57  C   UNL     1       8.941  13.329   2.334  1.00  0.00     0.134 A 
ATOM     58  F   UNL     1      11.681  10.947   2.192  1.00  0.00    -0.206 F 
ATOM     59  C   UNL     1      11.712  13.268   2.537  1.00  0.00     0.040 A 
ATOM     60  C   UNL     1       9.650  14.512   2.548  1.00  0.00     0.040 A 
ATOM     61  F   UNL     1       7.605  13.400   2.237  1.00  0.00    -0.206 F 
ATOM     62  C   UNL     1      11.039  14.482   2.659  1.00  0.00     0.006 A 
ENDBRANCH  38  55
ENDBRANCH  12  13
ENDBRANCH   5   7
ENDBRANCH   2   3
ENDBRANCH   1   2
BRANCH   1  63
ATOM     63  C   UNL     1       4.494  -3.748   0.652  1.00  0.00     0.118 C 
BRANCH  63  64
ATOM     64  N   UNL     1       5.129  -4.351  -0.512  1.00  0.00    -0.352 N 
ATOM     65  C   UNL     1       6.012  -5.396  -0.583  1.00  0.00     0.256 C 
ATOM     66  H   UNL     1       4.887  -3.947  -1.377  1.00  0.00     0.163 HD
ATOM     67  O   UNL     1       6.669  -5.561  -1.608  1.00  0.00    -0.269 OA
BRANCH  65  68
ATOM     68  C   UNL     1       6.253  -6.270   0.576  1.00  0.00     0.099 A 
ATOM     69  C   UNL     1       5.165  -6.825   1.258  1.00  0.00     0.138 A 
ATOM     70  C   UNL     1       7.563  -6.556   1.000  1.00  0.00     0.065 A 
ATOM     71  F   UNL     1       3.908  -6.609   0.843  1.00  0.00    -0.206 F 
ATOM     72  C   UNL     1       5.351  -7.580   2.410  1.00  0.00     0.040 A 
ATOM     73  C   UNL     1       7.736  -7.292   2.179  1.00  0.00     0.028 A 
ATOM     74  C   UNL     1       6.639  -7.802   2.880  1.00  0.00     0.005 A 
BRANCH  70  75
ATOM     75  N   UNL     1       8.722  -6.002   0.336  1.00  0.00    -0.275 N 
ATOM     76  H   UNL     1       8.872  -5.029   0.313  1.00  0.00     0.180 HD
BRANCH  75  77
ATOM     77  S   UNL     1       9.831  -7.079  -0.413  1.00  0.00     0.333 S 
ATOM     78  O   UNL     1       9.048  -8.067  -1.132  1.00  0.00    -0.197 OA
ATOM     79  O   UNL     1      10.714  -6.191  -1.154  1.00  0.00    -0.197 OA
BRANCH  77  80
ATOM     80  C   UNL     1      10.796  -7.883   0.964  1.00  0.00     0.516 C 
ATOM     81  F   UNL     1      11.005  -7.036   2.014  1.00  0.00    -0.155 F 
ATOM     82  F   UNL     1      10.147  -8.972   1.473  1.00  0.00    -0.155 F 
ATOM     83  F   UNL     1      12.022  -8.319   0.560  1.00  0.00    -0.155 F 
ENDBRANCH  77  80
ENDBRANCH  75  77
ENDBRANCH  70  75
ENDBRANCH  65  68
ENDBRANCH  63  64
ENDBRANCH   1  63
TORSDOF 13
