REMARK SMILES Cc1ccc(-c2cnnc(-n3nc(C)c4c3NC(=O)C[C@@H]4c3ccc(C(=O)NCCCNC(=O)c4ccc(-c5c6nc(c(-c7c(F)cccc7F)c7ccc([nH]7)c(-c7c(F)cccc7F)c7nc(c(-c8c(F)cccc8F)c8ccc5[nH]8)C=C7)C=C6)cc4)cc3)n2)cc1
REMARK SMILES IDX 29 1 28 2 26 3 27 4 25 6 22 7 23 8 90 9 24 10 89 11 21 12
REMARK SMILES IDX 11 13 12 14 16 15 13 16 15 17 17 18 14 19 18 20 20 22 19 23
REMARK SMILES IDX 10 24 6 25 7 26 91 27 8 28 9 29 5 30 1 31 2 32 3 33 93 34
REMARK SMILES IDX 4 35 92 36 30 37 31 38 32 39 33 40 34 42 35 43 36 44 88 45
REMARK SMILES IDX 37 46 87 47 38 48 39 49 40 50 81 51 41 52 86 53 80 54 82 55
REMARK SMILES IDX 42 56 85 57 79 58 78 59 43 61 69 62 52 63 68 64 53 65 56 66
REMARK SMILES IDX 67 67 83 68 54 69 55 70 66 72 84 73 57 74 44 75 45 76 50 77
REMARK SMILES IDX 46 78 47 79 49 80 51 81 48 82 70 83 71 84 76 85 72 86 73 87
REMARK SMILES IDX 75 88 77 89 74 90 58 91 59 92 64 93 60 94 61 95 63 96 65 97
REMARK SMILES IDX 62 98
REMARK H PARENT 28 5 17 21 32 41 82 60 56 71
REMARK Flexibility Score: inf
ROOT
ATOM      1  C   UNL     1     -11.765   5.140  -6.285  1.00  0.00     0.118 C 
ENDROOT
BRANCH   1   2
ATOM      2  N   UNL     1     -11.562   5.357  -7.716  1.00  0.00    -0.352 N 
ATOM      3  C   UNL     1     -10.637   4.784  -8.563  1.00  0.00     0.251 C 
ATOM      4  O   UNL     1     -10.751   4.895  -9.779  1.00  0.00    -0.269 OA
ATOM      5  H   UNL     1     -12.173   6.005  -8.135  1.00  0.00     0.163 HD
BRANCH   3   6
ATOM      6  C   UNL     1      -9.527   3.982  -8.008  1.00  0.00     0.039 A 
ATOM      7  C   UNL     1      -7.696   2.322  -6.687  1.00  0.00    -0.040 A 
ATOM      8  C   UNL     1      -8.414   1.857  -7.808  1.00  0.00     0.005 A 
ATOM      9  C   UNL     1      -7.779   3.682  -6.366  1.00  0.00     0.005 A 
ATOM     10  C   UNL     1      -9.326   2.683  -8.468  1.00  0.00     0.014 A 
ATOM     11  C   UNL     1      -8.687   4.503  -7.027  1.00  0.00     0.014 A 
BRANCH   7  12
ATOM     12  C   UNL     1      -6.908   1.312  -5.882  1.00  0.00     0.064 C 
ATOM     13  N   UNL     1      -5.876   2.030  -2.490  1.00  0.00    -0.180 N 
ATOM     14  N   UNL     1      -7.179   2.386  -2.310  1.00  0.00    -0.168 NA
ATOM     15  C   UNL     1      -5.590   2.025  -3.845  1.00  0.00     0.143 A 
ATOM     16  C   UNL     1      -7.764   2.110  -3.478  1.00  0.00     0.066 A 
ATOM     17  C   UNL     1      -6.798   1.765  -4.463  1.00  0.00     0.026 A 
ATOM     18  N   UNL     1      -4.433   2.187  -4.582  1.00  0.00    -0.310 N 
ATOM     19  C   UNL     1      -9.234   2.288  -3.584  1.00  0.00     0.069 C 
ATOM     20  C   UNL     1      -4.492   1.950  -5.993  1.00  0.00     0.226 C 
ATOM     21  H   UNL     1      -3.591   2.456  -4.150  1.00  0.00     0.171 HD
ATOM     22  C   UNL     1      -5.540   0.990  -6.479  1.00  0.00     0.113 C 
ATOM     23  O   UNL     1      -3.601   2.442  -6.683  1.00  0.00    -0.275 OA
BRANCH  13  24
ATOM     24  C   UNL     1      -5.142   1.399  -1.443  1.00  0.00     0.272 A 
ATOM     25  C   UNL     1      -3.291   0.363  -0.601  1.00  0.00     0.095 A 
ATOM     26  C   UNL     1      -4.078  -0.220   0.378  1.00  0.00     0.164 A 
ATOM     27  N   UNL     1      -3.818   1.155  -1.578  1.00  0.00    -0.208 NA
ATOM     28  N   UNL     1      -5.388   0.043   0.459  1.00  0.00    -0.153 NA
ATOM     29  N   UNL     1      -5.913   0.899  -0.440  1.00  0.00    -0.109 NA
BRANCH  25  30
ATOM     30  C   UNL     1      -1.830   0.241  -0.534  1.00  0.00     0.002 A 
ATOM     31  C   UNL     1       2.450  -0.039   0.071  1.00  0.00     0.044 C 
ATOM     32  C   UNL     1       0.968   0.065  -0.139  1.00  0.00    -0.051 A 
ATOM     33  C   UNL     1       0.189  -1.093  -0.221  1.00  0.00     0.004 A 
ATOM     34  C   UNL     1       0.346   1.310  -0.262  1.00  0.00     0.004 A 
ATOM     35  C   UNL     1      -1.194  -1.007  -0.415  1.00  0.00     0.011 A 
ATOM     36  C   UNL     1      -1.035   1.396  -0.461  1.00  0.00     0.011 A 
ENDBRANCH  25  30
ENDBRANCH  13  24
ENDBRANCH   7  12
ENDBRANCH   3   6
ENDBRANCH   1   2
BRANCH   1  37
ATOM     37  C   UNL     1     -11.141   6.230  -5.420  1.00  0.00     0.042 C 
BRANCH  37  38
ATOM     38  C   UNL     1     -11.980   7.489  -5.304  1.00  0.00     0.118 C 
BRANCH  38  39
ATOM     39  N   UNL     1     -12.806   7.556  -4.107  1.00  0.00    -0.352 N 
ATOM     40  C   UNL     1     -13.586   8.594  -3.627  1.00  0.00     0.251 C 
ATOM     41  H   UNL     1     -12.810   6.741  -3.555  1.00  0.00     0.163 HD
ATOM     42  O   UNL     1     -14.152   8.465  -2.544  1.00  0.00    -0.269 OA
BRANCH  40  43
ATOM     43  C   UNL     1     -13.894   9.765  -4.488  1.00  0.00     0.039 A 
ATOM     44  C   UNL     1     -15.221  10.217  -4.485  1.00  0.00     0.014 A 
ATOM     45  C   UNL     1     -13.028  10.170  -5.494  1.00  0.00     0.014 A 
ATOM     46  C   UNL     1     -15.750  10.770  -5.644  1.00  0.00     0.010 A 
ATOM     47  C   UNL     1     -13.569  10.575  -6.687  1.00  0.00     0.010 A 
ATOM     48  C   UNL     1     -14.941  10.803  -6.773  1.00  0.00    -0.014 A 
BRANCH  48  49
ATOM     49  C   UNL     1     -15.424  11.056  -8.112  1.00  0.00     0.031 A 
ATOM     50  C   UNL     1     -15.274  12.410  -8.660  1.00  0.00     0.074 A 
ATOM     51  C   UNL     1     -15.841  10.012  -8.860  1.00  0.00     0.049 A 
ATOM     52  N   UNL     1     -15.994  12.884  -9.611  1.00  0.00    -0.248 NA
ATOM     53  C   UNL     1     -14.295  13.363  -8.142  1.00  0.00     0.031 C 
ATOM     54  C   UNL     1     -16.089   9.979 -10.297  1.00  0.00     0.029 A 
ATOM     55  N   UNL     1     -16.311   8.775  -8.399  1.00  0.00    -0.354 N 
ATOM     56  C   UNL     1     -15.400  14.051 -10.028  1.00  0.00     0.074 A 
ATOM     57  C   UNL     1     -14.395  14.349  -9.036  1.00  0.00     0.031 C 
ATOM     58  C   UNL     1     -16.916   8.954 -10.568  1.00  0.00     0.029 A 
ATOM     59  C   UNL     1     -17.335   8.395  -9.294  1.00  0.00     0.049 A 
ATOM     60  H   UNL     1     -15.993   8.274  -7.614  1.00  0.00     0.167 HD
ATOM     61  C   UNL     1     -15.720  14.548 -11.254  1.00  0.00     0.037 A 
ATOM     62  C   UNL     1     -18.630   8.313  -8.866  1.00  0.00     0.037 A 
ATOM     63  C   UNL     1     -16.722  13.706 -11.899  1.00  0.00     0.049 A 
ATOM     64  C   UNL     1     -19.539   9.300  -9.563  1.00  0.00     0.074 A 
ATOM     65  C   UNL     1     -16.610  12.655 -12.795  1.00  0.00     0.029 A 
ATOM     66  N   UNL     1     -17.996  13.619 -11.349  1.00  0.00    -0.354 N 
ATOM     67  N   UNL     1     -19.122  10.401 -10.129  1.00  0.00    -0.248 NA
ATOM     68  C   UNL     1     -20.978   9.107  -9.714  1.00  0.00     0.031 C 
ATOM     69  C   UNL     1     -17.806  11.898 -12.738  1.00  0.00     0.029 A 
ATOM     70  C   UNL     1     -18.654  12.502 -11.826  1.00  0.00     0.049 A 
ATOM     71  H   UNL     1     -18.376  14.264 -10.709  1.00  0.00     0.167 HD
ATOM     72  C   UNL     1     -20.179  11.042 -10.726  1.00  0.00     0.074 A 
ATOM     73  C   UNL     1     -21.317  10.188 -10.439  1.00  0.00     0.031 C 
ATOM     74  C   UNL     1     -20.022  12.211 -11.421  1.00  0.00     0.037 A 
BRANCH  61  75
ATOM     75  C   UNL     1     -14.887  15.584 -11.960  1.00  0.00     0.057 A 
ATOM     76  C   UNL     1     -14.692  15.529 -13.353  1.00  0.00     0.134 A 
ATOM     77  C   UNL     1     -14.216  16.638 -11.315  1.00  0.00     0.134 A 
ATOM     78  F   UNL     1     -15.320  14.629 -14.118  1.00  0.00    -0.206 F 
ATOM     79  C   UNL     1     -13.827  16.393 -14.035  1.00  0.00     0.040 A 
ATOM     80  C   UNL     1     -13.310  17.479 -11.976  1.00  0.00     0.040 A 
ATOM     81  F   UNL     1     -14.438  16.917 -10.023  1.00  0.00    -0.206 F 
ATOM     82  C   UNL     1     -13.106  17.353 -13.343  1.00  0.00     0.006 A 
ENDBRANCH  61  75
BRANCH  62  83
ATOM     83  C   UNL     1     -18.726   7.865  -7.447  1.00  0.00     0.057 A 
ATOM     84  C   UNL     1     -18.258   6.572  -7.138  1.00  0.00     0.134 A 
ATOM     85  C   UNL     1     -18.802   8.778  -6.391  1.00  0.00     0.134 A 
ATOM     86  F   UNL     1     -18.171   5.641  -8.102  1.00  0.00    -0.206 F 
ATOM     87  C   UNL     1     -17.735   6.253  -5.881  1.00  0.00     0.040 A 
ATOM     88  C   UNL     1     -18.302   8.459  -5.121  1.00  0.00     0.040 A 
ATOM     89  F   UNL     1     -19.231  10.030  -6.599  1.00  0.00    -0.206 F 
ATOM     90  C   UNL     1     -17.716   7.216  -4.879  1.00  0.00     0.006 A 
ENDBRANCH  62  83
BRANCH  74  91
ATOM     91  C   UNL     1     -21.114  13.154 -11.885  1.00  0.00     0.057 A 
ATOM     92  C   UNL     1     -22.401  13.216 -11.333  1.00  0.00     0.134 A 
ATOM     93  C   UNL     1     -20.831  14.170 -12.833  1.00  0.00     0.134 A 
ATOM     94  F   UNL     1     -22.787  12.399 -10.346  1.00  0.00    -0.206 F 
ATOM     95  C   UNL     1     -23.346  14.175 -11.727  1.00  0.00     0.040 A 
ATOM     96  C   UNL     1     -21.741  15.171 -13.182  1.00  0.00     0.040 A 
ATOM     97  F   UNL     1     -19.643  14.261 -13.449  1.00  0.00    -0.206 F 
ATOM     98  C   UNL     1     -23.013  15.167 -12.640  1.00  0.00     0.006 A 
ENDBRANCH  74  91
ENDBRANCH  48  49
ENDBRANCH  40  43
ENDBRANCH  38  39
ENDBRANCH  37  38
ENDBRANCH   1  37
TORSDOF 13
