REMARK SMILES COc1ccc(OC)c(NC(=O)[C@@H]2[C@@H](C(=O)NCCCNC(=O)c3ccc(-c4c5nc(c(-c6c(F)cccc6F)c6ccc([nH]6)c(-c6c(F)cccc6F)c6nc(c(-c7c(F)cccc7F)c7ccc4[nH]7)C=C6)C=C5)cc3)[C@H]3C=C[C@@H]2C3)c1
REMARK SMILES IDX 18 1 17 2 15 3 16 4 14 6 13 7 81 8 78 9 80 10 82 11 79 12
REMARK SMILES IDX 11 13 10 14 12 16 9 17 3 18 4 19 83 20 5 21 6 22 2 23 1 24
REMARK SMILES IDX 7 25 8 26 19 27 20 28 21 29 22 30 23 32 24 33 25 34 77 35
REMARK SMILES IDX 26 36 76 37 27 38 28 39 29 40 70 41 30 42 75 43 69 44 71 45
REMARK SMILES IDX 31 46 74 47 68 48 67 49 32 51 58 52 41 53 57 54 42 55 45 56
REMARK SMILES IDX 56 57 72 58 43 59 44 60 55 62 73 63 46 64 33 65 34 66 39 67
REMARK SMILES IDX 35 68 36 69 38 70 40 71 37 72 59 73 60 74 65 75 61 76 62 77
REMARK SMILES IDX 64 78 66 79 63 80 47 81 48 82 53 83 49 84 50 85 52 86 54 87
REMARK SMILES IDX 51 88
REMARK H PARENT 17 5 10 15 21 31 71 50 45 61
REMARK Flexibility Score: inf
ROOT
ATOM      1  C   UNL     1       5.141  -0.046  -9.239  1.00  0.00     0.117 C 
ENDROOT
BRANCH   1   2
ATOM      2  N   UNL     1       4.148   0.974  -9.479  1.00  0.00    -0.356 N 
ATOM      3  C   UNL     1       2.936   1.230  -8.952  1.00  0.00     0.224 C 
ATOM      4  O   UNL     1       2.316   2.139  -9.524  1.00  0.00    -0.275 OA
ATOM      5  H   UNL     1       4.413   1.618 -10.175  1.00  0.00     0.163 HD
BRANCH   3   6
ATOM      6  C   UNL     1       2.339   0.611  -7.689  1.00  0.00     0.098 C 
ATOM      7  C   UNL     1       2.732  -0.743  -7.041  1.00  0.00     0.099 C 
ATOM      8  C   UNL     1       1.364  -1.459  -6.838  1.00  0.00     0.025 C 
ATOM      9  C   UNL     1       0.818   0.369  -7.999  1.00  0.00     0.025 C 
ATOM     10  C   UNL     1       0.948  -1.923  -8.227  1.00  0.00    -0.027 C 
ATOM     11  C   UNL     1       0.346  -0.324  -6.729  1.00  0.00     0.017 C 
ATOM     12  C   UNL     1       0.657  -0.818  -8.934  1.00  0.00    -0.027 C 
BRANCH   7  13
ATOM     13  C   UNL     1       3.758  -0.840  -5.899  1.00  0.00     0.229 C 
ATOM     14  N   UNL     1       3.569  -0.798  -4.563  1.00  0.00    -0.323 N 
ATOM     15  H   UNL     1       4.337  -1.170  -4.071  1.00  0.00     0.170 HD
ATOM     16  O   UNL     1       4.929  -1.135  -6.203  1.00  0.00    -0.274 OA
BRANCH  14  17
ATOM     17  C   UNL     1       2.562  -0.362  -3.703  1.00  0.00     0.087 A 
ATOM     18  C   UNL     1       1.376  -0.741  -1.626  1.00  0.00     0.121 A 
ATOM     19  C   UNL     1       0.428   0.212  -1.983  1.00  0.00     0.050 A 
ATOM     20  C   UNL     1       2.414  -1.064  -2.500  1.00  0.00     0.076 A 
ATOM     21  C   UNL     1       0.648   0.995  -3.108  1.00  0.00     0.052 A 
ATOM     22  C   UNL     1       1.774   0.769  -3.900  1.00  0.00     0.142 A 
BRANCH  18  23
ATOM     23  O   UNL     1       1.287  -1.417  -0.440  1.00  0.00    -0.497 OA
ATOM     24  C   UNL     1       1.432  -0.519   0.666  1.00  0.00     0.278 C 
ENDBRANCH  18  23
BRANCH  22  25
ATOM     25  O   UNL     1       2.058   1.751  -4.807  1.00  0.00    -0.495 OA
ATOM     26  C   UNL     1       3.321   2.371  -4.544  1.00  0.00     0.278 C 
ENDBRANCH  22  25
ENDBRANCH  14  17
ENDBRANCH   7  13
ENDBRANCH   3   6
ENDBRANCH   1   2
BRANCH   1  27
ATOM     27  C   UNL     1       4.814  -1.350  -9.956  1.00  0.00     0.042 C 
BRANCH  27  28
ATOM     28  C   UNL     1       4.733  -1.207 -11.469  1.00  0.00     0.118 C 
BRANCH  28  29
ATOM     29  N   UNL     1       6.037  -0.997 -12.074  1.00  0.00    -0.352 N 
ATOM     30  C   UNL     1       6.750  -1.808 -12.919  1.00  0.00     0.251 C 
ATOM     31  H   UNL     1       6.475  -0.145 -11.842  1.00  0.00     0.163 HD
ATOM     32  O   UNL     1       7.928  -1.560 -13.154  1.00  0.00    -0.269 OA
BRANCH  30  33
ATOM     33  C   UNL     1       6.111  -2.990 -13.540  1.00  0.00     0.039 A 
ATOM     34  C   UNL     1       6.842  -4.177 -13.631  1.00  0.00     0.014 A 
ATOM     35  C   UNL     1       4.819  -2.922 -14.072  1.00  0.00     0.014 A 
ATOM     36  C   UNL     1       6.265  -5.306 -14.217  1.00  0.00     0.010 A 
ATOM     37  C   UNL     1       4.216  -4.068 -14.584  1.00  0.00     0.010 A 
ATOM     38  C   UNL     1       4.941  -5.264 -14.680  1.00  0.00    -0.014 A 
BRANCH  38  39
ATOM     39  C   UNL     1       4.311  -6.456 -15.300  1.00  0.00     0.031 A 
ATOM     40  C   UNL     1       3.921  -6.433 -16.752  1.00  0.00     0.074 A 
ATOM     41  C   UNL     1       4.034  -7.534 -14.544  1.00  0.00     0.049 A 
ATOM     42  N   UNL     1       3.321  -7.354 -17.462  1.00  0.00    -0.248 NA
ATOM     43  C   UNL     1       4.217  -5.198 -17.497  1.00  0.00     0.031 C 
ATOM     44  C   UNL     1       4.299  -7.652 -13.109  1.00  0.00     0.029 A 
ATOM     45  N   UNL     1       3.454  -8.732 -14.877  1.00  0.00    -0.354 N 
ATOM     46  C   UNL     1       3.143  -6.801 -18.724  1.00  0.00     0.074 A 
ATOM     47  C   UNL     1       3.660  -5.451 -18.672  1.00  0.00     0.031 C 
ATOM     48  C   UNL     1       3.896  -8.862 -12.688  1.00  0.00     0.029 A 
ATOM     49  C   UNL     1       3.326  -9.594 -13.816  1.00  0.00     0.049 A 
ATOM     50  H   UNL     1       3.158  -8.952 -15.789  1.00  0.00     0.167 HD
ATOM     51  C   UNL     1       2.616  -7.373 -19.832  1.00  0.00     0.037 A 
ATOM     52  C   UNL     1       2.808 -10.834 -13.759  1.00  0.00     0.037 A 
ATOM     53  C   UNL     1       2.147  -8.731 -19.896  1.00  0.00     0.049 A 
ATOM     54  C   UNL     1       2.284 -11.471 -15.014  1.00  0.00     0.074 A 
ATOM     55  C   UNL     1       1.685  -9.435 -20.994  1.00  0.00     0.029 A 
ATOM     56  N   UNL     1       2.079  -9.591 -18.811  1.00  0.00    -0.354 N 
ATOM     57  N   UNL     1       2.201 -10.968 -16.221  1.00  0.00    -0.248 NA
ATOM     58  C   UNL     1       1.792 -12.851 -14.901  1.00  0.00     0.031 C 
ATOM     59  C   UNL     1       1.310 -10.714 -20.567  1.00  0.00     0.029 A 
ATOM     60  C   UNL     1       1.567 -10.815 -19.209  1.00  0.00     0.049 A 
ATOM     61  H   UNL     1       2.355  -9.366 -17.893  1.00  0.00     0.167 HD
ATOM     62  C   UNL     1       1.661 -11.970 -17.015  1.00  0.00     0.074 A 
ATOM     63  C   UNL     1       1.453 -13.118 -16.155  1.00  0.00     0.031 C 
ATOM     64  C   UNL     1       1.362 -11.942 -18.337  1.00  0.00     0.037 A 
BRANCH  51  65
ATOM     65  C   UNL     1       2.528  -6.526 -21.067  1.00  0.00     0.057 A 
ATOM     66  C   UNL     1       3.666  -6.168 -21.801  1.00  0.00     0.134 A 
ATOM     67  C   UNL     1       1.288  -6.071 -21.533  1.00  0.00     0.134 A 
ATOM     68  F   UNL     1       4.885  -6.560 -21.400  1.00  0.00    -0.206 F 
ATOM     69  C   UNL     1       3.578  -5.363 -22.938  1.00  0.00     0.040 A 
ATOM     70  C   UNL     1       1.185  -5.286 -22.682  1.00  0.00     0.040 A 
ATOM     71  F   UNL     1       0.159  -6.381 -20.879  1.00  0.00    -0.206 F 
ATOM     72  C   UNL     1       2.333  -4.923 -23.384  1.00  0.00     0.006 A 
ENDBRANCH  51  65
BRANCH  52  73
ATOM     73  C   UNL     1       2.793 -11.564 -12.469  1.00  0.00     0.057 A 
ATOM     74  C   UNL     1       3.689 -12.609 -12.222  1.00  0.00     0.134 A 
ATOM     75  C   UNL     1       1.901 -11.219 -11.448  1.00  0.00     0.134 A 
ATOM     76  F   UNL     1       4.556 -12.994 -13.170  1.00  0.00    -0.206 F 
ATOM     77  C   UNL     1       3.694 -13.294 -11.005  1.00  0.00     0.040 A 
ATOM     78  C   UNL     1       1.907 -11.882 -10.220  1.00  0.00     0.040 A 
ATOM     79  F   UNL     1       1.024 -10.220 -11.623  1.00  0.00    -0.206 F 
ATOM     80  C   UNL     1       2.804 -12.926  -9.998  1.00  0.00     0.006 A 
ENDBRANCH  52  73
BRANCH  64  81
ATOM     81  C   UNL     1       0.786 -13.192 -18.930  1.00  0.00     0.057 A 
ATOM     82  C   UNL     1      -0.543 -13.568 -18.698  1.00  0.00     0.134 A 
ATOM     83  C   UNL     1       1.557 -14.009 -19.765  1.00  0.00     0.134 A 
ATOM     84  F   UNL     1      -1.328 -12.833 -17.896  1.00  0.00    -0.206 F 
ATOM     85  C   UNL     1      -1.080 -14.726 -19.263  1.00  0.00     0.040 A 
ATOM     86  C   UNL     1       1.025 -15.158 -20.351  1.00  0.00     0.040 A 
ATOM     87  F   UNL     1       2.835 -13.699 -20.030  1.00  0.00    -0.206 F 
ATOM     88  C   UNL     1      -0.296 -15.521 -20.097  1.00  0.00     0.006 A 
ENDBRANCH  64  81
ENDBRANCH  38  39
ENDBRANCH  30  33
ENDBRANCH  28  29
ENDBRANCH  27  28
ENDBRANCH   1  27
TORSDOF 14
