REMARK SMILES O=C(NCCCNC(=O)c1cc(NC(=O)c2cccs2)ccc1N1CCC[C@H](C[NH+]2CCCC2)C1)c1ccc(-c2c3nc(c(-c4c(F)cccc4F)c4ccc([nH]4)c(-c4c(F)cccc4F)c4nc(c(-c5c(F)cccc5F)c5ccc2[nH]5)C=C4)C=C3)cc1
REMARK SMILES IDX 5 1 4 2 3 3 1 4 2 5 36 7 37 8 89 9 38 10 88 11 39 12 40 13
REMARK SMILES IDX 41 14 82 15 42 16 87 17 81 18 83 19 43 20 86 21 80 22 79 23
REMARK SMILES IDX 44 25 70 26 53 27 69 28 54 29 57 30 68 31 84 32 55 33 56 34
REMARK SMILES IDX 67 36 85 37 58 38 45 39 46 40 51 41 47 42 48 43 50 44 52 45
REMARK SMILES IDX 49 46 71 47 72 48 77 49 73 50 74 51 76 52 78 53 75 54 59 55
REMARK SMILES IDX 60 56 65 57 61 58 62 59 64 60 66 61 63 62 6 63 7 64 8 65
REMARK SMILES IDX 9 67 10 68 11 69 23 70 12 71 22 72 21 73 24 74 25 75 35 76
REMARK SMILES IDX 26 77 28 78 27 79 29 80 30 81 31 82 34 83 32 85 33 86 13 87
REMARK SMILES IDX 14 88 15 90 16 91 17 92 20 93 18 94 19 95
REMARK H PARENT 3 6 83 24 57 35 7 66 30 84 13 89
REMARK Flexibility Score: inf
ROOT
ATOM      1  C   UNL     1       5.535  -0.934  -1.790  1.00  0.00     0.042 C 
ENDROOT
BRANCH   1   2
ATOM      2  C   UNL     1       4.838   0.343  -1.353  1.00  0.00     0.118 C 
BRANCH   2   3
ATOM      3  N   UNL     1       3.392   0.207  -1.200  1.00  0.00    -0.352 N 
ATOM      4  O   UNL     1       1.399  -0.119  -0.204  1.00  0.00    -0.269 OA
ATOM      5  C   UNL     1       2.593   0.120  -0.080  1.00  0.00     0.251 C 
ATOM      6  H   UNL     1       2.898   0.170  -2.051  1.00  0.00     0.163 HD
BRANCH   5   7
ATOM      7  C   UNL     1       3.177   0.268   1.272  1.00  0.00     0.039 A 
ATOM      8  C   UNL     1       4.179   1.201   1.517  1.00  0.00     0.014 A 
ATOM      9  C   UNL     1       2.718  -0.541   2.317  1.00  0.00     0.014 A 
ATOM     10  C   UNL     1       4.889   1.154   2.706  1.00  0.00     0.010 A 
ATOM     11  C   UNL     1       3.336  -0.478   3.572  1.00  0.00     0.010 A 
ATOM     12  C   UNL     1       4.463   0.333   3.761  1.00  0.00    -0.014 A 
BRANCH  12  13
ATOM     13  C   UNL     1       5.190   0.408   5.055  1.00  0.00     0.031 A 
ATOM     14  C   UNL     1       5.873  -0.795   5.645  1.00  0.00     0.074 A 
ATOM     15  C   UNL     1       5.283   1.606   5.667  1.00  0.00     0.049 A 
ATOM     16  N   UNL     1       6.576  -0.881   6.747  1.00  0.00    -0.248 NA
ATOM     17  C   UNL     1       5.745  -2.067   4.918  1.00  0.00     0.031 C 
ATOM     18  C   UNL     1       4.651   2.843   5.196  1.00  0.00     0.029 A 
ATOM     19  N   UNL     1       5.970   1.995   6.787  1.00  0.00    -0.354 N 
ATOM     20  C   UNL     1       6.944  -2.216   6.863  1.00  0.00     0.074 A 
ATOM     21  C   UNL     1       6.377  -2.909   5.727  1.00  0.00     0.031 C 
ATOM     22  C   UNL     1       5.041   3.861   5.973  1.00  0.00     0.029 A 
ATOM     23  C   UNL     1       5.877   3.341   7.046  1.00  0.00     0.049 A 
ATOM     24  H   UNL     1       6.481   1.370   7.352  1.00  0.00     0.167 HD
ATOM     25  C   UNL     1       7.690  -2.804   7.829  1.00  0.00     0.037 A 
ATOM     26  C   UNL     1       6.387   4.079   8.047  1.00  0.00     0.037 A 
ATOM     27  C   UNL     1       8.280  -2.101   8.940  1.00  0.00     0.049 A 
ATOM     28  C   UNL     1       7.212   3.401   9.098  1.00  0.00     0.074 A 
ATOM     29  C   UNL     1       9.084  -2.603   9.949  1.00  0.00     0.029 A 
ATOM     30  N   UNL     1       8.132  -0.744   9.186  1.00  0.00    -0.354 N 
ATOM     31  N   UNL     1       7.559   2.140   9.185  1.00  0.00    -0.248 NA
ATOM     32  C   UNL     1       7.704   4.243  10.195  1.00  0.00     0.031 C 
ATOM     33  C   UNL     1       9.390  -1.558  10.827  1.00  0.00     0.029 A 
ATOM     34  C   UNL     1       8.812  -0.396  10.342  1.00  0.00     0.049 A 
ATOM     35  H   UNL     1       7.619  -0.120   8.623  1.00  0.00     0.167 HD
ATOM     36  C   UNL     1       8.312   2.035  10.344  1.00  0.00     0.074 A 
ATOM     37  C   UNL     1       8.394   3.366  10.911  1.00  0.00     0.031 C 
ATOM     38  C   UNL     1       8.877   0.933  10.894  1.00  0.00     0.037 A 
BRANCH  25  39
ATOM     39  C   UNL     1       7.895  -4.289   7.747  1.00  0.00     0.057 A 
ATOM     40  C   UNL     1       8.754  -4.871   6.806  1.00  0.00     0.134 A 
ATOM     41  C   UNL     1       7.265  -5.144   8.661  1.00  0.00     0.134 A 
ATOM     42  F   UNL     1       9.379  -4.111   5.894  1.00  0.00    -0.206 F 
ATOM     43  C   UNL     1       8.967  -6.251   6.767  1.00  0.00     0.040 A 
ATOM     44  C   UNL     1       7.487  -6.523   8.646  1.00  0.00     0.040 A 
ATOM     45  F   UNL     1       6.434  -4.652   9.592  1.00  0.00    -0.206 F 
ATOM     46  C   UNL     1       8.338  -7.080   7.695  1.00  0.00     0.006 A 
ENDBRANCH  25  39
BRANCH  26  47
ATOM     47  C   UNL     1       6.106   5.534   8.102  1.00  0.00     0.057 A 
ATOM     48  C   UNL     1       7.111   6.477   7.863  1.00  0.00     0.134 A 
ATOM     49  C   UNL     1       4.816   6.014   8.357  1.00  0.00     0.134 A 
ATOM     50  F   UNL     1       8.369   6.078   7.626  1.00  0.00    -0.206 F 
ATOM     51  C   UNL     1       6.844   7.847   7.882  1.00  0.00     0.040 A 
ATOM     52  C   UNL     1       4.529   7.379   8.352  1.00  0.00     0.040 A 
ATOM     53  F   UNL     1       3.807   5.159   8.582  1.00  0.00    -0.206 F 
ATOM     54  C   UNL     1       5.547   8.300   8.118  1.00  0.00     0.006 A 
ENDBRANCH  26  47
BRANCH  38  55
ATOM     55  C   UNL     1       9.643   1.133  12.166  1.00  0.00     0.057 A 
ATOM     56  C   UNL     1       8.994   1.366  13.385  1.00  0.00     0.134 A 
ATOM     57  C   UNL     1      11.041   1.073  12.175  1.00  0.00     0.134 A 
ATOM     58  F   UNL     1       7.656   1.450  13.438  1.00  0.00    -0.206 F 
ATOM     59  C   UNL     1       9.712   1.557  14.566  1.00  0.00     0.040 A 
ATOM     60  C   UNL     1      11.769   1.240  13.353  1.00  0.00     0.040 A 
ATOM     61  F   UNL     1      11.720   0.848  11.040  1.00  0.00    -0.206 F 
ATOM     62  C   UNL     1      11.104   1.489  14.552  1.00  0.00     0.006 A 
ENDBRANCH  38  55
ENDBRANCH  12  13
ENDBRANCH   5   7
ENDBRANCH   2   3
ENDBRANCH   1   2
BRANCH   1  63
ATOM     63  C   UNL     1       5.140  -1.397  -3.176  1.00  0.00     0.118 C 
BRANCH  63  64
ATOM     64  N   UNL     1       5.402  -0.440  -4.231  1.00  0.00    -0.352 N 
ATOM     65  C   UNL     1       5.691  -0.696  -5.549  1.00  0.00     0.253 C 
ATOM     66  H   UNL     1       5.367   0.509  -3.972  1.00  0.00     0.163 HD
ATOM     67  O   UNL     1       5.730   0.238  -6.346  1.00  0.00    -0.269 OA
BRANCH  65  68
ATOM     68  C   UNL     1       6.067  -2.062  -5.987  1.00  0.00     0.065 A 
ATOM     69  C   UNL     1       7.368  -2.127  -6.518  1.00  0.00     0.042 A 
ATOM     70  C   UNL     1       5.270  -3.217  -5.855  1.00  0.00     0.050 A 
ATOM     71  C   UNL     1       7.976  -3.340  -6.803  1.00  0.00     0.042 A 
ATOM     72  C   UNL     1       5.889  -4.433  -6.198  1.00  0.00     0.029 A 
ATOM     73  C   UNL     1       7.215  -4.498  -6.654  1.00  0.00     0.028 A 
BRANCH  70  74
ATOM     74  N   UNL     1       3.926  -3.232  -5.494  1.00  0.00    -0.370 N 
ATOM     75  C   UNL     1       3.465  -4.101  -4.404  1.00  0.00     0.116 C 
ATOM     76  C   UNL     1       3.062  -2.133  -5.937  1.00  0.00     0.126 C 
ATOM     77  C   UNL     1       2.006  -4.513  -4.576  1.00  0.00     0.022 C 
ATOM     78  C   UNL     1       1.654  -2.651  -6.257  1.00  0.00     0.064 C 
ATOM     79  C   UNL     1       1.122  -3.342  -4.994  1.00  0.00     0.013 C 
BRANCH  78  80
ATOM     80  C   UNL     1       1.715  -3.522  -7.539  1.00  0.00     0.267 C 
BRANCH  80  81
ATOM     81  N   UNL     1       0.480  -3.879  -8.240  1.00  0.00    -0.335 N 
ATOM     82  C   UNL     1      -0.317  -2.746  -8.701  1.00  0.00     0.262 C 
ATOM     83  C   UNL     1      -0.414  -4.807  -7.557  1.00  0.00     0.262 C 
ATOM     84  H   UNL     1       0.881  -4.367  -9.042  1.00  0.00     0.348 HD
ATOM     85  C   UNL     1      -1.445  -2.617  -7.698  1.00  0.00     0.067 C 
ATOM     86  C   UNL     1      -1.692  -4.041  -7.235  1.00  0.00     0.067 C 
ENDBRANCH  80  81
ENDBRANCH  78  80
ENDBRANCH  70  74
BRANCH  71  87
ATOM     87  N   UNL     1       9.299  -3.479  -7.263  1.00  0.00    -0.321 N 
ATOM     88  C   UNL     1      10.362  -2.595  -7.338  1.00  0.00     0.265 C 
ATOM     89  H   UNL     1       9.510  -4.381  -7.597  1.00  0.00     0.170 HD
ATOM     90  O   UNL     1      11.339  -2.952  -8.000  1.00  0.00    -0.268 OA
BRANCH  88  91
ATOM     91  C   UNL     1      10.327  -1.347  -6.603  1.00  0.00     0.092 A 
ATOM     92  C   UNL     1      10.089  -1.127  -5.257  1.00  0.00     0.025 A 
ATOM     93  S   UNL     1      10.613   0.122  -7.437  1.00  0.00    -0.139 S 
ATOM     94  C   UNL     1      10.003   0.262  -4.946  1.00  0.00     0.012 A 
ATOM     95  C   UNL     1      10.246   1.052  -6.048  1.00  0.00     0.065 A 
ENDBRANCH  88  91
ENDBRANCH  71  87
ENDBRANCH  65  68
ENDBRANCH  63  64
ENDBRANCH   1  63
TORSDOF 15
