REMARK SMILES [NH3+][C@@H](CC1=C[C@H](S)c2ccccc2C1)C(=O)NCCCNC(=O)c1ccc(-c2c3nc(c(-c4c(F)cccc4F)c4ccc([nH]4)c(-c4c(F)cccc4F)c4nc(c(-c5c(F)cccc5F)c5ccc2[nH]5)C=C4)C=C3)cc1
REMARK SMILES IDX 18 1 17 2 15 3 16 4 2 6 1 7 3 11 4 12 5 13 14 14 6 15 13 16
REMARK SMILES IDX 8 17 12 18 9 19 11 20 10 21 7 22 19 24 20 25 21 26 22 27
REMARK SMILES IDX 23 29 24 30 25 31 77 32 26 33 76 34 27 35 28 36 29 37 70 38
REMARK SMILES IDX 30 39 75 40 69 41 71 42 31 43 74 44 68 45 67 46 32 48 58 49
REMARK SMILES IDX 41 50 57 51 42 52 45 53 56 54 72 55 43 56 44 57 55 59 73 60
REMARK SMILES IDX 46 61 33 62 34 63 39 64 35 65 36 66 38 67 40 68 37 69 59 70
REMARK SMILES IDX 60 71 65 72 61 73 62 74 64 75 66 76 63 77 47 78 48 79 53 80
REMARK SMILES IDX 49 81 50 82 52 83 54 84 51 85
REMARK H PARENT 17 5 1 8 1 9 1 10 7 23 21 28 71 47 45 58
REMARK Flexibility Score: inf
ROOT
ATOM      1  C   UNL     1      -2.012  -1.646  -0.107  1.00  0.00     0.118 C 
ENDROOT
BRANCH   1   2
ATOM      2  N   UNL     1      -1.908  -0.630  -1.123  1.00  0.00    -0.351 N 
ATOM      3  C   UNL     1      -0.837  -0.191  -1.841  1.00  0.00     0.278 C 
ATOM      4  O   UNL     1      -1.100   0.437  -2.873  1.00  0.00    -0.268 OA
ATOM      5  H   UNL     1      -2.756  -0.175  -1.334  1.00  0.00     0.163 HD
BRANCH   3   6
ATOM      6  C   UNL     1       0.638  -0.391  -1.395  1.00  0.00     0.275 C 
BRANCH   6   7
ATOM      7  N   UNL     1       0.910   0.387  -0.176  1.00  0.00    -0.347 N 
ATOM      8  H   UNL     1       1.881   0.248   0.106  1.00  0.00     0.345 HD
ATOM      9  H   UNL     1       0.291   0.075   0.572  1.00  0.00     0.345 HD
ATOM     10  H   UNL     1       0.749   1.377  -0.362  1.00  0.00     0.345 HD
ENDBRANCH   6   7
BRANCH   6  11
ATOM     11  C   UNL     1       1.228  -1.827  -1.497  1.00  0.00     0.106 C 
BRANCH  11  12
ATOM     12  C   UNL     1       1.167  -2.876  -0.383  1.00  0.00    -0.062 C 
ATOM     13  C   UNL     1       1.069  -2.624   0.937  1.00  0.00    -0.009 C 
ATOM     14  C   UNL     1       1.147  -4.305  -0.897  1.00  0.00     0.066 C 
ATOM     15  C   UNL     1       0.751  -3.654   1.994  1.00  0.00     0.096 C 
ATOM     16  C   UNL     1       0.915  -5.383   0.138  1.00  0.00    -0.039 A 
ATOM     17  C   UNL     1       0.687  -5.078   1.492  1.00  0.00    -0.028 A 
ATOM     18  C   UNL     1       0.869  -6.722  -0.287  1.00  0.00     0.004 A 
ATOM     19  C   UNL     1       0.331  -6.119   2.371  1.00  0.00     0.005 A 
ATOM     20  C   UNL     1       0.556  -7.744   0.607  1.00  0.00     0.000 A 
ATOM     21  C   UNL     1       0.268  -7.441   1.932  1.00  0.00     0.000 A 
BRANCH  15  22
ATOM     22  S   UNL     1       1.924  -3.428   3.370  1.00  0.00    -0.167 SA
ATOM     23  H   UNL     1       3.191  -3.643   2.925  1.00  0.00     0.103 HD
ENDBRANCH  15  22
ENDBRANCH  11  12
ENDBRANCH   6  11
ENDBRANCH   3   6
ENDBRANCH   1   2
BRANCH   1  24
ATOM     24  C   UNL     1      -2.252  -1.100   1.292  1.00  0.00     0.042 C 
BRANCH  24  25
ATOM     25  C   UNL     1      -3.578  -1.556   1.891  1.00  0.00     0.118 C 
BRANCH  25  26
ATOM     26  N   UNL     1      -3.749  -3.007   1.941  1.00  0.00    -0.352 N 
ATOM     27  C   UNL     1      -4.149  -3.860   2.942  1.00  0.00     0.251 C 
ATOM     28  H   UNL     1      -3.537  -3.461   1.094  1.00  0.00     0.163 HD
ATOM     29  O   UNL     1      -4.183  -5.068   2.705  1.00  0.00    -0.269 OA
BRANCH  27  30
ATOM     30  C   UNL     1      -4.480  -3.377   4.301  1.00  0.00     0.039 A 
ATOM     31  C   UNL     1      -5.055  -2.131   4.520  1.00  0.00     0.014 A 
ATOM     32  C   UNL     1      -4.195  -4.200   5.399  1.00  0.00     0.014 A 
ATOM     33  C   UNL     1      -5.104  -1.610   5.806  1.00  0.00     0.010 A 
ATOM     34  C   UNL     1      -4.383  -3.727   6.702  1.00  0.00     0.010 A 
ATOM     35  C   UNL     1      -4.772  -2.399   6.918  1.00  0.00    -0.014 A 
BRANCH  35  36
ATOM     36  C   UNL     1      -4.832  -1.792   8.277  1.00  0.00     0.031 A 
ATOM     37  C   UNL     1      -3.602  -1.712   9.146  1.00  0.00     0.074 A 
ATOM     38  C   UNL     1      -5.983  -1.227   8.692  1.00  0.00     0.049 A 
ATOM     39  N   UNL     1      -3.465  -1.175  10.333  1.00  0.00    -0.248 NA
ATOM     40  C   UNL     1      -2.368  -2.321   8.624  1.00  0.00     0.031 C 
ATOM     41  C   UNL     1      -7.244  -1.233   7.946  1.00  0.00     0.029 A 
ATOM     42  N   UNL     1      -6.271  -0.497   9.817  1.00  0.00    -0.354 N 
ATOM     43  C   UNL     1      -2.147  -1.407  10.709  1.00  0.00     0.074 A 
ATOM     44  C   UNL     1      -1.531  -2.159   9.638  1.00  0.00     0.031 C 
ATOM     45  C   UNL     1      -8.140  -0.469   8.586  1.00  0.00     0.029 A 
ATOM     46  C   UNL     1      -7.548   0.012   9.828  1.00  0.00     0.049 A 
ATOM     47  H   UNL     1      -5.626  -0.352  10.547  1.00  0.00     0.167 HD
ATOM     48  C   UNL     1      -1.503  -1.018  11.836  1.00  0.00     0.037 A 
ATOM     49  C   UNL     1      -8.180   0.771  10.741  1.00  0.00     0.037 A 
ATOM     50  C   UNL     1      -2.105  -0.240  12.888  1.00  0.00     0.049 A 
ATOM     51  C   UNL     1      -7.450   1.165  11.990  1.00  0.00     0.074 A 
ATOM     52  C   UNL     1      -1.531   0.217  14.062  1.00  0.00     0.029 A 
ATOM     53  N   UNL     1      -3.419   0.203  12.888  1.00  0.00    -0.354 N 
ATOM     54  N   UNL     1      -6.207   0.931  12.329  1.00  0.00    -0.248 NA
ATOM     55  C   UNL     1      -8.220   1.914  12.992  1.00  0.00     0.031 C 
ATOM     56  C   UNL     1      -2.509   0.906  14.789  1.00  0.00     0.029 A 
ATOM     57  C   UNL     1      -3.679   0.914  14.048  1.00  0.00     0.049 A 
ATOM     58  H   UNL     1      -4.071   0.037  12.169  1.00  0.00     0.167 HD
ATOM     59  C   UNL     1      -6.040   1.512  13.579  1.00  0.00     0.074 A 
ATOM     60  C   UNL     1      -7.303   2.132  13.924  1.00  0.00     0.031 C 
ATOM     61  C   UNL     1      -4.943   1.523  14.374  1.00  0.00     0.037 A 
BRANCH  48  62
ATOM     62  C   UNL     1      -0.072  -1.447  11.998  1.00  0.00     0.057 A 
ATOM     63  C   UNL     1       0.277  -2.421  12.942  1.00  0.00     0.134 A 
ATOM     64  C   UNL     1       0.962  -0.886  11.238  1.00  0.00     0.134 A 
ATOM     65  F   UNL     1      -0.663  -2.996  13.708  1.00  0.00    -0.206 F 
ATOM     66  C   UNL     1       1.602  -2.823  13.123  1.00  0.00     0.040 A 
ATOM     67  C   UNL     1       2.288  -1.297  11.392  1.00  0.00     0.040 A 
ATOM     68  F   UNL     1       0.695   0.042  10.307  1.00  0.00    -0.206 F 
ATOM     69  C   UNL     1       2.611  -2.265  12.341  1.00  0.00     0.006 A 
ENDBRANCH  48  62
BRANCH  49  70
ATOM     70  C   UNL     1      -9.585   1.192  10.515  1.00  0.00     0.057 A 
ATOM     71  C   UNL     1     -10.635   0.265  10.522  1.00  0.00     0.134 A 
ATOM     72  C   UNL     1      -9.912   2.535  10.295  1.00  0.00     0.134 A 
ATOM     73  F   UNL     1     -10.386  -1.038  10.722  1.00  0.00    -0.206 F 
ATOM     74  C   UNL     1     -11.956   0.655  10.306  1.00  0.00     0.040 A 
ATOM     75  C   UNL     1     -11.233   2.943  10.106  1.00  0.00     0.040 A 
ATOM     76  F   UNL     1      -8.953   3.473  10.295  1.00  0.00    -0.206 F 
ATOM     77  C   UNL     1     -12.259   2.000  10.105  1.00  0.00     0.006 A 
ENDBRANCH  49  70
BRANCH  61  78
ATOM     78  C   UNL     1      -5.065   2.249  15.680  1.00  0.00     0.057 A 
ATOM     79  C   UNL     1      -4.431   3.483  15.871  1.00  0.00     0.134 A 
ATOM     80  C   UNL     1      -5.809   1.728  16.746  1.00  0.00     0.134 A 
ATOM     81  F   UNL     1      -3.701   4.034  14.890  1.00  0.00    -0.206 F 
ATOM     82  C   UNL     1      -4.535   4.175  17.079  1.00  0.00     0.040 A 
ATOM     83  C   UNL     1      -5.940   2.422  17.949  1.00  0.00     0.040 A 
ATOM     84  F   UNL     1      -6.454   0.559  16.617  1.00  0.00    -0.206 F 
ATOM     85  C   UNL     1      -5.299   3.648  18.119  1.00  0.00     0.006 A 
ENDBRANCH  61  78
ENDBRANCH  35  36
ENDBRANCH  27  30
ENDBRANCH  25  26
ENDBRANCH  24  25
ENDBRANCH   1  24
TORSDOF 14
