REMARK SMILES [NH3+][C@H](CO)c1ccc(Cl)c(C(=O)NCCCNC(=O)c2ccc(-c3c4nc(c(-c5c(F)cccc5F)c5ccc([nH]5)c(-c5c(F)cccc5F)c5nc(c(-c6c(F)cccc6F)c6ccc3[nH]6)C=C5)C=C4)cc2)c1
REMARK SMILES IDX 14 1 13 2 11 3 12 4 10 6 5 7 6 8 74 9 7 10 8 11 9 12 2 13
REMARK SMILES IDX 1 14 3 18 4 19 15 21 16 22 17 23 18 24 19 26 20 27 21 28
REMARK SMILES IDX 73 29 22 30 72 31 23 32 24 33 25 34 66 35 26 36 71 37 65 38
REMARK SMILES IDX 67 39 27 40 70 41 64 42 63 43 28 45 54 46 37 47 53 48 38 49
REMARK SMILES IDX 41 50 52 51 68 52 39 53 40 54 51 56 69 57 42 58 29 59 30 60
REMARK SMILES IDX 35 61 31 62 32 63 34 64 36 65 33 66 55 67 56 68 61 69 57 70
REMARK SMILES IDX 58 71 60 72 62 73 59 74 43 75 44 76 49 77 45 78 46 79 48 80
REMARK SMILES IDX 50 81 47 82
REMARK H PARENT 13 5 1 15 1 16 1 17 4 20 17 25 67 44 41 55
REMARK Flexibility Score: inf
ROOT
ATOM      1  C   UNL     1      -6.274  -1.060  -1.571  1.00  0.00     0.118 C 
ENDROOT
BRANCH   1   2
ATOM      2  N   UNL     1      -5.264  -2.060  -1.288  1.00  0.00    -0.352 N 
ATOM      3  C   UNL     1      -3.931  -1.948  -0.979  1.00  0.00     0.252 C 
ATOM      4  O   UNL     1      -3.342  -2.986  -0.670  1.00  0.00    -0.269 OA
ATOM      5  H   UNL     1      -5.593  -2.987  -1.325  1.00  0.00     0.163 HD
BRANCH   3   6
ATOM      6  C   UNL     1      -3.138  -0.691  -1.092  1.00  0.00     0.058 A 
ATOM      7  C   UNL     1      -0.890   0.196  -1.581  1.00  0.00     0.012 A 
ATOM      8  C   UNL     1      -1.390   1.495  -1.457  1.00  0.00     0.011 A 
ATOM      9  C   UNL     1      -1.797  -0.875  -1.492  1.00  0.00     0.025 A 
ATOM     10  C   UNL     1      -2.700   1.695  -1.029  1.00  0.00     0.022 A 
ATOM     11  C   UNL     1      -3.527   0.603  -0.732  1.00  0.00     0.053 A 
ATOM     12  Cl  UNL     1      -4.854   0.956   0.324  1.00  0.00    -0.083 Cl
BRANCH   7  13
ATOM     13  C   UNL     1       0.620  -0.016  -1.588  1.00  0.00     0.237 C 
BRANCH  13  14
ATOM     14  N   UNL     1       1.025  -1.244  -2.283  1.00  0.00    -0.349 N 
ATOM     15  H   UNL     1       0.681  -1.221  -3.243  1.00  0.00     0.345 HD
ATOM     16  H   UNL     1       0.632  -2.053  -1.800  1.00  0.00     0.345 HD
ATOM     17  H   UNL     1       2.043  -1.312  -2.288  1.00  0.00     0.345 HD
ENDBRANCH  13  14
BRANCH  13  18
ATOM     18  C   UNL     1       1.136  -0.029  -0.118  1.00  0.00     0.226 C 
BRANCH  18  19
ATOM     19  O   UNL     1       0.719  -1.206   0.583  1.00  0.00    -0.390 OA
ATOM     20  H   UNL     1      -0.250  -1.236   0.616  1.00  0.00     0.210 HD
ENDBRANCH  18  19
ENDBRANCH  13  18
ENDBRANCH   7  13
ENDBRANCH   3   6
ENDBRANCH   1   2
BRANCH   1  21
ATOM     21  C   UNL     1      -7.148  -1.349  -2.775  1.00  0.00     0.042 C 
BRANCH  21  22
ATOM     22  C   UNL     1      -8.041  -2.571  -2.657  1.00  0.00     0.118 C 
BRANCH  22  23
ATOM     23  N   UNL     1      -9.025  -2.478  -1.583  1.00  0.00    -0.352 N 
ATOM     24  C   UNL     1     -10.378  -2.238  -1.609  1.00  0.00     0.251 C 
ATOM     25  H   UNL     1      -8.654  -2.610  -0.681  1.00  0.00     0.163 HD
ATOM     26  O   UNL     1     -10.978  -2.043  -0.550  1.00  0.00    -0.269 OA
BRANCH  24  27
ATOM     27  C   UNL     1     -11.123  -2.180  -2.885  1.00  0.00     0.039 A 
ATOM     28  C   UNL     1     -12.140  -1.233  -3.042  1.00  0.00     0.014 A 
ATOM     29  C   UNL     1     -10.839  -3.062  -3.927  1.00  0.00     0.014 A 
ATOM     30  C   UNL     1     -12.800  -1.115  -4.268  1.00  0.00     0.010 A 
ATOM     31  C   UNL     1     -11.404  -2.864  -5.180  1.00  0.00     0.010 A 
ATOM     32  C   UNL     1     -12.401  -1.896  -5.365  1.00  0.00    -0.014 A 
BRANCH  32  33
ATOM     33  C   UNL     1     -13.018  -1.738  -6.707  1.00  0.00     0.031 A 
ATOM     34  C   UNL     1     -13.711  -2.904  -7.359  1.00  0.00     0.074 A 
ATOM     35  C   UNL     1     -12.886  -0.573  -7.372  1.00  0.00     0.049 A 
ATOM     36  N   UNL     1     -14.227  -2.997  -8.559  1.00  0.00    -0.248 NA
ATOM     37  C   UNL     1     -13.807  -4.145  -6.571  1.00  0.00     0.031 C 
ATOM     38  C   UNL     1     -12.191   0.616  -6.872  1.00  0.00     0.029 A 
ATOM     39  N   UNL     1     -13.323  -0.199  -8.618  1.00  0.00    -0.354 N 
ATOM     40  C   UNL     1     -14.688  -4.303  -8.671  1.00  0.00     0.074 A 
ATOM     41  C   UNL     1     -14.331  -4.986  -7.448  1.00  0.00     0.031 C 
ATOM     42  C   UNL     1     -12.278   1.595  -7.786  1.00  0.00     0.029 A 
ATOM     43  C   UNL     1     -12.990   1.091  -8.956  1.00  0.00     0.049 A 
ATOM     44  H   UNL     1     -13.827  -0.798  -9.214  1.00  0.00     0.167 HD
ATOM     45  C   UNL     1     -15.376  -4.875  -9.688  1.00  0.00     0.037 A 
ATOM     46  C   UNL     1     -13.226   1.787 -10.084  1.00  0.00     0.037 A 
ATOM     47  C   UNL     1     -15.752  -4.184 -10.893  1.00  0.00     0.049 A 
ATOM     48  C   UNL     1     -13.977   1.124 -11.207  1.00  0.00     0.074 A 
ATOM     49  C   UNL     1     -16.496  -4.654 -11.959  1.00  0.00     0.029 A 
ATOM     50  N   UNL     1     -15.408  -2.873 -11.190  1.00  0.00    -0.354 N 
ATOM     51  N   UNL     1     -14.467  -0.090 -11.271  1.00  0.00    -0.248 NA
ATOM     52  C   UNL     1     -14.213   1.932 -12.412  1.00  0.00     0.031 C 
ATOM     53  C   UNL     1     -16.559  -3.645 -12.925  1.00  0.00     0.029 A 
ATOM     54  C   UNL     1     -15.905  -2.526 -12.435  1.00  0.00     0.049 A 
ATOM     55  H   UNL     1     -14.888  -2.278 -10.603  1.00  0.00     0.167 HD
ATOM     56  C   UNL     1     -15.096  -0.182 -12.507  1.00  0.00     0.074 A 
ATOM     57  C   UNL     1     -14.937   1.105 -13.152  1.00  0.00     0.031 C 
ATOM     58  C   UNL     1     -15.746  -1.236 -13.058  1.00  0.00     0.037 A 
BRANCH  45  59
ATOM     59  C   UNL     1     -15.769  -6.317  -9.535  1.00  0.00     0.057 A 
ATOM     60  C   UNL     1     -16.726  -6.728  -8.596  1.00  0.00     0.134 A 
ATOM     61  C   UNL     1     -15.208  -7.304 -10.355  1.00  0.00     0.134 A 
ATOM     62  F   UNL     1     -17.294  -5.836  -7.770  1.00  0.00    -0.206 F 
ATOM     63  C   UNL     1     -17.086  -8.069  -8.457  1.00  0.00     0.040 A 
ATOM     64  C   UNL     1     -15.583  -8.644 -10.247  1.00  0.00     0.040 A 
ATOM     65  F   UNL     1     -14.291  -6.982 -11.280  1.00  0.00    -0.206 F 
ATOM     66  C   UNL     1     -16.519  -9.031  -9.290  1.00  0.00     0.006 A 
ENDBRANCH  45  59
BRANCH  46  67
ATOM     67  C   UNL     1     -12.771   3.196 -10.203  1.00  0.00     0.057 A 
ATOM     68  C   UNL     1     -13.691   4.250 -10.245  1.00  0.00     0.134 A 
ATOM     69  C   UNL     1     -11.413   3.525 -10.290  1.00  0.00     0.134 A 
ATOM     70  F   UNL     1     -15.007   4.000 -10.184  1.00  0.00    -0.206 F 
ATOM     71  C   UNL     1     -13.281   5.576 -10.393  1.00  0.00     0.040 A 
ATOM     72  C   UNL     1     -10.986   4.849 -10.409  1.00  0.00     0.040 A 
ATOM     73  F   UNL     1     -10.479   2.563 -10.246  1.00  0.00    -0.206 F 
ATOM     74  C   UNL     1     -11.923   5.879 -10.470  1.00  0.00     0.006 A 
ENDBRANCH  46  67
BRANCH  58  75
ATOM     75  C   UNL     1     -16.373  -1.030 -14.406  1.00  0.00     0.057 A 
ATOM     76  C   UNL     1     -15.605  -0.900 -15.570  1.00  0.00     0.134 A 
ATOM     77  C   UNL     1     -17.767  -1.004 -14.544  1.00  0.00     0.134 A 
ATOM     78  F   UNL     1     -14.265  -0.904 -15.505  1.00  0.00    -0.206 F 
ATOM     79  C   UNL     1     -16.201  -0.726 -16.820  1.00  0.00     0.040 A 
ATOM     80  C   UNL     1     -18.375  -0.863 -15.792  1.00  0.00     0.040 A 
ATOM     81  F   UNL     1     -18.561  -1.134 -13.471  1.00  0.00    -0.206 F 
ATOM     82  C   UNL     1     -17.590  -0.716 -16.934  1.00  0.00     0.006 A 
ENDBRANCH  58  75
ENDBRANCH  32  33
ENDBRANCH  24  27
ENDBRANCH  22  23
ENDBRANCH  21  22
ENDBRANCH   1  21
TORSDOF 14
