REMARK SMILES O=C(NCCCNC(=O)[C@@H]1[C@@H](C(=O)NCc2ccccc2OCc2ccccc2)[C@@H]2C=C[C@H]1C2)c1ccc(-c2c3nc(c(-c4c(F)cccc4F)c4ccc([nH]4)c(-c4c(F)cccc4F)c4nc(c(-c5c(F)cccc5F)c5ccc2[nH]5)C=C4)C=C3)cc1
REMARK SMILES IDX 7 1 8 2 9 3 6 5 5 6 4 7 3 8 1 9 2 10 35 12 36 13 88 14 37 15
REMARK SMILES IDX 87 16 38 17 39 18 40 19 81 20 41 21 86 22 80 23 82 24 42 25
REMARK SMILES IDX 85 26 79 27 78 28 43 30 69 31 52 32 68 33 53 34 56 35 67 36
REMARK SMILES IDX 83 37 54 38 55 39 66 41 84 42 57 43 44 44 45 45 50 46 46 47
REMARK SMILES IDX 47 48 49 49 51 50 48 51 70 52 71 53 76 54 72 55 73 56 75 57
REMARK SMILES IDX 77 58 74 59 58 60 59 61 64 62 60 63 61 64 63 65 65 66 62 67
REMARK SMILES IDX 10 68 11 69 33 70 30 71 32 72 34 73 31 74 12 75 13 76 14 77
REMARK SMILES IDX 15 79 16 80 17 81 21 82 18 83 20 84 19 85 22 86 23 87 24 88
REMARK SMILES IDX 25 89 29 90 26 91 28 92 27 93
REMARK H PARENT 7 4 3 11 82 29 56 40 14 78
REMARK Flexibility Score: inf
ROOT
ATOM      1  N   UNL     1       5.318   2.243  -3.562  1.00  0.00    -0.356 N 
ATOM      2  C   UNL     1       6.478   2.442  -4.242  1.00  0.00     0.224 C 
ATOM      3  O   UNL     1       7.061   3.505  -4.003  1.00  0.00    -0.275 OA
ATOM      4  H   UNL     1       5.071   3.003  -2.987  1.00  0.00     0.163 HD
ENDROOT
BRANCH   1   5
ATOM      5  C   UNL     1       4.364   1.148  -3.501  1.00  0.00     0.117 C 
BRANCH   5   6
ATOM      6  C   UNL     1       4.652   0.193  -2.358  1.00  0.00     0.042 C 
BRANCH   6   7
ATOM      7  C   UNL     1       4.336   0.791  -1.005  1.00  0.00     0.118 C 
BRANCH   7   8
ATOM      8  N   UNL     1       2.914   0.767  -0.699  1.00  0.00    -0.352 N 
ATOM      9  O   UNL     1       1.036   0.080   0.340  1.00  0.00    -0.269 OA
ATOM     10  C   UNL     1       2.254   0.137   0.336  1.00  0.00     0.251 C 
ATOM     11  H   UNL     1       2.340   1.272  -1.319  1.00  0.00     0.163 HD
BRANCH  10  12
ATOM     12  C   UNL     1       3.037  -0.490   1.428  1.00  0.00     0.039 A 
ATOM     13  C   UNL     1       4.186   0.127   1.919  1.00  0.00     0.014 A 
ATOM     14  C   UNL     1       2.622  -1.714   1.962  1.00  0.00     0.014 A 
ATOM     15  C   UNL     1       5.021  -0.559   2.785  1.00  0.00     0.010 A 
ATOM     16  C   UNL     1       3.394  -2.339   2.949  1.00  0.00     0.010 A 
ATOM     17  C   UNL     1       4.616  -1.780   3.347  1.00  0.00    -0.014 A 
BRANCH  17  18
ATOM     18  C   UNL     1       5.460  -2.369   4.418  1.00  0.00     0.031 A 
ATOM     19  C   UNL     1       6.106  -3.716   4.269  1.00  0.00     0.074 A 
ATOM     20  C   UNL     1       5.690  -1.622   5.518  1.00  0.00     0.049 A 
ATOM     21  N   UNL     1       6.914  -4.333   5.095  1.00  0.00    -0.248 NA
ATOM     22  C   UNL     1       5.806  -4.476   3.046  1.00  0.00     0.031 C 
ATOM     23  C   UNL     1       5.094  -0.306   5.780  1.00  0.00     0.029 A 
ATOM     24  N   UNL     1       6.507  -1.832   6.596  1.00  0.00    -0.354 N 
ATOM     25  C   UNL     1       7.208  -5.554   4.503  1.00  0.00     0.074 A 
ATOM     26  C   UNL     1       6.468  -5.606   3.260  1.00  0.00     0.031 C 
ATOM     27  C   UNL     1       5.623   0.204   6.899  1.00  0.00     0.029 A 
ATOM     28  C   UNL     1       6.527  -0.779   7.479  1.00  0.00     0.049 A 
ATOM     29  H   UNL     1       7.030  -2.656   6.726  1.00  0.00     0.167 HD
ATOM     30  C   UNL     1       8.028  -6.534   4.954  1.00  0.00     0.037 A 
ATOM     31  C   UNL     1       7.185  -0.623   8.641  1.00  0.00     0.037 A 
ATOM     32  C   UNL     1       8.766  -6.469   6.191  1.00  0.00     0.049 A 
ATOM     33  C   UNL     1       8.079  -1.728   9.115  1.00  0.00     0.074 A 
ATOM     34  C   UNL     1       9.621  -7.411   6.737  1.00  0.00     0.029 A 
ATOM     35  N   UNL     1       8.739  -5.398   7.073  1.00  0.00    -0.354 N 
ATOM     36  N   UNL     1       8.350  -2.873   8.537  1.00  0.00    -0.248 NA
ATOM     37  C   UNL     1       8.753  -1.524  10.402  1.00  0.00     0.031 C 
ATOM     38  C   UNL     1      10.084  -6.925   7.966  1.00  0.00     0.029 A 
ATOM     39  C   UNL     1       9.553  -5.660   8.164  1.00  0.00     0.049 A 
ATOM     40  H   UNL     1       8.217  -4.573   6.944  1.00  0.00     0.167 HD
ATOM     41  C   UNL     1       9.229  -3.526   9.388  1.00  0.00     0.074 A 
ATOM     42  C   UNL     1       9.474  -2.631  10.502  1.00  0.00     0.031 C 
ATOM     43  C   UNL     1       9.777  -4.759   9.265  1.00  0.00     0.037 A 
BRANCH  30  44
ATOM     44  C   UNL     1       8.167  -7.769   4.111  1.00  0.00     0.057 A 
ATOM     45  C   UNL     1       8.880  -7.763   2.905  1.00  0.00     0.134 A 
ATOM     46  C   UNL     1       7.629  -8.992   4.535  1.00  0.00     0.134 A 
ATOM     47  F   UNL     1       9.412  -6.625   2.436  1.00  0.00    -0.206 F 
ATOM     48  C   UNL     1       9.040  -8.924   2.144  1.00  0.00     0.040 A 
ATOM     49  C   UNL     1       7.802 -10.163   3.795  1.00  0.00     0.040 A 
ATOM     50  F   UNL     1       6.940  -9.071   5.683  1.00  0.00    -0.206 F 
ATOM     51  C   UNL     1       8.507 -10.130   2.593  1.00  0.00     0.006 A 
ENDBRANCH  30  44
BRANCH  31  52
ATOM     52  C   UNL     1       6.998   0.615   9.437  1.00  0.00     0.057 A 
ATOM     53  C   UNL     1       8.037   1.535   9.612  1.00  0.00     0.134 A 
ATOM     54  C   UNL     1       5.766   0.911  10.036  1.00  0.00     0.134 A 
ATOM     55  F   UNL     1       9.243   1.302   9.075  1.00  0.00    -0.206 F 
ATOM     56  C   UNL     1       7.864   2.695  10.369  1.00  0.00     0.040 A 
ATOM     57  C   UNL     1       5.570   2.082  10.767  1.00  0.00     0.040 A 
ATOM     58  F   UNL     1       4.726   0.076   9.894  1.00  0.00    -0.206 F 
ATOM     59  C   UNL     1       6.625   2.974  10.943  1.00  0.00     0.006 A 
ENDBRANCH  31  52
BRANCH  43  60
ATOM     60  C   UNL     1      10.705  -5.192  10.360  1.00  0.00     0.057 A 
ATOM     61  C   UNL     1      10.232  -5.527  11.636  1.00  0.00     0.134 A 
ATOM     62  C   UNL     1      12.084  -5.272  10.137  1.00  0.00     0.134 A 
ATOM     63  F   UNL     1       8.922  -5.453  11.917  1.00  0.00    -0.206 F 
ATOM     64  C   UNL     1      11.103  -5.895  12.662  1.00  0.00     0.040 A 
ATOM     65  C   UNL     1      12.963  -5.665  11.148  1.00  0.00     0.040 A 
ATOM     66  F   UNL     1      12.600  -4.970   8.936  1.00  0.00    -0.206 F 
ATOM     67  C   UNL     1      12.473  -5.968  12.417  1.00  0.00     0.006 A 
ENDBRANCH  43  60
ENDBRANCH  17  18
ENDBRANCH  10  12
ENDBRANCH   7   8
ENDBRANCH   6   7
ENDBRANCH   5   6
ENDBRANCH   1   5
BRANCH   2  68
ATOM     68  C   UNL     1       6.974   1.526  -5.356  1.00  0.00     0.098 C 
ATOM     69  C   UNL     1       6.785   0.002  -5.218  1.00  0.00     0.098 C 
ATOM     70  C   UNL     1       8.509   1.665  -5.582  1.00  0.00     0.025 C 
ATOM     71  C   UNL     1       8.245  -0.535  -5.381  1.00  0.00     0.025 C 
ATOM     72  C   UNL     1       9.238   1.245  -4.328  1.00  0.00    -0.027 C 
ATOM     73  C   UNL     1       8.791   0.428  -6.439  1.00  0.00     0.017 C 
ATOM     74  C   UNL     1       9.065  -0.077  -4.196  1.00  0.00    -0.027 C 
BRANCH  69  75
ATOM     75  C   UNL     1       5.921  -0.690  -6.263  1.00  0.00     0.224 C 
ATOM     76  O   UNL     1       6.120  -1.891  -6.490  1.00  0.00    -0.275 OA
ATOM     77  N   UNL     1       4.901  -0.131  -6.947  1.00  0.00    -0.352 N 
ATOM     78  H   UNL     1       4.616  -0.713  -7.689  1.00  0.00     0.163 HD
BRANCH  77  79
ATOM     79  C   UNL     1       4.100   1.086  -6.904  1.00  0.00     0.155 C 
BRANCH  79  80
ATOM     80  C   UNL     1       3.944   1.734  -8.257  1.00  0.00     0.013 A 
ATOM     81  C   UNL     1       5.016   2.574  -8.654  1.00  0.00     0.009 A 
ATOM     82  C   UNL     1       2.847   1.628  -9.125  1.00  0.00     0.124 A 
ATOM     83  C   UNL     1       5.002   3.305  -9.840  1.00  0.00     0.001 A 
ATOM     84  C   UNL     1       2.842   2.394 -10.311  1.00  0.00     0.047 A 
ATOM     85  C   UNL     1       3.904   3.220 -10.671  1.00  0.00     0.004 A 
BRANCH  82  86
ATOM     86  O   UNL     1       1.701   0.894  -9.057  1.00  0.00    -0.489 OA
BRANCH  86  87
ATOM     87  C   UNL     1       1.492  -0.266  -8.262  1.00  0.00     0.265 C 
BRANCH  87  88
ATOM     88  C   UNL     1       2.410  -1.447  -8.483  1.00  0.00    -0.011 A 
ATOM     89  C   UNL     1       3.281  -1.544  -9.578  1.00  0.00     0.007 A 
ATOM     90  C   UNL     1       2.428  -2.467  -7.516  1.00  0.00     0.007 A 
ATOM     91  C   UNL     1       4.229  -2.567  -9.639  1.00  0.00     0.000 A 
ATOM     92  C   UNL     1       3.360  -3.502  -7.591  1.00  0.00     0.000 A 
ATOM     93  C   UNL     1       4.277  -3.537  -8.639  1.00  0.00     0.000 A 
ENDBRANCH  87  88
ENDBRANCH  86  87
ENDBRANCH  82  86
ENDBRANCH  79  80
ENDBRANCH  77  79
ENDBRANCH  69  75
ENDBRANCH   2  68
TORSDOF 16
