REMARK SMILES COc1ccc2c(c1)c(Cc1nc(-c3ccc(C(=O)NCCCNC(=O)c4ccc(-c5c6nc(c(-c7c(F)cccc7F)c7ccc([nH]7)c(-c7c(F)cccc7F)c7nc(c(-c8c(F)cccc8F)c8ccc5[nH]8)C=C7)C=C6)cc4)cc3)cs1)c(C)n2C(=O)c1ccc(Cl)cc1
REMARK SMILES IDX 18 1 19 2 20 3 17 5 14 6 15 7 82 8 16 9 81 10 13 11 11 12
REMARK SMILES IDX 12 13 84 14 83 15 10 16 9 17 3 18 4 19 8 20 5 21 7 22 6 23
REMARK SMILES IDX 87 24 85 25 86 26 2 27 1 28 88 29 89 30 90 31 91 32 96 33
REMARK SMILES IDX 92 34 95 35 93 36 94 37 21 38 22 39 23 40 24 41 25 42 26 44
REMARK SMILES IDX 27 45 28 46 80 47 29 48 79 49 30 50 31 51 32 52 73 53 33 54
REMARK SMILES IDX 78 55 72 56 74 57 34 58 77 59 71 60 70 61 35 63 61 64 44 65
REMARK SMILES IDX 60 66 45 67 48 68 59 69 75 70 46 71 47 72 58 74 76 75 49 76
REMARK SMILES IDX 36 77 37 78 42 79 38 80 39 81 41 82 43 83 40 84 62 85 63 86
REMARK SMILES IDX 68 87 64 88 65 89 67 90 69 91 66 92 50 93 51 94 56 95 52 96
REMARK SMILES IDX 53 97 55 98 57 99 54 100
REMARK H PARENT 20 4 24 43 74 62 48 73
REMARK Flexibility Score: inf
ROOT
ATOM      1  C   UNL     1      -2.586   3.510   6.136  1.00  0.00     0.251 C 
ATOM      2  O   UNL     1      -2.093   3.994   7.156  1.00  0.00    -0.269 OA
ATOM      3  N   UNL     1      -3.305   4.352   5.322  1.00  0.00    -0.352 N 
ATOM      4  H   UNL     1      -3.357   5.274   5.663  1.00  0.00     0.163 HD
ENDROOT
BRANCH   1   5
ATOM      5  C   UNL     1      -2.440   2.048   5.892  1.00  0.00     0.039 A 
ATOM      6  C   UNL     1      -2.396  -0.768   5.635  1.00  0.00     0.001 A 
ATOM      7  C   UNL     1      -2.293  -0.172   6.895  1.00  0.00     0.011 A 
ATOM      8  C   UNL     1      -2.397   0.062   4.505  1.00  0.00     0.011 A 
ATOM      9  C   UNL     1      -2.324   1.222   7.021  1.00  0.00     0.014 A 
ATOM     10  C   UNL     1      -2.382   1.457   4.632  1.00  0.00     0.014 A 
BRANCH   6  11
ATOM     11  C   UNL     1      -2.486  -2.213   5.462  1.00  0.00     0.081 A 
ATOM     12  C   UNL     1      -2.278  -4.101   4.310  1.00  0.00     0.098 A 
ATOM     13  N   UNL     1      -2.177  -2.790   4.247  1.00  0.00    -0.241 NA
ATOM     14  S   UNL     1      -2.868  -4.708   5.805  1.00  0.00    -0.126 S 
ATOM     15  C   UNL     1      -2.933  -3.104   6.417  1.00  0.00     0.095 A 
BRANCH  12  16
ATOM     16  C   UNL     1      -1.958  -5.020   3.167  1.00  0.00     0.105 C 
BRANCH  16  17
ATOM     17  C   UNL     1      -0.485  -5.062   2.840  1.00  0.00    -0.012 A 
ATOM     18  C   UNL     1       0.866  -1.833   1.294  1.00  0.00     0.119 A 
ATOM     19  C   UNL     1       2.127  -2.323   1.005  1.00  0.00     0.048 A 
ATOM     20  C   UNL     1      -0.065  -2.672   1.903  1.00  0.00     0.057 A 
ATOM     21  C   UNL     1       2.474  -3.641   1.330  1.00  0.00     0.031 A 
ATOM     22  C   UNL     1       0.266  -3.999   2.265  1.00  0.00     0.008 A 
ATOM     23  C   UNL     1       1.557  -4.470   2.016  1.00  0.00     0.057 A 
ATOM     24  N   UNL     1       1.655  -5.775   2.538  1.00  0.00    -0.280 N 
ATOM     25  C   UNL     1       0.377  -6.142   2.997  1.00  0.00     0.028 A 
ATOM     26  C   UNL     1      -0.000  -7.471   3.574  1.00  0.00     0.065 C 
BRANCH  18  27
ATOM     27  O   UNL     1       0.431  -0.559   1.053  1.00  0.00    -0.497 OA
ATOM     28  C   UNL     1       1.061   0.113  -0.031  1.00  0.00     0.278 C 
ENDBRANCH  18  27
BRANCH  24  29
ATOM     29  C   UNL     1       2.833  -6.587   2.570  1.00  0.00     0.262 C 
ATOM     30  O   UNL     1       2.749  -7.761   2.877  1.00  0.00    -0.268 OA
BRANCH  29  31
ATOM     31  C   UNL     1       4.189  -6.123   2.209  1.00  0.00     0.040 A 
ATOM     32  C   UNL     1       4.832  -5.117   2.938  1.00  0.00     0.015 A 
ATOM     33  C   UNL     1       4.807  -6.708   1.097  1.00  0.00     0.015 A 
ATOM     34  C   UNL     1       6.066  -4.633   2.493  1.00  0.00     0.021 A 
ATOM     35  C   UNL     1       6.042  -6.225   0.662  1.00  0.00     0.021 A 
ATOM     36  C   UNL     1       6.656  -5.178   1.350  1.00  0.00     0.041 A 
ATOM     37  Cl  UNL     1       8.143  -4.537   0.769  1.00  0.00    -0.084 Cl
ENDBRANCH  29  31
ENDBRANCH  24  29
ENDBRANCH  16  17
ENDBRANCH  12  16
ENDBRANCH   6  11
ENDBRANCH   1   5
BRANCH   3  38
ATOM     38  C   UNL     1      -4.002   4.163   4.064  1.00  0.00     0.118 C 
BRANCH  38  39
ATOM     39  C   UNL     1      -5.478   4.544   4.096  1.00  0.00     0.042 C 
BRANCH  39  40
ATOM     40  C   UNL     1      -5.796   6.008   4.397  1.00  0.00     0.118 C 
BRANCH  40  41
ATOM     41  N   UNL     1      -5.044   6.982   3.631  1.00  0.00    -0.352 N 
ATOM     42  C   UNL     1      -5.199   7.599   2.422  1.00  0.00     0.251 C 
ATOM     43  H   UNL     1      -4.223   7.268   4.094  1.00  0.00     0.163 HD
ATOM     44  O   UNL     1      -4.433   8.541   2.197  1.00  0.00    -0.269 OA
BRANCH  42  45
ATOM     45  C   UNL     1      -6.147   7.188   1.351  1.00  0.00     0.039 A 
ATOM     46  C   UNL     1      -7.049   6.127   1.424  1.00  0.00     0.014 A 
ATOM     47  C   UNL     1      -6.045   7.893   0.136  1.00  0.00     0.014 A 
ATOM     48  C   UNL     1      -7.723   5.692   0.285  1.00  0.00     0.010 A 
ATOM     49  C   UNL     1      -6.746   7.489  -0.995  1.00  0.00     0.010 A 
ATOM     50  C   UNL     1      -7.536   6.345  -0.935  1.00  0.00    -0.014 A 
BRANCH  50  51
ATOM     51  C   UNL     1      -8.223   5.821  -2.114  1.00  0.00     0.031 A 
ATOM     52  C   UNL     1      -9.713   5.797  -2.060  1.00  0.00     0.074 A 
ATOM     53  C   UNL     1      -7.579   5.474  -3.246  1.00  0.00     0.049 A 
ATOM     54  N   UNL     1     -10.501   4.777  -2.181  1.00  0.00    -0.248 NA
ATOM     55  C   UNL     1     -10.409   7.059  -1.777  1.00  0.00     0.031 C 
ATOM     56  C   UNL     1      -6.166   5.668  -3.582  1.00  0.00     0.029 A 
ATOM     57  N   UNL     1      -8.100   4.957  -4.396  1.00  0.00    -0.354 N 
ATOM     58  C   UNL     1     -11.801   5.279  -2.144  1.00  0.00     0.074 A 
ATOM     59  C   UNL     1     -11.686   6.672  -1.793  1.00  0.00     0.031 C 
ATOM     60  C   UNL     1      -5.998   5.488  -4.910  1.00  0.00     0.029 A 
ATOM     61  C   UNL     1      -7.256   5.049  -5.491  1.00  0.00     0.049 A 
ATOM     62  H   UNL     1      -8.998   4.555  -4.443  1.00  0.00     0.167 HD
ATOM     63  C   UNL     1     -12.873   4.553  -2.569  1.00  0.00     0.037 A 
ATOM     64  C   UNL     1      -7.581   4.844  -6.791  1.00  0.00     0.037 A 
ATOM     65  C   UNL     1     -12.570   3.150  -2.654  1.00  0.00     0.049 A 
ATOM     66  C   UNL     1      -8.823   4.034  -6.828  1.00  0.00     0.074 A 
ATOM     67  C   UNL     1     -12.165   2.183  -1.755  1.00  0.00     0.029 A 
ATOM     68  N   UNL     1     -12.377   2.598  -3.896  1.00  0.00    -0.354 N 
ATOM     69  N   UNL     1      -8.882   2.775  -6.493  1.00  0.00    -0.248 NA
ATOM     70  C   UNL     1     -10.099   4.736  -6.832  1.00  0.00     0.031 C 
ATOM     71  C   UNL     1     -11.293   1.334  -2.496  1.00  0.00     0.029 A 
ATOM     72  C   UNL     1     -11.254   1.819  -3.803  1.00  0.00     0.049 A 
ATOM     73  H   UNL     1     -12.935   2.735  -4.696  1.00  0.00     0.167 HD
ATOM     74  C   UNL     1     -10.094   2.643  -5.832  1.00  0.00     0.074 A 
ATOM     75  C   UNL     1     -10.845   3.850  -6.165  1.00  0.00     0.031 C 
ATOM     76  C   UNL     1     -10.268   1.710  -4.849  1.00  0.00     0.037 A 
BRANCH  63  77
ATOM     77  C   UNL     1     -14.105   5.133  -3.217  1.00  0.00     0.057 A 
ATOM     78  C   UNL     1     -14.120   6.366  -3.896  1.00  0.00     0.134 A 
ATOM     79  C   UNL     1     -15.221   4.306  -3.450  1.00  0.00     0.134 A 
ATOM     80  F   UNL     1     -13.098   7.229  -3.830  1.00  0.00    -0.206 F 
ATOM     81  C   UNL     1     -15.147   6.734  -4.770  1.00  0.00     0.040 A 
ATOM     82  C   UNL     1     -16.229   4.643  -4.361  1.00  0.00     0.040 A 
ATOM     83  F   UNL     1     -15.321   3.103  -2.863  1.00  0.00    -0.206 F 
ATOM     84  C   UNL     1     -16.188   5.857  -5.034  1.00  0.00     0.006 A 
ENDBRANCH  63  77
BRANCH  64  85
ATOM     85  C   UNL     1      -7.007   5.497  -7.988  1.00  0.00     0.057 A 
ATOM     86  C   UNL     1      -6.458   6.792  -7.927  1.00  0.00     0.134 A 
ATOM     87  C   UNL     1      -7.186   4.969  -9.274  1.00  0.00     0.134 A 
ATOM     88  F   UNL     1      -6.330   7.438  -6.759  1.00  0.00    -0.206 F 
ATOM     89  C   UNL     1      -6.098   7.513  -9.069  1.00  0.00     0.040 A 
ATOM     90  C   UNL     1      -6.842   5.687 -10.428  1.00  0.00     0.040 A 
ATOM     91  F   UNL     1      -7.751   3.765  -9.444  1.00  0.00    -0.206 F 
ATOM     92  C   UNL     1      -6.299   6.965 -10.327  1.00  0.00     0.006 A 
ENDBRANCH  64  85
BRANCH  76  93
ATOM     93  C   UNL     1      -9.199   0.672  -4.666  1.00  0.00     0.057 A 
ATOM     94  C   UNL     1      -9.547  -0.682  -4.710  1.00  0.00     0.134 A 
ATOM     95  C   UNL     1      -7.880   0.976  -4.296  1.00  0.00     0.134 A 
ATOM     96  F   UNL     1     -10.808  -1.048  -4.989  1.00  0.00    -0.206 F 
ATOM     97  C   UNL     1      -8.623  -1.689  -4.421  1.00  0.00     0.040 A 
ATOM     98  C   UNL     1      -6.937  -0.021  -4.038  1.00  0.00     0.040 A 
ATOM     99  F   UNL     1      -7.486   2.242  -4.114  1.00  0.00    -0.206 F 
ATOM    100  C   UNL     1      -7.309  -1.360  -4.096  1.00  0.00     0.006 A 
ENDBRANCH  76  93
ENDBRANCH  50  51
ENDBRANCH  42  45
ENDBRANCH  40  41
ENDBRANCH  39  40
ENDBRANCH  38  39
ENDBRANCH   3  38
TORSDOF 16
