REMARK SMILES O=C(NCCCNC(=O)c1ccc2c(=O)n(CCC[NH+]3CCOCC3)c(=O)[nH]c2c1)c1ccc(-c2c3nc(c(-c4c(F)cccc4F)c4ccc([nH]4)c(-c4c(F)cccc4F)c4nc(c(-c5c(F)cccc5F)c5ccc2[nH]5)C=C4)C=C3)cc1
REMARK SMILES IDX 6 1 5 2 4 3 3 4 1 5 2 6 31 8 32 9 84 10 33 11 83 12 34 13
REMARK SMILES IDX 35 14 36 15 77 16 37 17 82 18 76 19 78 20 38 21 81 22 75 23
REMARK SMILES IDX 74 24 39 26 65 27 48 28 64 29 49 30 52 31 63 32 79 33 50 34
REMARK SMILES IDX 51 35 62 37 80 38 53 39 40 40 41 41 46 42 42 43 43 44 45 45
REMARK SMILES IDX 47 46 44 47 66 48 67 49 72 50 68 51 69 52 71 53 73 54 70 55
REMARK SMILES IDX 54 56 55 57 60 58 56 59 57 60 59 61 61 62 58 63 7 64 8 65
REMARK SMILES IDX 9 67 10 68 11 69 30 70 12 71 29 72 13 73 28 74 14 75 26 76
REMARK SMILES IDX 15 78 16 79 27 80 17 81 18 82 19 83 20 84 21 85 25 86 22 88
REMARK SMILES IDX 24 89 23 90
REMARK H PARENT 3 7 78 25 52 36 7 66 28 77 20 87
REMARK Flexibility Score: inf
ROOT
ATOM      1  C   UNL     1       4.405   3.546  -0.780  1.00  0.00     0.118 C 
ENDROOT
BRANCH   1   2
ATOM      2  C   UNL     1       4.962   2.148  -0.984  1.00  0.00     0.042 C 
BRANCH   2   3
ATOM      3  C   UNL     1       4.578   1.173   0.113  1.00  0.00     0.118 C 
BRANCH   3   4
ATOM      4  N   UNL     1       3.137   0.993   0.218  1.00  0.00    -0.352 N 
ATOM      5  O   UNL     1       1.141  -0.009   0.019  1.00  0.00    -0.269 OA
ATOM      6  C   UNL     1       2.362  -0.129   0.077  1.00  0.00     0.251 C 
ATOM      7  H   UNL     1       2.635   1.814   0.424  1.00  0.00     0.163 HD
BRANCH   6   8
ATOM      8  C   UNL     1       2.971  -1.474  -0.006  1.00  0.00     0.039 A 
ATOM      9  C   UNL     1       2.356  -2.442  -0.807  1.00  0.00     0.014 A 
ATOM     10  C   UNL     1       4.093  -1.815   0.753  1.00  0.00     0.014 A 
ATOM     11  C   UNL     1       2.878  -3.735  -0.865  1.00  0.00     0.010 A 
ATOM     12  C   UNL     1       4.670  -3.073   0.621  1.00  0.00     0.010 A 
ATOM     13  C   UNL     1       4.046  -4.057  -0.158  1.00  0.00    -0.014 A 
BRANCH  13  14
ATOM     14  C   UNL     1       4.577  -5.441  -0.131  1.00  0.00     0.031 A 
ATOM     15  C   UNL     1       4.594  -6.199   1.170  1.00  0.00     0.074 A 
ATOM     16  C   UNL     1       5.078  -6.000  -1.248  1.00  0.00     0.049 A 
ATOM     17  N   UNL     1       5.099  -7.376   1.438  1.00  0.00    -0.248 NA
ATOM     18  C   UNL     1       3.989  -5.528   2.333  1.00  0.00     0.031 C 
ATOM     19  C   UNL     1       5.142  -5.361  -2.563  1.00  0.00     0.029 A 
ATOM     20  N   UNL     1       5.636  -7.236  -1.450  1.00  0.00    -0.354 N 
ATOM     21  C   UNL     1       4.895  -7.571   2.799  1.00  0.00     0.074 A 
ATOM     22  C   UNL     1       4.274  -6.371   3.312  1.00  0.00     0.031 C 
ATOM     23  C   UNL     1       5.682  -6.222  -3.442  1.00  0.00     0.029 A 
ATOM     24  C   UNL     1       6.034  -7.455  -2.745  1.00  0.00     0.049 A 
ATOM     25  H   UNL     1       5.740  -7.904  -0.733  1.00  0.00     0.167 HD
ATOM     26  C   UNL     1       5.173  -8.662   3.551  1.00  0.00     0.037 A 
ATOM     27  C   UNL     1       6.621  -8.531  -3.301  1.00  0.00     0.037 A 
ATOM     28  C   UNL     1       5.749  -9.873   3.033  1.00  0.00     0.049 A 
ATOM     29  C   UNL     1       6.925  -9.729  -2.445  1.00  0.00     0.074 A 
ATOM     30  C   UNL     1       6.023 -11.054   3.698  1.00  0.00     0.029 A 
ATOM     31  N   UNL     1       6.130 -10.058   1.712  1.00  0.00    -0.354 N 
ATOM     32  N   UNL     1       6.693  -9.914  -1.168  1.00  0.00    -0.248 NA
ATOM     33  C   UNL     1       7.571 -10.869  -3.111  1.00  0.00     0.031 C 
ATOM     34  C   UNL     1       6.596 -11.946   2.785  1.00  0.00     0.029 A 
ATOM     35  C   UNL     1       6.647 -11.331   1.545  1.00  0.00     0.049 A 
ATOM     36  H   UNL     1       6.045  -9.384   1.000  1.00  0.00     0.167 HD
ATOM     37  C   UNL     1       7.140 -11.198  -0.883  1.00  0.00     0.074 A 
ATOM     38  C   UNL     1       7.645 -11.750  -2.123  1.00  0.00     0.031 C 
ATOM     39  C   UNL     1       7.135 -11.862   0.298  1.00  0.00     0.037 A 
BRANCH  26  40
ATOM     40  C   UNL     1       4.846  -8.587   5.013  1.00  0.00     0.057 A 
ATOM     41  C   UNL     1       5.864  -8.508   5.972  1.00  0.00     0.134 A 
ATOM     42  C   UNL     1       3.522  -8.594   5.474  1.00  0.00     0.134 A 
ATOM     43  F   UNL     1       7.152  -8.500   5.599  1.00  0.00    -0.206 F 
ATOM     44  C   UNL     1       5.576  -8.432   7.336  1.00  0.00     0.040 A 
ATOM     45  C   UNL     1       3.222  -8.492   6.833  1.00  0.00     0.040 A 
ATOM     46  F   UNL     1       2.501  -8.649   4.605  1.00  0.00    -0.206 F 
ATOM     47  C   UNL     1       4.251  -8.415   7.769  1.00  0.00     0.006 A 
ENDBRANCH  26  40
BRANCH  27  48
ATOM     48  C   UNL     1       6.939  -8.541  -4.750  1.00  0.00     0.057 A 
ATOM     49  C   UNL     1       7.981  -7.770  -5.279  1.00  0.00     0.134 A 
ATOM     50  C   UNL     1       6.216  -9.347  -5.637  1.00  0.00     0.134 A 
ATOM     51  F   UNL     1       8.707  -6.974  -4.480  1.00  0.00    -0.206 F 
ATOM     52  C   UNL     1       8.291  -7.799  -6.639  1.00  0.00     0.040 A 
ATOM     53  C   UNL     1       6.530  -9.402  -6.996  1.00  0.00     0.040 A 
ATOM     54  F   UNL     1       5.220 -10.123  -5.185  1.00  0.00    -0.206 F 
ATOM     55  C   UNL     1       7.569  -8.624  -7.500  1.00  0.00     0.006 A 
ENDBRANCH  27  48
BRANCH  39  56
ATOM     56  C   UNL     1       7.659 -13.266   0.293  1.00  0.00     0.057 A 
ATOM     57  C   UNL     1       6.783 -14.353   0.407  1.00  0.00     0.134 A 
ATOM     58  C   UNL     1       9.028 -13.541   0.204  1.00  0.00     0.134 A 
ATOM     59  F   UNL     1       5.460 -14.155   0.503  1.00  0.00    -0.206 F 
ATOM     60  C   UNL     1       7.253 -15.666   0.435  1.00  0.00     0.040 A 
ATOM     61  C   UNL     1       9.509 -14.851   0.208  1.00  0.00     0.040 A 
ATOM     62  F   UNL     1       9.915 -12.542   0.078  1.00  0.00    -0.206 F 
ATOM     63  C   UNL     1       8.620 -15.918   0.329  1.00  0.00     0.006 A 
ENDBRANCH  39  56
ENDBRANCH  13  14
ENDBRANCH   6   8
ENDBRANCH   3   4
ENDBRANCH   2   3
ENDBRANCH   1   2
BRANCH   1  64
ATOM     64  N   UNL     1       5.002   4.247   0.355  1.00  0.00    -0.352 N 
ATOM     65  C   UNL     1       5.874   5.315   0.370  1.00  0.00     0.251 C 
ATOM     66  H   UNL     1       4.743   3.907   1.242  1.00  0.00     0.163 HD
ATOM     67  O   UNL     1       6.394   5.695   1.410  1.00  0.00    -0.269 OA
BRANCH  65  68
ATOM     68  C   UNL     1       6.218   5.961  -0.912  1.00  0.00     0.041 A 
ATOM     69  C   UNL     1       5.189   6.325  -1.789  1.00  0.00     0.015 A 
ATOM     70  C   UNL     1       7.564   6.071  -1.286  1.00  0.00     0.040 A 
ATOM     71  C   UNL     1       5.487   6.511  -3.128  1.00  0.00     0.017 A 
ATOM     72  C   UNL     1       7.854   6.375  -2.611  1.00  0.00     0.056 A 
ATOM     73  C   UNL     1       6.821   6.478  -3.529  1.00  0.00     0.064 A 
ATOM     74  N   UNL     1       9.157   6.577  -3.060  1.00  0.00    -0.307 N 
ATOM     75  C   UNL     1       7.186   6.436  -4.945  1.00  0.00     0.264 A 
ATOM     76  C   UNL     1       9.456   6.984  -4.340  1.00  0.00     0.328 A 
ATOM     77  H   UNL     1       9.899   6.421  -2.432  1.00  0.00     0.171 HD
ATOM     78  O   UNL     1       6.427   5.832  -5.694  1.00  0.00    -0.268 OA
ATOM     79  N   UNL     1       8.415   6.971  -5.266  1.00  0.00    -0.260 N 
ATOM     80  O   UNL     1      10.611   7.321  -4.599  1.00  0.00    -0.248 OA
BRANCH  79  81
ATOM     81  C   UNL     1       8.691   7.522  -6.596  1.00  0.00     0.137 C 
BRANCH  81  82
ATOM     82  C   UNL     1       7.847   7.128  -7.825  1.00  0.00     0.083 C 
BRANCH  82  83
ATOM     83  C   UNL     1       6.378   7.597  -7.908  1.00  0.00     0.264 C 
BRANCH  83  84
ATOM     84  N   UNL     1       6.109   8.713  -7.011  1.00  0.00    -0.331 N 
ATOM     85  C   UNL     1       6.210  10.032  -7.651  1.00  0.00     0.291 C 
ATOM     86  C   UNL     1       4.806   8.627  -6.334  1.00  0.00     0.291 C 
ATOM     87  H   UNL     1       6.852   8.626  -6.318  1.00  0.00     0.348 HD
ATOM     88  C   UNL     1       6.113  11.120  -6.567  1.00  0.00     0.221 C 
ATOM     89  C   UNL     1       4.782   9.696  -5.232  1.00  0.00     0.221 C 
ATOM     90  O   UNL     1       4.902  11.009  -5.799  1.00  0.00    -0.370 OA
ENDBRANCH  83  84
ENDBRANCH  82  83
ENDBRANCH  81  82
ENDBRANCH  79  81
ENDBRANCH  65  68
ENDBRANCH   1  64
TORSDOF 14
