REMARK SMILES CC1(C)CCN(c2ncccc2C(=O)NCCCNC(=O)c2ccc(-c3c4nc(c(-c5c(F)cccc5F)c5ccc([nH]5)c(-c5c(F)cccc5F)c5nc(c(-c6c(F)cccc6F)c6ccc3[nH]6)C=C5)C=C4)cc2)C1
REMARK SMILES IDX 17 1 16 2 15 3 13 4 14 5 12 7 7 8 8 9 9 10 11 11 10 12 6 13
REMARK SMILES IDX 1 14 2 15 3 16 4 17 76 18 5 19 18 20 19 21 20 22 21 24 22 25
REMARK SMILES IDX 23 26 75 27 24 28 74 29 25 30 26 31 27 32 68 33 28 34 73 35
REMARK SMILES IDX 67 36 69 37 29 38 72 39 66 40 65 41 30 43 56 44 39 45 55 46
REMARK SMILES IDX 40 47 43 48 54 49 70 50 41 51 42 52 53 54 71 55 44 56 31 57
REMARK SMILES IDX 32 58 37 59 33 60 34 61 36 62 38 63 35 64 57 65 58 66 63 67
REMARK SMILES IDX 59 68 60 69 62 70 64 71 61 72 45 73 46 74 51 75 47 76 48 77
REMARK SMILES IDX 50 78 52 79 49 80
REMARK H PARENT 15 6 19 23 69 42 43 53
REMARK Flexibility Score: inf
ROOT
ATOM      1  C   UNL     1       4.155   5.783   2.610  1.00  0.00     0.042 C 
ENDROOT
BRANCH   1   2
ATOM      2  C   UNL     1       4.580   4.315   2.684  1.00  0.00     0.118 C 
BRANCH   2   3
ATOM      3  N   UNL     1       3.417   3.454   2.757  1.00  0.00    -0.352 N 
ATOM      4  C   UNL     1       2.670   2.720   1.871  1.00  0.00     0.255 C 
ATOM      5  O   UNL     1       1.681   2.211   2.397  1.00  0.00    -0.269 OA
ATOM      6  H   UNL     1       3.076   3.376   3.678  1.00  0.00     0.163 HD
BRANCH   4   7
ATOM      7  C   UNL     1       3.021   2.512   0.425  1.00  0.00     0.082 A 
ATOM      8  C   UNL     1       2.562   1.376  -0.281  1.00  0.00     0.141 A 
ATOM      9  N   UNL     1       3.042   1.071  -1.520  1.00  0.00    -0.238 NA
ATOM     10  C   UNL     1       3.906   1.912  -2.116  1.00  0.00     0.113 A 
ATOM     11  C   UNL     1       3.854   3.400  -0.271  1.00  0.00     0.019 A 
ATOM     12  C   UNL     1       4.315   3.096  -1.549  1.00  0.00     0.021 A 
BRANCH   8  13
ATOM     13  N   UNL     1       1.549   0.555   0.169  1.00  0.00    -0.355 N 
ATOM     14  C   UNL     1      -1.079  -0.186  -1.629  1.00  0.00     0.013 C 
ATOM     15  C   UNL     1      -0.727  -0.117  -0.135  1.00  0.00    -0.016 C 
ATOM     16  C   UNL     1      -2.018  -0.058   0.686  1.00  0.00     0.013 C 
ATOM     17  C   UNL     1       0.155  -1.304   0.286  1.00  0.00     0.030 C 
ATOM     18  C   UNL     1       0.184   1.097   0.157  1.00  0.00     0.124 C 
ATOM     19  C   UNL     1       1.558  -0.867  -0.129  1.00  0.00     0.119 C 
ENDBRANCH   8  13
ENDBRANCH   4   7
ENDBRANCH   2   3
ENDBRANCH   1   2
BRANCH   1  20
ATOM     20  C   UNL     1       3.404   6.266   3.854  1.00  0.00     0.118 C 
BRANCH  20  21
ATOM     21  N   UNL     1       4.238   6.235   5.048  1.00  0.00    -0.352 N 
ATOM     22  C   UNL     1       4.654   7.255   5.865  1.00  0.00     0.251 C 
ATOM     23  H   UNL     1       4.554   5.340   5.309  1.00  0.00     0.163 HD
ATOM     24  O   UNL     1       5.546   7.053   6.682  1.00  0.00    -0.269 OA
BRANCH  22  25
ATOM     25  C   UNL     1       4.040   8.596   5.768  1.00  0.00     0.039 A 
ATOM     26  C   UNL     1       4.865   9.722   5.857  1.00  0.00     0.014 A 
ATOM     27  C   UNL     1       2.656   8.751   5.651  1.00  0.00     0.014 A 
ATOM     28  C   UNL     1       4.309  11.000   5.775  1.00  0.00     0.010 A 
ATOM     29  C   UNL     1       2.109  10.024   5.506  1.00  0.00     0.010 A 
ATOM     30  C   UNL     1       2.929  11.160   5.571  1.00  0.00    -0.014 A 
BRANCH  30  31
ATOM     31  C   UNL     1       2.326  12.508   5.422  1.00  0.00     0.031 A 
ATOM     32  C   UNL     1       1.353  13.022   6.446  1.00  0.00     0.074 A 
ATOM     33  C   UNL     1       2.603  13.240   4.326  1.00  0.00     0.049 A 
ATOM     34  N   UNL     1       0.662  14.133   6.445  1.00  0.00    -0.248 NA
ATOM     35  C   UNL     1       1.105  12.160   7.612  1.00  0.00     0.031 C 
ATOM     36  C   UNL     1       3.496  12.833   3.240  1.00  0.00     0.029 A 
ATOM     37  N   UNL     1       2.149  14.476   3.938  1.00  0.00    -0.354 N 
ATOM     38  C   UNL     1      -0.116  14.095   7.595  1.00  0.00     0.074 A 
ATOM     39  C   UNL     1       0.155  12.832   8.247  1.00  0.00     0.031 C 
ATOM     40  C   UNL     1       3.538  13.807   2.317  1.00  0.00     0.029 A 
ATOM     41  C   UNL     1       2.650  14.889   2.727  1.00  0.00     0.049 A 
ATOM     42  H   UNL     1       1.525  15.014   4.475  1.00  0.00     0.167 HD
ATOM     43  C   UNL     1      -0.966  15.036   8.074  1.00  0.00     0.037 A 
ATOM     44  C   UNL     1       2.413  16.012   2.024  1.00  0.00     0.037 A 
ATOM     45  C   UNL     1      -1.212  16.303   7.438  1.00  0.00     0.049 A 
ATOM     46  C   UNL     1       1.472  17.044   2.580  1.00  0.00     0.074 A 
ATOM     47  C   UNL     1      -2.007  17.349   7.876  1.00  0.00     0.029 A 
ATOM     48  N   UNL     1      -0.666  16.697   6.226  1.00  0.00    -0.354 N 
ATOM     49  N   UNL     1       0.790  17.021   3.699  1.00  0.00    -0.248 NA
ATOM     50  C   UNL     1       1.273  18.259   1.778  1.00  0.00     0.031 C 
ATOM     51  C   UNL     1      -1.969  18.361   6.910  1.00  0.00     0.029 A 
ATOM     52  C   UNL     1      -1.119  17.962   5.891  1.00  0.00     0.049 A 
ATOM     53  H   UNL     1      -0.048  16.156   5.683  1.00  0.00     0.167 HD
ATOM     54  C   UNL     1       0.102  18.226   3.749  1.00  0.00     0.074 A 
ATOM     55  C   UNL     1       0.459  18.961   2.553  1.00  0.00     0.031 C 
ATOM     56  C   UNL     1      -0.749  18.682   4.700  1.00  0.00     0.037 A 
BRANCH  43  57
ATOM     57  C   UNL     1      -1.690  14.726   9.352  1.00  0.00     0.057 A 
ATOM     58  C   UNL     1      -1.027  14.691  10.586  1.00  0.00     0.134 A 
ATOM     59  C   UNL     1      -3.070  14.490   9.354  1.00  0.00     0.134 A 
ATOM     60  F   UNL     1       0.297  14.898  10.653  1.00  0.00    -0.206 F 
ATOM     61  C   UNL     1      -1.706  14.404  11.772  1.00  0.00     0.040 A 
ATOM     62  C   UNL     1      -3.765  14.227  10.536  1.00  0.00     0.040 A 
ATOM     63  F   UNL     1      -3.768  14.515   8.208  1.00  0.00    -0.206 F 
ATOM     64  C   UNL     1      -3.081  14.177  11.749  1.00  0.00     0.006 A 
ENDBRANCH  43  57
BRANCH  44  65
ATOM     65  C   UNL     1       3.099  16.230   0.727  1.00  0.00     0.057 A 
ATOM     66  C   UNL     1       4.115  17.184   0.602  1.00  0.00     0.134 A 
ATOM     67  C   UNL     1       2.763  15.491  -0.414  1.00  0.00     0.134 A 
ATOM     68  F   UNL     1       4.468  17.934   1.656  1.00  0.00    -0.206 F 
ATOM     69  C   UNL     1       4.763  17.407  -0.614  1.00  0.00     0.040 A 
ATOM     70  C   UNL     1       3.418  15.688  -1.630  1.00  0.00     0.040 A 
ATOM     71  F   UNL     1       1.804  14.556  -0.356  1.00  0.00    -0.206 F 
ATOM     72  C   UNL     1       4.418  16.654  -1.734  1.00  0.00     0.006 A 
ENDBRANCH  44  65
BRANCH  56  73
ATOM     73  C   UNL     1      -1.326  20.052   4.501  1.00  0.00     0.057 A 
ATOM     74  C   UNL     1      -2.324  20.302   3.552  1.00  0.00     0.134 A 
ATOM     75  C   UNL     1      -0.903  21.125   5.296  1.00  0.00     0.134 A 
ATOM     76  F   UNL     1      -2.761  19.320   2.750  1.00  0.00    -0.206 F 
ATOM     77  C   UNL     1      -2.867  21.577   3.386  1.00  0.00     0.040 A 
ATOM     78  C   UNL     1      -1.456  22.398   5.157  1.00  0.00     0.040 A 
ATOM     79  F   UNL     1       0.045  20.949   6.229  1.00  0.00    -0.206 F 
ATOM     80  C   UNL     1      -2.438  22.628   4.195  1.00  0.00     0.006 A 
ENDBRANCH  56  73
ENDBRANCH  30  31
ENDBRANCH  22  25
ENDBRANCH  20  21
ENDBRANCH   1  20
TORSDOF 11
