REMARK SMILES Cc1ccc(CCC(=O)N2CCC3(CC2)[C@H](C(=O)NCCCNC(=O)c2ccc(-c4c5nc(c(-c6c(F)cccc6F)c6ccc([nH]6)c(-c6c(F)cccc6F)c6nc(c(-c7c(F)cccc7F)c7ccc4[nH]7)C=C6)C=C5)cc2)CC(=O)N3C)cc1
REMARK SMILES IDX 20 1 19 2 17 3 18 4 16 6 8 7 9 8 10 9 11 10 15 11 12 12
REMARK SMILES IDX 14 13 13 14 83 15 80 16 81 17 84 18 82 19 7 20 6 21 5 22
REMARK SMILES IDX 1 23 2 24 3 25 86 26 4 27 85 28 21 29 22 30 23 31 24 32
REMARK SMILES IDX 25 34 26 35 27 36 79 37 28 38 78 39 29 40 30 41 31 42 72 43
REMARK SMILES IDX 32 44 77 45 71 46 73 47 33 48 76 49 70 50 69 51 34 53 60 54
REMARK SMILES IDX 43 55 59 56 44 57 47 58 58 59 74 60 45 61 46 62 57 64 75 65
REMARK SMILES IDX 48 66 35 67 36 68 41 69 37 70 38 71 40 72 42 73 39 74 61 75
REMARK SMILES IDX 62 76 67 77 63 78 64 79 66 80 68 81 65 82 49 83 50 84 55 85
REMARK SMILES IDX 51 86 52 87 54 88 56 89 53 90
REMARK H PARENT 19 5 23 33 73 52 47 63
REMARK Flexibility Score: inf
ROOT
ATOM      1  C   UNL     1       3.002  -4.442  -4.473  1.00  0.00     0.117 C 
ENDROOT
BRANCH   1   2
ATOM      2  N   UNL     1       2.199  -3.378  -5.063  1.00  0.00    -0.356 N 
ATOM      3  C   UNL     1       1.723  -2.188  -4.619  1.00  0.00     0.226 C 
ATOM      4  O   UNL     1       1.236  -1.451  -5.486  1.00  0.00    -0.275 OA
ATOM      5  H   UNL     1       1.944  -3.566  -5.995  1.00  0.00     0.163 HD
BRANCH   3   6
ATOM      6  C   UNL     1       1.676  -1.721  -3.161  1.00  0.00     0.113 C 
ATOM      7  C   UNL     1      -3.324  -1.767  -1.429  1.00  0.00     0.222 C 
ATOM      8  O   UNL     1      -4.312  -2.339  -1.901  1.00  0.00    -0.275 OA
ATOM      9  N   UNL     1      -2.104  -2.414  -1.352  1.00  0.00    -0.343 N 
ATOM     10  C   UNL     1      -1.752  -3.483  -2.267  1.00  0.00     0.122 C 
ATOM     11  C   UNL     1      -1.056  -2.111  -0.421  1.00  0.00     0.122 C 
ATOM     12  C   UNL     1      -0.485  -3.087  -3.040  1.00  0.00     0.051 C 
ATOM     13  C   UNL     1       0.128  -1.499  -1.153  1.00  0.00     0.051 C 
ATOM     14  C   UNL     1       0.697  -2.477  -2.214  1.00  0.00     0.058 C 
ATOM     15  N   UNL     1       1.640  -3.387  -1.535  1.00  0.00    -0.339 N 
ATOM     16  C   UNL     1       3.028  -1.721  -2.470  1.00  0.00     0.116 C 
ATOM     17  C   UNL     1       2.955  -2.920  -1.570  1.00  0.00     0.223 C 
ATOM     18  C   UNL     1       1.287  -4.436  -0.596  1.00  0.00     0.147 C 
ATOM     19  O   UNL     1       3.907  -3.387  -0.965  1.00  0.00    -0.275 OA
BRANCH   7  20
ATOM     20  C   UNL     1      -3.395  -0.255  -1.149  1.00  0.00     0.105 C 
BRANCH  20  21
ATOM     21  C   UNL     1      -3.309   0.299   0.286  1.00  0.00     0.045 C 
BRANCH  21  22
ATOM     22  C   UNL     1      -1.938   0.829   0.678  1.00  0.00    -0.047 A 
ATOM     23  C   UNL     1       2.321   1.220   1.073  1.00  0.00     0.044 C 
ATOM     24  C   UNL     1       0.821   1.229   1.049  1.00  0.00    -0.051 A 
ATOM     25  C   UNL     1       0.081   0.509   1.992  1.00  0.00     0.004 A 
ATOM     26  C   UNL     1       0.144   1.885   0.015  1.00  0.00     0.004 A 
ATOM     27  C   UNL     1      -1.297   0.341   1.829  1.00  0.00     0.004 A 
ATOM     28  C   UNL     1      -1.228   1.695  -0.164  1.00  0.00     0.004 A 
ENDBRANCH  21  22
ENDBRANCH  20  21
ENDBRANCH   7  20
ENDBRANCH   3   6
ENDBRANCH   1   2
BRANCH   1  29
ATOM     29  C   UNL     1       2.217  -5.554  -3.787  1.00  0.00     0.042 C 
BRANCH  29  30
ATOM     30  C   UNL     1       1.415  -6.451  -4.716  1.00  0.00     0.118 C 
BRANCH  30  31
ATOM     31  N   UNL     1       1.797  -7.859  -4.618  1.00  0.00    -0.352 N 
ATOM     32  C   UNL     1       1.273  -8.939  -5.300  1.00  0.00     0.251 C 
ATOM     33  H   UNL     1       2.521  -8.063  -3.983  1.00  0.00     0.163 HD
ATOM     34  O   UNL     1       1.752 -10.061  -5.169  1.00  0.00    -0.269 OA
BRANCH  32  35
ATOM     35  C   UNL     1       0.218  -8.684  -6.300  1.00  0.00     0.039 A 
ATOM     36  C   UNL     1       0.513  -9.002  -7.627  1.00  0.00     0.014 A 
ATOM     37  C   UNL     1      -0.873  -7.879  -5.974  1.00  0.00     0.014 A 
ATOM     38  C   UNL     1      -0.122  -8.297  -8.641  1.00  0.00     0.010 A 
ATOM     39  C   UNL     1      -1.450  -7.123  -6.976  1.00  0.00     0.010 A 
ATOM     40  C   UNL     1      -1.013  -7.279  -8.295  1.00  0.00    -0.014 A 
BRANCH  40  41
ATOM     41  C   UNL     1      -1.416  -6.257  -9.251  1.00  0.00     0.031 A 
ATOM     42  C   UNL     1      -2.715  -6.353  -9.937  1.00  0.00     0.074 A 
ATOM     43  C   UNL     1      -0.581  -5.237  -9.548  1.00  0.00     0.049 A 
ATOM     44  N   UNL     1      -2.913  -5.957 -11.150  1.00  0.00    -0.248 NA
ATOM     45  C   UNL     1      -3.892  -6.948  -9.314  1.00  0.00     0.031 C 
ATOM     46  C   UNL     1      -0.883  -4.056 -10.351  1.00  0.00     0.029 A 
ATOM     47  N   UNL     1       0.807  -5.181  -9.349  1.00  0.00    -0.354 N 
ATOM     48  C   UNL     1      -4.267  -5.990 -11.372  1.00  0.00     0.074 A 
ATOM     49  C   UNL     1      -4.827  -6.683 -10.232  1.00  0.00     0.031 C 
ATOM     50  C   UNL     1       0.267  -3.554 -10.828  1.00  0.00     0.029 A 
ATOM     51  C   UNL     1       1.330  -4.466 -10.448  1.00  0.00     0.049 A 
ATOM     52  H   UNL     1       1.313  -5.563  -8.596  1.00  0.00     0.167 HD
ATOM     53  C   UNL     1      -4.804  -5.302 -12.417  1.00  0.00     0.037 A 
ATOM     54  C   UNL     1       2.240  -5.011 -11.303  1.00  0.00     0.037 A 
ATOM     55  C   UNL     1      -3.788  -4.591 -13.182  1.00  0.00     0.049 A 
ATOM     56  C   UNL     1       1.797  -5.020 -12.745  1.00  0.00     0.074 A 
ATOM     57  C   UNL     1      -3.331  -3.284 -13.125  1.00  0.00     0.029 A 
ATOM     58  N   UNL     1      -2.859  -5.301 -13.933  1.00  0.00    -0.354 N 
ATOM     59  N   UNL     1       0.553  -4.915 -13.121  1.00  0.00    -0.248 NA
ATOM     60  C   UNL     1       2.709  -5.177 -13.875  1.00  0.00     0.031 C 
ATOM     61  C   UNL     1      -2.106  -3.212 -13.827  1.00  0.00     0.029 A 
ATOM     62  C   UNL     1      -1.823  -4.472 -14.322  1.00  0.00     0.049 A 
ATOM     63  H   UNL     1      -2.928  -6.257 -14.156  1.00  0.00     0.167 HD
ATOM     64  C   UNL     1       0.477  -5.008 -14.489  1.00  0.00     0.074 A 
ATOM     65  C   UNL     1       1.856  -5.149 -14.914  1.00  0.00     0.031 C 
ATOM     66  C   UNL     1      -0.725  -4.967 -15.139  1.00  0.00     0.037 A 
BRANCH  53  67
ATOM     67  C   UNL     1      -6.282  -5.035 -12.501  1.00  0.00     0.057 A 
ATOM     68  C   UNL     1      -6.783  -3.769 -12.856  1.00  0.00     0.134 A 
ATOM     69  C   UNL     1      -7.258  -5.990 -12.175  1.00  0.00     0.134 A 
ATOM     70  F   UNL     1      -5.981  -2.783 -13.276  1.00  0.00    -0.206 F 
ATOM     71  C   UNL     1      -8.142  -3.445 -12.774  1.00  0.00     0.040 A 
ATOM     72  C   UNL     1      -8.615  -5.667 -12.043  1.00  0.00     0.040 A 
ATOM     73  F   UNL     1      -6.926  -7.275 -11.973  1.00  0.00    -0.206 F 
ATOM     74  C   UNL     1      -9.060  -4.383 -12.328  1.00  0.00     0.006 A 
ENDBRANCH  53  67
BRANCH  54  75
ATOM     75  C   UNL     1       3.113  -6.033 -10.675  1.00  0.00     0.057 A 
ATOM     76  C   UNL     1       4.019  -5.629  -9.678  1.00  0.00     0.134 A 
ATOM     77  C   UNL     1       2.829  -7.398 -10.762  1.00  0.00     0.134 A 
ATOM     78  F   UNL     1       4.331  -4.330  -9.537  1.00  0.00    -0.206 F 
ATOM     79  C   UNL     1       4.537  -6.527  -8.742  1.00  0.00     0.040 A 
ATOM     80  C   UNL     1       3.348  -8.308  -9.834  1.00  0.00     0.040 A 
ATOM     81  F   UNL     1       1.961  -7.857 -11.674  1.00  0.00    -0.206 F 
ATOM     82  C   UNL     1       4.173  -7.868  -8.799  1.00  0.00     0.006 A 
ENDBRANCH  54  75
BRANCH  66  83
ATOM     83  C   UNL     1      -0.994  -5.273 -16.597  1.00  0.00     0.057 A 
ATOM     84  C   UNL     1      -0.181  -6.077 -17.409  1.00  0.00     0.134 A 
ATOM     85  C   UNL     1      -2.206  -4.858 -17.203  1.00  0.00     0.134 A 
ATOM     86  F   UNL     1       0.943  -6.636 -16.947  1.00  0.00    -0.206 F 
ATOM     87  C   UNL     1      -0.520  -6.399 -18.733  1.00  0.00     0.040 A 
ATOM     88  C   UNL     1      -2.579  -5.220 -18.501  1.00  0.00     0.040 A 
ATOM     89  F   UNL     1      -3.102  -4.101 -16.553  1.00  0.00    -0.206 F 
ATOM     90  C   UNL     1      -1.727  -5.983 -19.279  1.00  0.00     0.006 A 
ENDBRANCH  66  83
ENDBRANCH  40  41
ENDBRANCH  32  35
ENDBRANCH  30  31
ENDBRANCH  29  30
ENDBRANCH   1  29
TORSDOF 13
