REMARK SMILES O=C(NCCCNC(=O)c1ccc([C@H]2CCC[N@@H+](CCN3CCCC3=O)C2)cc1)c1ccc(-c2c3nc(c(-c4c(F)cccc4F)c4ccc([nH]4)c(-c4c(F)cccc4F)c4nc(c(-c5c(F)cccc5F)c5ccc2[nH]5)C=C4)C=C3)cc1
REMARK SMILES IDX 6 1 5 2 4 3 3 4 1 5 2 6 30 8 31 9 83 10 32 11 82 12 33 13
REMARK SMILES IDX 34 14 35 15 76 16 36 17 81 18 75 19 77 20 37 21 80 22 74 23
REMARK SMILES IDX 73 24 38 26 64 27 47 28 63 29 48 30 51 31 62 32 78 33 49 34
REMARK SMILES IDX 50 35 61 37 79 38 52 39 39 40 40 41 45 42 41 43 42 44 44 45
REMARK SMILES IDX 46 46 43 47 65 48 66 49 71 50 67 51 68 52 70 53 72 54 69 55
REMARK SMILES IDX 53 56 54 57 59 58 55 59 56 60 58 61 60 62 57 63 7 64 8 65
REMARK SMILES IDX 9 67 10 68 11 69 29 70 12 71 28 72 13 73 14 74 15 75 27 76
REMARK SMILES IDX 16 77 18 78 17 79 19 81 20 82 21 83 22 84 25 85 23 86 24 87
REMARK SMILES IDX 26 88
REMARK H PARENT 3 7 77 25 51 36 7 66 18 80
REMARK Flexibility Score: inf
ROOT
ATOM      1  C   UNL     1      12.276  10.512   4.430  1.00  0.00     0.118 C 
ENDROOT
BRANCH   1   2
ATOM      2  C   UNL     1      12.224  12.002   4.737  1.00  0.00     0.042 C 
BRANCH   2   3
ATOM      3  C   UNL     1      13.582  12.684   4.801  1.00  0.00     0.118 C 
BRANCH   3   4
ATOM      4  N   UNL     1      14.310  12.626   3.540  1.00  0.00    -0.352 N 
ATOM      5  O   UNL     1      15.129  13.352   1.571  1.00  0.00    -0.269 OA
ATOM      6  C   UNL     1      14.663  13.631   2.672  1.00  0.00     0.251 C 
ATOM      7  H   UNL     1      14.594  11.724   3.267  1.00  0.00     0.163 HD
BRANCH   6   8
ATOM      8  C   UNL     1      14.463  15.046   3.050  1.00  0.00     0.039 A 
ATOM      9  C   UNL     1      14.774  15.492   4.335  1.00  0.00     0.014 A 
ATOM     10  C   UNL     1      13.982  15.947   2.095  1.00  0.00     0.014 A 
ATOM     11  C   UNL     1      14.455  16.789   4.715  1.00  0.00     0.010 A 
ATOM     12  C   UNL     1      13.764  17.282   2.448  1.00  0.00     0.010 A 
ATOM     13  C   UNL     1      13.975  17.707   3.768  1.00  0.00    -0.014 A 
BRANCH  13  14
ATOM     14  C   UNL     1      13.797  19.127   4.163  1.00  0.00     0.031 A 
ATOM     15  C   UNL     1      12.448  19.786   4.131  1.00  0.00     0.074 A 
ATOM     16  C   UNL     1      14.882  19.819   4.564  1.00  0.00     0.049 A 
ATOM     17  N   UNL     1      12.130  21.021   4.426  1.00  0.00    -0.248 NA
ATOM     18  C   UNL     1      11.309  18.959   3.706  1.00  0.00     0.031 C 
ATOM     19  C   UNL     1      16.245  19.284   4.627  1.00  0.00     0.029 A 
ATOM     20  N   UNL     1      15.015  21.112   4.998  1.00  0.00    -0.354 N 
ATOM     21  C   UNL     1      10.762  21.127   4.206  1.00  0.00     0.074 A 
ATOM     22  C   UNL     1      10.313  19.836   3.728  1.00  0.00     0.031 C 
ATOM     23  C   UNL     1      17.067  20.226   5.107  1.00  0.00     0.029 A 
ATOM     24  C   UNL     1      16.308  21.453   5.311  1.00  0.00     0.049 A 
ATOM     25  H   UNL     1      14.257  21.736   5.079  1.00  0.00     0.167 HD
ATOM     26  C   UNL     1       9.960  22.203   4.390  1.00  0.00     0.037 A 
ATOM     27  C   UNL     1      16.836  22.631   5.688  1.00  0.00     0.037 A 
ATOM     28  C   UNL     1      10.419  23.482   4.873  1.00  0.00     0.049 A 
ATOM     29  C   UNL     1      15.929  23.817   5.835  1.00  0.00     0.074 A 
ATOM     30  C   UNL     1       9.676  24.619   5.139  1.00  0.00     0.029 A 
ATOM     31  N   UNL     1      11.742  23.797   5.149  1.00  0.00    -0.354 N 
ATOM     32  N   UNL     1      14.631  23.889   5.672  1.00  0.00    -0.248 NA
ATOM     33  C   UNL     1      16.561  25.088   6.212  1.00  0.00     0.031 C 
ATOM     34  C   UNL     1      10.555  25.640   5.512  1.00  0.00     0.029 A 
ATOM     35  C   UNL     1      11.840  25.122   5.544  1.00  0.00     0.049 A 
ATOM     36  H   UNL     1      12.499  23.172   5.075  1.00  0.00     0.167 HD
ATOM     37  C   UNL     1      14.286  25.204   5.947  1.00  0.00     0.074 A 
ATOM     38  C   UNL     1      15.510  25.890   6.307  1.00  0.00     0.031 C 
ATOM     39  C   UNL     1      13.066  25.792   5.901  1.00  0.00     0.037 A 
BRANCH  26  40
ATOM     40  C   UNL     1       8.504  22.062   4.045  1.00  0.00     0.057 A 
ATOM     41  C   UNL     1       7.627  21.285   4.813  1.00  0.00     0.134 A 
ATOM     42  C   UNL     1       7.959  22.764   2.962  1.00  0.00     0.134 A 
ATOM     43  F   UNL     1       8.082  20.579   5.860  1.00  0.00    -0.206 F 
ATOM     44  C   UNL     1       6.268  21.195   4.505  1.00  0.00     0.040 A 
ATOM     45  C   UNL     1       6.597  22.705   2.660  1.00  0.00     0.040 A 
ATOM     46  F   UNL     1       8.739  23.535   2.189  1.00  0.00    -0.206 F 
ATOM     47  C   UNL     1       5.748  21.914   3.430  1.00  0.00     0.006 A 
ENDBRANCH  26  40
BRANCH  27  48
ATOM     48  C   UNL     1      18.298  22.747   5.920  1.00  0.00     0.057 A 
ATOM     49  C   UNL     1      18.814  22.994   7.196  1.00  0.00     0.134 A 
ATOM     50  C   UNL     1      19.214  22.614   4.868  1.00  0.00     0.134 A 
ATOM     51  F   UNL     1      17.987  23.145   8.241  1.00  0.00    -0.206 F 
ATOM     52  C   UNL     1      20.186  23.125   7.416  1.00  0.00     0.040 A 
ATOM     53  C   UNL     1      20.589  22.710   5.078  1.00  0.00     0.040 A 
ATOM     54  F   UNL     1      18.784  22.366   3.622  1.00  0.00    -0.206 F 
ATOM     55  C   UNL     1      21.078  22.977   6.355  1.00  0.00     0.006 A 
ENDBRANCH  27  48
BRANCH  39  56
ATOM     56  C   UNL     1      12.990  27.242   6.281  1.00  0.00     0.057 A 
ATOM     57  C   UNL     1      13.505  28.251   5.458  1.00  0.00     0.134 A 
ATOM     58  C   UNL     1      12.361  27.635   7.470  1.00  0.00     0.134 A 
ATOM     59  F   UNL     1      14.135  27.942   4.315  1.00  0.00    -0.206 F 
ATOM     60  C   UNL     1      13.417  29.598   5.814  1.00  0.00     0.040 A 
ATOM     61  C   UNL     1      12.239  28.979   7.821  1.00  0.00     0.040 A 
ATOM     62  F   UNL     1      11.841  26.719   8.301  1.00  0.00    -0.206 F 
ATOM     63  C   UNL     1      12.774  29.965   6.995  1.00  0.00     0.006 A 
ENDBRANCH  39  56
ENDBRANCH  13  14
ENDBRANCH   6   8
ENDBRANCH   3   4
ENDBRANCH   2   3
ENDBRANCH   1   2
BRANCH   1  64
ATOM     64  N   UNL     1      13.068   9.762   5.390  1.00  0.00    -0.352 N 
ATOM     65  C   UNL     1      12.721   8.767   6.266  1.00  0.00     0.251 C 
ATOM     66  H   UNL     1      14.020  10.013   5.417  1.00  0.00     0.163 HD
ATOM     67  O   UNL     1      13.549   8.393   7.094  1.00  0.00    -0.269 OA
BRANCH  65  68
ATOM     68  C   UNL     1      11.357   8.192   6.281  1.00  0.00     0.039 A 
ATOM     69  C   UNL     1      10.777   7.977   7.529  1.00  0.00     0.014 A 
ATOM     70  C   UNL     1      10.643   7.861   5.122  1.00  0.00     0.014 A 
ATOM     71  C   UNL     1       9.453   7.561   7.607  1.00  0.00     0.005 A 
ATOM     72  C   UNL     1       9.293   7.484   5.202  1.00  0.00     0.005 A 
ATOM     73  C   UNL     1       8.669   7.385   6.448  1.00  0.00    -0.039 A 
BRANCH  73  74
ATOM     74  C   UNL     1       7.168   7.257   6.668  1.00  0.00     0.074 C 
ATOM     75  C   UNL     1       6.661   8.650   7.097  1.00  0.00     0.020 C 
ATOM     76  C   UNL     1       6.255   6.739   5.530  1.00  0.00     0.270 C 
ATOM     77  C   UNL     1       5.228   8.541   7.582  1.00  0.00     0.062 C 
ATOM     78  N   UNL     1       4.843   6.707   5.967  1.00  0.00    -0.333 N 
ATOM     79  C   UNL     1       4.341   7.983   6.478  1.00  0.00     0.262 C 
ATOM     80  H   UNL     1       4.872   6.074   6.767  1.00  0.00     0.348 HD
BRANCH  78  81
ATOM     81  C   UNL     1       3.910   6.083   5.010  1.00  0.00     0.284 C 
BRANCH  81  82
ATOM     82  C   UNL     1       3.468   6.872   3.749  1.00  0.00     0.180 C 
BRANCH  82  83
ATOM     83  N   UNL     1       4.532   7.110   2.791  1.00  0.00    -0.337 N 
ATOM     84  C   UNL     1       5.010   8.427   2.454  1.00  0.00     0.120 C 
ATOM     85  C   UNL     1       5.257   6.097   2.190  1.00  0.00     0.222 C 
ATOM     86  C   UNL     1       5.989   8.177   1.321  1.00  0.00     0.031 C 
ATOM     87  C   UNL     1       6.433   6.732   1.504  1.00  0.00     0.102 C 
ATOM     88  O   UNL     1       5.049   4.896   2.277  1.00  0.00    -0.275 OA
ENDBRANCH  82  83
ENDBRANCH  81  82
ENDBRANCH  78  81
ENDBRANCH  73  74
ENDBRANCH  65  68
ENDBRANCH   1  64
TORSDOF 14
