REMARK SMILES COCc1cccc(O[C@@H](F)C(=O)NCCCNC(=O)c2ccc(-c3c4nc(c(-c5c(F)cccc5F)c5ccc([nH]5)c(-c5c(F)cccc5F)c5nc(c(-c6c(F)cccc6F)c6ccc3[nH]6)C=C5)C=C4)cc2)c1
REMARK SMILES IDX 15 1 14 2 12 3 13 4 10 6 11 7 9 8 8 9 4 10 5 11 75 12 6 13
REMARK SMILES IDX 7 14 3 15 2 16 1 17 16 18 17 19 18 20 19 21 20 23 21 24
REMARK SMILES IDX 22 25 74 26 23 27 73 28 24 29 25 30 26 31 67 32 27 33 72 34
REMARK SMILES IDX 66 35 68 36 28 37 71 38 65 39 64 40 29 42 55 43 38 44 54 45
REMARK SMILES IDX 39 46 42 47 53 48 69 49 40 50 41 51 52 53 70 54 43 55 30 56
REMARK SMILES IDX 31 57 36 58 32 59 33 60 35 61 37 62 34 63 56 64 57 65 62 66
REMARK SMILES IDX 58 67 59 68 61 69 63 70 60 71 44 72 45 73 50 74 46 75 47 76
REMARK SMILES IDX 49 77 51 78 48 79
REMARK H PARENT 14 5 18 22 68 41 42 52
REMARK Flexibility Score: inf
ROOT
ATOM      1  C   UNL     1       2.788  -0.801   1.278  1.00  0.00     0.118 C 
ENDROOT
BRANCH   1   2
ATOM      2  N   UNL     1       3.310  -2.126   1.542  1.00  0.00    -0.350 N 
ATOM      3  C   UNL     1       2.645  -3.279   1.862  1.00  0.00     0.294 C 
ATOM      4  O   UNL     1       3.346  -4.244   2.191  1.00  0.00    -0.267 OA
ATOM      5  H   UNL     1       4.289  -2.210   1.482  1.00  0.00     0.163 HD
BRANCH   3   6
ATOM      6  C   UNL     1       1.097  -3.395   1.800  1.00  0.00     0.440 C 
ATOM      7  F   UNL     1       0.570  -2.806   0.688  1.00  0.00    -0.191 F 
BRANCH   6   8
ATOM      8  O   UNL     1       0.349  -3.073   2.973  1.00  0.00    -0.452 OA
BRANCH   8   9
ATOM      9  C   UNL     1      -0.060  -1.794   3.199  1.00  0.00     0.124 A 
ATOM     10  C   UNL     1      -0.827   0.422   2.529  1.00  0.00    -0.019 A 
ATOM     11  C   UNL     1      -0.748   0.836   3.868  1.00  0.00     0.006 A 
ATOM     12  C   UNL     1      -0.551  -0.921   2.227  1.00  0.00     0.052 A 
ATOM     13  C   UNL     1      -0.372  -0.063   4.867  1.00  0.00     0.004 A 
ATOM     14  C   UNL     1      -0.016  -1.370   4.528  1.00  0.00     0.046 A 
BRANCH  10  15
ATOM     15  C   UNL     1      -1.077   1.460   1.454  1.00  0.00     0.195 C 
BRANCH  15  16
ATOM     16  O   UNL     1      -1.399   0.927   0.169  1.00  0.00    -0.380 OA
ATOM     17  C   UNL     1      -0.282   0.788  -0.701  1.00  0.00     0.195 C 
ENDBRANCH  15  16
ENDBRANCH  10  15
ENDBRANCH   8   9
ENDBRANCH   6   8
ENDBRANCH   3   6
ENDBRANCH   1   2
BRANCH   1  18
ATOM     18  C   UNL     1       2.836   0.059   2.536  1.00  0.00     0.042 C 
BRANCH  18  19
ATOM     19  C   UNL     1       3.739   1.277   2.430  1.00  0.00     0.118 C 
BRANCH  19  20
ATOM     20  N   UNL     1       3.224   2.281   1.508  1.00  0.00    -0.352 N 
ATOM     21  C   UNL     1       2.917   3.609   1.680  1.00  0.00     0.251 C 
ATOM     22  H   UNL     1       3.067   1.946   0.595  1.00  0.00     0.163 HD
ATOM     23  O   UNL     1       2.334   4.190   0.767  1.00  0.00    -0.269 OA
BRANCH  21  24
ATOM     24  C   UNL     1       3.249   4.355   2.924  1.00  0.00     0.039 A 
ATOM     25  C   UNL     1       2.463   5.464   3.268  1.00  0.00     0.014 A 
ATOM     26  C   UNL     1       4.349   4.040   3.722  1.00  0.00     0.014 A 
ATOM     27  C   UNL     1       2.756   6.218   4.411  1.00  0.00     0.010 A 
ATOM     28  C   UNL     1       4.573   4.717   4.919  1.00  0.00     0.010 A 
ATOM     29  C   UNL     1       3.802   5.836   5.263  1.00  0.00    -0.014 A 
BRANCH  29  30
ATOM     30  C   UNL     1       4.169   6.624   6.471  1.00  0.00     0.031 A 
ATOM     31  C   UNL     1       5.554   7.211   6.586  1.00  0.00     0.074 A 
ATOM     32  C   UNL     1       3.302   6.753   7.493  1.00  0.00     0.049 A 
ATOM     33  N   UNL     1       6.131   7.790   7.609  1.00  0.00    -0.248 NA
ATOM     34  C   UNL     1       6.424   7.086   5.404  1.00  0.00     0.031 C 
ATOM     35  C   UNL     1       1.949   6.196   7.538  1.00  0.00     0.029 A 
ATOM     36  N   UNL     1       3.439   7.387   8.703  1.00  0.00    -0.354 N 
ATOM     37  C   UNL     1       7.440   8.043   7.212  1.00  0.00     0.074 A 
ATOM     38  C   UNL     1       7.585   7.516   5.873  1.00  0.00     0.031 C 
ATOM     39  C   UNL     1       1.372   6.536   8.702  1.00  0.00     0.029 A 
ATOM     40  C   UNL     1       2.323   7.303   9.499  1.00  0.00     0.049 A 
ATOM     41  H   UNL     1       4.260   7.859   8.974  1.00  0.00     0.167 HD
ATOM     42  C   UNL     1       8.428   8.676   7.889  1.00  0.00     0.037 A 
ATOM     43  C   UNL     1       2.095   7.790  10.733  1.00  0.00     0.037 A 
ATOM     44  C   UNL     1       8.261   9.271   9.188  1.00  0.00     0.049 A 
ATOM     45  C   UNL     1       3.175   8.572  11.428  1.00  0.00     0.074 A 
ATOM     46  C   UNL     1       9.177   9.992   9.935  1.00  0.00     0.029 A 
ATOM     47  N   UNL     1       7.085   9.236   9.922  1.00  0.00    -0.354 N 
ATOM     48  N   UNL     1       4.398   8.825  11.030  1.00  0.00    -0.248 NA
ATOM     49  C   UNL     1       2.837   9.146  12.738  1.00  0.00     0.031 C 
ATOM     50  C   UNL     1       8.557  10.384  11.127  1.00  0.00     0.029 A 
ATOM     51  C   UNL     1       7.247   9.932  11.108  1.00  0.00     0.049 A 
ATOM     52  H   UNL     1       6.257   8.784   9.642  1.00  0.00     0.167 HD
ATOM     53  C   UNL     1       4.965   9.612  12.024  1.00  0.00     0.074 A 
ATOM     54  C   UNL     1       3.949   9.804  13.037  1.00  0.00     0.031 C 
ATOM     55  C   UNL     1       6.216  10.128  12.093  1.00  0.00     0.037 A 
BRANCH  42  56
ATOM     56  C   UNL     1       9.771   8.768   7.225  1.00  0.00     0.057 A 
ATOM     57  C   UNL     1       9.992   9.587   6.109  1.00  0.00     0.134 A 
ATOM     58  C   UNL     1      10.861   8.036   7.712  1.00  0.00     0.134 A 
ATOM     59  F   UNL     1       8.986  10.302   5.582  1.00  0.00    -0.206 F 
ATOM     60  C   UNL     1      11.236   9.646   5.480  1.00  0.00     0.040 A 
ATOM     61  C   UNL     1      12.119   8.110   7.109  1.00  0.00     0.040 A 
ATOM     62  F   UNL     1      10.723   7.238   8.781  1.00  0.00    -0.206 F 
ATOM     63  C   UNL     1      12.306   8.910   5.984  1.00  0.00     0.006 A 
ENDBRANCH  42  56
BRANCH  43  64
ATOM     64  C   UNL     1       0.769   7.600  11.372  1.00  0.00     0.057 A 
ATOM     65  C   UNL     1      -0.126   8.669  11.495  1.00  0.00     0.134 A 
ATOM     66  C   UNL     1       0.365   6.358  11.873  1.00  0.00     0.134 A 
ATOM     67  F   UNL     1       0.214   9.887  11.049  1.00  0.00    -0.206 F 
ATOM     68  C   UNL     1      -1.369   8.515  12.110  1.00  0.00     0.040 A 
ATOM     69  C   UNL     1      -0.884   6.184  12.471  1.00  0.00     0.040 A 
ATOM     70  F   UNL     1       1.175   5.293  11.777  1.00  0.00    -0.206 F 
ATOM     71  C   UNL     1      -1.753   7.268  12.597  1.00  0.00     0.006 A 
ENDBRANCH  43  64
BRANCH  55  72
ATOM     72  C   UNL     1       6.533  10.989  13.278  1.00  0.00     0.057 A 
ATOM     73  C   UNL     1       6.744  10.446  14.551  1.00  0.00     0.134 A 
ATOM     74  C   UNL     1       6.648  12.377  13.135  1.00  0.00     0.134 A 
ATOM     75  F   UNL     1       6.635   9.125  14.753  1.00  0.00    -0.206 F 
ATOM     76  C   UNL     1       7.032  11.259  15.648  1.00  0.00     0.040 A 
ATOM     77  C   UNL     1       6.958  13.197  14.220  1.00  0.00     0.040 A 
ATOM     78  F   UNL     1       6.465  12.957  11.939  1.00  0.00    -0.206 F 
ATOM     79  C   UNL     1       7.144  12.638  15.483  1.00  0.00     0.006 A 
ENDBRANCH  55  72
ENDBRANCH  29  30
ENDBRANCH  21  24
ENDBRANCH  19  20
ENDBRANCH  18  19
ENDBRANCH   1  18
TORSDOF 14
