REMARK SMILES COc1ccc(N2C[C@@H](C)Cn3c2nc2c3c(=O)n(CC(=O)NCCCNC(=O)c3ccc(-c4c5nc(c(-c6c(F)cccc6F)c6ccc([nH]6)c(-c6c(F)cccc6F)c6nc(c(-c7c(F)cccc7F)c7ccc4[nH]7)C=C6)C=C5)cc3)c(=O)n2C)cc1
REMARK SMILES IDX 24 1 23 2 21 3 22 4 20 6 19 7 7 8 8 9 13 10 9 11 12 12 14 13
REMARK SMILES IDX 11 14 10 15 16 16 15 17 17 18 86 19 18 20 84 21 87 22 85 23
REMARK SMILES IDX 6 24 3 25 4 26 89 27 5 28 88 29 2 30 1 31 25 32 26 33 27 34
REMARK SMILES IDX 28 35 29 37 30 38 31 39 83 40 32 41 82 42 33 43 34 44 35 45
REMARK SMILES IDX 76 46 36 47 81 48 75 49 77 50 37 51 80 52 74 53 73 54 38 56
REMARK SMILES IDX 64 57 47 58 63 59 48 60 51 61 62 62 78 63 49 64 50 65 61 67
REMARK SMILES IDX 79 68 52 69 39 70 40 71 45 72 41 73 42 74 44 75 46 76 43 77
REMARK SMILES IDX 65 78 66 79 71 80 67 81 68 82 70 83 72 84 69 85 53 86 54 87
REMARK SMILES IDX 59 88 55 89 56 90 58 91 60 92 57 93
REMARK H PARENT 23 5 27 36 77 55 51 66
REMARK Flexibility Score: inf
ROOT
ATOM      1  C   UNL     1       5.104  11.256   5.254  1.00  0.00     0.117 C 
ENDROOT
BRANCH   1   2
ATOM      2  N   UNL     1       4.860  11.215   6.684  1.00  0.00    -0.354 N 
ATOM      3  C   UNL     1       5.513  10.528   7.668  1.00  0.00     0.240 C 
ATOM      4  O   UNL     1       5.362  10.936   8.824  1.00  0.00    -0.273 OA
ATOM      5  H   UNL     1       4.107  11.769   6.993  1.00  0.00     0.163 HD
BRANCH   3   6
ATOM      6  C   UNL     1       6.499   9.391   7.365  1.00  0.00     0.230 C 
BRANCH   6   7
ATOM      7  N   UNL     1       5.937   8.348   6.515  1.00  0.00    -0.249 N 
ATOM      8  N   UNL     1       2.156   4.213   4.984  1.00  0.00    -0.312 N 
ATOM      9  C   UNL     1       1.419   3.793   6.185  1.00  0.00     0.131 C 
ATOM     10  C   UNL     1       3.191   5.087   5.120  1.00  0.00     0.212 A 
ATOM     11  C   UNL     1       1.064   5.031   7.013  1.00  0.00     0.026 C 
ATOM     12  N   UNL     1       3.285   5.825   6.285  1.00  0.00    -0.304 N 
ATOM     13  N   UNL     1       4.150   5.446   4.281  1.00  0.00    -0.194 NA
ATOM     14  C   UNL     1       2.359   5.745   7.398  1.00  0.00     0.131 C 
ATOM     15  C   UNL     1       0.241   4.677   8.248  1.00  0.00     0.011 C 
ATOM     16  C   UNL     1       4.359   6.650   6.179  1.00  0.00     0.154 A 
ATOM     17  C   UNL     1       4.865   6.406   4.941  1.00  0.00     0.170 A 
ATOM     18  C   UNL     1       4.907   7.597   7.075  1.00  0.00     0.283 A 
ATOM     19  N   UNL     1       5.970   7.084   4.481  1.00  0.00    -0.279 N 
ATOM     20  O   UNL     1       4.500   7.733   8.230  1.00  0.00    -0.267 OA
ATOM     21  C   UNL     1       6.555   8.069   5.283  1.00  0.00     0.332 A 
ATOM     22  C   UNL     1       6.524   6.778   3.174  1.00  0.00     0.157 C 
ATOM     23  O   UNL     1       7.570   8.675   4.928  1.00  0.00    -0.247 OA
BRANCH   8  24
ATOM     24  C   UNL     1       1.805   3.540   3.801  1.00  0.00     0.044 A 
ATOM     25  C   UNL     1       0.993   2.073   1.523  1.00  0.00     0.119 A 
ATOM     26  C   UNL     1       0.084   2.883   2.198  1.00  0.00     0.048 A 
ATOM     27  C   UNL     1       2.318   2.027   1.957  1.00  0.00     0.048 A 
ATOM     28  C   UNL     1       0.484   3.599   3.329  1.00  0.00     0.030 A 
ATOM     29  C   UNL     1       2.722   2.768   3.079  1.00  0.00     0.030 A 
BRANCH  25  30
ATOM     30  O   UNL     1       0.484   1.420   0.435  1.00  0.00    -0.497 OA
ATOM     31  C   UNL     1       1.111   0.188   0.099  1.00  0.00     0.278 C 
ENDBRANCH  25  30
ENDBRANCH   8  24
ENDBRANCH   6   7
ENDBRANCH   3   6
ENDBRANCH   1   2
BRANCH   1  32
ATOM     32  C   UNL     1       3.894  10.820   4.415  1.00  0.00     0.042 C 
BRANCH  32  33
ATOM     33  C   UNL     1       2.777  11.876   4.256  1.00  0.00     0.118 C 
BRANCH  33  34
ATOM     34  N   UNL     1       3.239  13.028   3.494  1.00  0.00    -0.352 N 
ATOM     35  C   UNL     1       2.698  13.792   2.494  1.00  0.00     0.251 C 
ATOM     36  H   UNL     1       4.140  13.324   3.756  1.00  0.00     0.163 HD
ATOM     37  O   UNL     1       3.471  14.550   1.903  1.00  0.00    -0.269 OA
BRANCH  35  38
ATOM     38  C   UNL     1       1.271  13.792   2.079  1.00  0.00     0.039 A 
ATOM     39  C   UNL     1       1.004  14.091   0.730  1.00  0.00     0.014 A 
ATOM     40  C   UNL     1       0.200  13.701   2.967  1.00  0.00     0.014 A 
ATOM     41  C   UNL     1      -0.305  14.270   0.266  1.00  0.00     0.010 A 
ATOM     42  C   UNL     1      -1.118  13.883   2.499  1.00  0.00     0.010 A 
ATOM     43  C   UNL     1      -1.388  14.155   1.143  1.00  0.00    -0.014 A 
BRANCH  43  44
ATOM     44  C   UNL     1      -2.760  14.115   0.568  1.00  0.00     0.031 A 
ATOM     45  C   UNL     1      -3.606  12.996   1.073  1.00  0.00     0.074 A 
ATOM     46  C   UNL     1      -3.418  15.153  -0.000  1.00  0.00     0.049 A 
ATOM     47  N   UNL     1      -4.256  13.077   2.196  1.00  0.00    -0.248 NA
ATOM     48  C   UNL     1      -3.574  11.652   0.500  1.00  0.00     0.031 C 
ATOM     49  C   UNL     1      -3.211  16.556   0.369  1.00  0.00     0.029 A 
ATOM     50  N   UNL     1      -4.545  15.179  -0.803  1.00  0.00    -0.354 N 
ATOM     51  C   UNL     1      -4.655  11.800   2.531  1.00  0.00     0.074 A 
ATOM     52  C   UNL     1      -4.236  10.950   1.436  1.00  0.00     0.031 C 
ATOM     53  C   UNL     1      -4.275  17.274  -0.053  1.00  0.00     0.029 A 
ATOM     54  C   UNL     1      -5.160  16.431  -0.862  1.00  0.00     0.049 A 
ATOM     55  H   UNL     1      -4.881  14.390  -1.286  1.00  0.00     0.167 HD
ATOM     56  C   UNL     1      -5.279  11.518   3.704  1.00  0.00     0.037 A 
ATOM     57  C   UNL     1      -6.501  16.650  -0.986  1.00  0.00     0.037 A 
ATOM     58  C   UNL     1      -5.507  12.635   4.573  1.00  0.00     0.049 A 
ATOM     59  C   UNL     1      -7.018  16.096   0.314  1.00  0.00     0.074 A 
ATOM     60  C   UNL     1      -4.871  13.240   5.636  1.00  0.00     0.029 A 
ATOM     61  N   UNL     1      -6.606  13.426   4.336  1.00  0.00    -0.354 N 
ATOM     62  N   UNL     1      -6.988  16.686   1.476  1.00  0.00    -0.248 NA
ATOM     63  C   UNL     1      -7.306  14.661   0.359  1.00  0.00     0.031 C 
ATOM     64  C   UNL     1      -5.352  14.589   5.651  1.00  0.00     0.029 A 
ATOM     65  C   UNL     1      -6.211  14.720   4.562  1.00  0.00     0.049 A 
ATOM     66  H   UNL     1      -7.501  13.123   4.059  1.00  0.00     0.167 HD
ATOM     67  C   UNL     1      -6.989  15.653   2.413  1.00  0.00     0.074 A 
ATOM     68  C   UNL     1      -7.225  14.436   1.661  1.00  0.00     0.031 C 
ATOM     69  C   UNL     1      -6.610  15.818   3.713  1.00  0.00     0.037 A 
BRANCH  56  70
ATOM     70  C   UNL     1      -5.820  10.203   4.083  1.00  0.00     0.057 A 
ATOM     71  C   UNL     1      -7.210  10.031   4.067  1.00  0.00     0.134 A 
ATOM     72  C   UNL     1      -5.042   9.214   4.683  1.00  0.00     0.134 A 
ATOM     73  F   UNL     1      -7.998  10.963   3.504  1.00  0.00    -0.206 F 
ATOM     74  C   UNL     1      -7.817   8.938   4.678  1.00  0.00     0.040 A 
ATOM     75  C   UNL     1      -5.638   8.107   5.293  1.00  0.00     0.040 A 
ATOM     76  F   UNL     1      -3.708   9.333   4.739  1.00  0.00    -0.206 F 
ATOM     77  C   UNL     1      -7.029   7.979   5.308  1.00  0.00     0.006 A 
ENDBRANCH  56  70
BRANCH  57  78
ATOM     78  C   UNL     1      -7.174  16.324  -2.288  1.00  0.00     0.057 A 
ATOM     79  C   UNL     1      -6.567  16.696  -3.501  1.00  0.00     0.134 A 
ATOM     80  C   UNL     1      -8.432  15.711  -2.411  1.00  0.00     0.134 A 
ATOM     81  F   UNL     1      -5.432  17.411  -3.503  1.00  0.00    -0.206 F 
ATOM     82  C   UNL     1      -7.111  16.364  -4.748  1.00  0.00     0.040 A 
ATOM     83  C   UNL     1      -8.975  15.344  -3.649  1.00  0.00     0.040 A 
ATOM     84  F   UNL     1      -9.184  15.441  -1.334  1.00  0.00    -0.206 F 
ATOM     85  C   UNL     1      -8.304  15.655  -4.825  1.00  0.00     0.006 A 
ENDBRANCH  57  78
BRANCH  69  86
ATOM     86  C   UNL     1      -6.340  17.225   4.125  1.00  0.00     0.057 A 
ATOM     87  C   UNL     1      -7.389  18.136   4.283  1.00  0.00     0.134 A 
ATOM     88  C   UNL     1      -5.040  17.685   4.375  1.00  0.00     0.134 A 
ATOM     89  F   UNL     1      -8.659  17.759   4.063  1.00  0.00    -0.206 F 
ATOM     90  C   UNL     1      -7.156  19.451   4.691  1.00  0.00     0.040 A 
ATOM     91  C   UNL     1      -4.798  18.990   4.807  1.00  0.00     0.040 A 
ATOM     92  F   UNL     1      -3.980  16.876   4.221  1.00  0.00    -0.206 F 
ATOM     93  C   UNL     1      -5.858  19.878   4.965  1.00  0.00     0.006 A 
ENDBRANCH  69  86
ENDBRANCH  43  44
ENDBRANCH  35  38
ENDBRANCH  33  34
ENDBRANCH  32  33
ENDBRANCH   1  32
TORSDOF 13
