REMARK SMILES CCCCn1cc(C(N)=O)c2cc(C(=O)NCCCNC(=O)c3ccc(-c4c5nc(c(-c6c(F)cccc6F)c6ccc([nH]6)c(-c6c(F)cccc6F)c6nc(c(-c7c(F)cccc7F)c7ccc4[nH]7)C=C6)C=C5)cc3)cnc21
REMARK SMILES IDX 17 1 16 2 14 3 15 4 13 6 5 7 6 8 79 9 7 10 11 11 78 12 12 13
REMARK SMILES IDX 77 14 4 15 3 16 2 17 1 18 8 19 9 20 10 21 18 24 19 25 20 26
REMARK SMILES IDX 21 27 22 29 23 30 24 31 76 32 25 33 75 34 26 35 27 36 28 37
REMARK SMILES IDX 69 38 29 39 74 40 68 41 70 42 30 43 73 44 67 45 66 46 31 48
REMARK SMILES IDX 57 49 40 50 56 51 41 52 44 53 55 54 71 55 42 56 43 57 54 59
REMARK SMILES IDX 72 60 45 61 32 62 33 63 38 64 34 65 35 66 37 67 39 68 36 69
REMARK SMILES IDX 58 70 59 71 64 72 60 73 61 74 63 75 65 76 62 77 46 78 47 79
REMARK SMILES IDX 52 80 48 81 49 82 51 83 53 84 50 85
REMARK H PARENT 16 5 9 22 9 23 20 28 70 47 44 58
REMARK Flexibility Score: inf
ROOT
ATOM      1  C   UNL     1      -3.213   5.460   6.944  1.00  0.00     0.118 C 
ENDROOT
BRANCH   1   2
ATOM      2  N   UNL     1      -4.441   5.228   6.204  1.00  0.00    -0.352 N 
ATOM      3  C   UNL     1      -4.703   4.554   5.041  1.00  0.00     0.252 C 
ATOM      4  O   UNL     1      -5.879   4.486   4.679  1.00  0.00    -0.269 OA
ATOM      5  H   UNL     1      -5.238   5.633   6.618  1.00  0.00     0.163 HD
BRANCH   3   6
ATOM      6  C   UNL     1      -3.666   3.880   4.221  1.00  0.00     0.058 A 
ATOM      7  N   UNL     1      -1.025   1.838   1.895  1.00  0.00    -0.332 N 
ATOM      8  C   UNL     1      -1.830   1.143   1.038  1.00  0.00     0.102 A 
ATOM      9  C   UNL     1      -1.812   2.615   2.699  1.00  0.00     0.140 A 
ATOM     10  C   UNL     1      -3.159   1.320   1.403  1.00  0.00     0.066 A 
ATOM     11  C   UNL     1      -3.146   2.262   2.484  1.00  0.00     0.032 A 
ATOM     12  N   UNL     1      -1.345   3.553   3.541  1.00  0.00    -0.237 NA
ATOM     13  C   UNL     1      -4.093   2.895   3.317  1.00  0.00     0.028 A 
ATOM     14  C   UNL     1      -2.316   4.184   4.235  1.00  0.00     0.127 A 
BRANCH   7  15
ATOM     15  C   UNL     1       0.427   1.831   1.908  1.00  0.00     0.123 C 
BRANCH  15  16
ATOM     16  C   UNL     1       1.065   0.498   2.321  1.00  0.00     0.022 C 
BRANCH  16  17
ATOM     17  C   UNL     1       0.900  -0.668   1.341  1.00  0.00    -0.002 C 
ATOM     18  C   UNL     1       1.367  -0.359  -0.074  1.00  0.00     0.004 C 
ENDBRANCH  16  17
ENDBRANCH  15  16
ENDBRANCH   7  15
BRANCH  10  19
ATOM     19  C   UNL     1      -4.232   0.626   0.694  1.00  0.00     0.250 C 
ATOM     20  N   UNL     1      -5.516   0.945   1.024  1.00  0.00    -0.366 N 
ATOM     21  O   UNL     1      -4.026  -0.205  -0.177  1.00  0.00    -0.269 OA
ATOM     22  H   UNL     1      -5.693   1.613   1.725  1.00  0.00     0.159 HD
ATOM     23  H   UNL     1      -6.267   0.507   0.561  1.00  0.00     0.159 HD
ENDBRANCH  10  19
ENDBRANCH   3   6
ENDBRANCH   1   2
BRANCH   1  24
ATOM     24  C   UNL     1      -2.555   6.787   6.537  1.00  0.00     0.042 C 
BRANCH  24  25
ATOM     25  C   UNL     1      -3.198   7.964   7.247  1.00  0.00     0.118 C 
BRANCH  25  26
ATOM     26  N   UNL     1      -2.916   7.933   8.678  1.00  0.00    -0.352 N 
ATOM     27  C   UNL     1      -3.323   8.785   9.673  1.00  0.00     0.251 C 
ATOM     28  H   UNL     1      -2.348   7.186   8.974  1.00  0.00     0.163 HD
ATOM     29  O   UNL     1      -2.750   8.772  10.758  1.00  0.00    -0.269 OA
BRANCH  27  30
ATOM     30  C   UNL     1      -4.440   9.714   9.441  1.00  0.00     0.039 A 
ATOM     31  C   UNL     1      -4.434  10.968  10.060  1.00  0.00     0.014 A 
ATOM     32  C   UNL     1      -5.521   9.317   8.653  1.00  0.00     0.014 A 
ATOM     33  C   UNL     1      -5.500  11.831   9.845  1.00  0.00     0.010 A 
ATOM     34  C   UNL     1      -6.511  10.211   8.336  1.00  0.00     0.010 A 
ATOM     35  C   UNL     1      -6.528  11.441   8.977  1.00  0.00    -0.014 A 
BRANCH  35  36
ATOM     36  C   UNL     1      -7.617  12.349   8.676  1.00  0.00     0.031 A 
ATOM     37  C   UNL     1      -7.211  13.592   7.979  1.00  0.00     0.074 A 
ATOM     38  C   UNL     1      -8.910  12.014   8.837  1.00  0.00     0.049 A 
ATOM     39  N   UNL     1      -7.161  14.781   8.478  1.00  0.00    -0.248 NA
ATOM     40  C   UNL     1      -6.666  13.490   6.619  1.00  0.00     0.031 C 
ATOM     41  C   UNL     1      -9.489  10.719   9.209  1.00  0.00     0.029 A 
ATOM     42  N   UNL     1     -10.005  12.782   8.609  1.00  0.00    -0.354 N 
ATOM     43  C   UNL     1      -6.770  15.618   7.439  1.00  0.00     0.074 A 
ATOM     44  C   UNL     1      -6.306  14.754   6.384  1.00  0.00     0.031 C 
ATOM     45  C   UNL     1     -10.822  10.742   8.977  1.00  0.00     0.029 A 
ATOM     46  C   UNL     1     -11.206  12.089   8.595  1.00  0.00     0.049 A 
ATOM     47  H   UNL     1      -9.951  13.755   8.464  1.00  0.00     0.167 HD
ATOM     48  C   UNL     1      -7.082  16.944   7.456  1.00  0.00     0.037 A 
ATOM     49  C   UNL     1     -12.416  12.598   8.260  1.00  0.00     0.037 A 
ATOM     50  C   UNL     1      -7.547  17.348   8.762  1.00  0.00     0.049 A 
ATOM     51  C   UNL     1     -12.327  14.075   8.409  1.00  0.00     0.074 A 
ATOM     52  C   UNL     1      -7.005  17.349  10.032  1.00  0.00     0.029 A 
ATOM     53  N   UNL     1      -8.905  17.479   8.936  1.00  0.00    -0.354 N 
ATOM     54  N   UNL     1     -12.206  14.677   9.560  1.00  0.00    -0.248 NA
ATOM     55  C   UNL     1     -11.901  14.853   7.254  1.00  0.00     0.031 C 
ATOM     56  C   UNL     1      -8.083  16.984  10.893  1.00  0.00     0.029 A 
ATOM     57  C   UNL     1      -9.229  16.847  10.108  1.00  0.00     0.049 A 
ATOM     58  H   UNL     1      -9.528  17.942   8.331  1.00  0.00     0.167 HD
ATOM     59  C   UNL     1     -11.297  15.700   9.330  1.00  0.00     0.074 A 
ATOM     60  C   UNL     1     -11.221  15.822   7.875  1.00  0.00     0.031 C 
ATOM     61  C   UNL     1     -10.476  16.151  10.325  1.00  0.00     0.037 A 
BRANCH  48  62
ATOM     62  C   UNL     1      -7.348  17.790   6.235  1.00  0.00     0.057 A 
ATOM     63  C   UNL     1      -7.724  17.281   4.978  1.00  0.00     0.134 A 
ATOM     64  C   UNL     1      -7.543  19.175   6.402  1.00  0.00     0.134 A 
ATOM     65  F   UNL     1      -7.656  15.979   4.677  1.00  0.00    -0.206 F 
ATOM     66  C   UNL     1      -8.300  18.075   3.982  1.00  0.00     0.040 A 
ATOM     67  C   UNL     1      -8.167  19.968   5.433  1.00  0.00     0.040 A 
ATOM     68  F   UNL     1      -7.216  19.783   7.553  1.00  0.00    -0.206 F 
ATOM     69  C   UNL     1      -8.561  19.415   4.222  1.00  0.00     0.006 A 
ENDBRANCH  48  62
BRANCH  49  70
ATOM     70  C   UNL     1     -13.553  11.929   7.592  1.00  0.00     0.057 A 
ATOM     71  C   UNL     1     -13.359  10.840   6.723  1.00  0.00     0.134 A 
ATOM     72  C   UNL     1     -14.827  12.512   7.571  1.00  0.00     0.134 A 
ATOM     73  F   UNL     1     -12.162  10.248   6.609  1.00  0.00    -0.206 F 
ATOM     74  C   UNL     1     -14.364  10.375   5.868  1.00  0.00     0.040 A 
ATOM     75  C   UNL     1     -15.840  12.061   6.715  1.00  0.00     0.040 A 
ATOM     76  F   UNL     1     -15.101  13.578   8.338  1.00  0.00    -0.206 F 
ATOM     77  C   UNL     1     -15.605  10.997   5.849  1.00  0.00     0.006 A 
ENDBRANCH  49  70
BRANCH  61  78
ATOM     78  C   UNL     1     -10.757  15.684  11.727  1.00  0.00     0.057 A 
ATOM     79  C   UNL     1     -10.986  16.639  12.722  1.00  0.00     0.134 A 
ATOM     80  C   UNL     1     -10.672  14.346  12.143  1.00  0.00     0.134 A 
ATOM     81  F   UNL     1     -11.018  17.945  12.411  1.00  0.00    -0.206 F 
ATOM     82  C   UNL     1     -11.140  16.284  14.064  1.00  0.00     0.040 A 
ATOM     83  C   UNL     1     -10.859  13.973  13.478  1.00  0.00     0.040 A 
ATOM     84  F   UNL     1     -10.353  13.371  11.285  1.00  0.00    -0.206 F 
ATOM     85  C   UNL     1     -11.090  14.946  14.444  1.00  0.00     0.006 A 
ENDBRANCH  61  78
ENDBRANCH  35  36
ENDBRANCH  27  30
ENDBRANCH  25  26
ENDBRANCH  24  25
ENDBRANCH   1  24
TORSDOF 14
