REMARK SMILES O=C(NCCCNC(=O)c1sccc1S(=O)(=O)Nc1ccccc1N1CCCCC1)c1ccc(-c2c3nc(c(-c4c(F)cccc4F)c4ccc([nH]4)c(-c4c(F)cccc4F)c4nc(c(-c5c(F)cccc5F)c5ccc2[nH]5)C=C4)C=C3)cc1
REMARK SMILES IDX 6 1 5 2 4 3 3 4 1 5 2 6 31 8 32 9 84 10 33 11 83 12 34 13
REMARK SMILES IDX 35 14 36 15 77 16 37 17 82 18 76 19 78 20 38 21 81 22 75 23
REMARK SMILES IDX 74 24 39 26 65 27 48 28 64 29 49 30 52 31 63 32 79 33 50 34
REMARK SMILES IDX 51 35 62 37 80 38 53 39 40 40 41 41 46 42 42 43 43 44 45 45
REMARK SMILES IDX 47 46 44 47 66 48 67 49 72 50 68 51 69 52 71 53 73 54 70 55
REMARK SMILES IDX 54 56 55 57 60 58 56 59 57 60 59 61 61 62 58 63 7 64 8 65
REMARK SMILES IDX 9 67 10 68 11 69 14 70 12 71 13 72 15 73 16 74 17 75 18 76
REMARK SMILES IDX 19 78 20 79 24 80 21 81 23 82 22 83 25 84 26 85 30 86 27 87
REMARK SMILES IDX 29 88 28 89
REMARK H PARENT 3 7 78 25 52 36 7 66 18 77
REMARK Flexibility Score: inf
ROOT
ATOM      1  C   UNL     1       5.318  -0.724   3.204  1.00  0.00     0.118 C 
ENDROOT
BRANCH   1   2
ATOM      2  C   UNL     1       5.387   0.228   2.026  1.00  0.00     0.042 C 
BRANCH   2   3
ATOM      3  C   UNL     1       4.877  -0.422   0.746  1.00  0.00     0.118 C 
BRANCH   3   4
ATOM      4  N   UNL     1       3.428  -0.602   0.734  1.00  0.00    -0.352 N 
ATOM      5  O   UNL     1       1.280  -0.202   0.154  1.00  0.00    -0.269 OA
ATOM      6  C   UNL     1       2.469   0.018  -0.029  1.00  0.00     0.251 C 
ATOM      7  H   UNL     1       3.086  -1.271   1.370  1.00  0.00     0.163 HD
BRANCH   6   8
ATOM      8  C   UNL     1       2.905   1.007  -1.028  1.00  0.00     0.039 A 
ATOM      9  C   UNL     1       3.905   0.678  -1.944  1.00  0.00     0.014 A 
ATOM     10  C   UNL     1       2.393   2.303  -0.953  1.00  0.00     0.014 A 
ATOM     11  C   UNL     1       4.542   1.693  -2.639  1.00  0.00     0.010 A 
ATOM     12  C   UNL     1       2.961   3.301  -1.740  1.00  0.00     0.010 A 
ATOM     13  C   UNL     1       4.073   3.013  -2.548  1.00  0.00    -0.014 A 
BRANCH  13  14
ATOM     14  C   UNL     1       4.730   4.084  -3.330  1.00  0.00     0.031 A 
ATOM     15  C   UNL     1       5.378   5.251  -2.643  1.00  0.00     0.074 A 
ATOM     16  C   UNL     1       4.715   3.999  -4.672  1.00  0.00     0.049 A 
ATOM     17  N   UNL     1       5.879   6.340  -3.168  1.00  0.00    -0.248 NA
ATOM     18  C   UNL     1       5.465   5.197  -1.176  1.00  0.00     0.031 C 
ATOM     19  C   UNL     1       4.122   2.901  -5.439  1.00  0.00     0.029 A 
ATOM     20  N   UNL     1       5.201   4.850  -5.628  1.00  0.00    -0.354 N 
ATOM     21  C   UNL     1       6.301   7.118  -2.097  1.00  0.00     0.074 A 
ATOM     22  C   UNL     1       5.992   6.380  -0.891  1.00  0.00     0.031 C 
ATOM     23  C   UNL     1       4.293   3.136  -6.746  1.00  0.00     0.029 A 
ATOM     24  C   UNL     1       4.931   4.436  -6.907  1.00  0.00     0.049 A 
ATOM     25  H   UNL     1       5.694   5.676  -5.418  1.00  0.00     0.167 HD
ATOM     26  C   UNL     1       6.888   8.339  -2.126  1.00  0.00     0.037 A 
ATOM     27  C   UNL     1       5.129   5.054  -8.084  1.00  0.00     0.037 A 
ATOM     28  C   UNL     1       7.210   9.047  -3.339  1.00  0.00     0.049 A 
ATOM     29  C   UNL     1       5.757   6.412  -8.091  1.00  0.00     0.074 A 
ATOM     30  C   UNL     1       7.841  10.270  -3.484  1.00  0.00     0.029 A 
ATOM     31  N   UNL     1       6.922   8.592  -4.618  1.00  0.00    -0.354 N 
ATOM     32  N   UNL     1       6.155   7.138  -7.074  1.00  0.00    -0.248 NA
ATOM     33  C   UNL     1       5.958   7.042  -9.401  1.00  0.00     0.031 C 
ATOM     34  C   UNL     1       7.897  10.573  -4.849  1.00  0.00     0.029 A 
ATOM     35  C   UNL     1       7.342   9.519  -5.557  1.00  0.00     0.049 A 
ATOM     36  H   UNL     1       6.482   7.736  -4.827  1.00  0.00     0.167 HD
ATOM     37  C   UNL     1       6.670   8.304  -7.620  1.00  0.00     0.074 A 
ATOM     38  C   UNL     1       6.539   8.184  -9.059  1.00  0.00     0.031 C 
ATOM     39  C   UNL     1       7.205   9.375  -6.985  1.00  0.00     0.037 A 
BRANCH  26  40
ATOM     40  C   UNL     1       7.186   8.999  -0.811  1.00  0.00     0.057 A 
ATOM     41  C   UNL     1       8.208   8.552   0.036  1.00  0.00     0.134 A 
ATOM     42  C   UNL     1       6.449  10.117  -0.397  1.00  0.00     0.134 A 
ATOM     43  F   UNL     1       8.943   7.480  -0.293  1.00  0.00    -0.206 F 
ATOM     44  C   UNL     1       8.469   9.176   1.259  1.00  0.00     0.040 A 
ATOM     45  C   UNL     1       6.716  10.764   0.812  1.00  0.00     0.040 A 
ATOM     46  F   UNL     1       5.460  10.603  -1.162  1.00  0.00    -0.206 F 
ATOM     47  C   UNL     1       7.724  10.288   1.647  1.00  0.00     0.006 A 
ENDBRANCH  26  40
BRANCH  27  48
ATOM     48  C   UNL     1       4.694   4.380  -9.329  1.00  0.00     0.057 A 
ATOM     49  C   UNL     1       5.622   3.810 -10.203  1.00  0.00     0.134 A 
ATOM     50  C   UNL     1       3.334   4.212  -9.625  1.00  0.00     0.134 A 
ATOM     51  F   UNL     1       6.937   3.944  -9.973  1.00  0.00    -0.206 F 
ATOM     52  C   UNL     1       5.216   3.090 -11.328  1.00  0.00     0.040 A 
ATOM     53  C   UNL     1       2.913   3.476 -10.732  1.00  0.00     0.040 A 
ATOM     54  F   UNL     1       2.397   4.721  -8.811  1.00  0.00    -0.206 F 
ATOM     55  C   UNL     1       3.857   2.913 -11.588  1.00  0.00     0.006 A 
ENDBRANCH  27  48
BRANCH  39  56
ATOM     56  C   UNL     1       7.723  10.485  -7.846  1.00  0.00     0.057 A 
ATOM     57  C   UNL     1       6.862  11.394  -8.473  1.00  0.00     0.134 A 
ATOM     58  C   UNL     1       9.101  10.675  -8.006  1.00  0.00     0.134 A 
ATOM     59  F   UNL     1       5.532  11.254  -8.369  1.00  0.00    -0.206 F 
ATOM     60  C   UNL     1       7.356  12.449  -9.240  1.00  0.00     0.040 A 
ATOM     61  C   UNL     1       9.606  11.738  -8.753  1.00  0.00     0.040 A 
ATOM     62  F   UNL     1       9.975   9.839  -7.426  1.00  0.00    -0.206 F 
ATOM     63  C   UNL     1       8.732  12.628  -9.374  1.00  0.00     0.006 A 
ENDBRANCH  39  56
ENDBRANCH  13  14
ENDBRANCH   6   8
ENDBRANCH   3   4
ENDBRANCH   2   3
ENDBRANCH   1   2
BRANCH   1  64
ATOM     64  N   UNL     1       6.231  -1.834   3.058  1.00  0.00    -0.351 N 
ATOM     65  C   UNL     1       6.780  -2.641   4.011  1.00  0.00     0.262 C 
ATOM     66  H   UNL     1       6.496  -2.039   2.133  1.00  0.00     0.163 HD
ATOM     67  O   UNL     1       7.649  -3.423   3.619  1.00  0.00    -0.268 OA
BRANCH  65  68
ATOM     68  C   UNL     1       6.421  -2.489   5.401  1.00  0.00     0.112 A 
ATOM     69  S   UNL     1       7.784  -2.266   6.449  1.00  0.00    -0.137 S 
ATOM     70  C   UNL     1       5.236  -2.532   6.121  1.00  0.00     0.111 A 
ATOM     71  C   UNL     1       6.812  -2.170   7.836  1.00  0.00     0.067 A 
ATOM     72  C   UNL     1       5.483  -2.314   7.529  1.00  0.00     0.035 A 
BRANCH  70  73
ATOM     73  S   UNL     1       3.591  -2.701   5.588  1.00  0.00     0.263 S 
ATOM     74  O   UNL     1       2.917  -3.266   6.743  1.00  0.00    -0.201 OA
ATOM     75  O   UNL     1       3.247  -1.341   5.218  1.00  0.00    -0.201 OA
BRANCH  73  76
ATOM     76  N   UNL     1       3.138  -3.647   4.291  1.00  0.00    -0.277 N 
ATOM     77  H   UNL     1       2.174  -3.730   4.109  1.00  0.00     0.180 HD
BRANCH  76  78
ATOM     78  C   UNL     1       4.025  -4.344   3.424  1.00  0.00     0.072 A 
ATOM     79  C   UNL     1       3.914  -4.062   2.052  1.00  0.00     0.029 A 
ATOM     80  C   UNL     1       4.935  -5.318   3.888  1.00  0.00     0.061 A 
ATOM     81  C   UNL     1       4.768  -4.660   1.131  1.00  0.00     0.002 A 
ATOM     82  C   UNL     1       5.794  -5.894   2.935  1.00  0.00     0.028 A 
ATOM     83  C   UNL     1       5.723  -5.563   1.577  1.00  0.00     0.002 A 
BRANCH  80  84
ATOM     84  N   UNL     1       4.963  -5.745   5.206  1.00  0.00    -0.370 N 
ATOM     85  C   UNL     1       6.217  -5.889   5.942  1.00  0.00     0.116 C 
ATOM     86  C   UNL     1       3.733  -6.257   5.817  1.00  0.00     0.116 C 
ATOM     87  C   UNL     1       6.402  -7.315   6.445  1.00  0.00     0.021 C 
ATOM     88  C   UNL     1       3.936  -7.694   6.292  1.00  0.00     0.021 C 
ATOM     89  C   UNL     1       5.163  -7.797   7.192  1.00  0.00     0.004 C 
ENDBRANCH  80  84
ENDBRANCH  76  78
ENDBRANCH  73  76
ENDBRANCH  70  73
ENDBRANCH  65  68
ENDBRANCH   1  64
TORSDOF 14
