REMARK SMILES CC(C)c1cc(C2CC[NH+](Cc3c[nH]nc3C(=O)NCCCNC(=O)c3ccc(-c4c5nc(c(-c6c(F)cccc6F)c6ccc([nH]6)c(-c6c(F)cccc6F)c6nc(c(-c7c(F)cccc7F)c7ccc4[nH]7)C=C6)C=C5)cc3)CC2)n[nH]1
REMARK SMILES IDX 20 1 19 2 17 3 18 4 16 6 12 7 13 8 14 9 15 10 11 12 10 13
REMARK SMILES IDX 7 14 8 15 81 16 9 17 80 18 6 20 4 21 5 22 83 23 82 24 2 26
REMARK SMILES IDX 1 27 3 28 21 29 22 30 23 31 24 32 25 34 26 35 27 36 79 37
REMARK SMILES IDX 28 38 78 39 29 40 30 41 31 42 72 43 32 44 77 45 71 46 73 47
REMARK SMILES IDX 33 48 76 49 70 50 69 51 34 53 60 54 43 55 59 56 44 57 47 58
REMARK SMILES IDX 58 59 74 60 45 61 46 62 57 64 75 65 48 66 35 67 36 68 41 69
REMARK SMILES IDX 37 70 38 71 40 72 42 73 39 74 61 75 62 76 67 77 63 78 64 79
REMARK SMILES IDX 66 80 68 81 65 82 49 83 50 84 55 85 51 86 52 87 54 88 56 89
REMARK SMILES IDX 53 90
REMARK H PARENT 19 5 14 11 10 19 83 25 23 33 73 52 47 63
REMARK Flexibility Score: inf
ROOT
ATOM      1  C   UNL     1      -1.127   6.783   4.117  1.00  0.00     0.118 C 
ENDROOT
BRANCH   1   2
ATOM      2  N   UNL     1      -0.329   5.654   4.491  1.00  0.00    -0.351 N 
ATOM      3  C   UNL     1       0.300   4.679   3.771  1.00  0.00     0.272 C 
ATOM      4  O   UNL     1       0.849   3.831   4.488  1.00  0.00    -0.267 OA
ATOM      5  H   UNL     1      -0.209   5.563   5.464  1.00  0.00     0.163 HD
BRANCH   3   6
ATOM      6  C   UNL     1       0.427   4.638   2.286  1.00  0.00     0.158 A 
ATOM      7  C   UNL     1      -0.348   5.057   1.118  1.00  0.00     0.057 A 
ATOM      8  C   UNL     1       0.439   4.649   0.047  1.00  0.00     0.115 A 
ATOM      9  N   UNL     1       1.535   4.042   0.549  1.00  0.00    -0.284 N 
ATOM     10  N   UNL     1       1.556   4.015   1.870  1.00  0.00    -0.170 NA
ATOM     11  H   UNL     1       2.248   3.659  -0.011  1.00  0.00     0.189 HD
BRANCH   7  12
ATOM     12  C   UNL     1      -1.643   5.799   0.892  1.00  0.00     0.303 C 
BRANCH  12  13
ATOM     13  N   UNL     1      -2.839   4.985   0.640  1.00  0.00    -0.331 N 
ATOM     14  C   UNL     1      -4.243   2.480   0.004  1.00  0.00     0.051 C 
ATOM     15  C   UNL     1      -4.213   3.657  -0.977  1.00  0.00     0.071 C 
ATOM     16  C   UNL     1      -4.336   3.070   1.411  1.00  0.00     0.071 C 
ATOM     17  C   UNL     1      -2.991   4.546  -0.741  1.00  0.00     0.263 C 
ATOM     18  C   UNL     1      -3.254   4.110   1.725  1.00  0.00     0.263 C 
ATOM     19  H   UNL     1      -3.625   5.633   0.697  1.00  0.00     0.348 HD
BRANCH  14  20
ATOM     20  C   UNL     1      -3.080   1.546  -0.214  1.00  0.00     0.066 A 
ATOM     21  C   UNL     1      -1.012   0.770  -0.450  1.00  0.00     0.038 A 
ATOM     22  C   UNL     1      -1.760   1.669   0.265  1.00  0.00     0.049 A 
ATOM     23  N   UNL     1      -1.922   0.034  -1.154  1.00  0.00    -0.282 N 
ATOM     24  N   UNL     1      -3.180   0.510  -1.060  1.00  0.00    -0.180 NA
ATOM     25  H   UNL     1      -1.683  -0.764  -1.677  1.00  0.00     0.190 HD
BRANCH  21  26
ATOM     26  C   UNL     1       0.474   0.667  -0.532  1.00  0.00     0.031 C 
ATOM     27  C   UNL     1       0.994  -0.725  -0.214  1.00  0.00     0.014 C 
ATOM     28  C   UNL     1       0.973   1.182  -1.883  1.00  0.00     0.014 C 
ENDBRANCH  21  26
ENDBRANCH  14  20
ENDBRANCH  12  13
ENDBRANCH   7  12
ENDBRANCH   3   6
ENDBRANCH   1   2
BRANCH   1  29
ATOM     29  C   UNL     1      -2.598   6.425   4.294  1.00  0.00     0.042 C 
BRANCH  29  30
ATOM     30  C   UNL     1      -3.164   6.961   5.596  1.00  0.00     0.118 C 
BRANCH  30  31
ATOM     31  N   UNL     1      -3.307   8.409   5.544  1.00  0.00    -0.352 N 
ATOM     32  C   UNL     1      -4.432   9.194   5.553  1.00  0.00     0.251 C 
ATOM     33  H   UNL     1      -2.458   8.905   5.494  1.00  0.00     0.163 HD
ATOM     34  O   UNL     1      -4.345  10.371   5.225  1.00  0.00    -0.269 OA
BRANCH  32  35
ATOM     35  C   UNL     1      -5.742   8.627   5.945  1.00  0.00     0.039 A 
ATOM     36  C   UNL     1      -6.901   9.123   5.340  1.00  0.00     0.014 A 
ATOM     37  C   UNL     1      -5.840   7.639   6.925  1.00  0.00     0.014 A 
ATOM     38  C   UNL     1      -8.144   8.593   5.688  1.00  0.00     0.010 A 
ATOM     39  C   UNL     1      -7.058   7.022   7.171  1.00  0.00     0.010 A 
ATOM     40  C   UNL     1      -8.229   7.514   6.582  1.00  0.00    -0.014 A 
BRANCH  40  41
ATOM     41  C   UNL     1      -9.534   6.915   6.957  1.00  0.00     0.031 A 
ATOM     42  C   UNL     1      -9.967   6.906   8.399  1.00  0.00     0.074 A 
ATOM     43  C   UNL     1     -10.292   6.321   6.017  1.00  0.00     0.049 A 
ATOM     44  N   UNL     1     -11.028   6.365   8.942  1.00  0.00    -0.248 NA
ATOM     45  C   UNL     1      -9.067   7.554   9.368  1.00  0.00     0.031 C 
ATOM     46  C   UNL     1      -9.951   6.211   4.597  1.00  0.00     0.029 A 
ATOM     47  N   UNL     1     -11.506   5.690   6.117  1.00  0.00    -0.354 N 
ATOM     48  C   UNL     1     -10.906   6.587  10.309  1.00  0.00     0.074 A 
ATOM     49  C   UNL     1      -9.635   7.240  10.521  1.00  0.00     0.031 C 
ATOM     50  C   UNL     1     -10.948   5.584   3.954  1.00  0.00     0.029 A 
ATOM     51  C   UNL     1     -11.976   5.209   4.919  1.00  0.00     0.049 A 
ATOM     52  H   UNL     1     -11.994   5.592   6.966  1.00  0.00     0.167 HD
ATOM     53  C   UNL     1     -11.788   6.303  11.296  1.00  0.00     0.037 A 
ATOM     54  C   UNL     1     -13.106   4.536   4.635  1.00  0.00     0.037 A 
ATOM     55  C   UNL     1     -13.065   5.681  11.073  1.00  0.00     0.049 A 
ATOM     56  C   UNL     1     -14.075   4.236   5.744  1.00  0.00     0.074 A 
ATOM     57  C   UNL     1     -14.065   5.409  11.990  1.00  0.00     0.029 A 
ATOM     58  N   UNL     1     -13.516   5.229   9.841  1.00  0.00    -0.354 N 
ATOM     59  N   UNL     1     -13.983   4.519   7.021  1.00  0.00    -0.248 NA
ATOM     60  C   UNL     1     -15.308   3.530   5.370  1.00  0.00     0.031 C 
ATOM     61  C   UNL     1     -15.098   4.744  11.322  1.00  0.00     0.029 A 
ATOM     62  C   UNL     1     -14.769   4.656   9.978  1.00  0.00     0.049 A 
ATOM     63  H   UNL     1     -13.019   5.305   8.995  1.00  0.00     0.167 HD
ATOM     64  C   UNL     1     -15.156   4.051   7.600  1.00  0.00     0.074 A 
ATOM     65  C   UNL     1     -15.948   3.480   6.530  1.00  0.00     0.031 C 
ATOM     66  C   UNL     1     -15.543   4.093   8.899  1.00  0.00     0.037 A 
BRANCH  53  67
ATOM     67  C   UNL     1     -11.390   6.665  12.700  1.00  0.00     0.057 A 
ATOM     68  C   UNL     1     -11.244   7.998  13.113  1.00  0.00     0.134 A 
ATOM     69  C   UNL     1     -11.147   5.668  13.654  1.00  0.00     0.134 A 
ATOM     70  F   UNL     1     -11.448   9.004  12.249  1.00  0.00    -0.206 F 
ATOM     71  C   UNL     1     -10.829   8.324  14.406  1.00  0.00     0.040 A 
ATOM     72  C   UNL     1     -10.765   5.983  14.960  1.00  0.00     0.040 A 
ATOM     73  F   UNL     1     -11.273   4.372  13.333  1.00  0.00    -0.206 F 
ATOM     74  C   UNL     1     -10.594   7.314  15.335  1.00  0.00     0.006 A 
ENDBRANCH  53  67
BRANCH  54  75
ATOM     75  C   UNL     1     -13.391   4.135   3.234  1.00  0.00     0.057 A 
ATOM     76  C   UNL     1     -14.408   4.754   2.498  1.00  0.00     0.134 A 
ATOM     77  C   UNL     1     -12.643   3.142   2.590  1.00  0.00     0.134 A 
ATOM     78  F   UNL     1     -15.168   5.703   3.063  1.00  0.00    -0.206 F 
ATOM     79  C   UNL     1     -14.680   4.391   1.178  1.00  0.00     0.040 A 
ATOM     80  C   UNL     1     -12.887   2.787   1.263  1.00  0.00     0.040 A 
ATOM     81  F   UNL     1     -11.646   2.519   3.237  1.00  0.00    -0.206 F 
ATOM     82  C   UNL     1     -13.913   3.409   0.554  1.00  0.00     0.006 A 
ENDBRANCH  54  75
BRANCH  66  83
ATOM     83  C   UNL     1     -16.898   3.537   9.230  1.00  0.00     0.057 A 
ATOM     84  C   UNL     1     -17.165   2.163   9.197  1.00  0.00     0.134 A 
ATOM     85  C   UNL     1     -17.936   4.388   9.629  1.00  0.00     0.134 A 
ATOM     86  F   UNL     1     -16.217   1.294   8.812  1.00  0.00    -0.206 F 
ATOM     87  C   UNL     1     -18.424   1.657   9.525  1.00  0.00     0.040 A 
ATOM     88  C   UNL     1     -19.189   3.892   9.989  1.00  0.00     0.040 A 
ATOM     89  F   UNL     1     -17.744   5.715   9.693  1.00  0.00    -0.206 F 
ATOM     90  C   UNL     1     -19.438   2.523   9.930  1.00  0.00     0.006 A 
ENDBRANCH  66  83
ENDBRANCH  40  41
ENDBRANCH  32  35
ENDBRANCH  30  31
ENDBRANCH  29  30
ENDBRANCH   1  29
TORSDOF 14
