REMARK SMILES C[C@@H](C(=O)NCCCNC(=O)c1ccc(-c2c3nc(c(-c4c(F)cccc4F)c4ccc([nH]4)c(-c4c(F)cccc4F)c4nc(c(-c5c(F)cccc5F)c5ccc2[nH]5)C=C4)C=C3)cc1)c1ccc(Cc2ccco2)cc1F
REMARK SMILES IDX 6 1 5 2 3 3 4 4 2 6 1 7 66 8 67 9 77 10 68 11 76 12 78 13
REMARK SMILES IDX 69 14 70 15 71 16 72 17 75 18 73 19 74 20 7 21 8 22 9 23
REMARK SMILES IDX 10 24 11 26 12 27 13 28 65 29 14 30 64 31 15 32 16 33 17 34
REMARK SMILES IDX 58 35 18 36 63 37 57 38 59 39 19 40 62 41 56 42 55 43 20 45
REMARK SMILES IDX 46 46 29 47 45 48 30 49 33 50 44 51 60 52 31 53 32 54 43 56
REMARK SMILES IDX 61 57 34 58 21 59 22 60 27 61 23 62 24 63 26 64 28 65 25 66
REMARK SMILES IDX 47 67 48 68 53 69 49 70 50 71 52 72 54 73 51 74 35 75 36 76
REMARK SMILES IDX 41 77 37 78 38 79 40 80 42 81 39 82
REMARK H PARENT 5 5 9 25 59 44 33 55
REMARK Flexibility Score: inf
ROOT
ATOM      1  C   UNL     1       3.514   1.961   0.226  1.00  0.00     0.117 C 
ENDROOT
BRANCH   1   2
ATOM      2  N   UNL     1       2.415   2.526  -0.537  1.00  0.00    -0.356 N 
ATOM      3  C   UNL     1       1.120   2.111  -0.674  1.00  0.00     0.227 C 
ATOM      4  O   UNL     1       0.470   2.648  -1.574  1.00  0.00    -0.274 OA
ATOM      5  H   UNL     1       2.641   3.342  -1.039  1.00  0.00     0.163 HD
BRANCH   3   6
ATOM      6  C   UNL     1       0.534   1.054   0.285  1.00  0.00     0.108 C 
ATOM      7  C   UNL     1       1.059  -0.323  -0.134  1.00  0.00     0.023 C 
BRANCH   6   8
ATOM      8  C   UNL     1      -0.994   1.133   0.413  1.00  0.00    -0.000 A 
ATOM      9  C   UNL     1      -1.631   2.385   0.471  1.00  0.00     0.008 A 
ATOM     10  C   UNL     1      -1.821   0.005   0.522  1.00  0.00     0.127 A 
ATOM     11  C   UNL     1      -3.025   2.495   0.548  1.00  0.00     0.005 A 
ATOM     12  C   UNL     1      -3.210   0.107   0.633  1.00  0.00     0.043 A 
ATOM     13  F   UNL     1      -1.310  -1.233   0.525  1.00  0.00    -0.207 F 
ATOM     14  C   UNL     1      -3.834   1.357   0.636  1.00  0.00    -0.038 A 
BRANCH  14  15
ATOM     15  C   UNL     1      -5.342   1.461   0.688  1.00  0.00     0.111 C 
BRANCH  15  16
ATOM     16  C   UNL     1      -5.870   2.131   1.910  1.00  0.00     0.108 A 
ATOM     17  C   UNL     1      -5.765   3.409   2.423  1.00  0.00     0.046 A 
ATOM     18  O   UNL     1      -6.679   1.379   2.714  1.00  0.00    -0.469 OA
ATOM     19  C   UNL     1      -6.537   3.434   3.608  1.00  0.00     0.042 A 
ATOM     20  C   UNL     1      -7.077   2.178   3.737  1.00  0.00     0.195 A 
ENDBRANCH  15  16
ENDBRANCH  14  15
ENDBRANCH   6   8
ENDBRANCH   3   6
ENDBRANCH   1   2
BRANCH   1  21
ATOM     21  C   UNL     1       4.457   1.154  -0.671  1.00  0.00     0.042 C 
BRANCH  21  22
ATOM     22  C   UNL     1       5.164   1.976  -1.744  1.00  0.00     0.118 C 
BRANCH  22  23
ATOM     23  N   UNL     1       6.137   2.905  -1.189  1.00  0.00    -0.352 N 
ATOM     24  C   UNL     1       7.501   2.945  -1.336  1.00  0.00     0.251 C 
ATOM     25  H   UNL     1       5.758   3.614  -0.620  1.00  0.00     0.163 HD
ATOM     26  O   UNL     1       8.167   3.695  -0.625  1.00  0.00    -0.269 OA
BRANCH  24  27
ATOM     27  C   UNL     1       8.181   2.071  -2.317  1.00  0.00     0.039 A 
ATOM     28  C   UNL     1       9.337   1.391  -1.923  1.00  0.00     0.014 A 
ATOM     29  C   UNL     1       7.694   1.922  -3.619  1.00  0.00     0.014 A 
ATOM     30  C   UNL     1       9.948   0.491  -2.800  1.00  0.00     0.010 A 
ATOM     31  C   UNL     1       8.264   0.975  -4.469  1.00  0.00     0.010 A 
ATOM     32  C   UNL     1       9.383   0.234  -4.061  1.00  0.00    -0.014 A 
BRANCH  32  33
ATOM     33  C   UNL     1       9.902  -0.855  -4.930  1.00  0.00     0.031 A 
ATOM     34  C   UNL     1      10.490  -0.549  -6.279  1.00  0.00     0.074 A 
ATOM     35  C   UNL     1       9.752  -2.136  -4.533  1.00  0.00     0.049 A 
ATOM     36  N   UNL     1      10.889  -1.378  -7.210  1.00  0.00    -0.248 NA
ATOM     37  C   UNL     1      10.633   0.870  -6.638  1.00  0.00     0.031 C 
ATOM     38  C   UNL     1       9.157  -2.564  -3.264  1.00  0.00     0.029 A 
ATOM     39  N   UNL     1      10.065  -3.315  -5.164  1.00  0.00    -0.354 N 
ATOM     40  C   UNL     1      11.312  -0.586  -8.269  1.00  0.00     0.074 A 
ATOM     41  C   UNL     1      11.096   0.791  -7.879  1.00  0.00     0.031 C 
ATOM     42  C   UNL     1       9.151  -3.905  -3.210  1.00  0.00     0.029 A 
ATOM     43  C   UNL     1       9.693  -4.435  -4.456  1.00  0.00     0.049 A 
ATOM     44  H   UNL     1      10.513  -3.356  -6.039  1.00  0.00     0.167 HD
ATOM     45  C   UNL     1      11.841  -0.974  -9.453  1.00  0.00     0.037 A 
ATOM     46  C   UNL     1       9.751  -5.740  -4.785  1.00  0.00     0.037 A 
ATOM     47  C   UNL     1      12.081  -2.345  -9.825  1.00  0.00     0.049 A 
ATOM     48  C   UNL     1      10.314  -6.135  -6.123  1.00  0.00     0.074 A 
ATOM     49  C   UNL     1      12.704  -2.828 -10.963  1.00  0.00     0.029 A 
ATOM     50  N   UNL     1      11.698  -3.447  -9.079  1.00  0.00    -0.354 N 
ATOM     51  N   UNL     1      10.805  -5.374  -7.070  1.00  0.00    -0.248 NA
ATOM     52  C   UNL     1      10.326  -7.571  -6.442  1.00  0.00     0.031 C 
ATOM     53  C   UNL     1      12.639  -4.224 -10.938  1.00  0.00     0.029 A 
ATOM     54  C   UNL     1      12.026  -4.610  -9.758  1.00  0.00     0.049 A 
ATOM     55  H   UNL     1      11.258  -3.410  -8.199  1.00  0.00     0.167 HD
ATOM     56  C   UNL     1      11.201  -6.237  -8.084  1.00  0.00     0.074 A 
ATOM     57  C   UNL     1      10.918  -7.580  -7.627  1.00  0.00     0.031 C 
ATOM     58  C   UNL     1      11.743  -5.942  -9.290  1.00  0.00     0.037 A 
BRANCH  45  59
ATOM     59  C   UNL     1      12.202   0.085 -10.453  1.00  0.00     0.057 A 
ATOM     60  C   UNL     1      13.321   0.909 -10.286  1.00  0.00     0.134 A 
ATOM     61  C   UNL     1      11.483   0.204 -11.649  1.00  0.00     0.134 A 
ATOM     62  F   UNL     1      14.050   0.848  -9.161  1.00  0.00    -0.206 F 
ATOM     63  C   UNL     1      13.709   1.819 -11.272  1.00  0.00     0.040 A 
ATOM     64  C   UNL     1      11.874   1.093 -12.652  1.00  0.00     0.040 A 
ATOM     65  F   UNL     1      10.406  -0.563 -11.876  1.00  0.00    -0.206 F 
ATOM     66  C   UNL     1      12.992   1.903 -12.464  1.00  0.00     0.006 A 
ENDBRANCH  45  59
BRANCH  46  67
ATOM     67  C   UNL     1       9.232  -6.777  -3.855  1.00  0.00     0.057 A 
ATOM     68  C   UNL     1      10.086  -7.717  -3.266  1.00  0.00     0.134 A 
ATOM     69  C   UNL     1       7.864  -6.887  -3.573  1.00  0.00     0.134 A 
ATOM     70  F   UNL     1      11.404  -7.679  -3.513  1.00  0.00    -0.206 F 
ATOM     71  C   UNL     1       9.598  -8.748  -2.462  1.00  0.00     0.040 A 
ATOM     72  C   UNL     1       7.365  -7.893  -2.745  1.00  0.00     0.040 A 
ATOM     73  F   UNL     1       6.991  -6.015  -4.099  1.00  0.00    -0.206 F 
ATOM     74  C   UNL     1       8.232  -8.837  -2.198  1.00  0.00     0.006 A 
ENDBRANCH  46  67
BRANCH  58  75
ATOM     75  C   UNL     1      12.081  -7.090 -10.195  1.00  0.00     0.057 A 
ATOM     76  C   UNL     1      11.086  -7.832 -10.843  1.00  0.00     0.134 A 
ATOM     77  C   UNL     1      13.415  -7.423 -10.463  1.00  0.00     0.134 A 
ATOM     78  F   UNL     1       9.789  -7.574 -10.617  1.00  0.00    -0.206 F 
ATOM     79  C   UNL     1      11.405  -8.876 -11.713  1.00  0.00     0.040 A 
ATOM     80  C   UNL     1      13.747  -8.445 -11.353  1.00  0.00     0.040 A 
ATOM     81  F   UNL     1      14.417  -6.746  -9.881  1.00  0.00    -0.206 F 
ATOM     82  C   UNL     1      12.740  -9.178 -11.977  1.00  0.00     0.006 A 
ENDBRANCH  58  75
ENDBRANCH  32  33
ENDBRANCH  24  27
ENDBRANCH  22  23
ENDBRANCH  21  22
ENDBRANCH   1  21
TORSDOF 13
