REMARK SMILES O=C(NCCCNC(=O)c1ccc(F)c(NS(=O)(=O)c2cc(Cl)sc2Cl)c1)c1ccc(-c2c3nc(c(-c4c(F)cccc4F)c4ccc([nH]4)c(-c4c(F)cccc4F)c4nc(c(-c5c(F)cccc5F)c5ccc2[nH]5)C=C4)C=C3)cc1
REMARK SMILES IDX 5 1 4 2 3 3 1 4 2 5 28 7 29 8 81 9 30 10 80 11 31 12 32 13
REMARK SMILES IDX 33 14 74 15 34 16 79 17 73 18 75 19 35 20 78 21 72 22 71 23
REMARK SMILES IDX 36 25 62 26 45 27 61 28 46 29 49 30 60 31 76 32 47 33 48 34
REMARK SMILES IDX 59 36 77 37 50 38 37 39 38 40 43 41 39 42 40 43 42 44 44 45
REMARK SMILES IDX 41 46 63 47 64 48 69 49 65 50 66 51 68 52 70 53 67 54 51 55
REMARK SMILES IDX 52 56 57 57 53 58 54 59 56 60 58 61 55 62 6 63 7 64 8 65
REMARK SMILES IDX 9 67 10 68 11 69 27 70 12 71 15 72 13 73 14 74 16 75 17 77
REMARK SMILES IDX 18 78 19 79 20 80 21 81 25 82 22 83 24 84 26 85 23 86
REMARK H PARENT 3 6 75 24 49 35 7 66 16 76
REMARK Flexibility Score: inf
ROOT
ATOM      1  C   UNL     1       4.761  -2.362   0.748  1.00  0.00     0.042 C 
ENDROOT
BRANCH   1   2
ATOM      2  C   UNL     1       4.444  -1.340  -0.340  1.00  0.00     0.118 C 
BRANCH   2   3
ATOM      3  N   UNL     1       3.021  -1.046  -0.449  1.00  0.00    -0.352 N 
ATOM      4  O   UNL     1       1.081   0.047  -0.141  1.00  0.00    -0.269 OA
ATOM      5  C   UNL     1       2.309   0.086  -0.137  1.00  0.00     0.251 C 
ATOM      6  H   UNL     1       2.478  -1.785  -0.807  1.00  0.00     0.163 HD
BRANCH   5   7
ATOM      7  C   UNL     1       3.001   1.340   0.228  1.00  0.00     0.039 A 
ATOM      8  C   UNL     1       4.133   1.768  -0.466  1.00  0.00     0.014 A 
ATOM      9  C   UNL     1       2.481   2.126   1.263  1.00  0.00     0.014 A 
ATOM     10  C   UNL     1       4.838   2.881  -0.021  1.00  0.00     0.010 A 
ATOM     11  C   UNL     1       3.136   3.300   1.646  1.00  0.00     0.010 A 
ATOM     12  C   UNL     1       4.342   3.667   1.032  1.00  0.00    -0.014 A 
BRANCH  12  13
ATOM     13  C   UNL     1       5.080   4.890   1.437  1.00  0.00     0.031 A 
ATOM     14  C   UNL     1       5.692   5.013   2.804  1.00  0.00     0.074 A 
ATOM     15  C   UNL     1       5.230   5.885   0.541  1.00  0.00     0.049 A 
ATOM     16  N   UNL     1       6.393   5.998   3.307  1.00  0.00    -0.248 NA
ATOM     17  C   UNL     1       5.489   3.889   3.731  1.00  0.00     0.031 C 
ATOM     18  C   UNL     1       4.679   5.881  -0.816  1.00  0.00     0.029 A 
ATOM     19  N   UNL     1       5.908   7.074   0.622  1.00  0.00    -0.354 N 
ATOM     20  C   UNL     1       6.702   5.622   4.607  1.00  0.00     0.074 A 
ATOM     21  C   UNL     1       6.085   4.332   4.829  1.00  0.00     0.031 C 
ATOM     22  C   UNL     1       5.090   6.983  -1.459  1.00  0.00     0.029 A 
ATOM     23  C   UNL     1       5.876   7.801  -0.542  1.00  0.00     0.049 A 
ATOM     24  H   UNL     1       6.372   7.376   1.436  1.00  0.00     0.167 HD
ATOM     25  C   UNL     1       7.443   6.287   5.526  1.00  0.00     0.037 A 
ATOM     26  C   UNL     1       6.411   8.999  -0.842  1.00  0.00     0.037 A 
ATOM     27  C   UNL     1       8.062   7.567   5.296  1.00  0.00     0.049 A 
ATOM     28  C   UNL     1       7.197   9.733   0.203  1.00  0.00     0.074 A 
ATOM     29  C   UNL     1       8.847   8.312   6.160  1.00  0.00     0.029 A 
ATOM     30  N   UNL     1       7.965   8.295   4.119  1.00  0.00    -0.354 N 
ATOM     31  N   UNL     1       7.489   9.359   1.425  1.00  0.00    -0.248 NA
ATOM     32  C   UNL     1       7.720  11.054  -0.167  1.00  0.00     0.031 C 
ATOM     33  C   UNL     1       9.185   9.510   5.522  1.00  0.00     0.029 A 
ATOM     34  C   UNL     1       8.658   9.489   4.241  1.00  0.00     0.049 A 
ATOM     35  H   UNL     1       7.475   8.006   3.315  1.00  0.00     0.167 HD
ATOM     36  C   UNL     1       8.243  10.390   1.967  1.00  0.00     0.074 A 
ATOM     37  C   UNL     1       8.373  11.400   0.935  1.00  0.00     0.031 C 
ATOM     38  C   UNL     1       8.778  10.488   3.208  1.00  0.00     0.037 A 
BRANCH  25  39
ATOM     39  C   UNL     1       7.616   5.649   6.875  1.00  0.00     0.057 A 
ATOM     40  C   UNL     1       7.012   6.203   8.011  1.00  0.00     0.134 A 
ATOM     41  C   UNL     1       8.420   4.517   7.061  1.00  0.00     0.134 A 
ATOM     42  F   UNL     1       6.236   7.292   7.907  1.00  0.00    -0.206 F 
ATOM     43  C   UNL     1       7.205   5.658   9.282  1.00  0.00     0.040 A 
ATOM     44  C   UNL     1       8.600   3.947   8.323  1.00  0.00     0.040 A 
ATOM     45  F   UNL     1       9.019   3.929   6.014  1.00  0.00    -0.206 F 
ATOM     46  C   UNL     1       7.998   4.524   9.440  1.00  0.00     0.006 A 
ENDBRANCH  25  39
BRANCH  26  47
ATOM     47  C   UNL     1       6.225   9.551  -2.206  1.00  0.00     0.057 A 
ATOM     48  C   UNL     1       4.970   9.981  -2.653  1.00  0.00     0.134 A 
ATOM     49  C   UNL     1       7.285   9.587  -3.118  1.00  0.00     0.134 A 
ATOM     50  F   UNL     1       3.913   9.958  -1.828  1.00  0.00    -0.206 F 
ATOM     51  C   UNL     1       4.767  10.398  -3.969  1.00  0.00     0.040 A 
ATOM     52  C   UNL     1       7.102  10.025  -4.430  1.00  0.00     0.040 A 
ATOM     53  F   UNL     1       8.512   9.200  -2.742  1.00  0.00    -0.206 F 
ATOM     54  C   UNL     1       5.837  10.421  -4.862  1.00  0.00     0.006 A 
ENDBRANCH  26  47
BRANCH  38  55
ATOM     55  C   UNL     1       9.575  11.719   3.522  1.00  0.00     0.057 A 
ATOM     56  C   UNL     1      10.966  11.648   3.671  1.00  0.00     0.134 A 
ATOM     57  C   UNL     1       8.961  12.957   3.746  1.00  0.00     0.134 A 
ATOM     58  F   UNL     1      11.614  10.489   3.478  1.00  0.00    -0.206 F 
ATOM     59  C   UNL     1      11.717  12.762   4.045  1.00  0.00     0.040 A 
ATOM     60  C   UNL     1       9.705  14.085   4.097  1.00  0.00     0.040 A 
ATOM     61  F   UNL     1       7.634  13.094   3.608  1.00  0.00    -0.206 F 
ATOM     62  C   UNL     1      11.087  13.986   4.257  1.00  0.00     0.006 A 
ENDBRANCH  38  55
ENDBRANCH  12  13
ENDBRANCH   5   7
ENDBRANCH   2   3
ENDBRANCH   1   2
BRANCH   1  63
ATOM     63  C   UNL     1       4.080  -3.714   0.564  1.00  0.00     0.118 C 
BRANCH  63  64
ATOM     64  N   UNL     1       4.400  -4.317  -0.718  1.00  0.00    -0.352 N 
ATOM     65  C   UNL     1       5.221  -5.368  -1.011  1.00  0.00     0.251 C 
ATOM     66  H   UNL     1       3.958  -3.904  -1.495  1.00  0.00     0.163 HD
ATOM     67  O   UNL     1       5.552  -5.592  -2.171  1.00  0.00    -0.269 OA
BRANCH  65  68
ATOM     68  C   UNL     1       5.762  -6.219   0.061  1.00  0.00     0.042 A 
ATOM     69  C   UNL     1       4.939  -6.925   0.941  1.00  0.00     0.017 A 
ATOM     70  C   UNL     1       7.153  -6.344   0.126  1.00  0.00     0.043 A 
ATOM     71  C   UNL     1       5.525  -7.748   1.904  1.00  0.00     0.042 A 
ATOM     72  C   UNL     1       7.745  -7.192   1.055  1.00  0.00     0.085 A 
ATOM     73  C   UNL     1       6.915  -7.874   1.954  1.00  0.00     0.147 A 
ATOM     74  F   UNL     1       7.464  -8.646   2.904  1.00  0.00    -0.205 F 
BRANCH  72  75
ATOM     75  N   UNL     1       9.174  -7.234   1.234  1.00  0.00    -0.277 N 
ATOM     76  H   UNL     1       9.570  -7.006   2.106  1.00  0.00     0.180 HD
BRANCH  75  77
ATOM     77  S   UNL     1      10.169  -7.681  -0.067  1.00  0.00     0.264 S 
ATOM     78  O   UNL     1      11.525  -7.456   0.368  1.00  0.00    -0.201 OA
ATOM     79  O   UNL     1       9.734  -8.982  -0.531  1.00  0.00    -0.201 OA
BRANCH  77  80
ATOM     80  C   UNL     1       9.980  -6.574  -1.379  1.00  0.00     0.118 A 
ATOM     81  C   UNL     1      10.315  -5.181  -1.236  1.00  0.00     0.056 A 
ATOM     82  C   UNL     1       9.449  -6.832  -2.621  1.00  0.00     0.115 A 
ATOM     83  C   UNL     1       9.960  -4.471  -2.353  1.00  0.00     0.096 A 
ATOM     84  S   UNL     1       9.315  -5.432  -3.585  1.00  0.00    -0.110 S 
ATOM     85  Cl  UNL     1       8.863  -8.299  -3.301  1.00  0.00    -0.071 Cl
ATOM     86  Cl  UNL     1      10.079  -2.773  -2.570  1.00  0.00    -0.072 Cl
ENDBRANCH  77  80
ENDBRANCH  75  77
ENDBRANCH  72  75
ENDBRANCH  65  68
ENDBRANCH  63  64
ENDBRANCH   1  63
TORSDOF 13
