REMARK SMILES C[C@@](NC(=O)CCOC1CC[NH2+]CC1)(C(=O)NCCCNC(=O)c1ccc(-c2c3nc(c(-c4c(F)cccc4F)c4ccc([nH]4)c(-c4c(F)cccc4F)c4nc(c(-c5c(F)cccc5F)c5ccc2[nH]5)C=C4)C=C3)cc1)C(F)(F)F
REMARK SMILES IDX 15 1 16 2 17 3 2 5 1 6 3 7 4 8 5 10 6 11 7 12 8 13 9 14
REMARK SMILES IDX 10 15 14 16 11 17 13 18 12 19 78 22 79 23 80 24 81 25 18 26
REMARK SMILES IDX 19 27 20 28 21 29 22 30 23 32 24 33 25 34 77 35 26 36 76 37
REMARK SMILES IDX 27 38 28 39 29 40 70 41 30 42 75 43 69 44 71 45 31 46 74 47
REMARK SMILES IDX 68 48 67 49 32 51 58 52 41 53 57 54 42 55 45 56 56 57 72 58
REMARK SMILES IDX 43 59 44 60 55 62 73 63 46 64 33 65 34 66 39 67 35 68 36 69
REMARK SMILES IDX 38 70 40 71 37 72 59 73 60 74 65 75 61 76 62 77 64 78 66 79
REMARK SMILES IDX 63 80 47 81 48 82 53 83 49 84 50 85 52 86 54 87 51 88
REMARK H PARENT 17 4 3 9 12 20 12 21 21 31 71 50 45 61
REMARK Flexibility Score: inf
ROOT
ATOM      1  C   UNL     1      -0.703  -0.080  -0.763  1.00  0.00     0.254 C 
ATOM      2  O   UNL     1      -1.484   0.865  -1.148  1.00  0.00    -0.272 OA
ATOM      3  N   UNL     1      -1.571  -0.344   0.351  1.00  0.00    -0.354 N 
ATOM      4  H   UNL     1      -2.419   0.126   0.184  1.00  0.00     0.163 HD
ENDROOT
BRANCH   1   5
ATOM      5  C   UNL     1       1.131  -0.836  -1.578  1.00  0.00     0.212 C 
ATOM      6  C   UNL     1       2.693  -0.793  -0.751  1.00  0.00     0.056 C 
BRANCH   5   7
ATOM      7  N   UNL     1       1.382  -2.542  -2.103  1.00  0.00    -0.334 N 
ATOM      8  C   UNL     1       1.427  -3.813  -1.557  1.00  0.00     0.223 C 
ATOM      9  H   UNL     1       1.534  -2.582  -3.075  1.00  0.00     0.164 HD
ATOM     10  O   UNL     1       2.485  -4.434  -1.711  1.00  0.00    -0.275 OA
BRANCH   8  11
ATOM     11  C   UNL     1       0.205  -4.573  -0.988  1.00  0.00     0.128 C 
BRANCH  11  12
ATOM     12  C   UNL     1      -0.701  -4.063   0.139  1.00  0.00     0.170 C 
BRANCH  12  13
ATOM     13  O   UNL     1      -0.247  -2.938   0.884  1.00  0.00    -0.377 OA
BRANCH  13  14
ATOM     14  C   UNL     1       0.164  -1.885   0.015  1.00  0.00     0.129 C 
ATOM     15  C   UNL     1       0.830  -0.135   0.629  1.00  0.00     0.093 C 
ATOM     16  C   UNL     1      -0.879  -1.911  -1.657  1.00  0.00     0.093 C 
ATOM     17  C   UNL     1       0.885   1.275  -0.683  1.00  0.00     0.263 C 
ATOM     18  C   UNL     1      -0.719  -0.458  -2.848  1.00  0.00     0.263 C 
ATOM     19  N   UNL     1       0.259   1.033  -2.387  1.00  0.00    -0.346 N 
ATOM     20  H   UNL     1       1.076   1.042  -2.998  1.00  0.00     0.346 HD
ATOM     21  H   UNL     1      -0.426   1.783  -2.478  1.00  0.00     0.346 HD
ENDBRANCH  13  14
ENDBRANCH  12  13
ENDBRANCH  11  12
ENDBRANCH   8  11
ENDBRANCH   5   7
BRANCH   5  22
ATOM     22  C   UNL     1       2.011  -0.210  -3.045  1.00  0.00     0.420 C 
ATOM     23  F   UNL     1       2.700   0.942  -2.849  1.00  0.00    -0.168 F 
ATOM     24  F   UNL     1       3.006  -1.142  -3.321  1.00  0.00    -0.168 F 
ATOM     25  F   UNL     1       1.372  -0.163  -4.233  1.00  0.00    -0.168 F 
ENDBRANCH   5  22
ENDBRANCH   1   5
BRANCH   3  26
ATOM     26  C   UNL     1      -1.696  -1.050   1.664  1.00  0.00     0.117 C 
BRANCH  26  27
ATOM     27  C   UNL     1      -2.460  -0.261   2.705  1.00  0.00     0.042 C 
BRANCH  27  28
ATOM     28  C   UNL     1      -3.929  -0.629   2.675  1.00  0.00     0.118 C 
BRANCH  28  29
ATOM     29  N   UNL     1      -4.166  -2.042   3.012  1.00  0.00    -0.352 N 
ATOM     30  C   UNL     1      -4.505  -2.664   4.192  1.00  0.00     0.251 C 
ATOM     31  H   UNL     1      -4.063  -2.657   2.251  1.00  0.00     0.163 HD
ATOM     32  O   UNL     1      -4.418  -3.883   4.292  1.00  0.00    -0.269 OA
BRANCH  30  33
ATOM     33  C   UNL     1      -4.952  -1.856   5.338  1.00  0.00     0.039 A 
ATOM     34  C   UNL     1      -4.600  -2.207   6.642  1.00  0.00     0.014 A 
ATOM     35  C   UNL     1      -5.700  -0.710   5.105  1.00  0.00     0.014 A 
ATOM     36  C   UNL     1      -4.919  -1.340   7.689  1.00  0.00     0.010 A 
ATOM     37  C   UNL     1      -5.818   0.240   6.098  1.00  0.00     0.010 A 
ATOM     38  C   UNL     1      -5.476  -0.079   7.414  1.00  0.00    -0.014 A 
BRANCH  38  39
ATOM     39  C   UNL     1      -5.763   0.914   8.477  1.00  0.00     0.031 A 
ATOM     40  C   UNL     1      -7.151   1.495   8.605  1.00  0.00     0.074 A 
ATOM     41  C   UNL     1      -4.760   1.358   9.260  1.00  0.00     0.049 A 
ATOM     42  N   UNL     1      -7.584   2.431   9.410  1.00  0.00    -0.248 NA
ATOM     43  C   UNL     1      -8.173   1.013   7.658  1.00  0.00     0.031 C 
ATOM     44  C   UNL     1      -3.353   0.959   9.154  1.00  0.00     0.029 A 
ATOM     45  N   UNL     1      -4.773   2.240  10.307  1.00  0.00    -0.354 N 
ATOM     46  C   UNL     1      -8.900   2.670   9.032  1.00  0.00     0.074 A 
ATOM     47  C   UNL     1      -9.163   1.865   7.865  1.00  0.00     0.031 C 
ATOM     48  C   UNL     1      -2.655   1.538  10.143  1.00  0.00     0.029 A 
ATOM     49  C   UNL     1      -3.555   2.374  10.928  1.00  0.00     0.049 A 
ATOM     50  H   UNL     1      -5.579   2.732  10.588  1.00  0.00     0.167 HD
ATOM     51  C   UNL     1      -9.831   3.445   9.636  1.00  0.00     0.037 A 
ATOM     52  C   UNL     1      -3.216   3.074  12.025  1.00  0.00     0.037 A 
ATOM     53  C   UNL     1      -9.582   4.175  10.847  1.00  0.00     0.049 A 
ATOM     54  C   UNL     1      -4.287   3.849  12.740  1.00  0.00     0.074 A 
ATOM     55  C   UNL     1     -10.464   4.924  11.604  1.00  0.00     0.029 A 
ATOM     56  N   UNL     1      -8.354   4.224  11.490  1.00  0.00    -0.354 N 
ATOM     57  N   UNL     1      -5.552   4.000  12.422  1.00  0.00    -0.248 NA
ATOM     58  C   UNL     1      -3.890   4.535  13.975  1.00  0.00     0.031 C 
ATOM     59  C   UNL     1      -9.761   5.450  12.693  1.00  0.00     0.029 A 
ATOM     60  C   UNL     1      -8.453   4.994  12.635  1.00  0.00     0.049 A 
ATOM     61  H   UNL     1      -7.534   3.778  11.178  1.00  0.00     0.167 HD
ATOM     62  C   UNL     1      -6.107   4.775  13.431  1.00  0.00     0.074 A 
ATOM     63  C   UNL     1      -5.045   5.041  14.382  1.00  0.00     0.031 C 
ATOM     64  C   UNL     1      -7.377   5.233  13.562  1.00  0.00     0.037 A 
BRANCH  51  65
ATOM     65  C   UNL     1     -11.197   3.498   9.013  1.00  0.00     0.057 A 
ATOM     66  C   UNL     1     -12.043   2.379   8.984  1.00  0.00     0.134 A 
ATOM     67  C   UNL     1     -11.672   4.677   8.426  1.00  0.00     0.134 A 
ATOM     68  F   UNL     1     -11.643   1.211   9.509  1.00  0.00    -0.206 F 
ATOM     69  C   UNL     1     -13.291   2.419   8.360  1.00  0.00     0.040 A 
ATOM     70  C   UNL     1     -12.933   4.739   7.829  1.00  0.00     0.040 A 
ATOM     71  F   UNL     1     -10.919   5.787   8.418  1.00  0.00    -0.206 F 
ATOM     72  C   UNL     1     -13.742   3.604   7.786  1.00  0.00     0.006 A 
ENDBRANCH  51  65
BRANCH  52  73
ATOM     73  C   UNL     1      -1.832   3.006  12.557  1.00  0.00     0.057 A 
ATOM     74  C   UNL     1      -1.554   2.323  13.748  1.00  0.00     0.134 A 
ATOM     75  C   UNL     1      -0.757   3.610  11.896  1.00  0.00     0.134 A 
ATOM     76  F   UNL     1      -2.544   1.730  14.433  1.00  0.00    -0.206 F 
ATOM     77  C   UNL     1      -0.264   2.266  14.278  1.00  0.00     0.040 A 
ATOM     78  C   UNL     1       0.543   3.540  12.401  1.00  0.00     0.040 A 
ATOM     79  F   UNL     1      -0.953   4.263  10.742  1.00  0.00    -0.206 F 
ATOM     80  C   UNL     1       0.790   2.874  13.600  1.00  0.00     0.006 A 
ENDBRANCH  52  73
BRANCH  64  81
ATOM     81  C   UNL     1      -7.681   6.035  14.791  1.00  0.00     0.057 A 
ATOM     82  C   UNL     1      -7.191   7.335  14.963  1.00  0.00     0.134 A 
ATOM     83  C   UNL     1      -8.487   5.504  15.805  1.00  0.00     0.134 A 
ATOM     84  F   UNL     1      -6.404   7.894  14.031  1.00  0.00    -0.206 F 
ATOM     85  C   UNL     1      -7.462   8.066  16.119  1.00  0.00     0.040 A 
ATOM     86  C   UNL     1      -8.790   6.237  16.951  1.00  0.00     0.040 A 
ATOM     87  F   UNL     1      -8.998   4.268  15.693  1.00  0.00    -0.206 F 
ATOM     88  C   UNL     1      -8.267   7.518  17.115  1.00  0.00     0.006 A 
ENDBRANCH  64  81
ENDBRANCH  38  39
ENDBRANCH  30  33
ENDBRANCH  28  29
ENDBRANCH  27  28
ENDBRANCH  26  27
ENDBRANCH   3  26
TORSDOF 16
