REMARK SMILES COc1ccc(C(=O)NNC(=O)CCC(=O)NCCCNC(=O)c2ccc(-c3c4nc(c(-c5c(F)cccc5F)c5ccc([nH]5)c(-c5c(F)cccc5F)c5nc(c(-c6c(F)cccc6F)c6ccc3[nH]6)C=C5)C=C4)cc2)cc1Br
REMARK SMILES IDX 15 1 16 2 17 3 14 5 13 6 11 7 10 8 12 10 9 11 7 12 8 13 6 15
REMARK SMILES IDX 3 16 4 17 79 18 5 19 78 20 80 21 2 22 1 23 18 24 19 25 20 26
REMARK SMILES IDX 21 27 22 28 23 30 24 31 25 32 77 33 26 34 76 35 27 36 28 37
REMARK SMILES IDX 29 38 70 39 30 40 75 41 69 42 71 43 31 44 74 45 68 46 67 47
REMARK SMILES IDX 32 49 58 50 41 51 57 52 42 53 45 54 56 55 72 56 43 57 44 58
REMARK SMILES IDX 55 60 73 61 46 62 33 63 34 64 39 65 35 66 36 67 38 68 40 69
REMARK SMILES IDX 37 70 59 71 60 72 65 73 61 74 62 75 64 76 66 77 63 78 47 79
REMARK SMILES IDX 48 80 53 81 49 82 50 83 52 84 54 85 51 86
REMARK H PARENT 17 4 10 9 9 14 21 29 71 48 45 59
REMARK Flexibility Score: inf
ROOT
ATOM      1  C   UNL     1       4.650  -0.829  -7.865  1.00  0.00     0.220 C 
ATOM      2  O   UNL     1       3.797  -0.879  -8.755  1.00  0.00    -0.275 OA
ATOM      3  N   UNL     1       4.328  -1.318  -6.625  1.00  0.00    -0.356 N 
ATOM      4  H   UNL     1       3.363  -1.417  -6.455  1.00  0.00     0.163 HD
ENDROOT
BRANCH   1   5
ATOM      5  C   UNL     1       5.971  -0.129  -8.134  1.00  0.00     0.110 C 
BRANCH   5   6
ATOM      6  C   UNL     1       5.801   1.388  -8.116  1.00  0.00     0.112 C 
BRANCH   6   7
ATOM      7  C   UNL     1       5.111   1.801  -6.846  1.00  0.00     0.238 C 
ATOM      8  N   UNL     1       3.751   1.966  -6.832  1.00  0.00    -0.267 N 
ATOM      9  H   UNL     1       3.331   2.099  -5.952  1.00  0.00     0.191 HD
ATOM     10  O   UNL     1       5.748   1.917  -5.797  1.00  0.00    -0.273 OA
BRANCH   8  11
ATOM     11  N   UNL     1       2.891   1.965  -7.954  1.00  0.00    -0.264 N 
ATOM     12  C   UNL     1       1.539   1.621  -7.994  1.00  0.00     0.269 C 
ATOM     13  O   UNL     1       0.919   1.597  -9.059  1.00  0.00    -0.267 OA
ATOM     14  H   UNL     1       3.293   2.241  -8.809  1.00  0.00     0.191 HD
BRANCH  12  15
ATOM     15  C   UNL     1       0.823   1.234  -6.766  1.00  0.00     0.042 A 
ATOM     16  C   UNL     1       0.412  -0.030  -4.352  1.00  0.00     0.133 A 
ATOM     17  C   UNL     1      -0.235  -0.514  -5.490  1.00  0.00     0.048 A 
ATOM     18  C   UNL     1       1.129   1.195  -4.439  1.00  0.00     0.060 A 
ATOM     19  C   UNL     1       0.035   0.083  -6.719  1.00  0.00     0.018 A 
ATOM     20  C   UNL     1       1.113   1.919  -5.613  1.00  0.00     0.033 A 
ATOM     21  Br  UNL     1       2.512   1.941  -3.333  1.00  0.00    -0.047 Br
BRANCH  16  22
ATOM     22  O   UNL     1       0.552  -0.922  -3.324  1.00  0.00    -0.496 OA
ATOM     23  C   UNL     1      -0.633  -1.421  -2.702  1.00  0.00     0.278 C 
ENDBRANCH  16  22
ENDBRANCH  12  15
ENDBRANCH   8  11
ENDBRANCH   6   7
ENDBRANCH   5   6
ENDBRANCH   1   5
BRANCH   3  24
ATOM     24  C   UNL     1       5.194  -1.714  -5.519  1.00  0.00     0.117 C 
BRANCH  24  25
ATOM     25  C   UNL     1       4.856  -1.175  -4.101  1.00  0.00     0.042 C 
BRANCH  25  26
ATOM     26  C   UNL     1       3.539  -1.642  -3.426  1.00  0.00     0.118 C 
BRANCH  26  27
ATOM     27  N   UNL     1       3.647  -1.864  -1.951  1.00  0.00    -0.352 N 
ATOM     28  C   UNL     1       3.155  -1.563  -0.691  1.00  0.00     0.251 C 
ATOM     29  H   UNL     1       4.388  -2.499  -1.817  1.00  0.00     0.163 HD
ATOM     30  O   UNL     1       3.648  -2.293   0.184  1.00  0.00    -0.269 OA
BRANCH  28  31
ATOM     31  C   UNL     1       2.169  -0.542  -0.160  1.00  0.00     0.039 A 
ATOM     32  C   UNL     1       1.990  -0.387   1.224  1.00  0.00     0.014 A 
ATOM     33  C   UNL     1       1.392   0.309  -0.907  1.00  0.00     0.014 A 
ATOM     34  C   UNL     1       1.116   0.591   1.778  1.00  0.00     0.010 A 
ATOM     35  C   UNL     1       0.531   1.311  -0.401  1.00  0.00     0.010 A 
ATOM     36  C   UNL     1       0.392   1.482   0.965  1.00  0.00    -0.014 A 
BRANCH  36  37
ATOM     37  C   UNL     1      -0.267   2.708   1.516  1.00  0.00     0.031 A 
ATOM     38  C   UNL     1      -1.747   2.997   1.429  1.00  0.00     0.074 A 
ATOM     39  C   UNL     1       0.548   3.673   1.988  1.00  0.00     0.049 A 
ATOM     40  N   UNL     1      -2.449   3.921   2.044  1.00  0.00    -0.248 NA
ATOM     41  C   UNL     1      -2.535   2.196   0.482  1.00  0.00     0.031 C 
ATOM     42  C   UNL     1       2.009   3.648   1.876  1.00  0.00     0.029 A 
ATOM     43  N   UNL     1       0.289   4.844   2.655  1.00  0.00    -0.354 N 
ATOM     44  C   UNL     1      -3.754   3.812   1.565  1.00  0.00     0.074 A 
ATOM     45  C   UNL     1      -3.732   2.768   0.561  1.00  0.00     0.031 C 
ATOM     46  C   UNL     1       2.521   4.695   2.537  1.00  0.00     0.029 A 
ATOM     47  C   UNL     1       1.428   5.452   3.130  1.00  0.00     0.049 A 
ATOM     48  H   UNL     1      -0.617   5.209   2.780  1.00  0.00     0.167 HD
ATOM     49  C   UNL     1      -4.859   4.509   1.944  1.00  0.00     0.037 A 
ATOM     50  C   UNL     1       1.576   6.455   4.016  1.00  0.00     0.037 A 
ATOM     51  C   UNL     1      -4.831   5.550   2.949  1.00  0.00     0.049 A 
ATOM     52  C   UNL     1       0.340   7.040   4.630  1.00  0.00     0.074 A 
ATOM     53  C   UNL     1      -5.883   6.246   3.522  1.00  0.00     0.029 A 
ATOM     54  N   UNL     1      -3.669   6.051   3.523  1.00  0.00    -0.354 N 
ATOM     55  N   UNL     1      -0.915   6.798   4.333  1.00  0.00    -0.248 NA
ATOM     56  C   UNL     1       0.532   8.000   5.722  1.00  0.00     0.031 C 
ATOM     57  C   UNL     1      -5.354   7.185   4.419  1.00  0.00     0.029 A 
ATOM     58  C   UNL     1      -3.975   7.044   4.439  1.00  0.00     0.049 A 
ATOM     59  H   UNL     1      -2.759   5.744   3.309  1.00  0.00     0.167 HD
ATOM     60  C   UNL     1      -1.666   7.582   5.194  1.00  0.00     0.074 A 
ATOM     61  C   UNL     1      -0.722   8.263   6.061  1.00  0.00     0.031 C 
ATOM     62  C   UNL     1      -3.012   7.741   5.253  1.00  0.00     0.037 A 
BRANCH  49  63
ATOM     63  C   UNL     1      -6.191   4.160   1.320  1.00  0.00     0.057 A 
ATOM     64  C   UNL     1      -6.803   2.915   1.533  1.00  0.00     0.134 A 
ATOM     65  C   UNL     1      -6.922   5.099   0.576  1.00  0.00     0.134 A 
ATOM     66  F   UNL     1      -6.177   1.963   2.242  1.00  0.00    -0.206 F 
ATOM     67  C   UNL     1      -8.065   2.609   1.012  1.00  0.00     0.040 A 
ATOM     68  C   UNL     1      -8.198   4.816   0.073  1.00  0.00     0.040 A 
ATOM     69  F   UNL     1      -6.422   6.321   0.340  1.00  0.00    -0.206 F 
ATOM     70  C   UNL     1      -8.771   3.564   0.287  1.00  0.00     0.006 A 
ENDBRANCH  49  63
BRANCH  50  71
ATOM     71  C   UNL     1       2.941   6.804   4.486  1.00  0.00     0.057 A 
ATOM     72  C   UNL     1       3.386   6.394   5.749  1.00  0.00     0.134 A 
ATOM     73  C   UNL     1       3.870   7.439   3.654  1.00  0.00     0.134 A 
ATOM     74  F   UNL     1       2.545   5.779   6.594  1.00  0.00    -0.206 F 
ATOM     75  C   UNL     1       4.701   6.602   6.169  1.00  0.00     0.040 A 
ATOM     76  C   UNL     1       5.195   7.631   4.050  1.00  0.00     0.040 A 
ATOM     77  F   UNL     1       3.516   7.831   2.421  1.00  0.00    -0.206 F 
ATOM     78  C   UNL     1       5.614   7.212   5.311  1.00  0.00     0.006 A 
ENDBRANCH  50  71
BRANCH  62  79
ATOM     79  C   UNL     1      -3.512   8.725   6.267  1.00  0.00     0.057 A 
ATOM     80  C   UNL     1      -3.310  10.103   6.106  1.00  0.00     0.134 A 
ATOM     81  C   UNL     1      -4.165   8.294   7.427  1.00  0.00     0.134 A 
ATOM     82  F   UNL     1      -2.679  10.575   5.020  1.00  0.00    -0.206 F 
ATOM     83  C   UNL     1      -3.696  11.014   7.088  1.00  0.00     0.040 A 
ATOM     84  C   UNL     1      -4.580   9.199   8.404  1.00  0.00     0.040 A 
ATOM     85  F   UNL     1      -4.396   6.989   7.635  1.00  0.00    -0.206 F 
ATOM     86  C   UNL     1      -4.333  10.562   8.242  1.00  0.00     0.006 A 
ENDBRANCH  62  79
ENDBRANCH  36  37
ENDBRANCH  28  31
ENDBRANCH  26  27
ENDBRANCH  25  26
ENDBRANCH  24  25
ENDBRANCH   3  24
TORSDOF 15
