REMARK SMILES COC(=O)[C@@H](NC(=O)CCC(=O)NCCCNC(=O)c1ccc(-c2c3nc(c(-c4c(F)cccc4F)c4ccc([nH]4)c(-c4c(F)cccc4F)c4nc(c(-c5c(F)cccc5F)c5ccc2[nH]5)C=C4)C=C3)cc1)c1cccc2ccccc12
REMARK SMILES IDX 11 1 12 2 13 3 10 5 9 6 7 7 6 8 8 10 5 11 3 12 4 13 2 14
REMARK SMILES IDX 1 15 74 16 75 17 83 18 76 19 78 20 82 21 77 22 79 23 81 24
REMARK SMILES IDX 80 25 14 26 15 27 16 28 17 29 18 30 19 32 20 33 21 34 73 35
REMARK SMILES IDX 22 36 72 37 23 38 24 39 25 40 66 41 26 42 71 43 65 44 67 45
REMARK SMILES IDX 27 46 70 47 64 48 63 49 28 51 54 52 37 53 53 54 38 55 41 56
REMARK SMILES IDX 52 57 68 58 39 59 40 60 51 62 69 63 42 64 29 65 30 66 35 67
REMARK SMILES IDX 31 68 32 69 34 70 36 71 33 72 55 73 56 74 61 75 57 76 58 77
REMARK SMILES IDX 60 78 62 79 59 80 43 81 44 82 49 83 45 84 46 85 48 86 50 87
REMARK SMILES IDX 47 88
REMARK H PARENT 13 4 6 9 17 31 67 50 41 61
REMARK Flexibility Score: inf
ROOT
ATOM      1  C   UNL     1      -0.300   0.757   2.749  1.00  0.00     0.220 C 
ATOM      2  O   UNL     1      -0.922   0.691   1.687  1.00  0.00    -0.275 OA
ATOM      3  N   UNL     1       1.049   0.603   2.714  1.00  0.00    -0.356 N 
ATOM      4  H   UNL     1       1.389   0.159   1.904  1.00  0.00     0.163 HD
ENDROOT
BRANCH   1   5
ATOM      5  C   UNL     1      -1.024   0.931   4.056  1.00  0.00     0.110 C 
BRANCH   5   6
ATOM      6  C   UNL     1      -1.461  -0.388   4.679  1.00  0.00     0.110 C 
BRANCH   6   7
ATOM      7  C   UNL     1      -0.393  -1.446   4.745  1.00  0.00     0.221 C 
ATOM      8  N   UNL     1      -0.116  -2.383   3.814  1.00  0.00    -0.339 N 
ATOM      9  H   UNL     1       0.758  -2.793   4.008  1.00  0.00     0.164 HD
ATOM     10  O   UNL     1       0.326  -1.471   5.754  1.00  0.00    -0.275 OA
BRANCH   8  11
ATOM     11  C   UNL     1      -0.701  -3.002   2.585  1.00  0.00     0.224 C 
BRANCH  11  12
ATOM     12  C   UNL     1      -0.127  -2.775   1.169  1.00  0.00     0.333 C 
ATOM     13  O   UNL     1      -0.426  -3.494   0.216  1.00  0.00    -0.249 OA
BRANCH  12  14
ATOM     14  O   UNL     1       0.742  -1.739   1.092  1.00  0.00    -0.467 OA
ATOM     15  C   UNL     1       1.225  -1.421  -0.221  1.00  0.00     0.282 C 
ENDBRANCH  12  14
ENDBRANCH  11  12
BRANCH  11  16
ATOM     16  C   UNL     1      -2.218  -3.064   2.575  1.00  0.00    -0.007 A 
ATOM     17  C   UNL     1      -2.941  -1.899   2.284  1.00  0.00     0.007 A 
ATOM     18  C   UNL     1      -2.936  -4.241   2.903  1.00  0.00    -0.013 A 
ATOM     19  C   UNL     1      -4.279  -1.786   2.638  1.00  0.00     0.001 A 
ATOM     20  C   UNL     1      -4.288  -4.112   3.300  1.00  0.00    -0.018 A 
ATOM     21  C   UNL     1      -2.402  -5.547   2.808  1.00  0.00     0.009 A 
ATOM     22  C   UNL     1      -4.924  -2.866   3.224  1.00  0.00     0.009 A 
ATOM     23  C   UNL     1      -5.000  -5.239   3.731  1.00  0.00     0.009 A 
ATOM     24  C   UNL     1      -3.156  -6.671   3.145  1.00  0.00     0.001 A 
ATOM     25  C   UNL     1      -4.441  -6.513   3.644  1.00  0.00     0.001 A 
ENDBRANCH  11  16
ENDBRANCH   8  11
ENDBRANCH   6   7
ENDBRANCH   5   6
ENDBRANCH   1   5
BRANCH   3  26
ATOM     26  C   UNL     1       2.074   0.982   3.667  1.00  0.00     0.117 C 
BRANCH  26  27
ATOM     27  C   UNL     1       2.879  -0.163   4.285  1.00  0.00     0.042 C 
BRANCH  27  28
ATOM     28  C   UNL     1       3.311  -1.296   3.362  1.00  0.00     0.118 C 
BRANCH  28  29
ATOM     29  N   UNL     1       4.297  -0.881   2.381  1.00  0.00    -0.352 N 
ATOM     30  C   UNL     1       5.629  -1.175   2.303  1.00  0.00     0.251 C 
ATOM     31  H   UNL     1       3.954  -0.300   1.664  1.00  0.00     0.163 HD
ATOM     32  O   UNL     1       6.335  -0.555   1.495  1.00  0.00    -0.269 OA
BRANCH  30  33
ATOM     33  C   UNL     1       6.257  -2.198   3.167  1.00  0.00     0.039 A 
ATOM     34  C   UNL     1       7.463  -1.881   3.797  1.00  0.00     0.014 A 
ATOM     35  C   UNL     1       5.727  -3.487   3.297  1.00  0.00     0.014 A 
ATOM     36  C   UNL     1       8.119  -2.836   4.577  1.00  0.00     0.010 A 
ATOM     37  C   UNL     1       6.362  -4.430   4.118  1.00  0.00     0.010 A 
ATOM     38  C   UNL     1       7.570  -4.117   4.761  1.00  0.00    -0.014 A 
BRANCH  38  39
ATOM     39  C   UNL     1       8.270  -5.101   5.633  1.00  0.00     0.031 A 
ATOM     40  C   UNL     1       8.922  -6.331   5.056  1.00  0.00     0.074 A 
ATOM     41  C   UNL     1       8.346  -4.874   6.959  1.00  0.00     0.049 A 
ATOM     42  N   UNL     1       9.643  -7.244   5.662  1.00  0.00    -0.248 NA
ATOM     43  C   UNL     1       8.731  -6.576   3.619  1.00  0.00     0.031 C 
ATOM     44  C   UNL     1       7.721  -3.750   7.659  1.00  0.00     0.029 A 
ATOM     45  N   UNL     1       8.989  -5.569   7.954  1.00  0.00    -0.354 N 
ATOM     46  C   UNL     1      10.002  -8.160   4.681  1.00  0.00     0.074 A 
ATOM     47  C   UNL     1       9.373  -7.724   3.451  1.00  0.00     0.031 C 
ATOM     48  C   UNL     1       8.036  -3.815   8.963  1.00  0.00     0.029 A 
ATOM     49  C   UNL     1       8.868  -4.992   9.196  1.00  0.00     0.049 A 
ATOM     50  H   UNL     1       9.490  -6.401   7.793  1.00  0.00     0.167 HD
ATOM     51  C   UNL     1      10.804  -9.248   4.785  1.00  0.00     0.037 A 
ATOM     52  C   UNL     1       9.375  -5.362  10.388  1.00  0.00     0.037 A 
ATOM     53  C   UNL     1      11.438  -9.688   6.003  1.00  0.00     0.049 A 
ATOM     54  C   UNL     1      10.261  -6.574  10.474  1.00  0.00     0.074 A 
ATOM     55  C   UNL     1      12.287 -10.765   6.194  1.00  0.00     0.029 A 
ATOM     56  N   UNL     1      11.293  -9.073   7.237  1.00  0.00    -0.354 N 
ATOM     57  N   UNL     1      10.646  -7.388   9.522  1.00  0.00    -0.248 NA
ATOM     58  C   UNL     1      10.797  -6.909  11.802  1.00  0.00     0.031 C 
ATOM     59  C   UNL     1      12.631 -10.822   7.549  1.00  0.00     0.029 A 
ATOM     60  C   UNL     1      12.028  -9.756   8.195  1.00  0.00     0.049 A 
ATOM     61  H   UNL     1      10.750  -8.271   7.408  1.00  0.00     0.167 HD
ATOM     62  C   UNL     1      11.482  -8.315  10.130  1.00  0.00     0.074 A 
ATOM     63  C   UNL     1      11.573  -7.947  11.527  1.00  0.00     0.031 C 
ATOM     64  C   UNL     1      12.114  -9.381   9.582  1.00  0.00     0.037 A 
BRANCH  51  65
ATOM     65  C   UNL     1      11.066 -10.041   3.537  1.00  0.00     0.057 A 
ATOM     66  C   UNL     1      11.901  -9.552   2.524  1.00  0.00     0.134 A 
ATOM     67  C   UNL     1      10.541 -11.330   3.376  1.00  0.00     0.134 A 
ATOM     68  F   UNL     1      12.431  -8.323   2.615  1.00  0.00    -0.206 F 
ATOM     69  C   UNL     1      12.194 -10.310   1.389  1.00  0.00     0.040 A 
ATOM     70  C   UNL     1      10.845 -12.106   2.256  1.00  0.00     0.040 A 
ATOM     71  F   UNL     1       9.742 -11.862   4.313  1.00  0.00    -0.206 F 
ATOM     72  C   UNL     1      11.672 -11.595   1.258  1.00  0.00     0.006 A 
ENDBRANCH  51  65
BRANCH  52  73
ATOM     73  C   UNL     1       9.077  -4.566  11.606  1.00  0.00     0.057 A 
ATOM     74  C   UNL     1      10.074  -3.824  12.250  1.00  0.00     0.134 A 
ATOM     75  C   UNL     1       7.799  -4.563  12.176  1.00  0.00     0.134 A 
ATOM     76  F   UNL     1      11.323  -3.806  11.764  1.00  0.00    -0.206 F 
ATOM     77  C   UNL     1       9.818  -3.131  13.435  1.00  0.00     0.040 A 
ATOM     78  C   UNL     1       7.523  -3.853  13.345  1.00  0.00     0.040 A 
ATOM     79  F   UNL     1       6.800  -5.251  11.604  1.00  0.00    -0.206 F 
ATOM     80  C   UNL     1       8.537  -3.143  13.984  1.00  0.00     0.006 A 
ENDBRANCH  52  73
BRANCH  64  81
ATOM     81  C   UNL     1      12.975 -10.207  10.493  1.00  0.00     0.057 A 
ATOM     82  C   UNL     1      12.424 -11.039  11.477  1.00  0.00     0.134 A 
ATOM     83  C   UNL     1      14.371 -10.175  10.383  1.00  0.00     0.134 A 
ATOM     84  F   UNL     1      11.094 -11.105  11.643  1.00  0.00    -0.206 F 
ATOM     85  C   UNL     1      13.230 -11.782  12.341  1.00  0.00     0.040 A 
ATOM     86  C   UNL     1      15.187 -10.934  11.224  1.00  0.00     0.040 A 
ATOM     87  F   UNL     1      14.965  -9.407   9.457  1.00  0.00    -0.206 F 
ATOM     88  C   UNL     1      14.617 -11.733  12.213  1.00  0.00     0.006 A 
ENDBRANCH  64  81
ENDBRANCH  38  39
ENDBRANCH  30  33
ENDBRANCH  28  29
ENDBRANCH  27  28
ENDBRANCH  26  27
ENDBRANCH   3  26
TORSDOF 16
