REMARK SMILES Cc1cccc(-c2noc(C[N@@H+](C)Cc3ncccc3C(=O)NCCCNC(=O)c3ccc(-c4c5nc(c(-c6c(F)cccc6F)c6ccc([nH]6)c(-c6c(F)cccc6F)c6nc(c(-c7c(F)cccc7F)c7ccc4[nH]7)C=C6)C=C5)cc3)n2)c1
REMARK SMILES IDX 21 1 22 2 23 3 20 5 15 6 16 7 17 8 19 9 18 10 14 11 12 12
REMARK SMILES IDX 13 13 11 15 10 16 7 17 8 18 84 19 9 20 6 21 1 22 2 23 3 24
REMARK SMILES IDX 85 25 4 26 5 27 24 28 25 29 26 30 27 31 28 32 29 34 30 35
REMARK SMILES IDX 31 36 83 37 32 38 82 39 33 40 34 41 35 42 76 43 36 44 81 45
REMARK SMILES IDX 75 46 77 47 37 48 80 49 74 50 73 51 38 53 64 54 47 55 63 56
REMARK SMILES IDX 48 57 51 58 62 59 78 60 49 61 50 62 61 64 79 65 52 66 39 67
REMARK SMILES IDX 40 68 45 69 41 70 42 71 44 72 46 73 43 74 65 75 66 76 71 77
REMARK SMILES IDX 67 78 68 79 70 80 72 81 69 82 53 83 54 84 59 85 55 86 56 87
REMARK SMILES IDX 58 88 60 89 57 90
REMARK H PARENT 23 4 12 14 27 33 77 52 51 63
REMARK Flexibility Score: inf
ROOT
ATOM      1  C   UNL     1      -3.592   2.297  -3.918  1.00  0.00     0.253 C 
ATOM      2  O   UNL     1      -3.984   2.158  -2.763  1.00  0.00    -0.269 OA
ATOM      3  N   UNL     1      -3.542   1.132  -4.653  1.00  0.00    -0.352 N 
ATOM      4  H   UNL     1      -3.816   0.340  -4.136  1.00  0.00     0.163 HD
ENDROOT
BRANCH   1   5
ATOM      5  C   UNL     1      -3.231   3.654  -4.451  1.00  0.00     0.067 A 
ATOM      6  C   UNL     1      -3.740   4.856  -3.920  1.00  0.00     0.107 A 
ATOM      7  N   UNL     1      -3.466   6.072  -4.502  1.00  0.00    -0.254 NA
ATOM      8  C   UNL     1      -2.618   6.136  -5.542  1.00  0.00     0.111 A 
ATOM      9  C   UNL     1      -2.308   3.792  -5.499  1.00  0.00     0.017 A 
ATOM     10  C   UNL     1      -1.998   5.029  -6.057  1.00  0.00     0.021 A 
BRANCH   6  11
ATOM     11  C   UNL     1      -4.627   4.974  -2.684  1.00  0.00     0.320 C 
BRANCH  11  12
ATOM     12  N   UNL     1      -4.205   5.943  -1.631  1.00  0.00    -0.325 N 
ATOM     13  C   UNL     1      -4.459   7.333  -1.998  1.00  0.00     0.333 C 
ATOM     14  H   UNL     1      -4.800   5.722  -0.832  1.00  0.00     0.348 HD
BRANCH  12  15
ATOM     15  C   UNL     1      -2.806   5.765  -1.189  1.00  0.00     0.364 C 
BRANCH  15  16
ATOM     16  C   UNL     1      -2.512   4.432  -0.585  1.00  0.00     0.282 A 
ATOM     17  C   UNL     1      -1.889   2.507  -0.043  1.00  0.00     0.202 A 
ATOM     18  N   UNL     1      -2.896   2.763   0.808  1.00  0.00    -0.057 NA
ATOM     19  N   UNL     1      -1.583   3.550  -0.891  1.00  0.00    -0.186 NA
ATOM     20  O   UNL     1      -3.310   4.042   0.450  1.00  0.00    -0.333 OA
BRANCH  17  21
ATOM     21  C   UNL     1      -1.166   1.246  -0.053  1.00  0.00     0.023 A 
ATOM     22  C   UNL     1       2.436  -0.011  -0.118  1.00  0.00     0.044 C 
ATOM     23  C   UNL     1       0.936   0.014  -0.086  1.00  0.00    -0.050 A 
ATOM     24  C   UNL     1       0.221  -1.187   0.018  1.00  0.00     0.003 A 
ATOM     25  C   UNL     1       0.233   1.228  -0.139  1.00  0.00     0.015 A 
ATOM     26  C   UNL     1      -1.172  -1.177   0.083  1.00  0.00     0.001 A 
ATOM     27  C   UNL     1      -1.862   0.034   0.053  1.00  0.00     0.012 A 
ENDBRANCH  17  21
ENDBRANCH  15  16
ENDBRANCH  12  15
ENDBRANCH  11  12
ENDBRANCH   6  11
ENDBRANCH   1   5
BRANCH   3  28
ATOM     28  C   UNL     1      -3.172   0.814  -6.025  1.00  0.00     0.118 C 
BRANCH  28  29
ATOM     29  C   UNL     1      -1.683   0.476  -6.139  1.00  0.00     0.042 C 
BRANCH  29  30
ATOM     30  C   UNL     1      -1.353  -0.979  -5.845  1.00  0.00     0.118 C 
BRANCH  30  31
ATOM     31  N   UNL     1      -1.141  -1.795  -7.038  1.00  0.00    -0.352 N 
ATOM     32  C   UNL     1      -0.854  -3.151  -7.112  1.00  0.00     0.251 C 
ATOM     33  H   UNL     1      -1.211  -1.323  -7.899  1.00  0.00     0.163 HD
ATOM     34  O   UNL     1      -0.738  -3.711  -8.186  1.00  0.00    -0.269 OA
BRANCH  32  35
ATOM     35  C   UNL     1      -0.830  -3.924  -5.848  1.00  0.00     0.039 A 
ATOM     36  C   UNL     1      -1.743  -4.974  -5.723  1.00  0.00     0.014 A 
ATOM     37  C   UNL     1      -0.158  -3.424  -4.736  1.00  0.00     0.014 A 
ATOM     38  C   UNL     1      -2.188  -5.327  -4.455  1.00  0.00     0.010 A 
ATOM     39  C   UNL     1      -0.673  -3.698  -3.485  1.00  0.00     0.010 A 
ATOM     40  C   UNL     1      -1.746  -4.588  -3.357  1.00  0.00    -0.014 A 
BRANCH  40  41
ATOM     41  C   UNL     1      -2.462  -4.579  -2.085  1.00  0.00     0.031 A 
ATOM     42  C   UNL     1      -1.889  -5.240  -0.897  1.00  0.00     0.074 A 
ATOM     43  C   UNL     1      -3.648  -3.937  -1.990  1.00  0.00     0.049 A 
ATOM     44  N   UNL     1      -2.581  -5.651   0.111  1.00  0.00    -0.248 NA
ATOM     45  C   UNL     1      -0.475  -5.568  -0.793  1.00  0.00     0.031 C 
ATOM     46  C   UNL     1      -4.384  -3.614  -0.770  1.00  0.00     0.029 A 
ATOM     47  N   UNL     1      -4.545  -3.640  -3.028  1.00  0.00    -0.354 N 
ATOM     48  C   UNL     1      -1.706  -6.046   1.098  1.00  0.00     0.074 A 
ATOM     49  C   UNL     1      -0.421  -6.073   0.443  1.00  0.00     0.031 C 
ATOM     50  C   UNL     1      -5.678  -3.445  -1.078  1.00  0.00     0.029 A 
ATOM     51  C   UNL     1      -5.837  -3.789  -2.479  1.00  0.00     0.049 A 
ATOM     52  H   UNL     1      -4.319  -3.381  -3.950  1.00  0.00     0.167 HD
ATOM     53  C   UNL     1      -2.170  -6.174   2.377  1.00  0.00     0.037 A 
ATOM     54  C   UNL     1      -6.725  -4.705  -2.961  1.00  0.00     0.037 A 
ATOM     55  C   UNL     1      -3.634  -6.071   2.411  1.00  0.00     0.049 A 
ATOM     56  C   UNL     1      -7.195  -5.707  -1.935  1.00  0.00     0.074 A 
ATOM     57  C   UNL     1      -4.501  -5.047   2.757  1.00  0.00     0.029 A 
ATOM     58  N   UNL     1      -4.408  -7.045   1.787  1.00  0.00    -0.354 N 
ATOM     59  N   UNL     1      -6.574  -5.946  -0.815  1.00  0.00    -0.248 NA
ATOM     60  C   UNL     1      -8.378  -6.547  -2.109  1.00  0.00     0.031 C 
ATOM     61  C   UNL     1      -5.795  -5.388   2.288  1.00  0.00     0.029 A 
ATOM     62  C   UNL     1      -5.720  -6.626   1.674  1.00  0.00     0.049 A 
ATOM     63  H   UNL     1      -4.068  -7.913   1.469  1.00  0.00     0.167 HD
ATOM     64  C   UNL     1      -7.210  -6.962  -0.147  1.00  0.00     0.074 A 
ATOM     65  C   UNL     1      -8.350  -7.283  -0.985  1.00  0.00     0.031 C 
ATOM     66  C   UNL     1      -6.725  -7.461   1.028  1.00  0.00     0.037 A 
BRANCH  53  67
ATOM     67  C   UNL     1      -1.309  -6.104   3.634  1.00  0.00     0.057 A 
ATOM     68  C   UNL     1      -1.891  -5.785   4.881  1.00  0.00     0.134 A 
ATOM     69  C   UNL     1       0.090  -6.237   3.693  1.00  0.00     0.134 A 
ATOM     70  F   UNL     1      -3.219  -5.721   5.045  1.00  0.00    -0.206 F 
ATOM     71  C   UNL     1      -1.143  -5.512   6.038  1.00  0.00     0.040 A 
ATOM     72  C   UNL     1       0.854  -5.943   4.833  1.00  0.00     0.040 A 
ATOM     73  F   UNL     1       0.809  -6.709   2.675  1.00  0.00    -0.206 F 
ATOM     74  C   UNL     1       0.239  -5.559   6.010  1.00  0.00     0.006 A 
ENDBRANCH  53  67
BRANCH  54  75
ATOM     75  C   UNL     1      -6.575  -4.982  -4.410  1.00  0.00     0.057 A 
ATOM     76  C   UNL     1      -6.870  -3.958  -5.327  1.00  0.00     0.134 A 
ATOM     77  C   UNL     1      -5.830  -6.065  -4.881  1.00  0.00     0.134 A 
ATOM     78  F   UNL     1      -7.583  -2.889  -4.937  1.00  0.00    -0.206 F 
ATOM     79  C   UNL     1      -6.358  -3.961  -6.626  1.00  0.00     0.040 A 
ATOM     80  C   UNL     1      -5.316  -6.082  -6.184  1.00  0.00     0.040 A 
ATOM     81  F   UNL     1      -5.489  -7.068  -4.060  1.00  0.00    -0.206 F 
ATOM     82  C   UNL     1      -5.549  -5.011  -7.047  1.00  0.00     0.006 A 
ENDBRANCH  54  75
BRANCH  66  83
ATOM     83  C   UNL     1      -7.200  -8.717   1.722  1.00  0.00     0.057 A 
ATOM     84  C   UNL     1      -7.775  -9.817   1.067  1.00  0.00     0.134 A 
ATOM     85  C   UNL     1      -6.951  -8.910   3.100  1.00  0.00     0.134 A 
ATOM     86  F   UNL     1      -7.961  -9.827  -0.260  1.00  0.00    -0.206 F 
ATOM     87  C   UNL     1      -8.134 -10.994   1.741  1.00  0.00     0.040 A 
ATOM     88  C   UNL     1      -7.256 -10.099   3.771  1.00  0.00     0.040 A 
ATOM     89  F   UNL     1      -6.377  -7.960   3.853  1.00  0.00    -0.206 F 
ATOM     90  C   UNL     1      -7.866 -11.143   3.095  1.00  0.00     0.006 A 
ENDBRANCH  66  83
ENDBRANCH  40  41
ENDBRANCH  32  35
ENDBRANCH  30  31
ENDBRANCH  29  30
ENDBRANCH  28  29
ENDBRANCH   3  28
TORSDOF 15
