REMARK SMILES COc1ccsc1CN(Cc1ccccc1)C(=O)/C=C/C(=O)NCCCNC(=O)c1ccc(-c2c3nc(c(-c4c(F)cccc4F)c4ccc([nH]4)c(-c4c(F)cccc4F)c4nc(c(-c5c(F)cccc5F)c5ccc2[nH]5)C=C4)C=C3)cc1
REMARK SMILES IDX 21 1 22 2 23 3 20 5 19 6 17 7 18 8 9 9 8 10 7 11 3 12 4 13
REMARK SMILES IDX 5 14 6 15 2 16 1 17 10 18 11 19 12 20 16 21 13 22 15 23
REMARK SMILES IDX 14 24 24 25 25 26 26 27 27 28 28 29 29 31 30 32 31 33 83 34
REMARK SMILES IDX 32 35 82 36 33 37 34 38 35 39 76 40 36 41 81 42 75 43 77 44
REMARK SMILES IDX 37 45 80 46 74 47 73 48 38 50 64 51 47 52 63 53 48 54 51 55
REMARK SMILES IDX 62 56 78 57 49 58 50 59 61 61 79 62 52 63 39 64 40 65 45 66
REMARK SMILES IDX 41 67 42 68 44 69 46 70 43 71 65 72 66 73 71 74 67 75 68 76
REMARK SMILES IDX 70 77 72 78 69 79 53 80 54 81 59 82 55 83 56 84 58 85 60 86
REMARK SMILES IDX 57 87
REMARK H PARENT 23 4 27 30 77 49 51 60
REMARK Flexibility Score: inf
ROOT
ATOM      1  C   UNL     1      -4.540   6.207   0.213  1.00  0.00     0.244 C 
ATOM      2  O   UNL     1      -5.147   6.980  -0.521  1.00  0.00    -0.270 OA
ATOM      3  N   UNL     1      -4.916   6.041   1.512  1.00  0.00    -0.352 N 
ATOM      4  H   UNL     1      -5.813   6.376   1.741  1.00  0.00     0.163 HD
ENDROOT
BRANCH   1   5
ATOM      5  C   UNL     1      -3.377   5.462  -0.300  1.00  0.00     0.077 C 
ATOM      6  C   UNL     1      -3.386   4.131  -0.174  1.00  0.00     0.077 C 
BRANCH   6   7
ATOM      7  C   UNL     1      -2.355   3.263  -0.761  1.00  0.00     0.247 C 
ATOM      8  O   UNL     1      -1.564   2.733   0.016  1.00  0.00    -0.270 OA
BRANCH   7   9
ATOM      9  N   UNL     1      -2.431   3.013  -2.124  1.00  0.00    -0.330 N 
BRANCH   9  10
ATOM     10  C   UNL     1      -1.512   2.026  -2.694  1.00  0.00     0.170 C 
BRANCH  10  11
ATOM     11  C   UNL     1      -0.069   2.373  -2.467  1.00  0.00     0.066 A 
ATOM     12  C   UNL     1       0.881   1.616  -1.810  1.00  0.00     0.134 A 
ATOM     13  C   UNL     1       2.147   2.263  -1.739  1.00  0.00     0.058 A 
ATOM     14  C   UNL     1       2.124   3.498  -2.349  1.00  0.00     0.069 A 
ATOM     15  S   UNL     1       0.593   3.854  -3.027  1.00  0.00    -0.143 S 
BRANCH  12  16
ATOM     16  O   UNL     1       0.568   0.380  -1.350  1.00  0.00    -0.496 OA
ATOM     17  C   UNL     1       1.036   0.146  -0.025  1.00  0.00     0.278 C 
ENDBRANCH  12  16
ENDBRANCH  10  11
ENDBRANCH   9  10
BRANCH   9  18
ATOM     18  C   UNL     1      -3.489   3.540  -3.005  1.00  0.00     0.155 C 
BRANCH  18  19
ATOM     19  C   UNL     1      -4.893   3.207  -2.540  1.00  0.00    -0.029 A 
ATOM     20  C   UNL     1      -5.851   4.229  -2.428  1.00  0.00     0.005 A 
ATOM     21  C   UNL     1      -5.238   1.913  -2.123  1.00  0.00     0.005 A 
ATOM     22  C   UNL     1      -7.087   3.983  -1.831  1.00  0.00     0.000 A 
ATOM     23  C   UNL     1      -6.480   1.668  -1.533  1.00  0.00     0.000 A 
ATOM     24  C   UNL     1      -7.397   2.705  -1.373  1.00  0.00     0.000 A 
ENDBRANCH  18  19
ENDBRANCH   9  18
ENDBRANCH   7   9
ENDBRANCH   6   7
ENDBRANCH   1   5
BRANCH   3  25
ATOM     25  C   UNL     1      -4.172   5.435   2.606  1.00  0.00     0.118 C 
BRANCH  25  26
ATOM     26  C   UNL     1      -3.177   6.418   3.207  1.00  0.00     0.042 C 
BRANCH  26  27
ATOM     27  C   UNL     1      -3.860   7.591   3.897  1.00  0.00     0.118 C 
BRANCH  27  28
ATOM     28  N   UNL     1      -4.624   7.166   5.063  1.00  0.00    -0.352 N 
ATOM     29  C   UNL     1      -4.393   7.391   6.396  1.00  0.00     0.251 C 
ATOM     30  H   UNL     1      -5.429   6.636   4.864  1.00  0.00     0.163 HD
ATOM     31  O   UNL     1      -4.996   6.738   7.241  1.00  0.00    -0.269 OA
BRANCH  29  32
ATOM     32  C   UNL     1      -3.418   8.420   6.814  1.00  0.00     0.039 A 
ATOM     33  C   UNL     1      -2.578   8.161   7.900  1.00  0.00     0.014 A 
ATOM     34  C   UNL     1      -3.360   9.652   6.159  1.00  0.00     0.014 A 
ATOM     35  C   UNL     1      -1.644   9.121   8.294  1.00  0.00     0.010 A 
ATOM     36  C   UNL     1      -2.370  10.567   6.492  1.00  0.00     0.010 A 
ATOM     37  C   UNL     1      -1.515  10.320   7.575  1.00  0.00    -0.014 A 
BRANCH  37  38
ATOM     38  C   UNL     1      -0.520  11.351   7.956  1.00  0.00     0.031 A 
ATOM     39  C   UNL     1      -0.986  12.713   8.393  1.00  0.00     0.074 A 
ATOM     40  C   UNL     1       0.795  11.087   7.840  1.00  0.00     0.049 A 
ATOM     41  N   UNL     1      -0.281  13.780   8.671  1.00  0.00    -0.248 NA
ATOM     42  C   UNL     1      -2.441  12.912   8.496  1.00  0.00     0.031 C 
ATOM     43  C   UNL     1       1.369   9.820   7.382  1.00  0.00     0.029 A 
ATOM     44  N   UNL     1       1.889  11.877   8.085  1.00  0.00    -0.354 N 
ATOM     45  C   UNL     1      -1.205  14.777   8.960  1.00  0.00     0.074 A 
ATOM     46  C   UNL     1      -2.520  14.206   8.766  1.00  0.00     0.031 C 
ATOM     47  C   UNL     1       2.708   9.911   7.403  1.00  0.00     0.029 A 
ATOM     48  C   UNL     1       3.087  11.252   7.837  1.00  0.00     0.049 A 
ATOM     49  H   UNL     1       1.822  12.805   8.409  1.00  0.00     0.167 HD
ATOM     50  C   UNL     1      -0.980  16.046   9.374  1.00  0.00     0.037 A 
ATOM     51  C   UNL     1       4.347  11.713   7.943  1.00  0.00     0.037 A 
ATOM     52  C   UNL     1       0.330  16.598   9.597  1.00  0.00     0.049 A 
ATOM     53  C   UNL     1       4.572  13.124   8.412  1.00  0.00     0.074 A 
ATOM     54  C   UNL     1       0.669  17.853  10.069  1.00  0.00     0.029 A 
ATOM     55  N   UNL     1       1.519  15.922   9.364  1.00  0.00    -0.354 N 
ATOM     56  N   UNL     1       3.690  14.038   8.738  1.00  0.00    -0.248 NA
ATOM     57  C   UNL     1       5.968  13.565   8.535  1.00  0.00     0.031 C 
ATOM     58  C   UNL     1       2.064  17.950  10.086  1.00  0.00     0.029 A 
ATOM     59  C   UNL     1       2.594  16.739   9.670  1.00  0.00     0.049 A 
ATOM     60  H   UNL     1       1.588  14.998   9.030  1.00  0.00     0.167 HD
ATOM     61  C   UNL     1       4.423  15.149   9.136  1.00  0.00     0.074 A 
ATOM     62  C   UNL     1       5.821  14.790   9.020  1.00  0.00     0.031 C 
ATOM     63  C   UNL     1       3.979  16.357   9.561  1.00  0.00     0.037 A 
BRANCH  50  64
ATOM     64  C   UNL     1      -2.179  16.916   9.619  1.00  0.00     0.057 A 
ATOM     65  C   UNL     1      -3.052  16.687  10.691  1.00  0.00     0.134 A 
ATOM     66  C   UNL     1      -2.453  18.009   8.787  1.00  0.00     0.134 A 
ATOM     67  F   UNL     1      -2.855  15.649  11.519  1.00  0.00    -0.206 F 
ATOM     68  C   UNL     1      -4.171  17.493  10.908  1.00  0.00     0.040 A 
ATOM     69  C   UNL     1      -3.553  18.839   9.011  1.00  0.00     0.040 A 
ATOM     70  F   UNL     1      -1.656  18.290   7.745  1.00  0.00    -0.206 F 
ATOM     71  C   UNL     1      -4.420  18.577  10.069  1.00  0.00     0.006 A 
ENDBRANCH  50  64
BRANCH  51  72
ATOM     72  C   UNL     1       5.493  10.823   7.632  1.00  0.00     0.057 A 
ATOM     73  C   UNL     1       6.334  10.352   8.647  1.00  0.00     0.134 A 
ATOM     74  C   UNL     1       5.779  10.425   6.321  1.00  0.00     0.134 A 
ATOM     75  F   UNL     1       6.121  10.712   9.921  1.00  0.00    -0.206 F 
ATOM     76  C   UNL     1       7.430   9.534   8.368  1.00  0.00     0.040 A 
ATOM     77  C   UNL     1       6.857   9.587   6.030  1.00  0.00     0.040 A 
ATOM     78  F   UNL     1       5.006  10.834   5.304  1.00  0.00    -0.206 F 
ATOM     79  C   UNL     1       7.691   9.146   7.056  1.00  0.00     0.006 A 
ENDBRANCH  51  72
BRANCH  63  80
ATOM     80  C   UNL     1       5.013  17.360   9.976  1.00  0.00     0.057 A 
ATOM     81  C   UNL     1       5.825  18.018   9.044  1.00  0.00     0.134 A 
ATOM     82  C   UNL     1       5.170  17.700  11.326  1.00  0.00     0.134 A 
ATOM     83  F   UNL     1       5.733  17.728   7.737  1.00  0.00    -0.206 F 
ATOM     84  C   UNL     1       6.772  18.962   9.442  1.00  0.00     0.040 A 
ATOM     85  C   UNL     1       6.094  18.662  11.734  1.00  0.00     0.040 A 
ATOM     86  F   UNL     1       4.417  17.113  12.269  1.00  0.00    -0.206 F 
ATOM     87  C   UNL     1       6.903  19.292  10.790  1.00  0.00     0.006 A 
ENDBRANCH  63  80
ENDBRANCH  37  38
ENDBRANCH  29  32
ENDBRANCH  27  28
ENDBRANCH  26  27
ENDBRANCH  25  26
ENDBRANCH   3  25
TORSDOF 17
