REMARK SMILES Cc1c[nH]c(C(=O)N2CCC3(CC2)NC(=O)C[C@@H]3C(=O)NCCCNC(=O)c2ccc(-c3c4nc(c(-c5c(F)cccc5F)c5ccc([nH]5)c(-c5c(F)cccc5F)c5nc(c(-c6c(F)cccc6F)c6ccc3[nH]6)C=C5)C=C4)cc2)c1
REMARK SMILES IDX 23 1 22 2 21 3 19 4 20 5 18 7 6 8 7 9 8 10 9 11 13 12 10 13
REMARK SMILES IDX 12 14 11 15 14 16 15 17 17 19 16 20 5 21 1 22 2 23 3 24
REMARK SMILES IDX 82 25 4 26 24 28 25 29 26 30 27 32 28 33 29 34 81 35 30 36
REMARK SMILES IDX 80 37 31 38 32 39 33 40 74 41 34 42 79 43 73 44 75 45 35 46
REMARK SMILES IDX 78 47 72 48 71 49 36 51 62 52 45 53 61 54 46 55 49 56 60 57
REMARK SMILES IDX 76 58 47 59 48 60 59 62 77 63 50 64 37 65 38 66 43 67 39 68
REMARK SMILES IDX 40 69 42 70 44 71 41 72 63 73 64 74 69 75 65 76 66 77 68 78
REMARK SMILES IDX 70 79 67 80 51 81 52 82 57 83 53 84 54 85 56 86 58 87 55 88
REMARK H PARENT 21 6 14 18 4 27 25 31 75 50 49 61
REMARK Flexibility Score: inf
ROOT
ATOM      1  C   UNL     1      -5.386   2.648   2.217  1.00  0.00     0.042 C 
ENDROOT
BRANCH   1   2
ATOM      2  C   UNL     1      -6.697   1.861   2.161  1.00  0.00     0.117 C 
BRANCH   2   3
ATOM      3  N   UNL     1      -7.303   1.920   0.842  1.00  0.00    -0.356 N 
ATOM      4  C   UNL     1      -7.519   0.984  -0.117  1.00  0.00     0.226 C 
ATOM      5  O   UNL     1      -7.977   1.397  -1.185  1.00  0.00    -0.275 OA
ATOM      6  H   UNL     1      -7.620   2.818   0.594  1.00  0.00     0.163 HD
BRANCH   4   7
ATOM      7  C   UNL     1      -7.214  -0.495   0.102  1.00  0.00     0.113 C 
ATOM      8  C   UNL     1      -2.400   1.319  -0.344  1.00  0.00     0.270 C 
ATOM      9  O   UNL     1      -2.438   2.527  -0.564  1.00  0.00    -0.267 OA
ATOM     10  N   UNL     1      -3.555   0.537  -0.402  1.00  0.00    -0.337 N 
ATOM     11  C   UNL     1      -4.592   0.963  -1.331  1.00  0.00     0.122 C 
ATOM     12  C   UNL     1      -3.968  -0.276   0.735  1.00  0.00     0.122 C 
ATOM     13  C   UNL     1      -5.420  -0.228  -1.804  1.00  0.00     0.051 C 
ATOM     14  C   UNL     1      -4.807  -1.458   0.309  1.00  0.00     0.051 C 
ATOM     15  C   UNL     1      -5.966  -1.080  -0.642  1.00  0.00     0.055 C 
ATOM     16  N   UNL     1      -6.460  -2.343  -1.169  1.00  0.00    -0.350 N 
ATOM     17  C   UNL     1      -7.809  -2.533  -1.050  1.00  0.00     0.221 C 
ATOM     18  H   UNL     1      -5.867  -3.011  -1.580  1.00  0.00     0.164 HD
ATOM     19  C   UNL     1      -8.412  -1.297  -0.466  1.00  0.00     0.116 C 
ATOM     20  O   UNL     1      -8.399  -3.538  -1.393  1.00  0.00    -0.275 OA
BRANCH   8  21
ATOM     21  C   UNL     1      -1.166   0.590  -0.135  1.00  0.00     0.104 A 
ATOM     22  C   UNL     1       2.507   0.081   0.120  1.00  0.00     0.046 C 
ATOM     23  C   UNL     1       1.028  -0.001   0.051  1.00  0.00    -0.033 A 
ATOM     24  C   UNL     1       0.270  -1.147  -0.049  1.00  0.00     0.086 A 
ATOM     25  C   UNL     1       0.115   1.091   0.028  1.00  0.00     0.036 A 
ATOM     26  N   UNL     1      -1.036  -0.779  -0.201  1.00  0.00    -0.357 N 
ATOM     27  H   UNL     1      -1.782  -1.407  -0.339  1.00  0.00     0.166 HD
ENDBRANCH   8  21
ENDBRANCH   4   7
ENDBRANCH   2   3
ENDBRANCH   1   2
BRANCH   1  28
ATOM     28  C   UNL     1      -5.518   4.154   2.052  1.00  0.00     0.118 C 
BRANCH  28  29
ATOM     29  N   UNL     1      -6.099   4.786   3.220  1.00  0.00    -0.352 N 
ATOM     30  C   UNL     1      -5.551   5.693   4.093  1.00  0.00     0.251 C 
ATOM     31  H   UNL     1      -7.027   4.525   3.418  1.00  0.00     0.163 HD
ATOM     32  O   UNL     1      -6.132   5.927   5.150  1.00  0.00    -0.269 OA
BRANCH  30  33
ATOM     33  C   UNL     1      -4.271   6.379   3.793  1.00  0.00     0.039 A 
ATOM     34  C   UNL     1      -3.390   6.636   4.848  1.00  0.00     0.014 A 
ATOM     35  C   UNL     1      -3.951   6.824   2.506  1.00  0.00     0.014 A 
ATOM     36  C   UNL     1      -2.181   7.295   4.608  1.00  0.00     0.010 A 
ATOM     37  C   UNL     1      -2.708   7.404   2.253  1.00  0.00     0.010 A 
ATOM     38  C   UNL     1      -1.815   7.660   3.303  1.00  0.00    -0.014 A 
BRANCH  38  39
ATOM     39  C   UNL     1      -0.509   8.316   3.028  1.00  0.00     0.031 A 
ATOM     40  C   UNL     1      -0.456   9.715   2.477  1.00  0.00     0.074 A 
ATOM     41  C   UNL     1       0.635   7.635   3.238  1.00  0.00     0.049 A 
ATOM     42  N   UNL     1       0.587  10.438   2.149  1.00  0.00    -0.248 NA
ATOM     43  C   UNL     1      -1.744  10.385   2.244  1.00  0.00     0.031 C 
ATOM     44  C   UNL     1       0.720   6.260   3.731  1.00  0.00     0.029 A 
ATOM     45  N   UNL     1       1.944   8.005   3.059  1.00  0.00    -0.354 N 
ATOM     46  C   UNL     1       0.081  11.637   1.663  1.00  0.00     0.074 A 
ATOM     47  C   UNL     1      -1.361  11.525   1.687  1.00  0.00     0.031 C 
ATOM     48  C   UNL     1       2.011   5.912   3.842  1.00  0.00     0.029 A 
ATOM     49  C   UNL     1       2.845   7.020   3.386  1.00  0.00     0.049 A 
ATOM     50  H   UNL     1       2.213   8.892   2.727  1.00  0.00     0.167 HD
ATOM     51  C   UNL     1       0.755  12.739   1.253  1.00  0.00     0.037 A 
ATOM     52  C   UNL     1       4.189   7.006   3.317  1.00  0.00     0.037 A 
ATOM     53  C   UNL     1       2.191  12.850   1.236  1.00  0.00     0.049 A 
ATOM     54  C   UNL     1       4.914   8.230   2.830  1.00  0.00     0.074 A 
ATOM     55  C   UNL     1       2.967  13.942   0.888  1.00  0.00     0.029 A 
ATOM     56  N   UNL     1       3.067  11.827   1.569  1.00  0.00    -0.354 N 
ATOM     57  N   UNL     1       4.424   9.382   2.441  1.00  0.00    -0.248 NA
ATOM     58  C   UNL     1       6.381   8.153   2.776  1.00  0.00     0.031 C 
ATOM     59  C   UNL     1       4.311  13.562   0.953  1.00  0.00     0.029 A 
ATOM     60  C   UNL     1       4.376  12.254   1.405  1.00  0.00     0.049 A 
ATOM     61  H   UNL     1       2.800  10.931   1.877  1.00  0.00     0.167 HD
ATOM     62  C   UNL     1       5.520  10.176   2.126  1.00  0.00     0.074 A 
ATOM     63  C   UNL     1       6.701   9.378   2.385  1.00  0.00     0.031 C 
ATOM     64  C   UNL     1       5.545  11.451   1.667  1.00  0.00     0.037 A 
BRANCH  51  65
ATOM     65  C   UNL     1      -0.058  13.912   0.777  1.00  0.00     0.057 A 
ATOM     66  C   UNL     1      -0.853  14.667   1.651  1.00  0.00     0.134 A 
ATOM     67  C   UNL     1      -0.022  14.309  -0.565  1.00  0.00     0.134 A 
ATOM     68  F   UNL     1      -0.940  14.338   2.949  1.00  0.00    -0.206 F 
ATOM     69  C   UNL     1      -1.609  15.751   1.200  1.00  0.00     0.040 A 
ATOM     70  C   UNL     1      -0.749  15.411  -1.022  1.00  0.00     0.040 A 
ATOM     71  F   UNL     1       0.725  13.640  -1.456  1.00  0.00    -0.206 F 
ATOM     72  C   UNL     1      -1.552  16.130  -0.140  1.00  0.00     0.006 A 
ENDBRANCH  51  65
BRANCH  52  73
ATOM     73  C   UNL     1       4.940   5.795   3.738  1.00  0.00     0.057 A 
ATOM     74  C   UNL     1       5.735   5.803   4.890  1.00  0.00     0.134 A 
ATOM     75  C   UNL     1       4.882   4.604   3.004  1.00  0.00     0.134 A 
ATOM     76  F   UNL     1       5.847   6.918   5.626  1.00  0.00    -0.206 F 
ATOM     77  C   UNL     1       6.460   4.678   5.286  1.00  0.00     0.040 A 
ATOM     78  C   UNL     1       5.578   3.463   3.405  1.00  0.00     0.040 A 
ATOM     79  F   UNL     1       4.132   4.527   1.895  1.00  0.00    -0.206 F 
ATOM     80  C   UNL     1       6.377   3.501   4.545  1.00  0.00     0.006 A 
ENDBRANCH  52  73
BRANCH  64  81
ATOM     81  C   UNL     1       6.893  12.079   1.448  1.00  0.00     0.057 A 
ATOM     82  C   UNL     1       7.741  11.678   0.408  1.00  0.00     0.134 A 
ATOM     83  C   UNL     1       7.332  13.125   2.271  1.00  0.00     0.134 A 
ATOM     84  F   UNL     1       7.389  10.674  -0.409  1.00  0.00    -0.206 F 
ATOM     85  C   UNL     1       8.987  12.277   0.210  1.00  0.00     0.040 A 
ATOM     86  C   UNL     1       8.561  13.752   2.064  1.00  0.00     0.040 A 
ATOM     87  F   UNL     1       6.566  13.566   3.281  1.00  0.00    -0.206 F 
ATOM     88  C   UNL     1       9.397  13.322   1.036  1.00  0.00     0.006 A 
ENDBRANCH  64  81
ENDBRANCH  38  39
ENDBRANCH  30  33
ENDBRANCH  28  29
ENDBRANCH   1  28
TORSDOF 11
