REMARK SMILES CCCCCCNC(=O)Oc1cccc(-c2ccc([C@H](C)C(=O)NCCCNC(=O)c3ccc(-c4c5nc(c(-c6c(F)cccc6F)c6ccc([nH]6)c(-c6c(F)cccc6F)c6nc(c(-c7c(F)cccc7F)c7ccc4[nH]7)C=C6)C=C5)cc3)cc2F)c1
REMARK SMILES IDX 16 1 17 2 18 3 19 4 85 5 86 6 87 7 15 8 11 9 12 10 88 11
REMARK SMILES IDX 13 12 14 13 10 14 8 15 7 16 9 18 6 19 5 20 4 21 3 22 2 23
REMARK SMILES IDX 1 24 20 25 21 26 22 27 23 28 24 29 25 31 26 32 27 33 28 34
REMARK SMILES IDX 29 35 30 37 31 38 32 39 84 40 33 41 83 42 34 43 35 44 36 45
REMARK SMILES IDX 77 46 37 47 82 48 76 49 78 50 38 51 81 52 75 53 74 54 39 56
REMARK SMILES IDX 65 57 48 58 64 59 49 60 52 61 63 62 79 63 50 64 51 65 62 67
REMARK SMILES IDX 80 68 53 69 40 70 41 71 46 72 42 73 43 74 45 75 47 76 44 77
REMARK SMILES IDX 66 78 67 79 72 80 68 81 69 82 71 83 73 84 70 85 54 86 55 87
REMARK SMILES IDX 60 88 56 89 57 90 59 91 61 92 58 93
REMARK H PARENT 7 17 24 30 28 36 78 55 52 66
REMARK Flexibility Score: inf
ROOT
ATOM      1  C   UNL     1      -8.669   0.013  15.641  1.00  0.00     0.018 A 
ATOM      2  C   UNL     1      -7.452   0.046  16.337  1.00  0.00     0.012 A 
ATOM      3  C   UNL     1      -6.235   0.218  15.667  1.00  0.00     0.005 A 
ATOM      4  C   UNL     1      -6.183   0.313  14.266  1.00  0.00    -0.033 A 
ATOM      5  C   UNL     1      -7.399   0.341  13.573  1.00  0.00     0.044 A 
ATOM      6  C   UNL     1      -8.611   0.187  14.251  1.00  0.00     0.131 A 
ATOM      7  F   UNL     1      -9.738   0.205  13.522  1.00  0.00    -0.206 F 
ENDROOT
BRANCH   1   8
ATOM      8  C   UNL     1      -9.942  -0.196  16.353  1.00  0.00    -0.012 A 
ATOM      9  C   UNL     1     -12.096  -1.298  16.578  1.00  0.00     0.133 A 
ATOM     10  C   UNL     1     -12.383  -0.571  17.729  1.00  0.00     0.047 A 
ATOM     11  C   UNL     1     -10.898  -1.115  15.886  1.00  0.00     0.056 A 
ATOM     12  C   UNL     1     -11.445   0.336  18.211  1.00  0.00     0.004 A 
ATOM     13  C   UNL     1     -10.239   0.521  17.529  1.00  0.00     0.009 A 
BRANCH   9  14
ATOM     14  O   UNL     1     -13.116  -2.122  16.075  1.00  0.00    -0.410 OA
BRANCH  14  15
ATOM     15  C   UNL     1     -12.825  -3.453  15.829  1.00  0.00     0.412 C 
ATOM     16  N   UNL     1     -13.883  -4.147  15.312  1.00  0.00    -0.321 N 
ATOM     17  H   UNL     1     -13.736  -5.103  15.129  1.00  0.00     0.167 HD
ATOM     18  O   UNL     1     -11.750  -4.011  16.045  1.00  0.00    -0.224 OA
BRANCH  16  19
ATOM     19  C   UNL     1     -15.199  -3.620  15.007  1.00  0.00     0.119 C 
BRANCH  19  20
ATOM     20  C   UNL     1     -15.530  -3.733  13.519  1.00  0.00     0.021 C 
BRANCH  20  21
ATOM     21  C   UNL     1     -15.647  -5.168  12.992  1.00  0.00     0.002 C 
BRANCH  21  22
ATOM     22  C   UNL     1     -16.704  -6.042  13.677  1.00  0.00    -0.000 C 
BRANCH  22  23
ATOM     23  C   UNL     1     -18.137  -5.505  13.626  1.00  0.00    -0.003 C 
ATOM     24  C   UNL     1     -18.687  -5.390  12.213  1.00  0.00     0.004 C 
ENDBRANCH  22  23
ENDBRANCH  21  22
ENDBRANCH  20  21
ENDBRANCH  19  20
ENDBRANCH  16  19
ENDBRANCH  14  15
ENDBRANCH   9  14
ENDBRANCH   1   8
BRANCH   4  25
ATOM     25  C   UNL     1      -4.842   0.380  13.539  1.00  0.00     0.105 C 
ATOM     26  C   UNL     1      -4.849  -0.105  12.082  1.00  0.00     0.023 C 
BRANCH  25  27
ATOM     27  C   UNL     1      -3.694  -0.317  14.276  1.00  0.00     0.227 C 
ATOM     28  O   UNL     1      -2.680   0.304  14.602  1.00  0.00    -0.274 OA
ATOM     29  N   UNL     1      -3.743  -1.646  14.578  1.00  0.00    -0.356 N 
ATOM     30  H   UNL     1      -2.923  -2.008  14.986  1.00  0.00     0.163 HD
BRANCH  29  31
ATOM     31  C   UNL     1      -4.814  -2.611  14.392  1.00  0.00     0.117 C 
BRANCH  31  32
ATOM     32  C   UNL     1      -4.370  -3.802  13.557  1.00  0.00     0.042 C 
BRANCH  32  33
ATOM     33  C   UNL     1      -3.274  -4.636  14.208  1.00  0.00     0.118 C 
BRANCH  33  34
ATOM     34  N   UNL     1      -3.716  -5.308  15.423  1.00  0.00    -0.352 N 
ATOM     35  C   UNL     1      -3.809  -6.650  15.704  1.00  0.00     0.251 C 
ATOM     36  H   UNL     1      -3.990  -4.709  16.155  1.00  0.00     0.163 HD
ATOM     37  O   UNL     1      -4.351  -7.030  16.736  1.00  0.00    -0.269 OA
BRANCH  35  38
ATOM     38  C   UNL     1      -3.284  -7.639  14.741  1.00  0.00     0.039 A 
ATOM     39  C   UNL     1      -4.088  -8.724  14.379  1.00  0.00     0.014 A 
ATOM     40  C   UNL     1      -2.017  -7.480  14.175  1.00  0.00     0.014 A 
ATOM     41  C   UNL     1      -3.661  -9.593  13.373  1.00  0.00     0.010 A 
ATOM     42  C   UNL     1      -1.627  -8.300  13.122  1.00  0.00     0.010 A 
ATOM     43  C   UNL     1      -2.453  -9.352  12.699  1.00  0.00    -0.014 A 
BRANCH  43  44
ATOM     44  C   UNL     1      -2.048 -10.152  11.518  1.00  0.00     0.031 A 
ATOM     45  C   UNL     1      -0.795 -10.979  11.559  1.00  0.00     0.074 A 
ATOM     46  C   UNL     1      -2.753 -10.048  10.374  1.00  0.00     0.049 A 
ATOM     47  N   UNL     1      -0.202 -11.628  10.590  1.00  0.00    -0.248 NA
ATOM     48  C   UNL     1      -0.105 -11.065  12.855  1.00  0.00     0.031 C 
ATOM     49  C   UNL     1      -3.966  -9.247  10.196  1.00  0.00     0.029 A 
ATOM     50  N   UNL     1      -2.537 -10.602   9.137  1.00  0.00    -0.354 N 
ATOM     51  C   UNL     1       0.938 -12.184  11.153  1.00  0.00     0.074 A 
ATOM     52  C   UNL     1       0.977 -11.762  12.537  1.00  0.00     0.031 C 
ATOM     53  C   UNL     1      -4.393  -9.371   8.930  1.00  0.00     0.029 A 
ATOM     54  C   UNL     1      -3.461 -10.220   8.195  1.00  0.00     0.049 A 
ATOM     55  H   UNL     1      -1.791 -11.214   8.943  1.00  0.00     0.167 HD
ATOM     56  C   UNL     1       1.860 -12.989  10.573  1.00  0.00     0.037 A 
ATOM     57  C   UNL     1      -3.537 -10.504   6.881  1.00  0.00     0.037 A 
ATOM     58  C   UNL     1       1.806 -13.426   9.203  1.00  0.00     0.049 A 
ATOM     59  C   UNL     1      -2.483 -11.368   6.253  1.00  0.00     0.074 A 
ATOM     60  C   UNL     1       2.650 -14.302   8.544  1.00  0.00     0.029 A 
ATOM     61  N   UNL     1       0.857 -13.014   8.280  1.00  0.00    -0.354 N 
ATOM     62  N   UNL     1      -1.442 -11.937   6.811  1.00  0.00    -0.248 NA
ATOM     63  C   UNL     1      -2.607 -11.623   4.810  1.00  0.00     0.031 C 
ATOM     64  C   UNL     1       2.236 -14.388   7.210  1.00  0.00     0.029 A 
ATOM     65  C   UNL     1       1.112 -13.594   7.049  1.00  0.00     0.049 A 
ATOM     66  H   UNL     1       0.111 -12.400   8.472  1.00  0.00     0.167 HD
ATOM     67  C   UNL     1      -0.797 -12.629   5.795  1.00  0.00     0.074 A 
ATOM     68  C   UNL     1      -1.570 -12.419   4.588  1.00  0.00     0.031 C 
ATOM     69  C   UNL     1       0.336 -13.370   5.857  1.00  0.00     0.037 A 
BRANCH  56  70
ATOM     70  C   UNL     1       3.006 -13.449  11.423  1.00  0.00     0.057 A 
ATOM     71  C   UNL     1       2.834 -14.396  12.441  1.00  0.00     0.134 A 
ATOM     72  C   UNL     1       4.301 -12.963  11.203  1.00  0.00     0.134 A 
ATOM     73  F   UNL     1       1.616 -14.891  12.710  1.00  0.00    -0.206 F 
ATOM     74  C   UNL     1       3.905 -14.825  13.227  1.00  0.00     0.040 A 
ATOM     75  C   UNL     1       5.384 -13.403  11.966  1.00  0.00     0.040 A 
ATOM     76  F   UNL     1       4.535 -12.059  10.240  1.00  0.00    -0.206 F 
ATOM     77  C   UNL     1       5.186 -14.332  12.985  1.00  0.00     0.006 A 
ENDBRANCH  56  70
BRANCH  57  78
ATOM     78  C   UNL     1      -4.657  -9.963   6.072  1.00  0.00     0.057 A 
ATOM     79  C   UNL     1      -5.680 -10.801   5.614  1.00  0.00     0.134 A 
ATOM     80  C   UNL     1      -4.737  -8.605   5.744  1.00  0.00     0.134 A 
ATOM     81  F   UNL     1      -5.646 -12.114   5.881  1.00  0.00    -0.206 F 
ATOM     82  C   UNL     1      -6.739 -10.309   4.849  1.00  0.00     0.040 A 
ATOM     83  C   UNL     1      -5.801  -8.096   4.997  1.00  0.00     0.040 A 
ATOM     84  F   UNL     1      -3.789  -7.751   6.158  1.00  0.00    -0.206 F 
ATOM     85  C   UNL     1      -6.804  -8.951   4.544  1.00  0.00     0.006 A 
ENDBRANCH  57  78
BRANCH  69  86
ATOM     86  C   UNL     1       0.800 -14.018   4.588  1.00  0.00     0.057 A 
ATOM     87  C   UNL     1       1.422 -13.280   3.573  1.00  0.00     0.134 A 
ATOM     88  C   UNL     1       0.669 -15.399   4.400  1.00  0.00     0.134 A 
ATOM     89  F   UNL     1       1.562 -11.951   3.688  1.00  0.00    -0.206 F 
ATOM     90  C   UNL     1       1.888 -13.893   2.410  1.00  0.00     0.040 A 
ATOM     91  C   UNL     1       1.151 -16.026   3.250  1.00  0.00     0.040 A 
ATOM     92  F   UNL     1       0.087 -16.162   5.338  1.00  0.00    -0.206 F 
ATOM     93  C   UNL     1       1.760 -15.272   2.250  1.00  0.00     0.006 A 
ENDBRANCH  69  86
ENDBRANCH  43  44
ENDBRANCH  35  38
ENDBRANCH  33  34
ENDBRANCH  32  33
ENDBRANCH  31  32
ENDBRANCH  29  31
ENDBRANCH  25  27
ENDBRANCH   4  25
TORSDOF 19
