REMARK SMILES CC(C)[C@H](NC(=O)N1c2ccccc2[NH+]=C(NCCCNC(=O)c2ccc(-c3c4nc(c(-c5c(F)cccc5F)c5ccc([nH]5)c(-c5c(F)cccc5F)c5nc(c(-c6c(F)cccc6F)c6ccc3[nH]6)C=C5)C=C4)cc2)[C@@H]1C(C)C)C(=O)N1CCC(C(=O)[O-])CC1
REMARK SMILES IDX 18 1 17 2 8 3 9 4 78 5 10 6 14 7 16 8 11 9 13 10 15 11 12 12
REMARK SMILES IDX 6 15 5 16 7 18 4 19 2 20 1 21 3 22 82 23 83 24 84 25 85 26
REMARK SMILES IDX 92 27 86 28 91 29 87 30 88 31 89 32 90 33 79 34 80 35 81 36
REMARK SMILES IDX 19 37 20 38 21 39 22 40 23 42 24 43 25 44 77 45 26 46 76 47
REMARK SMILES IDX 27 48 28 49 29 50 70 51 30 52 75 53 69 54 71 55 31 56 74 57
REMARK SMILES IDX 68 58 67 59 32 61 58 62 41 63 57 64 42 65 45 66 56 67 72 68
REMARK SMILES IDX 43 69 44 70 55 72 73 73 46 74 33 75 34 76 39 77 35 78 36 79
REMARK SMILES IDX 38 80 40 81 37 82 59 83 60 84 65 85 61 86 62 87 64 88 66 89
REMARK SMILES IDX 63 90 47 91 48 92 53 93 49 94 50 95 52 96 54 97 51 98
REMARK H PARENT 15 13 17 14 5 17 21 41 71 60 45 71
REMARK Flexibility Score: inf
ROOT
ATOM      1  C   UNL     1       1.176  -1.008   6.220  1.00  0.00     0.235 C 
ENDROOT
BRANCH   1   2
ATOM      2  N   UNL     1       0.197  -1.302   5.204  1.00  0.00    -0.276 N 
ATOM      3  N   UNL     1       0.704  -1.041   1.649  1.00  0.00    -0.275 N 
ATOM      4  C   UNL     1      -0.198  -2.058   1.184  1.00  0.00     0.093 A 
ATOM      5  C   UNL     1       1.453  -1.503   2.859  1.00  0.00     0.208 C 
ATOM      6  C   UNL     1      -0.464  -2.279  -0.171  1.00  0.00     0.031 A 
ATOM      7  C   UNL     1      -0.919  -2.756   2.176  1.00  0.00     0.148 A 
ATOM      8  C   UNL     1       0.291  -1.755   3.905  1.00  0.00     0.271 C 
ATOM      9  C   UNL     1      -1.479  -3.163  -0.541  1.00  0.00     0.002 A 
ATOM     10  C   UNL     1      -1.953  -3.610   1.790  1.00  0.00     0.054 A 
ATOM     11  N   UNL     1      -0.781  -2.427   3.541  1.00  0.00    -0.241 N 
ATOM     12  C   UNL     1      -2.237  -3.808   0.437  1.00  0.00     0.005 A 
ATOM     13  H   UNL     1      -1.464  -2.690   4.199  1.00  0.00     0.312 HD
ATOM     14  H   UNL     1      -0.729  -1.147   5.498  1.00  0.00     0.304 HD
BRANCH   3  15
ATOM     15  C   UNL     1       1.075  -0.037   0.814  1.00  0.00     0.323 C 
ATOM     16  N   UNL     1       0.301   1.078   0.717  1.00  0.00    -0.326 N 
ATOM     17  H   UNL     1       0.849   1.886   0.594  1.00  0.00     0.166 HD
ATOM     18  O   UNL     1       2.129  -0.042   0.178  1.00  0.00    -0.248 OA
BRANCH  16  19
ATOM     19  C   UNL     1      -1.146   1.402   0.748  1.00  0.00     0.175 C 
BRANCH  19  20
ATOM     20  C   UNL     1      -2.158   0.463   1.467  1.00  0.00     0.015 C 
ATOM     21  C   UNL     1      -2.971   1.019   2.640  1.00  0.00     0.010 C 
ATOM     22  C   UNL     1      -3.150  -0.111   0.443  1.00  0.00     0.010 C 
ENDBRANCH  19  20
BRANCH  19  23
ATOM     23  C   UNL     1      -1.488   2.882   1.077  1.00  0.00     0.245 C 
ATOM     24  O   UNL     1      -2.347   3.458   0.398  1.00  0.00    -0.272 OA
ATOM     25  N   UNL     1      -1.088   3.407   2.297  1.00  0.00    -0.341 N 
ATOM     26  C   UNL     1      -2.039   4.231   3.036  1.00  0.00     0.120 C 
ATOM     27  C   UNL     1       0.236   3.292   2.893  1.00  0.00     0.120 C 
ATOM     28  C   UNL     1      -1.520   5.641   3.222  1.00  0.00     0.031 C 
ATOM     29  C   UNL     1       0.833   4.689   3.095  1.00  0.00     0.031 C 
ATOM     30  C   UNL     1      -0.126   5.615   3.855  1.00  0.00     0.038 C 
BRANCH  30  31
ATOM     31  C   UNL     1       0.422   7.018   3.940  1.00  0.00     0.045 C 
ATOM     32  O   UNL     1       0.772   7.581   4.959  1.00  0.00    -0.550 OA
ATOM     33  O   UNL     1       0.498   7.641   2.750  1.00  0.00    -0.550 OA
ENDBRANCH  30  31
ENDBRANCH  19  23
ENDBRANCH  16  19
ENDBRANCH   3  15
BRANCH   5  34
ATOM     34  C   UNL     1       2.684  -0.731   3.413  1.00  0.00     0.018 C 
ATOM     35  C   UNL     1       3.564  -1.739   4.202  1.00  0.00     0.010 C 
ATOM     36  C   UNL     1       3.655  -0.040   2.459  1.00  0.00     0.010 C 
ENDBRANCH   5  34
ENDBRANCH   1   2
BRANCH   1  37
ATOM     37  C   UNL     1       0.808   0.242   7.001  1.00  0.00     0.067 C 
BRANCH  37  38
ATOM     38  C   UNL     1      -0.180  -0.022   8.122  1.00  0.00     0.120 C 
BRANCH  38  39
ATOM     39  N   UNL     1       0.367  -0.895   9.158  1.00  0.00    -0.352 N 
ATOM     40  C   UNL     1       0.823  -0.626  10.427  1.00  0.00     0.251 C 
ATOM     41  H   UNL     1       0.418  -1.845   8.903  1.00  0.00     0.163 HD
ATOM     42  O   UNL     1       1.449  -1.487  11.039  1.00  0.00    -0.269 OA
BRANCH  40  43
ATOM     43  C   UNL     1       0.585   0.693  11.050  1.00  0.00     0.039 A 
ATOM     44  C   UNL     1       1.569   1.252  11.871  1.00  0.00     0.014 A 
ATOM     45  C   UNL     1      -0.613   1.374  10.844  1.00  0.00     0.014 A 
ATOM     46  C   UNL     1       1.381   2.529  12.407  1.00  0.00     0.010 A 
ATOM     47  C   UNL     1      -0.742   2.690  11.264  1.00  0.00     0.010 A 
ATOM     48  C   UNL     1       0.245   3.280  12.065  1.00  0.00    -0.014 A 
BRANCH  48  49
ATOM     49  C   UNL     1       0.049   4.671  12.544  1.00  0.00     0.031 A 
ATOM     50  C   UNL     1      -1.172   5.023  13.352  1.00  0.00     0.074 A 
ATOM     51  C   UNL     1       0.920   5.633  12.179  1.00  0.00     0.049 A 
ATOM     52  N   UNL     1      -1.579   6.194  13.772  1.00  0.00    -0.248 NA
ATOM     53  C   UNL     1      -2.080   3.917  13.701  1.00  0.00     0.031 C 
ATOM     54  C   UNL     1       2.108   5.431  11.345  1.00  0.00     0.029 A 
ATOM     55  N   UNL     1       0.934   6.977  12.453  1.00  0.00    -0.354 N 
ATOM     56  C   UNL     1      -2.794   5.966  14.406  1.00  0.00     0.074 A 
ATOM     57  C   UNL     1      -3.094   4.560  14.258  1.00  0.00     0.031 C 
ATOM     58  C   UNL     1       2.750   6.601  11.202  1.00  0.00     0.029 A 
ATOM     59  C   UNL     1       1.997   7.644  11.891  1.00  0.00     0.049 A 
ATOM     60  H   UNL     1       0.248   7.423  13.000  1.00  0.00     0.167 HD
ATOM     61  C   UNL     1      -3.575   6.843  15.079  1.00  0.00     0.037 A 
ATOM     62  C   UNL     1       2.321   8.950  11.920  1.00  0.00     0.037 A 
ATOM     63  C   UNL     1      -3.252   8.233  15.256  1.00  0.00     0.049 A 
ATOM     64  C   UNL     1       1.438   9.904  12.676  1.00  0.00     0.074 A 
ATOM     65  C   UNL     1      -3.937   9.191  15.982  1.00  0.00     0.029 A 
ATOM     66  N   UNL     1      -2.151   8.864  14.696  1.00  0.00    -0.354 N 
ATOM     67  N   UNL     1       0.334   9.659  13.341  1.00  0.00    -0.248 NA
ATOM     68  C   UNL     1       1.848  11.314  12.692  1.00  0.00     0.031 C 
ATOM     69  C   UNL     1      -3.279  10.414  15.818  1.00  0.00     0.029 A 
ATOM     70  C   UNL     1      -2.152  10.205  15.040  1.00  0.00     0.049 A 
ATOM     71  H   UNL     1      -1.470   8.424  14.138  1.00  0.00     0.167 HD
ATOM     72  C   UNL     1      -0.064  10.876  13.880  1.00  0.00     0.074 A 
ATOM     73  C   UNL     1       0.926  11.854  13.477  1.00  0.00     0.031 C 
ATOM     74  C   UNL     1      -1.150  11.161  14.639  1.00  0.00     0.037 A 
BRANCH  61  75
ATOM     75  C   UNL     1      -4.851   6.322  15.678  1.00  0.00     0.057 A 
ATOM     76  C   UNL     1      -4.854   5.424  16.755  1.00  0.00     0.134 A 
ATOM     77  C   UNL     1      -6.094   6.747  15.193  1.00  0.00     0.134 A 
ATOM     78  F   UNL     1      -3.699   4.964  17.261  1.00  0.00    -0.206 F 
ATOM     79  C   UNL     1      -6.044   4.945  17.305  1.00  0.00     0.040 A 
ATOM     80  C   UNL     1      -7.291   6.301  15.757  1.00  0.00     0.040 A 
ATOM     81  F   UNL     1      -6.167   7.610  14.168  1.00  0.00    -0.206 F 
ATOM     82  C   UNL     1      -7.268   5.391  16.811  1.00  0.00     0.006 A 
ENDBRANCH  61  75
BRANCH  62  83
ATOM     83  C   UNL     1       3.545   9.433  11.229  1.00  0.00     0.057 A 
ATOM     84  C   UNL     1       4.641   9.918  11.953  1.00  0.00     0.134 A 
ATOM     85  C   UNL     1       3.644   9.439   9.833  1.00  0.00     0.134 A 
ATOM     86  F   UNL     1       4.602   9.954  13.293  1.00  0.00    -0.206 F 
ATOM     87  C   UNL     1       5.779  10.416  11.315  1.00  0.00     0.040 A 
ATOM     88  C   UNL     1       4.787   9.906   9.182  1.00  0.00     0.040 A 
ATOM     89  F   UNL     1       2.635   8.978   9.081  1.00  0.00    -0.206 F 
ATOM     90  C   UNL     1       5.855  10.407   9.924  1.00  0.00     0.006 A 
ENDBRANCH  62  83
BRANCH  74  91
ATOM     91  C   UNL     1      -1.302  12.574  15.121  1.00  0.00     0.057 A 
ATOM     92  C   UNL     1      -1.633  13.624  14.255  1.00  0.00     0.134 A 
ATOM     93  C   UNL     1      -1.155  12.879  16.481  1.00  0.00     0.134 A 
ATOM     94  F   UNL     1      -1.777  13.401  12.940  1.00  0.00    -0.206 F 
ATOM     95  C   UNL     1      -1.787  14.931  14.720  1.00  0.00     0.040 A 
ATOM     96  C   UNL     1      -1.337  14.176  16.962  1.00  0.00     0.040 A 
ATOM     97  F   UNL     1      -0.848  11.919  17.366  1.00  0.00    -0.206 F 
ATOM     98  C   UNL     1      -1.647  15.207  16.079  1.00  0.00     0.006 A 
ENDBRANCH  74  91
ENDBRANCH  48  49
ENDBRANCH  40  43
ENDBRANCH  38  39
ENDBRANCH  37  38
ENDBRANCH   1  37
TORSDOF 15
