REMARK SMILES Cc1ccc(C#N)cc1Nc1cc(C)c(N)c(C(=O)NCCCNC(=O)c2ccc(-c3c4nc(c(-c5c(F)cccc5F)c5ccc([nH]5)c(-c5c(F)cccc5F)c5nc(c(-c6c(F)cccc6F)c6ccc3[nH]6)C=C5)C=C4)cc2)c1
REMARK SMILES IDX 21 1 20 2 18 3 19 4 17 6 11 7 12 8 81 9 13 10 14 11 15 12
REMARK SMILES IDX 10 13 9 15 1 16 2 17 3 18 4 19 8 20 5 21 6 22 7 23 16 24
REMARK SMILES IDX 22 27 23 28 24 29 25 30 26 32 27 33 28 34 80 35 29 36 79 37
REMARK SMILES IDX 30 38 31 39 32 40 73 41 33 42 78 43 72 44 74 45 34 46 77 47
REMARK SMILES IDX 71 48 70 49 35 51 61 52 44 53 60 54 45 55 48 56 59 57 75 58
REMARK SMILES IDX 46 59 47 60 58 62 76 63 49 64 36 65 37 66 42 67 38 68 39 69
REMARK SMILES IDX 41 70 43 71 40 72 62 73 63 74 68 75 64 76 65 77 67 78 69 79
REMARK SMILES IDX 66 80 50 81 51 82 56 83 52 84 53 85 55 86 57 87 54 88
REMARK H PARENT 20 5 10 14 16 25 16 26 24 31 74 50 48 61
REMARK Flexibility Score: inf
ROOT
ATOM      1  C   UNL     1       1.140   1.480   6.341  1.00  0.00     0.118 C 
ENDROOT
BRANCH   1   2
ATOM      2  N   UNL     1       0.144   2.283   7.026  1.00  0.00    -0.352 N 
ATOM      3  C   UNL     1      -1.018   2.909   6.647  1.00  0.00     0.253 C 
ATOM      4  O   UNL     1      -1.581   3.546   7.543  1.00  0.00    -0.269 OA
ATOM      5  H   UNL     1       0.349   2.408   7.981  1.00  0.00     0.163 HD
BRANCH   3   6
ATOM      6  C   UNL     1      -1.644   2.803   5.281  1.00  0.00     0.065 A 
ATOM      7  C   UNL     1      -1.524   2.059   2.957  1.00  0.00     0.040 A 
ATOM      8  C   UNL     1      -2.875   2.347   2.797  1.00  0.00     0.031 A 
ATOM      9  C   UNL     1      -0.913   2.373   4.171  1.00  0.00     0.042 A 
ATOM     10  C   UNL     1      -3.630   2.895   3.851  1.00  0.00    -0.025 A 
ATOM     11  C   UNL     1      -5.067   3.228   3.547  1.00  0.00     0.047 C 
ATOM     12  C   UNL     1      -3.033   3.078   5.120  1.00  0.00     0.047 A 
BRANCH   7  13
ATOM     13  N   UNL     1      -0.828   1.302   1.995  1.00  0.00    -0.355 N 
ATOM     14  H   UNL     1      -0.649   1.739   1.131  1.00  0.00     0.167 HD
BRANCH  13  15
ATOM     15  C   UNL     1      -0.357  -0.028   2.147  1.00  0.00     0.043 A 
ATOM     16  C   UNL     1       1.061   0.128   0.013  1.00  0.00     0.046 C 
ATOM     17  C   UNL     1       0.533  -0.602   1.217  1.00  0.00    -0.027 A 
ATOM     18  C   UNL     1       0.960  -1.935   1.393  1.00  0.00     0.007 A 
ATOM     19  C   UNL     1       0.540  -2.691   2.486  1.00  0.00     0.020 A 
ATOM     20  C   UNL     1      -0.740  -0.800   3.264  1.00  0.00     0.045 A 
ATOM     21  C   UNL     1      -0.309  -2.121   3.429  1.00  0.00     0.054 A 
BRANCH  21  22
ATOM     22  C   UNL     1      -0.754  -2.887   4.558  1.00  0.00     0.099 C 
ATOM     23  N   UNL     1      -1.113  -3.507   5.468  1.00  0.00    -0.192 NA
ENDBRANCH  21  22
ENDBRANCH  13  15
ENDBRANCH   7  13
BRANCH  12  24
ATOM     24  N   UNL     1      -3.781   3.618   6.167  1.00  0.00    -0.398 N 
ATOM     25  H   UNL     1      -4.740   3.804   6.042  1.00  0.00     0.156 HD
ATOM     26  H   UNL     1      -3.350   3.813   7.030  1.00  0.00     0.156 HD
ENDBRANCH  12  24
ENDBRANCH   3   6
ENDBRANCH   1   2
BRANCH   1  27
ATOM     27  C   UNL     1       2.304   2.355   5.882  1.00  0.00     0.042 C 
BRANCH  27  28
ATOM     28  C   UNL     1       3.220   2.746   7.038  1.00  0.00     0.118 C 
BRANCH  28  29
ATOM     29  N   UNL     1       3.921   1.592   7.596  1.00  0.00    -0.352 N 
ATOM     30  C   UNL     1       5.266   1.333   7.689  1.00  0.00     0.251 C 
ATOM     31  H   UNL     1       3.337   0.890   7.964  1.00  0.00     0.163 HD
ATOM     32  O   UNL     1       5.658   0.207   7.979  1.00  0.00    -0.269 OA
BRANCH  30  33
ATOM     33  C   UNL     1       6.237   2.408   7.409  1.00  0.00     0.039 A 
ATOM     34  C   UNL     1       6.008   3.701   7.879  1.00  0.00     0.014 A 
ATOM     35  C   UNL     1       7.367   2.126   6.638  1.00  0.00     0.014 A 
ATOM     36  C   UNL     1       6.785   4.749   7.405  1.00  0.00     0.010 A 
ATOM     37  C   UNL     1       8.211   3.168   6.251  1.00  0.00     0.010 A 
ATOM     38  C   UNL     1       7.888   4.496   6.575  1.00  0.00    -0.014 A 
BRANCH  38  39
ATOM     39  C   UNL     1       8.659   5.634   6.012  1.00  0.00     0.031 A 
ATOM     40  C   UNL     1       8.716   5.843   4.521  1.00  0.00     0.074 A 
ATOM     41  C   UNL     1       9.265   6.506   6.840  1.00  0.00     0.049 A 
ATOM     42  N   UNL     1       9.378   6.742   3.836  1.00  0.00    -0.248 NA
ATOM     43  C   UNL     1       7.931   4.919   3.686  1.00  0.00     0.031 C 
ATOM     44  C   UNL     1       9.248   6.437   8.304  1.00  0.00     0.029 A 
ATOM     45  N   UNL     1      10.005   7.628   6.571  1.00  0.00    -0.354 N 
ATOM     46  C   UNL     1       9.108   6.478   2.498  1.00  0.00     0.074 A 
ATOM     47  C   UNL     1       8.251   5.314   2.462  1.00  0.00     0.031 C 
ATOM     48  C   UNL     1       9.916   7.488   8.802  1.00  0.00     0.029 A 
ATOM     49  C   UNL     1      10.478   8.257   7.698  1.00  0.00     0.049 A 
ATOM     50  H   UNL     1      10.182   7.952   5.658  1.00  0.00     0.167 HD
ATOM     51  C   UNL     1       9.529   7.151   1.401  1.00  0.00     0.037 A 
ATOM     52  C   UNL     1      11.305   9.310   7.825  1.00  0.00     0.037 A 
ATOM     53  C   UNL     1      10.373   8.316   1.443  1.00  0.00     0.049 A 
ATOM     54  C   UNL     1      11.836   9.973   6.583  1.00  0.00     0.074 A 
ATOM     55  C   UNL     1      10.844   9.077   0.387  1.00  0.00     0.029 A 
ATOM     56  N   UNL     1      10.877   8.885   2.602  1.00  0.00    -0.354 N 
ATOM     57  N   UNL     1      11.567   9.718   5.325  1.00  0.00    -0.248 NA
ATOM     58  C   UNL     1      12.793  11.070   6.780  1.00  0.00     0.031 C 
ATOM     59  C   UNL     1      11.691  10.062   0.902  1.00  0.00     0.029 A 
ATOM     60  C   UNL     1      11.680   9.968   2.284  1.00  0.00     0.049 A 
ATOM     61  H   UNL     1      10.692   8.567   3.515  1.00  0.00     0.167 HD
ATOM     62  C   UNL     1      12.286  10.649   4.587  1.00  0.00     0.074 A 
ATOM     63  C   UNL     1      12.990  11.483   5.537  1.00  0.00     0.031 C 
ATOM     64  C   UNL     1      12.357  10.803   3.242  1.00  0.00     0.037 A 
BRANCH  51  65
ATOM     65  C   UNL     1       9.111   6.629   0.055  1.00  0.00     0.057 A 
ATOM     66  C   UNL     1      10.062   6.089  -0.822  1.00  0.00     0.134 A 
ATOM     67  C   UNL     1       7.788   6.704  -0.398  1.00  0.00     0.134 A 
ATOM     68  F   UNL     1      11.350   5.997  -0.458  1.00  0.00    -0.206 F 
ATOM     69  C   UNL     1       9.713   5.650  -2.100  1.00  0.00     0.040 A 
ATOM     70  C   UNL     1       7.421   6.238  -1.662  1.00  0.00     0.040 A 
ATOM     71  F   UNL     1       6.825   7.200   0.393  1.00  0.00    -0.206 F 
ATOM     72  C   UNL     1       8.387   5.716  -2.520  1.00  0.00     0.006 A 
ENDBRANCH  51  65
BRANCH  52  73
ATOM     73  C   UNL     1      11.731   9.784   9.168  1.00  0.00     0.057 A 
ATOM     74  C   UNL     1      12.527   8.990  10.004  1.00  0.00     0.134 A 
ATOM     75  C   UNL     1      11.420  11.075   9.614  1.00  0.00     0.134 A 
ATOM     76  F   UNL     1      12.853   7.740   9.644  1.00  0.00    -0.206 F 
ATOM     77  C   UNL     1      13.010   9.465  11.223  1.00  0.00     0.040 A 
ATOM     78  C   UNL     1      11.930  11.577  10.812  1.00  0.00     0.040 A 
ATOM     79  F   UNL     1      10.674  11.890   8.854  1.00  0.00    -0.206 F 
ATOM     80  C   UNL     1      12.728  10.770  11.620  1.00  0.00     0.006 A 
ENDBRANCH  52  73
BRANCH  64  81
ATOM     81  C   UNL     1      13.161  11.960   2.722  1.00  0.00     0.057 A 
ATOM     82  C   UNL     1      12.521  13.034   2.087  1.00  0.00     0.134 A 
ATOM     83  C   UNL     1      14.557  12.006   2.816  1.00  0.00     0.134 A 
ATOM     84  F   UNL     1      11.186  13.049   1.952  1.00  0.00    -0.206 F 
ATOM     85  C   UNL     1      13.240  14.107   1.563  1.00  0.00     0.040 A 
ATOM     86  C   UNL     1      15.285  13.093   2.328  1.00  0.00     0.040 A 
ATOM     87  F   UNL     1      15.232  11.018   3.422  1.00  0.00    -0.206 F 
ATOM     88  C   UNL     1      14.626  14.144   1.692  1.00  0.00     0.006 A 
ENDBRANCH  64  81
ENDBRANCH  38  39
ENDBRANCH  30  33
ENDBRANCH  28  29
ENDBRANCH  27  28
ENDBRANCH   1  27
TORSDOF 14
