REMARK SMILES C[NH2+]C[C@H](C)C(=O)N1CCc2cc(C(=O)NCCCNC(=O)c3ccc(-c4c5nc(c(-c6c(F)cccc6F)c6ccc([nH]6)c(-c6c(F)cccc6F)c6nc(c(-c7c(F)cccc7F)c7ccc4[nH]7)C=C6)C=C5)cc3)ccc21
REMARK SMILES IDX 17 1 16 2 14 3 15 4 13 6 8 7 9 8 79 9 10 10 11 11 78 12
REMARK SMILES IDX 12 13 77 14 6 15 7 16 4 17 5 18 3 19 2 20 1 21 18 24 19 25
REMARK SMILES IDX 20 26 21 27 22 29 23 30 24 31 76 32 25 33 75 34 26 35 27 36
REMARK SMILES IDX 28 37 69 38 29 39 74 40 68 41 70 42 30 43 73 44 67 45 66 46
REMARK SMILES IDX 31 48 57 49 40 50 56 51 41 52 44 53 55 54 71 55 42 56 43 57
REMARK SMILES IDX 54 59 72 60 45 61 32 62 33 63 38 64 34 65 35 66 37 67 39 68
REMARK SMILES IDX 36 69 58 70 59 71 64 72 60 73 61 74 63 75 65 76 62 77 46 78
REMARK SMILES IDX 47 79 52 80 48 81 49 82 51 83 53 84 50 85
REMARK H PARENT 16 5 2 22 2 23 20 28 70 47 44 58
REMARK Flexibility Score: inf
ROOT
ATOM      1  C   UNL     1      -0.668   3.103   6.200  1.00  0.00     0.118 C 
ENDROOT
BRANCH   1   2
ATOM      2  N   UNL     1      -1.982   3.051   6.819  1.00  0.00    -0.352 N 
ATOM      3  C   UNL     1      -3.138   2.401   6.460  1.00  0.00     0.251 C 
ATOM      4  O   UNL     1      -4.087   2.437   7.243  1.00  0.00    -0.269 OA
ATOM      5  H   UNL     1      -2.058   3.577   7.647  1.00  0.00     0.163 HD
BRANCH   3   6
ATOM      6  C   UNL     1      -3.272   1.629   5.193  1.00  0.00     0.040 A 
ATOM      7  N   UNL     1      -3.808  -0.849   1.873  1.00  0.00    -0.311 N 
ATOM      8  C   UNL     1      -5.025  -1.580   2.254  1.00  0.00     0.130 C 
ATOM      9  C   UNL     1      -3.525   0.074   2.883  1.00  0.00     0.047 A 
ATOM     10  C   UNL     1      -5.292  -1.281   3.736  1.00  0.00     0.059 C 
ATOM     11  C   UNL     1      -4.307  -0.188   4.007  1.00  0.00    -0.022 A 
ATOM     12  C   UNL     1      -2.738   1.202   2.847  1.00  0.00     0.027 A 
ATOM     13  C   UNL     1      -4.171   0.553   5.175  1.00  0.00     0.019 A 
ATOM     14  C   UNL     1      -2.622   1.983   4.002  1.00  0.00     0.016 A 
BRANCH   7  15
ATOM     15  C   UNL     1      -3.236  -1.044   0.638  1.00  0.00     0.235 C 
ATOM     16  O   UNL     1      -3.953  -1.279  -0.343  1.00  0.00    -0.274 OA
BRANCH  15  17
ATOM     17  C   UNL     1      -1.718  -1.253   0.502  1.00  0.00     0.131 C 
ATOM     18  C   UNL     1      -0.832  -0.018   0.577  1.00  0.00     0.024 C 
BRANCH  17  19
ATOM     19  C   UNL     1      -1.185  -2.359   1.436  1.00  0.00     0.273 C 
BRANCH  19  20
ATOM     20  N   UNL     1      -1.867  -3.658   1.400  1.00  0.00    -0.348 N 
ATOM     21  C   UNL     1      -1.884  -4.268   0.077  1.00  0.00     0.330 C 
ATOM     22  H   UNL     1      -1.390  -4.291   2.042  1.00  0.00     0.346 HD
ATOM     23  H   UNL     1      -2.838  -3.495   1.668  1.00  0.00     0.346 HD
ENDBRANCH  19  20
ENDBRANCH  17  19
ENDBRANCH  15  17
ENDBRANCH   7  15
ENDBRANCH   3   6
ENDBRANCH   1   2
BRANCH   1  24
ATOM     24  C   UNL     1      -0.455   4.411   5.436  1.00  0.00     0.042 C 
BRANCH  24  25
ATOM     25  C   UNL     1      -0.205   5.616   6.336  1.00  0.00     0.118 C 
BRANCH  25  26
ATOM     26  N   UNL     1       1.111   5.575   6.955  1.00  0.00    -0.352 N 
ATOM     27  C   UNL     1       2.161   6.452   6.859  1.00  0.00     0.251 C 
ATOM     28  H   UNL     1       1.272   4.795   7.534  1.00  0.00     0.163 HD
ATOM     29  O   UNL     1       3.263   6.121   7.296  1.00  0.00    -0.269 OA
BRANCH  27  30
ATOM     30  C   UNL     1       1.996   7.780   6.227  1.00  0.00     0.039 A 
ATOM     31  C   UNL     1       3.025   8.268   5.414  1.00  0.00     0.014 A 
ATOM     32  C   UNL     1       0.866   8.568   6.465  1.00  0.00     0.014 A 
ATOM     33  C   UNL     1       2.894   9.512   4.792  1.00  0.00     0.010 A 
ATOM     34  C   UNL     1       0.707   9.779   5.794  1.00  0.00     0.010 A 
ATOM     35  C   UNL     1       1.718  10.262   4.950  1.00  0.00    -0.014 A 
BRANCH  35  36
ATOM     36  C   UNL     1       1.519  11.546   4.231  1.00  0.00     0.031 A 
ATOM     37  C   UNL     1       1.406  12.835   4.995  1.00  0.00     0.074 A 
ATOM     38  C   UNL     1       1.360  11.539   2.894  1.00  0.00     0.049 A 
ATOM     39  N   UNL     1       1.121  14.035   4.555  1.00  0.00    -0.248 NA
ATOM     40  C   UNL     1       1.621  12.762   6.448  1.00  0.00     0.031 C 
ATOM     41  C   UNL     1       1.412  10.348   2.043  1.00  0.00     0.029 A 
ATOM     42  N   UNL     1       1.101  12.563   2.018  1.00  0.00    -0.354 N 
ATOM     43  C   UNL     1       1.110  14.855   5.676  1.00  0.00     0.074 A 
ATOM     44  C   UNL     1       1.373  14.010   6.821  1.00  0.00     0.031 C 
ATOM     45  C   UNL     1       1.197  10.710   0.769  1.00  0.00     0.029 A 
ATOM     46  C   UNL     1       0.952  12.148   0.717  1.00  0.00     0.049 A 
ATOM     47  H   UNL     1       1.029  13.505   2.296  1.00  0.00     0.167 HD
ATOM     48  C   UNL     1       0.915  16.194   5.742  1.00  0.00     0.037 A 
ATOM     49  C   UNL     1       0.633  12.844  -0.390  1.00  0.00     0.037 A 
ATOM     50  C   UNL     1       0.670  17.036   4.599  1.00  0.00     0.049 A 
ATOM     51  C   UNL     1       0.393  14.323  -0.288  1.00  0.00     0.074 A 
ATOM     52  C   UNL     1       0.525  18.412   4.556  1.00  0.00     0.029 A 
ATOM     53  N   UNL     1       0.528  16.578   3.298  1.00  0.00    -0.354 N 
ATOM     54  N   UNL     1       0.443  15.095   0.770  1.00  0.00    -0.248 NA
ATOM     55  C   UNL     1       0.047  15.026  -1.532  1.00  0.00     0.031 C 
ATOM     56  C   UNL     1       0.253  18.782   3.235  1.00  0.00     0.029 A 
ATOM     57  C   UNL     1       0.268  17.641   2.449  1.00  0.00     0.049 A 
ATOM     58  H   UNL     1       0.601  15.637   3.019  1.00  0.00     0.167 HD
ATOM     59  C   UNL     1       0.146  16.375   0.320  1.00  0.00     0.074 A 
ATOM     60  C   UNL     1      -0.062  16.278  -1.110  1.00  0.00     0.031 C 
ATOM     61  C   UNL     1       0.051  17.526   1.029  1.00  0.00     0.037 A 
BRANCH  48  62
ATOM     62  C   UNL     1       0.960  16.832   7.099  1.00  0.00     0.057 A 
ATOM     63  C   UNL     1       2.160  16.975   7.807  1.00  0.00     0.134 A 
ATOM     64  C   UNL     1      -0.204  17.335   7.694  1.00  0.00     0.134 A 
ATOM     65  F   UNL     1       3.309  16.504   7.298  1.00  0.00    -0.206 F 
ATOM     66  C   UNL     1       2.198  17.571   9.069  1.00  0.00     0.040 A 
ATOM     67  C   UNL     1      -0.175  17.955   8.944  1.00  0.00     0.040 A 
ATOM     68  F   UNL     1      -1.387  17.237   7.067  1.00  0.00    -0.206 F 
ATOM     69  C   UNL     1       1.028  18.068   9.638  1.00  0.00     0.006 A 
ENDBRANCH  48  62
BRANCH  49  70
ATOM     70  C   UNL     1       0.518  12.143  -1.693  1.00  0.00     0.057 A 
ATOM     71  C   UNL     1       1.477  12.322  -2.696  1.00  0.00     0.134 A 
ATOM     72  C   UNL     1      -0.547  11.275  -1.964  1.00  0.00     0.134 A 
ATOM     73  F   UNL     1       2.508  13.157  -2.501  1.00  0.00    -0.206 F 
ATOM     74  C   UNL     1       1.377  11.671  -3.926  1.00  0.00     0.040 A 
ATOM     75  C   UNL     1      -0.647  10.600  -3.181  1.00  0.00     0.040 A 
ATOM     76  F   UNL     1      -1.495  11.057  -1.040  1.00  0.00    -0.206 F 
ATOM     77  C   UNL     1       0.315  10.802  -4.169  1.00  0.00     0.006 A 
ENDBRANCH  49  70
BRANCH  61  78
ATOM     78  C   UNL     1      -0.292  18.771   0.267  1.00  0.00     0.057 A 
ATOM     79  C   UNL     1      -1.590  19.008  -0.202  1.00  0.00     0.134 A 
ATOM     80  C   UNL     1       0.673  19.758   0.033  1.00  0.00     0.134 A 
ATOM     81  F   UNL     1      -2.555  18.093  -0.023  1.00  0.00    -0.206 F 
ATOM     82  C   UNL     1      -1.913  20.177  -0.892  1.00  0.00     0.040 A 
ATOM     83  C   UNL     1       0.357  20.941  -0.635  1.00  0.00     0.040 A 
ATOM     84  F   UNL     1       1.933  19.593   0.462  1.00  0.00    -0.206 F 
ATOM     85  C   UNL     1      -0.939  21.151  -1.103  1.00  0.00     0.006 A 
ENDBRANCH  61  78
ENDBRANCH  35  36
ENDBRANCH  27  30
ENDBRANCH  25  26
ENDBRANCH  24  25
ENDBRANCH   1  24
TORSDOF 14
