REMARK SMILES CC(C)(C)OC(=O)[C@]1(C(=O)NCCCNC(=O)c2ccc(-c3c4nc(c(-c5c(F)cccc5F)c5ccc([nH]5)c(-c5c(F)cccc5F)c5nc(c(-c6c(F)cccc6F)c6ccc3[nH]6)C=C5)C=C4)cc2)CC=CC[C@@H]1[NH3+]
REMARK SMILES IDX 12 1 11 2 9 3 10 4 8 6 72 7 76 8 73 9 75 10 74 11 6 12 7 13
REMARK SMILES IDX 5 14 2 15 1 16 3 17 4 18 77 19 13 23 14 24 15 25 16 26 17 28
REMARK SMILES IDX 18 29 19 30 71 31 20 32 70 33 21 34 22 35 23 36 64 37 24 38
REMARK SMILES IDX 69 39 63 40 65 41 25 42 68 43 62 44 61 45 26 47 52 48 35 49
REMARK SMILES IDX 51 50 36 51 39 52 50 53 66 54 37 55 38 56 49 58 67 59 40 60
REMARK SMILES IDX 27 61 28 62 33 63 29 64 30 65 32 66 34 67 31 68 53 69 54 70
REMARK SMILES IDX 59 71 55 72 56 73 58 74 60 75 57 76 41 77 42 78 47 79 43 80
REMARK SMILES IDX 44 81 46 82 48 83 45 84
REMARK H PARENT 11 5 77 20 77 21 77 22 15 27 65 46 39 57
REMARK Flexibility Score: inf
ROOT
ATOM      1  C   UNL     1      -1.028   1.437  -5.528  1.00  0.00     0.117 C 
ENDROOT
BRANCH   1   2
ATOM      2  N   UNL     1      -0.417   1.204  -4.229  1.00  0.00    -0.355 N 
ATOM      3  C   UNL     1       0.558   1.855  -3.540  1.00  0.00     0.244 C 
ATOM      4  O   UNL     1       0.972   1.242  -2.547  1.00  0.00    -0.274 OA
ATOM      5  H   UNL     1      -0.782   0.422  -3.755  1.00  0.00     0.163 HD
BRANCH   3   6
ATOM      6  C   UNL     1       1.183   3.216  -3.967  1.00  0.00     0.201 C 
ATOM      7  C   UNL     1       0.103   4.117  -4.636  1.00  0.00     0.062 C 
ATOM      8  C   UNL     1       1.716   3.865  -2.625  1.00  0.00     0.212 C 
ATOM      9  C   UNL     1       0.100   5.582  -4.377  1.00  0.00    -0.029 C 
ATOM     10  C   UNL     1       1.700   5.406  -2.493  1.00  0.00     0.093 C 
ATOM     11  C   UNL     1       0.808   6.159  -3.412  1.00  0.00    -0.025 C 
BRANCH   6  12
ATOM     12  C   UNL     1       2.210   2.859  -5.051  1.00  0.00     0.328 C 
ATOM     13  O   UNL     1       1.898   2.227  -6.058  1.00  0.00    -0.251 OA
BRANCH  12  14
ATOM     14  O   UNL     1       3.473   3.296  -4.819  1.00  0.00    -0.459 OA
BRANCH  14  15
ATOM     15  C   UNL     1       4.524   3.011  -5.791  1.00  0.00     0.104 C 
ATOM     16  C   UNL     1       5.813   3.551  -5.154  1.00  0.00     0.056 C 
ATOM     17  C   UNL     1       4.261   3.770  -7.097  1.00  0.00     0.056 C 
ATOM     18  C   UNL     1       4.719   1.506  -6.041  1.00  0.00     0.056 C 
ENDBRANCH  14  15
ENDBRANCH  12  14
ENDBRANCH   6  12
BRANCH   8  19
ATOM     19  N   UNL     1       3.038   3.410  -2.135  1.00  0.00    -0.353 N 
ATOM     20  H   UNL     1       3.772   3.796  -2.729  1.00  0.00     0.344 HD
ATOM     21  H   UNL     1       3.079   2.391  -2.162  1.00  0.00     0.344 HD
ATOM     22  H   UNL     1       3.173   3.730  -1.176  1.00  0.00     0.344 HD
ENDBRANCH   8  19
ENDBRANCH   3   6
ENDBRANCH   1   2
BRANCH   1  23
ATOM     23  C   UNL     1      -0.931   0.225  -6.434  1.00  0.00     0.042 C 
BRANCH  23  24
ATOM     24  C   UNL     1      -1.730  -0.963  -5.932  1.00  0.00     0.118 C 
BRANCH  24  25
ATOM     25  N   UNL     1      -3.164  -0.696  -5.885  1.00  0.00    -0.352 N 
ATOM     26  C   UNL     1      -4.177  -1.162  -6.684  1.00  0.00     0.251 C 
ATOM     27  H   UNL     1      -3.449  -0.085  -5.168  1.00  0.00     0.163 HD
ATOM     28  O   UNL     1      -5.294  -0.647  -6.623  1.00  0.00    -0.269 OA
BRANCH  26  29
ATOM     29  C   UNL     1      -3.925  -2.265  -7.633  1.00  0.00     0.039 A 
ATOM     30  C   UNL     1      -4.499  -2.223  -8.905  1.00  0.00     0.014 A 
ATOM     31  C   UNL     1      -3.118  -3.342  -7.267  1.00  0.00     0.014 A 
ATOM     32  C   UNL     1      -4.197  -3.224  -9.831  1.00  0.00     0.010 A 
ATOM     33  C   UNL     1      -2.716  -4.262  -8.225  1.00  0.00     0.010 A 
ATOM     34  C   UNL     1      -3.268  -4.228  -9.512  1.00  0.00    -0.014 A 
BRANCH  34  35
ATOM     35  C   UNL     1      -2.887  -5.280 -10.487  1.00  0.00     0.031 A 
ATOM     36  C   UNL     1      -3.130  -6.729 -10.152  1.00  0.00     0.074 A 
ATOM     37  C   UNL     1      -2.268  -4.942 -11.634  1.00  0.00     0.049 A 
ATOM     38  N   UNL     1      -2.788  -7.802 -10.820  1.00  0.00    -0.248 NA
ATOM     39  C   UNL     1      -3.815  -7.013  -8.879  1.00  0.00     0.031 C 
ATOM     40  C   UNL     1      -1.929  -3.579 -12.049  1.00  0.00     0.029 A 
ATOM     41  N   UNL     1      -1.803  -5.724 -12.662  1.00  0.00    -0.354 N 
ATOM     42  C   UNL     1      -3.201  -8.877 -10.043  1.00  0.00     0.074 A 
ATOM     43  C   UNL     1      -3.750  -8.334  -8.822  1.00  0.00     0.031 C 
ATOM     44  C   UNL     1      -1.345  -3.618 -13.258  1.00  0.00     0.029 A 
ATOM     45  C   UNL     1      -1.224  -5.009 -13.682  1.00  0.00     0.049 A 
ATOM     46  H   UNL     1      -1.878  -6.706 -12.668  1.00  0.00     0.167 HD
ATOM     47  C   UNL     1      -3.162 -10.198 -10.335  1.00  0.00     0.037 A 
ATOM     48  C   UNL     1      -0.655  -5.430 -14.828  1.00  0.00     0.037 A 
ATOM     49  C   UNL     1      -2.646 -10.734 -11.565  1.00  0.00     0.049 A 
ATOM     50  C   UNL     1      -0.613  -6.906 -15.121  1.00  0.00     0.074 A 
ATOM     51  C   UNL     1      -2.601 -12.053 -11.979  1.00  0.00     0.029 A 
ATOM     52  N   UNL     1      -2.090  -9.973 -12.582  1.00  0.00    -0.354 N 
ATOM     53  N   UNL     1      -1.064  -7.907 -14.403  1.00  0.00    -0.248 NA
ATOM     54  C   UNL     1       0.011  -7.310 -16.388  1.00  0.00     0.031 C 
ATOM     55  C   UNL     1      -1.977 -12.095 -13.229  1.00  0.00     0.029 A 
ATOM     56  C   UNL     1      -1.685 -10.798 -13.618  1.00  0.00     0.049 A 
ATOM     57  H   UNL     1      -1.996  -8.993 -12.570  1.00  0.00     0.167 HD
ATOM     58  C   UNL     1      -0.815  -9.052 -15.150  1.00  0.00     0.074 A 
ATOM     59  C   UNL     1      -0.186  -8.620 -16.380  1.00  0.00     0.031 C 
ATOM     60  C   UNL     1      -1.082 -10.346 -14.846  1.00  0.00     0.037 A 
BRANCH  47  61
ATOM     61  C   UNL     1      -3.710 -11.152  -9.313  1.00  0.00     0.057 A 
ATOM     62  C   UNL     1      -5.081 -11.219  -9.027  1.00  0.00     0.134 A 
ATOM     63  C   UNL     1      -2.867 -12.041  -8.635  1.00  0.00     0.134 A 
ATOM     64  F   UNL     1      -5.943 -10.386  -9.629  1.00  0.00    -0.206 F 
ATOM     65  C   UNL     1      -5.589 -12.117  -8.087  1.00  0.00     0.040 A 
ATOM     66  C   UNL     1      -3.367 -12.965  -7.716  1.00  0.00     0.040 A 
ATOM     67  F   UNL     1      -1.545 -12.034  -8.863  1.00  0.00    -0.206 F 
ATOM     68  C   UNL     1      -4.731 -13.000  -7.435  1.00  0.00     0.006 A 
ENDBRANCH  47  61
BRANCH  48  69
ATOM     69  C   UNL     1      -0.099  -4.452 -15.798  1.00  0.00     0.057 A 
ATOM     70  C   UNL     1      -0.686  -4.271 -17.057  1.00  0.00     0.134 A 
ATOM     71  C   UNL     1       1.050  -3.704 -15.512  1.00  0.00     0.134 A 
ATOM     72  F   UNL     1      -1.778  -4.969 -17.399  1.00  0.00    -0.206 F 
ATOM     73  C   UNL     1      -0.133  -3.410 -18.007  1.00  0.00     0.040 A 
ATOM     74  C   UNL     1       1.596  -2.818 -16.441  1.00  0.00     0.040 A 
ATOM     75  F   UNL     1       1.655  -3.822 -14.321  1.00  0.00    -0.206 F 
ATOM     76  C   UNL     1       1.012  -2.679 -17.698  1.00  0.00     0.006 A 
ENDBRANCH  48  69
BRANCH  60  77
ATOM     77  C   UNL     1      -0.752 -11.379 -15.883  1.00  0.00     0.057 A 
ATOM     78  C   UNL     1       0.568 -11.728 -16.193  1.00  0.00     0.134 A 
ATOM     79  C   UNL     1      -1.777 -12.060 -16.554  1.00  0.00     0.134 A 
ATOM     80  F   UNL     1       1.595 -11.105 -15.595  1.00  0.00    -0.206 F 
ATOM     81  C   UNL     1       0.858 -12.698 -17.154  1.00  0.00     0.040 A 
ATOM     82  C   UNL     1      -1.500 -13.053 -17.493  1.00  0.00     0.040 A 
ATOM     83  F   UNL     1      -3.064 -11.782 -16.296  1.00  0.00    -0.206 F 
ATOM     84  C   UNL     1      -0.178 -13.369 -17.801  1.00  0.00     0.006 A 
ENDBRANCH  60  77
ENDBRANCH  34  35
ENDBRANCH  26  29
ENDBRANCH  24  25
ENDBRANCH  23  24
ENDBRANCH   1  23
TORSDOF 14
