REMARK SMILES Cn1ccc(C(=O)NCc2ccc(C(=O)NCCCNC(=O)c3ccc(-c4c5nc(c(-c6c(F)cccc6F)c6ccc([nH]6)c(-c6c(F)cccc6F)c6nc(c(-c7c(F)cccc7F)c7ccc4[nH]7)C=C6)C=C5)cc3)cc2)cc1=O
REMARK SMILES IDX 17 1 16 2 14 3 15 4 13 6 10 7 11 8 78 9 12 10 77 11 9 12
REMARK SMILES IDX 8 13 6 14 7 15 5 17 1 18 2 19 3 20 80 21 4 22 79 23 81 24
REMARK SMILES IDX 18 25 19 26 20 27 21 28 22 30 23 31 24 32 76 33 25 34 75 35
REMARK SMILES IDX 26 36 27 37 28 38 69 39 29 40 74 41 68 42 70 43 30 44 73 45
REMARK SMILES IDX 67 46 66 47 31 49 57 50 40 51 56 52 41 53 44 54 55 55 71 56
REMARK SMILES IDX 42 57 43 58 54 60 72 61 45 62 32 63 33 64 38 65 34 66 35 67
REMARK SMILES IDX 37 68 39 69 36 70 58 71 59 72 64 73 60 74 61 75 63 76 65 77
REMARK SMILES IDX 62 78 46 79 47 80 52 81 48 82 49 83 51 84 53 85 50 86
REMARK H PARENT 16 5 8 16 20 29 70 48 44 59
REMARK Flexibility Score: inf
ROOT
ATOM      1  C   UNL     1       3.416   6.115   5.632  1.00  0.00     0.118 C 
ENDROOT
BRANCH   1   2
ATOM      2  N   UNL     1       2.470   7.148   5.246  1.00  0.00    -0.352 N 
ATOM      3  C   UNL     1       1.692   7.307   4.126  1.00  0.00     0.251 C 
ATOM      4  O   UNL     1       0.875   8.229   4.124  1.00  0.00    -0.269 OA
ATOM      5  H   UNL     1       2.368   7.867   5.911  1.00  0.00     0.163 HD
BRANCH   3   6
ATOM      6  C   UNL     1       1.773   6.415   2.936  1.00  0.00     0.039 A 
ATOM      7  C   UNL     1       1.806   4.801   0.601  1.00  0.00    -0.029 A 
ATOM      8  C   UNL     1       0.636   5.461   0.996  1.00  0.00     0.006 A 
ATOM      9  C   UNL     1       2.963   4.998   1.369  1.00  0.00     0.006 A 
ATOM     10  C   UNL     1       0.620   6.255   2.152  1.00  0.00     0.014 A 
ATOM     11  C   UNL     1       2.949   5.802   2.511  1.00  0.00     0.014 A 
BRANCH   7  12
ATOM     12  C   UNL     1       1.840   3.980  -0.671  1.00  0.00     0.152 C 
BRANCH  12  13
ATOM     13  N   UNL     1       2.850   2.940  -0.605  1.00  0.00    -0.348 N 
ATOM     14  C   UNL     1       2.845   1.639  -0.231  1.00  0.00     0.251 C 
ATOM     15  O   UNL     1       3.948   1.093  -0.124  1.00  0.00    -0.269 OA
ATOM     16  H   UNL     1       3.737   3.251  -0.896  1.00  0.00     0.164 HD
BRANCH  14  17
ATOM     17  C   UNL     1       1.601   0.824  -0.059  1.00  0.00     0.046 A 
ATOM     18  C   UNL     1      -1.729  -1.814   0.076  1.00  0.00     0.153 C 
ATOM     19  N   UNL     1      -0.593  -0.905   0.077  1.00  0.00    -0.319 N 
ATOM     20  C   UNL     1       0.650  -1.407  -0.249  1.00  0.00     0.089 A 
ATOM     21  C   UNL     1      -0.782   0.429   0.421  1.00  0.00     0.251 A 
ATOM     22  C   UNL     1       1.715  -0.604  -0.323  1.00  0.00     0.032 A 
ATOM     23  C   UNL     1       0.426   1.301   0.378  1.00  0.00     0.085 A 
ATOM     24  O   UNL     1      -1.859   0.931   0.733  1.00  0.00    -0.269 OA
ENDBRANCH  14  17
ENDBRANCH  12  13
ENDBRANCH   7  12
ENDBRANCH   3   6
ENDBRANCH   1   2
BRANCH   1  25
ATOM     25  C   UNL     1       4.864   6.571   5.444  1.00  0.00     0.042 C 
BRANCH  25  26
ATOM     26  C   UNL     1       5.340   7.569   6.494  1.00  0.00     0.118 C 
BRANCH  26  27
ATOM     27  N   UNL     1       5.531   6.948   7.796  1.00  0.00    -0.352 N 
ATOM     28  C   UNL     1       6.647   6.894   8.591  1.00  0.00     0.251 C 
ATOM     29  H   UNL     1       4.737   6.496   8.163  1.00  0.00     0.163 HD
ATOM     30  O   UNL     1       6.657   6.141   9.566  1.00  0.00    -0.269 OA
BRANCH  28  31
ATOM     31  C   UNL     1       7.840   7.717   8.294  1.00  0.00     0.039 A 
ATOM     32  C   UNL     1       9.108   7.158   8.490  1.00  0.00     0.014 A 
ATOM     33  C   UNL     1       7.724   9.048   7.884  1.00  0.00     0.014 A 
ATOM     34  C   UNL     1      10.253   7.915   8.233  1.00  0.00     0.010 A 
ATOM     35  C   UNL     1       8.865   9.780   7.562  1.00  0.00     0.010 A 
ATOM     36  C   UNL     1      10.141   9.226   7.745  1.00  0.00    -0.014 A 
BRANCH  36  37
ATOM     37  C   UNL     1      11.343  10.039   7.436  1.00  0.00     0.031 A 
ATOM     38  C   UNL     1      11.645  11.275   8.236  1.00  0.00     0.074 A 
ATOM     39  C   UNL     1      12.128   9.702   6.396  1.00  0.00     0.049 A 
ATOM     40  N   UNL     1      12.604  12.153   8.076  1.00  0.00    -0.248 NA
ATOM     41  C   UNL     1      10.732  11.579   9.349  1.00  0.00     0.031 C 
ATOM     42  C   UNL     1      11.924   8.546   5.522  1.00  0.00     0.029 A 
ATOM     43  N   UNL     1      13.252  10.307   5.892  1.00  0.00    -0.354 N 
ATOM     44  C   UNL     1      12.395  13.122   9.049  1.00  0.00     0.074 A 
ATOM     45  C   UNL     1      11.194  12.749   9.765  1.00  0.00     0.031 C 
ATOM     46  C   UNL     1      12.906   8.508   4.608  1.00  0.00     0.029 A 
ATOM     47  C   UNL     1      13.786   9.656   4.807  1.00  0.00     0.049 A 
ATOM     48  H   UNL     1      13.638  11.128   6.272  1.00  0.00     0.167 HD
ATOM     49  C   UNL     1      13.144  14.215   9.332  1.00  0.00     0.037 A 
ATOM     50  C   UNL     1      14.863   9.954   4.057  1.00  0.00     0.037 A 
ATOM     51  C   UNL     1      14.354  14.568   8.636  1.00  0.00     0.049 A 
ATOM     52  C   UNL     1      15.674  11.175   4.382  1.00  0.00     0.074 A 
ATOM     53  C   UNL     1      15.224  15.613   8.893  1.00  0.00     0.029 A 
ATOM     54  N   UNL     1      14.861  13.885   7.541  1.00  0.00    -0.354 N 
ATOM     55  N   UNL     1      15.501  12.050   5.342  1.00  0.00    -0.248 NA
ATOM     56  C   UNL     1      16.830  11.450   3.517  1.00  0.00     0.031 C 
ATOM     57  C   UNL     1      16.236  15.586   7.927  1.00  0.00     0.029 A 
ATOM     58  C   UNL     1      16.020  14.500   7.094  1.00  0.00     0.049 A 
ATOM     59  H   UNL     1      14.458  13.081   7.140  1.00  0.00     0.167 HD
ATOM     60  C   UNL     1      16.540  12.963   5.218  1.00  0.00     0.074 A 
ATOM     61  C   UNL     1      17.342  12.531   4.090  1.00  0.00     0.031 C 
ATOM     62  C   UNL     1      16.808  14.057   5.972  1.00  0.00     0.037 A 
BRANCH  49  63
ATOM     63  C   UNL     1      12.663  15.108  10.439  1.00  0.00     0.057 A 
ATOM     64  C   UNL     1      12.693  14.708  11.782  1.00  0.00     0.134 A 
ATOM     65  C   UNL     1      12.160  16.385  10.158  1.00  0.00     0.134 A 
ATOM     66  F   UNL     1      13.151  13.492  12.118  1.00  0.00    -0.206 F 
ATOM     67  C   UNL     1      12.205  15.529  12.800  1.00  0.00     0.040 A 
ATOM     68  C   UNL     1      11.695  17.226  11.171  1.00  0.00     0.040 A 
ATOM     69  F   UNL     1      12.109  16.835   8.896  1.00  0.00    -0.206 F 
ATOM     70  C   UNL     1      11.707  16.794  12.496  1.00  0.00     0.006 A 
ENDBRANCH  49  63
BRANCH  50  71
ATOM     71  C   UNL     1      15.260   9.049   2.951  1.00  0.00     0.057 A 
ATOM     72  C   UNL     1      16.385   8.225   3.072  1.00  0.00     0.134 A 
ATOM     73  C   UNL     1      14.521   8.965   1.765  1.00  0.00     0.134 A 
ATOM     74  F   UNL     1      17.140   8.275   4.179  1.00  0.00    -0.206 F 
ATOM     75  C   UNL     1      16.767   7.354   2.051  1.00  0.00     0.040 A 
ATOM     76  C   UNL     1      14.880   8.084   0.744  1.00  0.00     0.040 A 
ATOM     77  F   UNL     1      13.429   9.724   1.592  1.00  0.00    -0.206 F 
ATOM     78  C   UNL     1      16.008   7.277   0.885  1.00  0.00     0.006 A 
ENDBRANCH  50  71
BRANCH  62  79
ATOM     79  C   UNL     1      18.036  14.844   5.622  1.00  0.00     0.057 A 
ATOM     80  C   UNL     1      18.088  15.668   4.492  1.00  0.00     0.134 A 
ATOM     81  C   UNL     1      19.166  14.804   6.449  1.00  0.00     0.134 A 
ATOM     82  F   UNL     1      17.043  15.739   3.653  1.00  0.00    -0.206 F 
ATOM     83  C   UNL     1      19.229  16.411   4.184  1.00  0.00     0.040 A 
ATOM     84  C   UNL     1      20.304  15.560   6.165  1.00  0.00     0.040 A 
ATOM     85  F   UNL     1      19.178  14.039   7.551  1.00  0.00    -0.206 F 
ATOM     86  C   UNL     1      20.339  16.363   5.027  1.00  0.00     0.006 A 
ENDBRANCH  62  79
ENDBRANCH  36  37
ENDBRANCH  28  31
ENDBRANCH  26  27
ENDBRANCH  25  26
ENDBRANCH   1  25
TORSDOF 13
