REMARK SMILES Cc1cc2occ(CC(=O)NCCC(=O)NCCCNC(=O)c3ccc(-c4c5nc(c(-c6c(F)cccc6F)c6ccc([nH]6)c(-c6c(F)cccc6F)c6nc(c(-c7c(F)cccc7F)c7ccc4[nH]7)C=C6)C=C5)cc3)c2cc1C
REMARK SMILES IDX 17 1 16 2 14 3 15 4 13 6 12 7 11 8 9 9 10 10 8 12 7 13 1 14
REMARK SMILES IDX 2 15 3 16 79 17 4 18 78 19 80 20 5 21 77 22 6 23 18 24 19 25
REMARK SMILES IDX 20 26 21 27 22 29 23 30 24 31 76 32 25 33 75 34 26 35 27 36
REMARK SMILES IDX 28 37 69 38 29 39 74 40 68 41 70 42 30 43 73 44 67 45 66 46
REMARK SMILES IDX 31 48 57 49 40 50 56 51 41 52 44 53 55 54 71 55 42 56 43 57
REMARK SMILES IDX 54 59 72 60 45 61 32 62 33 63 38 64 34 65 35 66 37 67 39 68
REMARK SMILES IDX 36 69 58 70 59 71 64 72 60 73 61 74 63 75 65 76 62 77 46 78
REMARK SMILES IDX 47 79 52 80 48 81 49 82 51 83 53 84 50 85
REMARK H PARENT 16 5 11 11 20 28 70 47 44 58
REMARK Flexibility Score: inf
ROOT
ATOM      1  C   UNL     1      -0.516   2.723   4.017  1.00  0.00     0.117 C 
ENDROOT
BRANCH   1   2
ATOM      2  N   UNL     1      -1.401   1.990   4.912  1.00  0.00    -0.356 N 
ATOM      3  C   UNL     1      -2.401   1.105   4.643  1.00  0.00     0.221 C 
ATOM      4  O   UNL     1      -3.070   0.679   5.587  1.00  0.00    -0.275 OA
ATOM      5  H   UNL     1      -1.252   2.163   5.870  1.00  0.00     0.163 HD
BRANCH   3   6
ATOM      6  C   UNL     1      -2.694   0.667   3.227  1.00  0.00     0.121 C 
BRANCH   6   7
ATOM      7  C   UNL     1      -3.833   1.472   2.609  1.00  0.00     0.125 C 
BRANCH   7   8
ATOM      8  N   UNL     1      -3.398   2.777   2.145  1.00  0.00    -0.355 N 
ATOM      9  C   UNL     1      -2.814   3.147   0.970  1.00  0.00     0.224 C 
ATOM     10  O   UNL     1      -2.274   4.256   0.925  1.00  0.00    -0.275 OA
ATOM     11  H   UNL     1      -3.547   3.513   2.782  1.00  0.00     0.163 HD
BRANCH   9  12
ATOM     12  C   UNL     1      -2.936   2.288  -0.273  1.00  0.00     0.139 C 
BRANCH  12  13
ATOM     13  C   UNL     1      -2.271   0.958  -0.217  1.00  0.00     0.008 A 
ATOM     14  C   UNL     1       2.882  -1.506   0.037  1.00  0.00     0.045 C 
ATOM     15  C   UNL     1       1.591  -0.731  -0.008  1.00  0.00    -0.044 A 
ATOM     16  C   UNL     1       0.391  -1.460  -0.070  1.00  0.00     0.051 A 
ATOM     17  C   UNL     1       1.564   0.682  -0.007  1.00  0.00    -0.047 A 
ATOM     18  C   UNL     1      -0.796  -0.739  -0.139  1.00  0.00     0.134 A 
ATOM     19  C   UNL     1       0.327   1.373  -0.062  1.00  0.00     0.016 A 
ATOM     20  C   UNL     1       2.819   1.516   0.035  1.00  0.00     0.044 C 
ATOM     21  O   UNL     1      -2.035  -1.288  -0.229  1.00  0.00    -0.464 OA
ATOM     22  C   UNL     1      -0.876   0.647  -0.135  1.00  0.00     0.024 A 
ATOM     23  C   UNL     1      -2.914  -0.264  -0.303  1.00  0.00     0.200 A 
ENDBRANCH  12  13
ENDBRANCH   9  12
ENDBRANCH   7   8
ENDBRANCH   6   7
ENDBRANCH   3   6
ENDBRANCH   1   2
BRANCH   1  24
ATOM     24  C   UNL     1      -0.843   4.214   3.991  1.00  0.00     0.042 C 
BRANCH  24  25
ATOM     25  C   UNL     1      -0.557   4.944   5.297  1.00  0.00     0.118 C 
BRANCH  25  26
ATOM     26  N   UNL     1       0.852   5.264   5.461  1.00  0.00    -0.352 N 
ATOM     27  C   UNL     1       1.490   6.477   5.435  1.00  0.00     0.251 C 
ATOM     28  H   UNL     1       1.438   4.488   5.615  1.00  0.00     0.163 HD
ATOM     29  O   UNL     1       2.724   6.505   5.394  1.00  0.00    -0.269 OA
BRANCH  27  30
ATOM     30  C   UNL     1       0.736   7.753   5.439  1.00  0.00     0.039 A 
ATOM     31  C   UNL     1       1.203   8.813   4.654  1.00  0.00     0.014 A 
ATOM     32  C   UNL     1      -0.390   7.941   6.246  1.00  0.00     0.014 A 
ATOM     33  C   UNL     1       0.517  10.032   4.639  1.00  0.00     0.010 A 
ATOM     34  C   UNL     1      -1.121   9.126   6.166  1.00  0.00     0.010 A 
ATOM     35  C   UNL     1      -0.668  10.191   5.373  1.00  0.00    -0.014 A 
BRANCH  35  36
ATOM     36  C   UNL     1      -1.430  11.469   5.347  1.00  0.00     0.031 A 
ATOM     37  C   UNL     1      -1.602  12.275   6.607  1.00  0.00     0.074 A 
ATOM     38  C   UNL     1      -2.018  11.879   4.206  1.00  0.00     0.049 A 
ATOM     39  N   UNL     1      -2.296  13.369   6.803  1.00  0.00    -0.248 NA
ATOM     40  C   UNL     1      -0.929  11.770   7.813  1.00  0.00     0.031 C 
ATOM     41  C   UNL     1      -1.970  11.172   2.926  1.00  0.00     0.029 A 
ATOM     42  N   UNL     1      -2.783  12.989   3.944  1.00  0.00    -0.354 N 
ATOM     43  C   UNL     1      -2.163  13.665   8.154  1.00  0.00     0.074 A 
ATOM     44  C   UNL     1      -1.362  12.612   8.739  1.00  0.00     0.031 C 
ATOM     45  C   UNL     1      -2.655  11.876   2.010  1.00  0.00     0.029 A 
ATOM     46  C   UNL     1      -3.220  13.063   2.644  1.00  0.00     0.049 A 
ATOM     47  H   UNL     1      -2.999  13.668   4.624  1.00  0.00     0.167 HD
ATOM     48  C   UNL     1      -2.645  14.728   8.842  1.00  0.00     0.037 A 
ATOM     49  C   UNL     1      -3.993  13.980   2.032  1.00  0.00     0.037 A 
ATOM     50  C   UNL     1      -3.407  15.798   8.256  1.00  0.00     0.049 A 
ATOM     51  C   UNL     1      -4.503  15.159   2.812  1.00  0.00     0.074 A 
ATOM     52  C   UNL     1      -3.881  16.951   8.858  1.00  0.00     0.029 A 
ATOM     53  N   UNL     1      -3.805  15.848   6.928  1.00  0.00    -0.354 N 
ATOM     54  N   UNL     1      -4.320  15.455   4.076  1.00  0.00    -0.248 NA
ATOM     55  C   UNL     1      -5.322  16.135   2.079  1.00  0.00     0.031 C 
ATOM     56  C   UNL     1      -4.594  17.683   7.902  1.00  0.00     0.029 A 
ATOM     57  C   UNL     1      -4.531  17.004   6.696  1.00  0.00     0.049 A 
ATOM     58  H   UNL     1      -3.601  15.163   6.251  1.00  0.00     0.167 HD
ATOM     59  C   UNL     1      -4.979  16.660   4.283  1.00  0.00     0.074 A 
ATOM     60  C   UNL     1      -5.556  17.047   3.013  1.00  0.00     0.031 C 
ATOM     61  C   UNL     1      -5.093  17.381   5.425  1.00  0.00     0.037 A 
BRANCH  48  62
ATOM     62  C   UNL     1      -2.354  14.785  10.314  1.00  0.00     0.057 A 
ATOM     63  C   UNL     1      -1.068  15.050  10.803  1.00  0.00     0.134 A 
ATOM     64  C   UNL     1      -3.377  14.600  11.253  1.00  0.00     0.134 A 
ATOM     65  F   UNL     1      -0.042  15.225   9.957  1.00  0.00    -0.206 F 
ATOM     66  C   UNL     1      -0.803  15.098  12.173  1.00  0.00     0.040 A 
ATOM     67  C   UNL     1      -3.130  14.673  12.625  1.00  0.00     0.040 A 
ATOM     68  F   UNL     1      -4.633  14.351  10.853  1.00  0.00    -0.206 F 
ATOM     69  C   UNL     1      -1.838  14.915  13.088  1.00  0.00     0.006 A 
ENDBRANCH  48  62
BRANCH  49  70
ATOM     70  C   UNL     1      -4.311  13.834   0.590  1.00  0.00     0.057 A 
ATOM     71  C   UNL     1      -3.729  14.677  -0.364  1.00  0.00     0.134 A 
ATOM     72  C   UNL     1      -5.196  12.852   0.131  1.00  0.00     0.134 A 
ATOM     73  F   UNL     1      -2.889  15.650   0.019  1.00  0.00    -0.206 F 
ATOM     74  C   UNL     1      -4.026  14.558  -1.722  1.00  0.00     0.040 A 
ATOM     75  C   UNL     1      -5.484  12.707  -1.227  1.00  0.00     0.040 A 
ATOM     76  F   UNL     1      -5.782  12.010   0.995  1.00  0.00    -0.206 F 
ATOM     77  C   UNL     1      -4.902  13.566  -2.158  1.00  0.00     0.006 A 
ENDBRANCH  49  70
BRANCH  61  78
ATOM     78  C   UNL     1      -5.844  18.677   5.346  1.00  0.00     0.057 A 
ATOM     79  C   UNL     1      -7.240  18.716   5.244  1.00  0.00     0.134 A 
ATOM     80  C   UNL     1      -5.163  19.899   5.415  1.00  0.00     0.134 A 
ATOM     81  F   UNL     1      -7.948  17.579   5.160  1.00  0.00    -0.206 F 
ATOM     82  C   UNL     1      -7.932  19.927   5.194  1.00  0.00     0.040 A 
ATOM     83  C   UNL     1      -5.846  21.116   5.389  1.00  0.00     0.040 A 
ATOM     84  F   UNL     1      -3.826  19.930   5.521  1.00  0.00    -0.206 F 
ATOM     85  C   UNL     1      -7.235  21.131   5.273  1.00  0.00     0.006 A 
ENDBRANCH  61  78
ENDBRANCH  35  36
ENDBRANCH  27  30
ENDBRANCH  25  26
ENDBRANCH  24  25
ENDBRANCH   1  24
TORSDOF 14
