REMARK SMILES Cc1noc(C)c1[C@@H](C)NC(=O)N(CC(=O)NCCCNC(=O)c1ccc(-c2c3nc(c(-c4c(F)cccc4F)c4ccc([nH]4)c(-c4c(F)cccc4F)c4nc(c(-c5c(F)cccc5F)c5ccc2[nH]5)C=C4)C=C3)cc1)C(C)C
REMARK SMILES IDX 18 1 17 2 15 3 16 4 14 6 13 7 11 8 10 9 12 11 8 12 9 13 7 14
REMARK SMILES IDX 1 15 2 16 3 17 4 18 5 19 6 20 78 21 79 22 80 23 19 24 20 25
REMARK SMILES IDX 21 26 22 27 23 29 24 30 25 31 77 32 26 33 76 34 27 35 28 36
REMARK SMILES IDX 29 37 70 38 30 39 75 40 69 41 71 42 31 43 74 44 68 45 67 46
REMARK SMILES IDX 32 48 58 49 41 50 57 51 42 52 45 53 56 54 72 55 43 56 44 57
REMARK SMILES IDX 55 59 73 60 46 61 33 62 34 63 39 64 35 65 36 66 38 67 40 68
REMARK SMILES IDX 37 69 59 70 60 71 65 72 61 73 62 74 64 75 66 76 63 77 47 78
REMARK SMILES IDX 48 79 53 80 49 81 50 82 52 83 54 84 51 85
REMARK H PARENT 17 5 10 10 21 28 71 47 45 58
REMARK Flexibility Score: inf
ROOT
ATOM      1  C   UNL     1       0.534   5.883  -0.660  1.00  0.00     0.117 C 
ENDROOT
BRANCH   1   2
ATOM      2  N   UNL     1       1.952   6.103  -0.510  1.00  0.00    -0.354 N 
ATOM      3  C   UNL     1       2.889   5.298   0.070  1.00  0.00     0.239 C 
ATOM      4  O   UNL     1       4.073   5.553  -0.169  1.00  0.00    -0.273 OA
ATOM      5  H   UNL     1       2.291   6.951  -0.877  1.00  0.00     0.163 HD
BRANCH   3   6
ATOM      6  C   UNL     1       2.511   4.031   0.861  1.00  0.00     0.221 C 
BRANCH   6   7
ATOM      7  N   UNL     1       1.540   4.207   1.943  1.00  0.00    -0.313 N 
BRANCH   7   8
ATOM      8  C   UNL     1       0.261   3.732   2.030  1.00  0.00     0.318 C 
ATOM      9  N   UNL     1      -0.359   2.955   1.129  1.00  0.00    -0.331 N 
ATOM     10  H   UNL     1      -1.252   2.721   1.469  1.00  0.00     0.165 HD
ATOM     11  O   UNL     1      -0.461   4.007   2.996  1.00  0.00    -0.249 OA
BRANCH   9  12
ATOM     12  C   UNL     1      -0.171   2.334  -0.183  1.00  0.00     0.116 C 
ATOM     13  C   UNL     1      -1.274   2.777  -1.155  1.00  0.00     0.036 C 
BRANCH  12  14
ATOM     14  C   UNL     1      -0.118   0.851   0.002  1.00  0.00     0.040 A 
ATOM     15  C   UNL     1      -2.647   0.120   0.150  1.00  0.00     0.071 C 
ATOM     16  C   UNL     1      -1.180  -0.097   0.135  1.00  0.00     0.086 A 
ATOM     17  N   UNL     1      -0.712  -1.345   0.241  1.00  0.00    -0.085 NA
ATOM     18  O   UNL     1       0.659  -1.242   0.204  1.00  0.00    -0.361 OA
ATOM     19  C   UNL     1       1.014   0.060   0.064  1.00  0.00     0.139 A 
ATOM     20  C   UNL     1       2.464   0.325   0.012  1.00  0.00     0.091 C 
ENDBRANCH  12  14
ENDBRANCH   9  12
ENDBRANCH   7   8
BRANCH   7  21
ATOM     21  C   UNL     1       2.100   4.965   3.104  1.00  0.00     0.081 C 
ATOM     22  C   UNL     1       1.483   6.350   3.302  1.00  0.00     0.031 C 
ATOM     23  C   UNL     1       2.103   4.164   4.410  1.00  0.00     0.031 C 
ENDBRANCH   7  21
ENDBRANCH   6   7
ENDBRANCH   3   6
ENDBRANCH   1   2
BRANCH   1  24
ATOM     24  C   UNL     1      -0.349   6.866   0.091  1.00  0.00     0.042 C 
BRANCH  24  25
ATOM     25  C   UNL     1      -0.278   8.283  -0.452  1.00  0.00     0.118 C 
BRANCH  25  26
ATOM     26  N   UNL     1      -0.900   8.398  -1.763  1.00  0.00    -0.352 N 
ATOM     27  C   UNL     1      -1.827   9.302  -2.215  1.00  0.00     0.251 C 
ATOM     28  H   UNL     1      -0.612   7.727  -2.423  1.00  0.00     0.163 HD
ATOM     29  O   UNL     1      -2.376   9.109  -3.296  1.00  0.00    -0.269 OA
BRANCH  27  30
ATOM     30  C   UNL     1      -2.182  10.492  -1.408  1.00  0.00     0.039 A 
ATOM     31  C   UNL     1      -3.511  10.924  -1.406  1.00  0.00     0.014 A 
ATOM     32  C   UNL     1      -1.218  11.205  -0.689  1.00  0.00     0.014 A 
ATOM     33  C   UNL     1      -3.876  12.043  -0.656  1.00  0.00     0.010 A 
ATOM     34  C   UNL     1      -1.599  12.268   0.126  1.00  0.00     0.010 A 
ATOM     35  C   UNL     1      -2.928  12.711   0.136  1.00  0.00    -0.014 A 
BRANCH  35  36
ATOM     36  C   UNL     1      -3.321  13.881   0.961  1.00  0.00     0.031 A 
ATOM     37  C   UNL     1      -2.744  15.243   0.680  1.00  0.00     0.074 A 
ATOM     38  C   UNL     1      -4.175  13.710   1.989  1.00  0.00     0.049 A 
ATOM     39  N   UNL     1      -2.983  16.381   1.282  1.00  0.00    -0.248 NA
ATOM     40  C   UNL     1      -1.748  15.337  -0.399  1.00  0.00     0.031 C 
ATOM     41  C   UNL     1      -4.742  12.427   2.413  1.00  0.00     0.029 A 
ATOM     42  N   UNL     1      -4.715  14.617   2.865  1.00  0.00    -0.354 N 
ATOM     43  C   UNL     1      -2.158  17.316   0.669  1.00  0.00     0.074 A 
ATOM     44  C   UNL     1      -1.374  16.606  -0.317  1.00  0.00     0.031 C 
ATOM     45  C   UNL     1      -5.574  12.635   3.447  1.00  0.00     0.029 A 
ATOM     46  C   UNL     1      -5.580  14.057   3.773  1.00  0.00     0.049 A 
ATOM     47  H   UNL     1      -4.503  15.578   2.844  1.00  0.00     0.167 HD
ATOM     48  C   UNL     1      -2.079  18.650   0.889  1.00  0.00     0.037 A 
ATOM     49  C   UNL     1      -6.304  14.628   4.754  1.00  0.00     0.037 A 
ATOM     50  C   UNL     1      -2.889  19.361   1.843  1.00  0.00     0.049 A 
ATOM     51  C   UNL     1      -6.239  16.118   4.939  1.00  0.00     0.074 A 
ATOM     52  C   UNL     1      -2.944  20.724   2.081  1.00  0.00     0.029 A 
ATOM     53  N   UNL     1      -3.787  18.765   2.715  1.00  0.00    -0.354 N 
ATOM     54  N   UNL     1      -5.525  17.003   4.285  1.00  0.00    -0.248 NA
ATOM     55  C   UNL     1      -7.094  16.692   5.987  1.00  0.00     0.031 C 
ATOM     56  C   UNL     1      -3.847  20.948   3.127  1.00  0.00     0.029 A 
ATOM     57  C   UNL     1      -4.387  19.731   3.507  1.00  0.00     0.049 A 
ATOM     58  H   UNL     1      -3.970  17.799   2.765  1.00  0.00     0.167 HD
ATOM     59  C   UNL     1      -5.861  18.237   4.826  1.00  0.00     0.074 A 
ATOM     60  C   UNL     1      -6.862  17.988   5.843  1.00  0.00     0.031 C 
ATOM     61  C   UNL     1      -5.381  19.466   4.514  1.00  0.00     0.037 A 
BRANCH  48  62
ATOM     62  C   UNL     1      -1.091  19.434   0.076  1.00  0.00     0.057 A 
ATOM     63  C   UNL     1      -1.285  19.676  -1.291  1.00  0.00     0.134 A 
ATOM     64  C   UNL     1       0.041  20.000   0.677  1.00  0.00     0.134 A 
ATOM     65  F   UNL     1      -2.341  19.153  -1.931  1.00  0.00    -0.206 F 
ATOM     66  C   UNL     1      -0.379  20.436  -2.034  1.00  0.00     0.040 A 
ATOM     67  C   UNL     1       0.940  20.782  -0.050  1.00  0.00     0.040 A 
ATOM     68  F   UNL     1       0.284  19.812   1.983  1.00  0.00    -0.206 F 
ATOM     69  C   UNL     1       0.733  20.999  -1.411  1.00  0.00     0.006 A 
ENDBRANCH  48  62
BRANCH  49  70
ATOM     70  C   UNL     1      -7.178  13.795   5.618  1.00  0.00     0.057 A 
ATOM     71  C   UNL     1      -8.573  13.875   5.529  1.00  0.00     0.134 A 
ATOM     72  C   UNL     1      -6.642  12.915   6.564  1.00  0.00     0.134 A 
ATOM     73  F   UNL     1      -9.147  14.713   4.653  1.00  0.00    -0.206 F 
ATOM     74  C   UNL     1      -9.403  13.132   6.369  1.00  0.00     0.040 A 
ATOM     75  C   UNL     1      -7.460  12.145   7.392  1.00  0.00     0.040 A 
ATOM     76  F   UNL     1      -5.313  12.784   6.691  1.00  0.00    -0.206 F 
ATOM     77  C   UNL     1      -8.846  12.260   7.303  1.00  0.00     0.006 A 
ENDBRANCH  49  70
BRANCH  61  78
ATOM     78  C   UNL     1      -5.955  20.630   5.267  1.00  0.00     0.057 A 
ATOM     79  C   UNL     1      -5.663  20.851   6.620  1.00  0.00     0.134 A 
ATOM     80  C   UNL     1      -6.802  21.545   4.630  1.00  0.00     0.134 A 
ATOM     81  F   UNL     1      -4.868  20.004   7.291  1.00  0.00    -0.206 F 
ATOM     82  C   UNL     1      -6.223  21.920   7.320  1.00  0.00     0.040 A 
ATOM     83  C   UNL     1      -7.345  22.634   5.312  1.00  0.00     0.040 A 
ATOM     84  F   UNL     1      -7.112  21.397   3.333  1.00  0.00    -0.206 F 
ATOM     85  C   UNL     1      -7.064  22.817   6.665  1.00  0.00     0.006 A 
ENDBRANCH  61  78
ENDBRANCH  35  36
ENDBRANCH  27  30
ENDBRANCH  25  26
ENDBRANCH  24  25
ENDBRANCH   1  24
TORSDOF 15
