REMARK SMILES CC[C@H](C)CN(CC)C(=O)c1ccc(/C=C/C(=O)NCCCNC(=O)c2ccc(-c3c4nc(c(-c5c(F)cccc5F)c5ccc([nH]5)c(-c5c(F)cccc5F)c5nc(c(-c6c(F)cccc6F)c6ccc3[nH]6)C=C5)C=C4)cc2)cn1
REMARK SMILES IDX 17 1 18 2 19 3 16 5 15 6 14 7 11 8 12 9 81 10 13 11 80 12
REMARK SMILES IDX 9 13 10 14 6 15 5 16 3 17 4 18 2 19 1 20 7 21 8 22 20 23
REMARK SMILES IDX 21 24 22 25 23 26 24 27 25 29 26 30 27 31 79 32 28 33 78 34
REMARK SMILES IDX 29 35 30 36 31 37 72 38 32 39 77 40 71 41 73 42 33 43 76 44
REMARK SMILES IDX 70 45 69 46 34 48 60 49 43 50 59 51 44 52 47 53 58 54 74 55
REMARK SMILES IDX 45 56 46 57 57 59 75 60 48 61 35 62 36 63 41 64 37 65 38 66
REMARK SMILES IDX 40 67 42 68 39 69 61 70 62 71 67 72 63 73 64 74 66 75 68 76
REMARK SMILES IDX 65 77 49 78 50 79 55 80 51 81 52 82 54 83 56 84 53 85
REMARK H PARENT 19 4 23 28 73 47 47 58
REMARK Flexibility Score: inf
ROOT
ATOM      1  C   UNL     1       4.192   7.867  -6.447  1.00  0.00     0.244 C 
ATOM      2  O   UNL     1       4.606   8.791  -5.751  1.00  0.00    -0.270 OA
ATOM      3  N   UNL     1       4.296   7.936  -7.802  1.00  0.00    -0.352 N 
ATOM      4  H   UNL     1       4.617   8.800  -8.147  1.00  0.00     0.163 HD
ENDROOT
BRANCH   1   5
ATOM      5  C   UNL     1       3.669   6.643  -5.801  1.00  0.00     0.072 C 
ATOM      6  C   UNL     1       2.499   6.088  -6.150  1.00  0.00     0.015 C 
BRANCH   6   7
ATOM      7  C   UNL     1       1.932   4.852  -5.597  1.00  0.00    -0.007 A 
ATOM      8  C   UNL     1       0.810   2.551  -4.612  1.00  0.00     0.128 A 
ATOM      9  C   UNL     1       0.313   3.063  -5.799  1.00  0.00     0.035 A 
ATOM     10  N   UNL     1       1.820   3.111  -3.901  1.00  0.00    -0.250 NA
ATOM     11  C   UNL     1       0.900   4.219  -6.303  1.00  0.00     0.012 A 
ATOM     12  C   UNL     1       2.334   4.261  -4.399  1.00  0.00     0.120 A 
BRANCH   8  13
ATOM     13  C   UNL     1       0.178   1.338  -4.044  1.00  0.00     0.272 C 
ATOM     14  O   UNL     1      -0.916   1.470  -3.497  1.00  0.00    -0.267 OA
BRANCH  13  15
ATOM     15  N   UNL     1       0.836   0.111  -4.180  1.00  0.00    -0.337 N 
BRANCH  15  16
ATOM     16  C   UNL     1       0.287  -1.047  -3.474  1.00  0.00     0.123 C 
BRANCH  16  17
ATOM     17  C   UNL     1       0.880  -1.254  -2.057  1.00  0.00     0.005 C 
ATOM     18  C   UNL     1       0.627  -0.046  -1.148  1.00  0.00     0.009 C 
BRANCH  17  19
ATOM     19  C   UNL     1       0.337  -2.588  -1.487  1.00  0.00     0.002 C 
ATOM     20  C   UNL     1       0.145  -2.656   0.021  1.00  0.00     0.004 C 
ENDBRANCH  17  19
ENDBRANCH  16  17
ENDBRANCH  15  16
BRANCH  15  21
ATOM     21  C   UNL     1       1.997  -0.108  -5.046  1.00  0.00     0.116 C 
ATOM     22  C   UNL     1       1.593  -0.179  -6.516  1.00  0.00     0.027 C 
ENDBRANCH  15  21
ENDBRANCH  13  15
ENDBRANCH   8  13
ENDBRANCH   6   7
ENDBRANCH   1   5
BRANCH   3  23
ATOM     23  C   UNL     1       4.011   6.940  -8.823  1.00  0.00     0.118 C 
BRANCH  23  24
ATOM     24  C   UNL     1       2.766   7.301  -9.633  1.00  0.00     0.042 C 
BRANCH  24  25
ATOM     25  C   UNL     1       2.973   8.479 -10.583  1.00  0.00     0.118 C 
BRANCH  25  26
ATOM     26  N   UNL     1       3.880   8.151 -11.673  1.00  0.00    -0.352 N 
ATOM     27  C   UNL     1       3.680   8.175 -13.029  1.00  0.00     0.251 C 
ATOM     28  H   UNL     1       4.780   7.868 -11.393  1.00  0.00     0.163 HD
ATOM     29  O   UNL     1       4.514   7.649 -13.769  1.00  0.00    -0.269 OA
BRANCH  27  30
ATOM     30  C   UNL     1       2.480   8.808 -13.616  1.00  0.00     0.039 A 
ATOM     31  C   UNL     1       1.863   8.191 -14.709  1.00  0.00     0.014 A 
ATOM     32  C   UNL     1       1.990  10.025 -13.136  1.00  0.00     0.014 A 
ATOM     33  C   UNL     1       0.724   8.763 -15.282  1.00  0.00     0.010 A 
ATOM     34  C   UNL     1       0.816  10.561 -13.665  1.00  0.00     0.010 A 
ATOM     35  C   UNL     1       0.173   9.936 -14.744  1.00  0.00    -0.014 A 
BRANCH  35  36
ATOM     36  C   UNL     1      -1.083  10.514 -15.287  1.00  0.00     0.031 A 
ATOM     37  C   UNL     1      -1.080  11.870 -15.937  1.00  0.00     0.074 A 
ATOM     38  C   UNL     1      -2.242   9.846 -15.125  1.00  0.00     0.049 A 
ATOM     39  N   UNL     1      -2.089  12.571 -16.391  1.00  0.00    -0.248 NA
ATOM     40  C   UNL     1       0.224  12.539 -16.071  1.00  0.00     0.031 C 
ATOM     41  C   UNL     1      -2.384   8.546 -14.466  1.00  0.00     0.029 A 
ATOM     42  N   UNL     1      -3.525  10.177 -15.485  1.00  0.00    -0.354 N 
ATOM     43  C   UNL     1      -1.546  13.767 -16.843  1.00  0.00     0.074 A 
ATOM     44  C   UNL     1      -0.125  13.714 -16.574  1.00  0.00     0.031 C 
ATOM     45  C   UNL     1      -3.678   8.187 -14.477  1.00  0.00     0.029 A 
ATOM     46  C   UNL     1      -4.460   9.243 -15.110  1.00  0.00     0.049 A 
ATOM     47  H   UNL     1      -3.753  11.005 -15.967  1.00  0.00     0.167 HD
ATOM     48  C   UNL     1      -2.174  14.808 -17.441  1.00  0.00     0.037 A 
ATOM     49  C   UNL     1      -5.799   9.244 -15.246  1.00  0.00     0.037 A 
ATOM     50  C   UNL     1      -3.582  14.842 -17.739  1.00  0.00     0.049 A 
ATOM     51  C   UNL     1      -6.469  10.405 -15.926  1.00  0.00     0.074 A 
ATOM     52  C   UNL     1      -4.295  15.814 -18.419  1.00  0.00     0.029 A 
ATOM     53  N   UNL     1      -4.492  13.863 -17.371  1.00  0.00    -0.354 N 
ATOM     54  N   UNL     1      -5.931  11.494 -16.420  1.00  0.00    -0.248 NA
ATOM     55  C   UNL     1      -7.929  10.337 -16.072  1.00  0.00     0.031 C 
ATOM     56  C   UNL     1      -5.644  15.445 -18.423  1.00  0.00     0.029 A 
ATOM     57  C   UNL     1      -5.764  14.220 -17.786  1.00  0.00     0.049 A 
ATOM     58  H   UNL     1      -4.267  13.036 -16.886  1.00  0.00     0.167 HD
ATOM     59  C   UNL     1      -6.982  12.228 -16.955  1.00  0.00     0.074 A 
ATOM     60  C   UNL     1      -8.186  11.453 -16.740  1.00  0.00     0.031 C 
ATOM     61  C   UNL     1      -6.952  13.436 -17.567  1.00  0.00     0.037 A 
BRANCH  48  62
ATOM     62  C   UNL     1      -1.343  16.000 -17.818  1.00  0.00     0.057 A 
ATOM     63  C   UNL     1      -0.427  15.959 -18.877  1.00  0.00     0.134 A 
ATOM     64  C   UNL     1      -1.501  17.220 -17.147  1.00  0.00     0.134 A 
ATOM     65  F   UNL     1      -0.222  14.820 -19.555  1.00  0.00    -0.206 F 
ATOM     66  C   UNL     1       0.318  17.082 -19.242  1.00  0.00     0.040 A 
ATOM     67  C   UNL     1      -0.780  18.356 -17.519  1.00  0.00     0.040 A 
ATOM     68  F   UNL     1      -2.367  17.330 -16.129  1.00  0.00    -0.206 F 
ATOM     69  C   UNL     1       0.136  18.288 -18.566  1.00  0.00     0.006 A 
ENDBRANCH  48  62
BRANCH  49  70
ATOM     70  C   UNL     1      -6.598   8.102 -14.735  1.00  0.00     0.057 A 
ATOM     71  C   UNL     1      -7.226   7.210 -15.611  1.00  0.00     0.134 A 
ATOM     72  C   UNL     1      -6.760   7.880 -13.362  1.00  0.00     0.134 A 
ATOM     73  F   UNL     1      -7.123   7.381 -16.937  1.00  0.00    -0.206 F 
ATOM     74  C   UNL     1      -8.003   6.149 -15.142  1.00  0.00     0.040 A 
ATOM     75  C   UNL     1      -7.513   6.810 -12.879  1.00  0.00     0.040 A 
ATOM     76  F   UNL     1      -6.175   8.695 -12.471  1.00  0.00    -0.206 F 
ATOM     77  C   UNL     1      -8.144   5.945 -13.770  1.00  0.00     0.006 A 
ENDBRANCH  49  70
BRANCH  61  78
ATOM     78  C   UNL     1      -8.256  13.981 -18.071  1.00  0.00     0.057 A 
ATOM     79  C   UNL     1      -9.232  14.481 -17.201  1.00  0.00     0.134 A 
ATOM     80  C   UNL     1      -8.520  14.041 -19.445  1.00  0.00     0.134 A 
ATOM     81  F   UNL     1      -9.045  14.439 -15.873  1.00  0.00    -0.206 F 
ATOM     82  C   UNL     1     -10.435  15.003 -17.679  1.00  0.00     0.040 A 
ATOM     83  C   UNL     1      -9.708  14.585 -19.936  1.00  0.00     0.040 A 
ATOM     84  F   UNL     1      -7.623  13.586 -20.333  1.00  0.00    -0.206 F 
ATOM     85  C   UNL     1     -10.672  15.062 -19.051  1.00  0.00     0.006 A 
ENDBRANCH  61  78
ENDBRANCH  35  36
ENDBRANCH  27  30
ENDBRANCH  25  26
ENDBRANCH  24  25
ENDBRANCH  23  24
ENDBRANCH   3  23
TORSDOF 17
