REMARK SMILES COC(=O)c1cc(F)cc(-c2ccc(C(=O)NCCCNC(=O)c3ccc(-c4c5nc(c(-c6c(F)cccc6F)c6ccc([nH]6)c(-c6c(F)cccc6F)c6nc(c(-c7c(F)cccc7F)c7ccc4[nH]7)C=C6)C=C5)cc3)cc2C)c1
REMARK SMILES IDX 18 1 17 2 15 3 16 4 14 6 11 7 12 8 79 9 13 10 78 11 80 12
REMARK SMILES IDX 10 13 5 14 6 15 81 16 7 17 8 18 9 19 3 20 4 21 2 22 1 23
REMARK SMILES IDX 19 24 20 25 21 26 22 27 23 29 24 30 25 31 77 32 26 33 76 34
REMARK SMILES IDX 27 35 28 36 29 37 70 38 30 39 75 40 69 41 71 42 31 43 74 44
REMARK SMILES IDX 68 45 67 46 32 48 58 49 41 50 57 51 42 52 45 53 56 54 72 55
REMARK SMILES IDX 43 56 44 57 55 59 73 60 46 61 33 62 34 63 39 64 35 65 36 66
REMARK SMILES IDX 38 67 40 68 37 69 59 70 60 71 65 72 61 73 62 74 64 75 66 76
REMARK SMILES IDX 63 77 47 78 48 79 53 80 49 81 50 82 52 83 54 84 51 85
REMARK H PARENT 17 5 21 28 71 47 45 58
REMARK Flexibility Score: inf
ROOT
ATOM      1  C   UNL     1       5.545  -8.516   6.204  1.00  0.00     0.118 C 
ENDROOT
BRANCH   1   2
ATOM      2  N   UNL     1       4.643  -9.599   5.877  1.00  0.00    -0.352 N 
ATOM      3  C   UNL     1       3.421  -9.655   5.264  1.00  0.00     0.251 C 
ATOM      4  O   UNL     1       2.942 -10.780   5.109  1.00  0.00    -0.269 OA
ATOM      5  H   UNL     1       4.979 -10.482   6.155  1.00  0.00     0.163 HD
BRANCH   3   6
ATOM      6  C   UNL     1       2.665  -8.470   4.757  1.00  0.00     0.040 A 
ATOM      7  C   UNL     1       1.085  -6.376   3.642  1.00  0.00    -0.015 A 
ATOM      8  C   UNL     1       2.140  -6.113   4.533  1.00  0.00     0.010 A 
ATOM      9  C   UNL     1       0.802  -7.717   3.325  1.00  0.00    -0.042 A 
ATOM     10  C   UNL     1       2.895  -7.143   5.108  1.00  0.00     0.014 A 
ATOM     11  C   UNL     1       1.601  -8.738   3.879  1.00  0.00     0.018 A 
ATOM     12  C   UNL     1      -0.350  -8.142   2.454  1.00  0.00     0.045 C 
BRANCH   7  13
ATOM     13  C   UNL     1       0.326  -5.235   3.115  1.00  0.00    -0.014 A 
ATOM     14  C   UNL     1       0.229  -3.207   1.755  1.00  0.00     0.063 A 
ATOM     15  C   UNL     1      -1.071  -2.962   2.203  1.00  0.00     0.055 A 
ATOM     16  C   UNL     1       0.917  -4.345   2.202  1.00  0.00     0.024 A 
ATOM     17  C   UNL     1      -1.659  -3.851   3.094  1.00  0.00     0.124 A 
ATOM     18  F   UNL     1      -2.905  -3.618   3.527  1.00  0.00    -0.207 F 
ATOM     19  C   UNL     1      -0.978  -4.972   3.556  1.00  0.00     0.048 A 
BRANCH  14  20
ATOM     20  C   UNL     1       0.925  -2.295   0.812  1.00  0.00     0.337 C 
ATOM     21  O   UNL     1       1.897  -2.623   0.155  1.00  0.00    -0.246 OA
BRANCH  20  22
ATOM     22  O   UNL     1       0.354  -1.065   0.843  1.00  0.00    -0.465 OA
ATOM     23  C   UNL     1       0.998  -0.104   0.005  1.00  0.00     0.282 C 
ENDBRANCH  20  22
ENDBRANCH  14  20
ENDBRANCH   7  13
ENDBRANCH   3   6
ENDBRANCH   1   2
BRANCH   1  24
ATOM     24  C   UNL     1       5.404  -8.108   7.675  1.00  0.00     0.042 C 
BRANCH  24  25
ATOM     25  C   UNL     1       6.324  -8.931   8.575  1.00  0.00     0.118 C 
BRANCH  25  26
ATOM     26  N   UNL     1       7.718  -8.631   8.295  1.00  0.00    -0.352 N 
ATOM     27  C   UNL     1       8.861  -8.809   9.018  1.00  0.00     0.251 C 
ATOM     28  H   UNL     1       7.867  -8.219   7.413  1.00  0.00     0.163 HD
ATOM     29  O   UNL     1       9.902  -8.341   8.555  1.00  0.00    -0.269 OA
BRANCH  27  30
ATOM     30  C   UNL     1       8.897  -9.515  10.319  1.00  0.00     0.039 A 
ATOM     31  C   UNL     1       9.964  -9.204  11.173  1.00  0.00     0.014 A 
ATOM     32  C   UNL     1       7.994 -10.514  10.691  1.00  0.00     0.014 A 
ATOM     33  C   UNL     1      10.135  -9.896  12.369  1.00  0.00     0.010 A 
ATOM     34  C   UNL     1       8.121 -11.155  11.924  1.00  0.00     0.010 A 
ATOM     35  C   UNL     1       9.210 -10.874  12.757  1.00  0.00    -0.014 A 
BRANCH  35  36
ATOM     36  C   UNL     1       9.405 -11.625  14.018  1.00  0.00     0.031 A 
ATOM     37  C   UNL     1       9.705 -13.098  13.982  1.00  0.00     0.074 A 
ATOM     38  C   UNL     1       9.319 -10.967  15.189  1.00  0.00     0.049 A 
ATOM     39  N   UNL     1       9.931 -13.916  14.979  1.00  0.00    -0.248 NA
ATOM     40  C   UNL     1       9.742 -13.745  12.659  1.00  0.00     0.031 C 
ATOM     41  C   UNL     1       9.002  -9.544  15.334  1.00  0.00     0.029 A 
ATOM     42  N   UNL     1       9.505 -11.399  16.476  1.00  0.00    -0.354 N 
ATOM     43  C   UNL     1      10.136 -15.165  14.405  1.00  0.00     0.074 A 
ATOM     44  C   UNL     1       9.950 -15.015  12.980  1.00  0.00     0.031 C 
ATOM     45  C   UNL     1       9.059  -9.212  16.632  1.00  0.00     0.029 A 
ATOM     46  C   UNL     1       9.378 -10.402  17.412  1.00  0.00     0.049 A 
ATOM     47  H   UNL     1       9.709 -12.334  16.706  1.00  0.00     0.167 HD
ATOM     48  C   UNL     1      10.479 -16.323  15.014  1.00  0.00     0.037 A 
ATOM     49  C   UNL     1       9.512 -10.447  18.751  1.00  0.00     0.037 A 
ATOM     50  C   UNL     1      10.686 -16.454  16.432  1.00  0.00     0.049 A 
ATOM     51  C   UNL     1       9.880 -11.753  19.397  1.00  0.00     0.074 A 
ATOM     52  C   UNL     1      11.069 -17.576  17.146  1.00  0.00     0.029 A 
ATOM     53  N   UNL     1      10.533 -15.426  17.351  1.00  0.00    -0.354 N 
ATOM     54  N   UNL     1      10.117 -12.915  18.837  1.00  0.00    -0.248 NA
ATOM     55  C   UNL     1      10.008 -11.752  20.860  1.00  0.00     0.031 C 
ATOM     56  C   UNL     1      11.103 -17.239  18.501  1.00  0.00     0.029 A 
ATOM     57  C   UNL     1      10.797 -15.893  18.627  1.00  0.00     0.049 A 
ATOM     58  H   UNL     1      10.274 -14.503  17.129  1.00  0.00     0.167 HD
ATOM     59  C   UNL     1      10.448 -13.776  19.875  1.00  0.00     0.074 A 
ATOM     60  C   UNL     1      10.406 -12.994  21.093  1.00  0.00     0.031 C 
ATOM     61  C   UNL     1      10.754 -15.096  19.826  1.00  0.00     0.037 A 
BRANCH  48  62
ATOM     62  C   UNL     1      10.682 -17.541  14.160  1.00  0.00     0.057 A 
ATOM     63  C   UNL     1       9.809 -18.634  14.249  1.00  0.00     0.134 A 
ATOM     64  C   UNL     1      11.800 -17.675  13.327  1.00  0.00     0.134 A 
ATOM     65  F   UNL     1       8.720 -18.574  15.030  1.00  0.00    -0.206 F 
ATOM     66  C   UNL     1      10.057 -19.824  13.562  1.00  0.00     0.040 A 
ATOM     67  C   UNL     1      12.045 -18.851  12.615  1.00  0.00     0.040 A 
ATOM     68  F   UNL     1      12.667 -16.661  13.185  1.00  0.00    -0.206 F 
ATOM     69  C   UNL     1      11.179 -19.935  12.744  1.00  0.00     0.006 A 
ENDBRANCH  48  62
BRANCH  49  70
ATOM     70  C   UNL     1       9.336  -9.213  19.558  1.00  0.00     0.057 A 
ATOM     71  C   UNL     1       8.089  -8.589  19.683  1.00  0.00     0.134 A 
ATOM     72  C   UNL     1      10.418  -8.626  20.225  1.00  0.00     0.134 A 
ATOM     73  F   UNL     1       7.013  -9.093  19.061  1.00  0.00    -0.206 F 
ATOM     74  C   UNL     1       7.925  -7.424  20.435  1.00  0.00     0.040 A 
ATOM     75  C   UNL     1      10.263  -7.478  21.004  1.00  0.00     0.040 A 
ATOM     76  F   UNL     1      11.636  -9.183  20.155  1.00  0.00    -0.206 F 
ATOM     77  C   UNL     1       9.014  -6.871  21.105  1.00  0.00     0.006 A 
ENDBRANCH  49  70
BRANCH  61  78
ATOM     78  C   UNL     1      11.091 -15.770  21.124  1.00  0.00     0.057 A 
ATOM     79  C   UNL     1      12.393 -16.220  21.378  1.00  0.00     0.134 A 
ATOM     80  C   UNL     1      10.120 -16.012  22.104  1.00  0.00     0.134 A 
ATOM     81  F   UNL     1      13.368 -16.033  20.475  1.00  0.00    -0.206 F 
ATOM     82  C   UNL     1      12.716 -16.888  22.558  1.00  0.00     0.040 A 
ATOM     83  C   UNL     1      10.439 -16.649  23.303  1.00  0.00     0.040 A 
ATOM     84  F   UNL     1       8.856 -15.598  21.926  1.00  0.00    -0.206 F 
ATOM     85  C   UNL     1      11.739 -17.097  23.529  1.00  0.00     0.006 A 
ENDBRANCH  61  78
ENDBRANCH  35  36
ENDBRANCH  27  30
ENDBRANCH  25  26
ENDBRANCH  24  25
ENDBRANCH   1  24
TORSDOF 13
