REMARK SMILES Cc1nc(NC2CCCCCC2)sc1C(=O)NCCCNC(=O)c1ccc(-c2c3nc(c(-c4c(F)cccc4F)c4ccc([nH]4)c(-c4c(F)cccc4F)c4nc(c(-c5c(F)cccc5F)c5ccc2[nH]5)C=C4)C=C3)cc1
REMARK SMILES IDX 15 1 16 2 17 3 14 5 1 6 2 7 3 8 4 9 13 10 5 11 6 13 7 14
REMARK SMILES IDX 8 15 12 17 11 18 10 19 9 20 18 22 19 23 20 24 21 25 22 26
REMARK SMILES IDX 23 28 24 29 25 30 77 31 26 32 76 33 27 34 28 35 29 36 70 37
REMARK SMILES IDX 30 38 75 39 69 40 71 41 31 42 74 43 68 44 67 45 32 47 58 48
REMARK SMILES IDX 41 49 57 50 42 51 45 52 56 53 72 54 43 55 44 56 55 58 73 59
REMARK SMILES IDX 46 60 33 61 34 62 39 63 35 64 36 65 38 66 40 67 37 68 59 69
REMARK SMILES IDX 60 70 65 71 61 72 62 73 64 74 66 75 63 76 47 77 48 78 53 79
REMARK SMILES IDX 49 80 50 81 52 82 54 83 51 84
REMARK H PARENT 17 4 5 12 21 27 71 46 45 57
REMARK Flexibility Score: 80.00
ROOT
ATOM      1  C   UNL     1      -0.246  -2.277  -0.112  1.00  0.00     0.263 C 
ATOM      2  O   UNL     1       0.752  -2.873  -0.536  1.00  0.00    -0.268 OA
ATOM      3  N   UNL     1      -1.303  -3.116   0.139  1.00  0.00    -0.351 N 
ATOM      4  H   UNL     1      -1.112  -4.057  -0.079  1.00  0.00     0.163 HD
ENDROOT
BRANCH   1   5
ATOM      5  C   UNL     1      -0.257  -0.840   0.119  1.00  0.00     0.117 A 
ATOM      6  C   UNL     1      -2.637   0.267  -0.174  1.00  0.00     0.068 C 
ATOM      7  C   UNL     1      -1.191   0.190   0.128  1.00  0.00     0.063 A 
ATOM      8  N   UNL     1      -0.669   1.440   0.383  1.00  0.00    -0.225 NA
ATOM      9  C   UNL     1       0.631   1.448   0.344  1.00  0.00     0.183 A 
ATOM     10  S   UNL     1       1.323  -0.111   0.351  1.00  0.00    -0.092 S 
BRANCH   9  11
ATOM     11  N   UNL     1       1.368   2.573   0.255  1.00  0.00    -0.359 N 
ATOM     12  H   UNL     1       2.332   2.531   0.453  1.00  0.00     0.163 HD
BRANCH  11  13
ATOM     13  C   UNL     1       0.771   3.860  -0.129  1.00  0.00     0.081 C 
BRANCH  13  14
ATOM     14  C   UNL     1       0.190   3.817  -1.560  1.00  0.00     0.025 C 
BRANCH  14  15
ATOM     15  C   UNL     1      -1.325   3.663  -1.718  1.00  0.00     0.002 CG0
ATOM     16  G   UNL     1      -2.118   4.947  -1.516  1.00  0.00     0.000 G0
ENDBRANCH  14  15
ENDBRANCH  13  14
BRANCH  13  17
ATOM     17  C   UNL     1      -0.124   4.415   0.986  1.00  0.00     0.025 C 
BRANCH  17  18
ATOM     18  C   UNL     1      -0.891   5.683   0.616  1.00  0.00     0.002 C 
BRANCH  18  19
ATOM     19  C   UNL     1      -2.227   5.399  -0.066  1.00  0.00     0.000 C 
BRANCH  19  20
ATOM     20  C   UNL     1      -2.118   4.947  -1.516  1.00  0.00     0.000 CG0
ATOM     21  G   UNL     1      -1.325   3.663  -1.718  1.00  0.00     0.000 G0
ENDBRANCH  19  20
ENDBRANCH  18  19
ENDBRANCH  17  18
ENDBRANCH  13  17
ENDBRANCH  11  13
ENDBRANCH   9  11
ENDBRANCH   1   5
BRANCH   3  22
ATOM     22  C   UNL     1      -2.637  -2.909   0.656  1.00  0.00     0.118 C 
BRANCH  22  23
ATOM     23  C   UNL     1      -3.658  -2.908  -0.484  1.00  0.00     0.042 C 
BRANCH  23  24
ATOM     24  C   UNL     1      -4.180  -4.283  -0.861  1.00  0.00     0.118 C 
BRANCH  24  25
ATOM     25  N   UNL     1      -5.169  -4.749   0.097  1.00  0.00    -0.352 N 
ATOM     26  C   UNL     1      -6.514  -4.975  -0.065  1.00  0.00     0.251 C 
ATOM     27  H   UNL     1      -4.821  -4.930   1.000  1.00  0.00     0.163 HD
ATOM     28  O   UNL     1      -7.224  -5.090   0.929  1.00  0.00    -0.269 OA
BRANCH  26  29
ATOM     29  C   UNL     1      -7.117  -5.081  -1.415  1.00  0.00     0.039 A 
ATOM     30  C   UNL     1      -8.421  -4.609  -1.609  1.00  0.00     0.014 A 
ATOM     31  C   UNL     1      -6.444  -5.699  -2.472  1.00  0.00     0.014 A 
ATOM     32  C   UNL     1      -9.027  -4.721  -2.864  1.00  0.00     0.010 A 
ATOM     33  C   UNL     1      -7.015  -5.735  -3.742  1.00  0.00     0.010 A 
ATOM     34  C   UNL     1      -8.319  -5.263  -3.947  1.00  0.00    -0.014 A 
BRANCH  34  35
ATOM     35  C   UNL     1      -8.930  -5.378  -5.295  1.00  0.00     0.031 A 
ATOM     36  C   UNL     1      -9.155  -6.736  -5.906  1.00  0.00     0.074 A 
ATOM     37  C   UNL     1      -9.217  -4.266  -5.997  1.00  0.00     0.049 A 
ATOM     38  N   UNL     1      -9.576  -7.045  -7.106  1.00  0.00    -0.248 NA
ATOM     39  C   UNL     1      -8.834  -7.900  -5.065  1.00  0.00     0.031 C 
ATOM     40  C   UNL     1      -9.007  -2.894  -5.532  1.00  0.00     0.029 A 
ATOM     41  N   UNL     1      -9.733  -4.114  -7.259  1.00  0.00    -0.354 N 
ATOM     42  C   UNL     1      -9.549  -8.432  -7.170  1.00  0.00     0.074 A 
ATOM     43  C   UNL     1      -9.026  -8.905  -5.907  1.00  0.00     0.031 C 
ATOM     44  C   UNL     1      -9.403  -2.040  -6.489  1.00  0.00     0.029 A 
ATOM     45  C   UNL     1      -9.860  -2.802  -7.647  1.00  0.00     0.049 A 
ATOM     46  H   UNL     1      -9.988  -4.872  -7.832  1.00  0.00     0.167 HD
ATOM     47  C   UNL     1      -9.945  -9.241  -8.182  1.00  0.00     0.037 A 
ATOM     48  C   UNL     1     -10.287  -2.274  -8.809  1.00  0.00     0.037 A 
ATOM     49  C   UNL     1     -10.496  -8.769  -9.424  1.00  0.00     0.049 A 
ATOM     50  C   UNL     1     -10.729  -3.192  -9.914  1.00  0.00     0.074 A 
ATOM     51  C   UNL     1     -10.982  -9.508 -10.489  1.00  0.00     0.029 A 
ATOM     52  N   UNL     1     -10.638  -7.432  -9.766  1.00  0.00    -0.354 N 
ATOM     53  N   UNL     1     -10.749  -4.502  -9.941  1.00  0.00    -0.248 NA
ATOM     54  C   UNL     1     -11.214  -2.558 -11.148  1.00  0.00     0.031 C 
ATOM     55  C   UNL     1     -11.386  -8.618 -11.490  1.00  0.00     0.029 A 
ATOM     56  C   UNL     1     -11.190  -7.325 -11.031  1.00  0.00     0.049 A 
ATOM     57  H   UNL     1     -10.384  -6.673  -9.194  1.00  0.00     0.167 HD
ATOM     58  C   UNL     1     -11.270  -4.850 -11.180  1.00  0.00     0.074 A 
ATOM     59  C   UNL     1     -11.565  -3.612 -11.872  1.00  0.00     0.031 C 
ATOM     60  C   UNL     1     -11.483  -6.083 -11.700  1.00  0.00     0.037 A 
BRANCH  47  61
ATOM     61  C   UNL     1      -9.801 -10.722  -7.982  1.00  0.00     0.057 A 
ATOM     62  C   UNL     1     -10.618 -11.429  -7.089  1.00  0.00     0.134 A 
ATOM     63  C   UNL     1      -8.856 -11.455  -8.711  1.00  0.00     0.134 A 
ATOM     64  F   UNL     1     -11.534 -10.784  -6.351  1.00  0.00    -0.206 F 
ATOM     65  C   UNL     1     -10.483 -12.806  -6.910  1.00  0.00     0.040 A 
ATOM     66  C   UNL     1      -8.730 -12.837  -8.559  1.00  0.00     0.040 A 
ATOM     67  F   UNL     1      -8.046 -10.842  -9.587  1.00  0.00    -0.206 F 
ATOM     68  C   UNL     1      -9.540 -13.515  -7.652  1.00  0.00     0.006 A 
ENDBRANCH  47  61
BRANCH  48  69
ATOM     69  C   UNL     1     -10.335  -0.801  -8.979  1.00  0.00     0.057 A 
ATOM     70  C   UNL     1     -11.557  -0.120  -9.020  1.00  0.00     0.134 A 
ATOM     71  C   UNL     1      -9.167  -0.039  -9.100  1.00  0.00     0.134 A 
ATOM     72  F   UNL     1     -12.710  -0.798  -8.926  1.00  0.00    -0.206 F 
ATOM     73  C   UNL     1     -11.617   1.264  -9.190  1.00  0.00     0.040 A 
ATOM     74  C   UNL     1      -9.212   1.348  -9.248  1.00  0.00     0.040 A 
ATOM     75  F   UNL     1      -7.965  -0.632  -9.060  1.00  0.00    -0.206 F 
ATOM     76  C   UNL     1     -10.441   2.003  -9.300  1.00  0.00     0.006 A 
ENDBRANCH  48  69
BRANCH  60  77
ATOM     77  C   UNL     1     -12.093  -6.154 -13.068  1.00  0.00     0.057 A 
ATOM     78  C   UNL     1     -11.359  -5.847 -14.220  1.00  0.00     0.134 A 
ATOM     79  C   UNL     1     -13.418  -6.575 -13.235  1.00  0.00     0.134 A 
ATOM     80  F   UNL     1     -10.089  -5.425 -14.124  1.00  0.00    -0.206 F 
ATOM     81  C   UNL     1     -11.928  -5.940 -15.491  1.00  0.00     0.040 A 
ATOM     82  C   UNL     1     -13.990  -6.694 -14.502  1.00  0.00     0.040 A 
ATOM     83  F   UNL     1     -14.173  -6.891 -12.172  1.00  0.00    -0.206 F 
ATOM     84  C   UNL     1     -13.245  -6.372 -15.634  1.00  0.00     0.006 A 
ENDBRANCH  60  77
ENDBRANCH  34  35
ENDBRANCH  26  29
ENDBRANCH  24  25
ENDBRANCH  23  24
ENDBRANCH  22  23
ENDBRANCH   3  22
TORSDOF 12
