REMARK SMILES C[NH+]1CCN(c2nc3c(cc2F)c(=O)c(C(=O)NCCCNC(=O)c2ccc(-c4c5nc(c(-c6c(F)cccc6F)c6ccc([nH]6)c(-c6c(F)cccc6F)c6nc(c(-c7c(F)cccc7F)c7ccc4[nH]7)C=C6)C=C5)cc2)cn3-c2ccc(F)cc2F)CC1
REMARK SMILES IDX 20 1 19 2 18 3 16 4 17 5 15 7 6 8 7 9 11 10 8 11 10 12 12 13
REMARK SMILES IDX 9 14 80 15 13 16 79 17 14 18 5 19 1 20 2 21 3 22 90 23 4 25
REMARK SMILES IDX 89 26 81 27 82 28 87 29 83 30 86 31 88 32 84 33 85 34 21 35
REMARK SMILES IDX 22 36 23 37 24 39 25 40 26 41 78 42 27 43 77 44 28 45 29 46
REMARK SMILES IDX 30 47 71 48 31 49 76 50 70 51 72 52 32 53 75 54 69 55 68 56
REMARK SMILES IDX 33 58 59 59 42 60 58 61 43 62 46 63 57 64 73 65 44 66 45 67
REMARK SMILES IDX 56 69 74 70 47 71 34 72 35 73 40 74 36 75 37 76 39 77 41 78
REMARK SMILES IDX 38 79 60 80 61 81 66 82 62 83 63 84 65 85 67 86 64 87 48 88
REMARK SMILES IDX 49 89 54 90 50 91 51 92 53 93 55 94 52 95
REMARK H PARENT 18 6 2 24 22 38 72 57 46 68
REMARK Flexibility Score: inf
ROOT
ATOM      1  C   UNL     1      -8.492  -0.611   5.728  1.00  0.00     0.042 C 
ENDROOT
BRANCH   1   2
ATOM      2  C   UNL     1      -8.900  -1.170   4.368  1.00  0.00     0.118 C 
BRANCH   2   3
ATOM      3  N   UNL     1      -9.568  -0.162   3.561  1.00  0.00    -0.352 N 
ATOM      4  C   UNL     1      -9.118   0.679   2.592  1.00  0.00     0.256 C 
ATOM      5  O   UNL     1      -9.958   1.422   2.077  1.00  0.00    -0.269 OA
ATOM      6  H   UNL     1     -10.529  -0.071   3.753  1.00  0.00     0.163 HD
BRANCH   4   7
ATOM      7  C   UNL     1      -7.717   0.676   2.093  1.00  0.00     0.104 A 
ATOM      8  C   UNL     1      -2.916  -0.112   0.638  1.00  0.00     0.167 A 
ATOM      9  N   UNL     1      -3.968   0.543   0.085  1.00  0.00    -0.209 NA
ATOM     10  C   UNL     1      -3.025  -0.728   1.887  1.00  0.00     0.166 A 
ATOM     11  C   UNL     1      -5.152   0.596   0.749  1.00  0.00     0.151 A 
ATOM     12  C   UNL     1      -4.196  -0.619   2.609  1.00  0.00     0.059 A 
ATOM     13  F   UNL     1      -1.984  -1.369   2.440  1.00  0.00    -0.203 F 
ATOM     14  C   UNL     1      -5.263   0.065   2.033  1.00  0.00     0.069 A 
ATOM     15  N   UNL     1      -6.308   1.200   0.153  1.00  0.00    -0.297 N 
ATOM     16  C   UNL     1      -6.487   0.288   2.812  1.00  0.00     0.203 A 
ATOM     17  C   UNL     1      -7.516   1.141   0.846  1.00  0.00     0.111 A 
ATOM     18  O   UNL     1      -6.408   0.187   4.029  1.00  0.00    -0.288 OA
BRANCH   8  19
ATOM     19  N   UNL     1      -1.734  -0.112  -0.053  1.00  0.00    -0.343 N 
ATOM     20  C   UNL     1       2.496   0.106   0.109  1.00  0.00     0.332 C 
ATOM     21  N   UNL     1       1.127   0.018  -0.392  1.00  0.00    -0.334 N 
ATOM     22  C   UNL     1       0.338   1.209   0.006  1.00  0.00     0.283 C 
ATOM     23  C   UNL     1       0.467  -1.204   0.125  1.00  0.00     0.283 C 
ATOM     24  H   UNL     1       1.168  -0.024  -1.411  1.00  0.00     0.347 HD
ATOM     25  C   UNL     1      -1.136   1.150  -0.476  1.00  0.00     0.179 C 
ATOM     26  C   UNL     1      -0.996  -1.332  -0.347  1.00  0.00     0.179 C 
ENDBRANCH   8  19
BRANCH  15  27
ATOM     27  C   UNL     1      -6.276   1.784  -1.150  1.00  0.00     0.083 A 
ATOM     28  C   UNL     1      -5.871   1.033  -2.267  1.00  0.00     0.033 A 
ATOM     29  C   UNL     1      -6.656   3.123  -1.355  1.00  0.00     0.150 A 
ATOM     30  C   UNL     1      -5.853   1.607  -3.540  1.00  0.00     0.041 A 
ATOM     31  C   UNL     1      -6.627   3.705  -2.617  1.00  0.00     0.080 A 
ATOM     32  F   UNL     1      -7.035   3.879  -0.313  1.00  0.00    -0.205 F 
ATOM     33  C   UNL     1      -6.226   2.937  -3.701  1.00  0.00     0.126 A 
ATOM     34  F   UNL     1      -6.197   3.486  -4.922  1.00  0.00    -0.207 F 
ENDBRANCH  15  27
ENDBRANCH   4   7
ENDBRANCH   2   3
ENDBRANCH   1   2
BRANCH   1  35
ATOM     35  C   UNL     1      -9.653  -0.492   6.702  1.00  0.00     0.118 C 
BRANCH  35  36
ATOM     36  N   UNL     1     -10.026  -1.781   7.265  1.00  0.00    -0.352 N 
ATOM     37  C   UNL     1      -9.844  -2.251   8.542  1.00  0.00     0.251 C 
ATOM     38  H   UNL     1     -10.471  -2.402   6.644  1.00  0.00     0.163 HD
ATOM     39  O   UNL     1     -10.013  -3.442   8.791  1.00  0.00    -0.269 OA
BRANCH  37  40
ATOM     40  C   UNL     1      -9.434  -1.324   9.617  1.00  0.00     0.039 A 
ATOM     41  C   UNL     1      -8.412  -1.705  10.490  1.00  0.00     0.014 A 
ATOM     42  C   UNL     1     -10.074  -0.091   9.776  1.00  0.00     0.014 A 
ATOM     43  C   UNL     1      -8.003  -0.829  11.497  1.00  0.00     0.010 A 
ATOM     44  C   UNL     1      -9.616   0.811  10.731  1.00  0.00     0.010 A 
ATOM     45  C   UNL     1      -8.591   0.440  11.614  1.00  0.00    -0.014 A 
BRANCH  45  46
ATOM     46  C   UNL     1      -8.191   1.363  12.703  1.00  0.00     0.031 A 
ATOM     47  C   UNL     1      -9.153   1.657  13.819  1.00  0.00     0.074 A 
ATOM     48  C   UNL     1      -6.980   1.948  12.677  1.00  0.00     0.049 A 
ATOM     49  N   UNL     1      -8.988   2.404  14.880  1.00  0.00    -0.248 NA
ATOM     50  C   UNL     1     -10.488   1.044  13.718  1.00  0.00     0.031 C 
ATOM     51  C   UNL     1      -5.978   1.782  11.622  1.00  0.00     0.029 A 
ATOM     52  N   UNL     1      -6.386   2.804  13.569  1.00  0.00    -0.354 N 
ATOM     53  C   UNL     1     -10.190   2.344  15.573  1.00  0.00     0.074 A 
ATOM     54  C   UNL     1     -11.100   1.550  14.777  1.00  0.00     0.031 C 
ATOM     55  C   UNL     1      -4.883   2.492  11.942  1.00  0.00     0.029 A 
ATOM     56  C   UNL     1      -5.112   3.173  13.213  1.00  0.00     0.049 A 
ATOM     57  H   UNL     1      -6.831   3.123  14.387  1.00  0.00     0.167 HD
ATOM     58  C   UNL     1     -10.501   2.870  16.782  1.00  0.00     0.037 A 
ATOM     59  C   UNL     1      -4.229   3.962  13.852  1.00  0.00     0.037 A 
ATOM     60  C   UNL     1      -9.597   3.662  17.573  1.00  0.00     0.049 A 
ATOM     61  C   UNL     1      -4.606   4.556  15.182  1.00  0.00     0.074 A 
ATOM     62  C   UNL     1      -9.799   4.220  18.822  1.00  0.00     0.029 A 
ATOM     63  N   UNL     1      -8.314   4.014  17.180  1.00  0.00    -0.354 N 
ATOM     64  N   UNL     1      -5.717   4.425  15.866  1.00  0.00    -0.248 NA
ATOM     65  C   UNL     1      -3.592   5.394  15.837  1.00  0.00     0.031 C 
ATOM     66  C   UNL     1      -8.650   4.940  19.170  1.00  0.00     0.029 A 
ATOM     67  C   UNL     1      -7.717   4.794  18.156  1.00  0.00     0.049 A 
ATOM     68  H   UNL     1      -7.890   3.748  16.332  1.00  0.00     0.167 HD
ATOM     69  C   UNL     1      -5.525   5.135  17.044  1.00  0.00     0.074 A 
ATOM     70  C   UNL     1      -4.183   5.678  16.989  1.00  0.00     0.031 C 
ATOM     71  C   UNL     1      -6.379   5.322  18.081  1.00  0.00     0.037 A 
BRANCH  58  72
ATOM     72  C   UNL     1     -11.878   2.591  17.309  1.00  0.00     0.057 A 
ATOM     73  C   UNL     1     -12.838   3.606  17.392  1.00  0.00     0.134 A 
ATOM     74  C   UNL     1     -12.260   1.306  17.720  1.00  0.00     0.134 A 
ATOM     75  F   UNL     1     -12.540   4.859  17.018  1.00  0.00    -0.206 F 
ATOM     76  C   UNL     1     -14.131   3.351  17.856  1.00  0.00     0.040 A 
ATOM     77  C   UNL     1     -13.557   1.032  18.159  1.00  0.00     0.040 A 
ATOM     78  F   UNL     1     -11.393   0.284  17.649  1.00  0.00    -0.206 F 
ATOM     79  C   UNL     1     -14.496   2.059  18.230  1.00  0.00     0.006 A 
ENDBRANCH  58  72
BRANCH  59  80
ATOM     80  C   UNL     1      -2.883   4.207  13.275  1.00  0.00     0.057 A 
ATOM     81  C   UNL     1      -2.705   5.017  12.149  1.00  0.00     0.134 A 
ATOM     82  C   UNL     1      -1.736   3.666  13.869  1.00  0.00     0.134 A 
ATOM     83  F   UNL     1      -3.764   5.561  11.530  1.00  0.00    -0.206 F 
ATOM     84  C   UNL     1      -1.434   5.288  11.638  1.00  0.00     0.040 A 
ATOM     85  C   UNL     1      -0.459   3.947  13.384  1.00  0.00     0.040 A 
ATOM     86  F   UNL     1      -1.843   2.897  14.963  1.00  0.00    -0.206 F 
ATOM     87  C   UNL     1      -0.305   4.761  12.263  1.00  0.00     0.006 A 
ENDBRANCH  59  80
BRANCH  71  88
ATOM     88  C   UNL     1      -5.862   6.115  19.246  1.00  0.00     0.057 A 
ATOM     89  C   UNL     1      -5.577   5.485  20.465  1.00  0.00     0.134 A 
ATOM     90  C   UNL     1      -5.640   7.496  19.164  1.00  0.00     0.134 A 
ATOM     91  F   UNL     1      -5.777   4.167  20.614  1.00  0.00    -0.206 F 
ATOM     92  C   UNL     1      -5.080   6.199  21.555  1.00  0.00     0.040 A 
ATOM     93  C   UNL     1      -5.114   8.215  20.238  1.00  0.00     0.040 A 
ATOM     94  F   UNL     1      -5.878   8.156  18.020  1.00  0.00    -0.206 F 
ATOM     95  C   UNL     1      -4.836   7.566  21.440  1.00  0.00     0.006 A 
ENDBRANCH  71  88
ENDBRANCH  45  46
ENDBRANCH  37  40
ENDBRANCH  35  36
ENDBRANCH   1  35
TORSDOF 12
