REMARK SMILES COC(=O)c1ccccc1N1C(=O)/C(=C\c2ccc(-c3ccc(Cl)c(C(=O)NCCCNC(=O)c4ccc(-c5c6nc(c(-c7c(F)cccc7F)c7ccc([nH]7)c(-c7c(F)cccc7F)c7nc(c(-c8c(F)cccc8F)c8ccc5[nH]8)C=C7)C=C6)cc4)c3)o2)SC1=S
REMARK SMILES IDX 26 1 27 2 28 3 25 5 20 6 21 7 89 8 22 9 23 10 24 11 19 12
REMARK SMILES IDX 16 13 17 14 90 15 18 16 15 17 11 18 12 19 92 20 13 21 14 22
REMARK SMILES IDX 91 23 93 24 10 25 5 26 6 27 7 28 9 29 8 30 3 31 4 32 2 33
REMARK SMILES IDX 1 34 29 35 30 36 31 37 32 38 33 39 34 41 35 42 36 43 88 44
REMARK SMILES IDX 37 45 87 46 38 47 39 48 40 49 81 50 41 51 86 52 80 53 82 54
REMARK SMILES IDX 42 55 85 56 79 57 78 58 43 60 69 61 52 62 68 63 53 64 56 65
REMARK SMILES IDX 67 66 83 67 54 68 55 69 66 71 84 72 57 73 44 74 45 75 50 76
REMARK SMILES IDX 46 77 47 78 49 79 51 80 48 81 70 82 71 83 76 84 72 85 73 86
REMARK SMILES IDX 75 87 77 88 74 89 58 90 59 91 64 92 60 93 61 94 63 95 65 96
REMARK SMILES IDX 62 97
REMARK H PARENT 28 4 32 40 82 59 56 70
REMARK Flexibility Score: inf
ROOT
ATOM      1  C   UNL     1      -5.134  -4.385  -9.861  1.00  0.00     0.252 C 
ATOM      2  O   UNL     1      -5.547  -4.667 -10.983  1.00  0.00    -0.269 OA
ATOM      3  N   UNL     1      -4.441  -5.374  -9.184  1.00  0.00    -0.352 N 
ATOM      4  H   UNL     1      -4.442  -6.236  -9.660  1.00  0.00     0.163 HD
ENDROOT
BRANCH   1   5
ATOM      5  C   UNL     1      -5.399  -3.041  -9.272  1.00  0.00     0.059 A 
ATOM      6  C   UNL     1      -4.769  -1.450  -7.543  1.00  0.00     0.018 A 
ATOM      7  C   UNL     1      -5.965  -0.762  -7.730  1.00  0.00     0.013 A 
ATOM      8  C   UNL     1      -4.440  -2.475  -8.434  1.00  0.00     0.027 A 
ATOM      9  C   UNL     1      -6.847  -1.168  -8.735  1.00  0.00     0.022 A 
ATOM     10  C   UNL     1      -6.595  -2.337  -9.471  1.00  0.00     0.053 A 
ATOM     11  Cl  UNL     1      -7.843  -2.841 -10.554  1.00  0.00    -0.083 Cl
BRANCH   6  12
ATOM     12  C   UNL     1      -3.937  -1.289  -6.359  1.00  0.00     0.134 A 
ATOM     13  C   UNL     1      -3.682  -0.963  -4.178  1.00  0.00     0.128 A 
ATOM     14  C   UNL     1      -2.491  -1.482  -4.674  1.00  0.00     0.051 A 
ATOM     15  O   UNL     1      -4.574  -0.885  -5.221  1.00  0.00    -0.457 OA
ATOM     16  C   UNL     1      -2.639  -1.643  -6.065  1.00  0.00     0.051 A 
BRANCH  13  17
ATOM     17  C   UNL     1      -3.975  -0.550  -2.852  1.00  0.00     0.068 C 
ATOM     18  N   UNL     1      -1.791   2.258  -2.051  1.00  0.00    -0.260 N 
ATOM     19  C   UNL     1      -2.365   1.390  -2.968  1.00  0.00     0.270 C 
ATOM     20  C   UNL     1      -2.283   2.213  -0.759  1.00  0.00     0.152 C 
ATOM     21  O   UNL     1      -2.126   1.364  -4.169  1.00  0.00    -0.268 OA
ATOM     22  C   UNL     1      -3.335   0.485  -2.290  1.00  0.00     0.084 C 
ATOM     23  S   UNL     1      -3.506   0.942  -0.639  1.00  0.00    -0.054 SA
ATOM     24  S   UNL     1      -1.939   3.213   0.535  1.00  0.00    -0.051 S 
BRANCH  18  25
ATOM     25  C   UNL     1      -0.777   3.144  -2.521  1.00  0.00     0.065 A 
ATOM     26  C   UNL     1       0.547   3.147  -2.045  1.00  0.00     0.084 A 
ATOM     27  C   UNL     1       1.488   4.019  -2.624  1.00  0.00     0.018 A 
ATOM     28  C   UNL     1       1.134   4.855  -3.684  1.00  0.00     0.001 A 
ATOM     29  C   UNL     1      -1.111   3.995  -3.595  1.00  0.00     0.028 A 
ATOM     30  C   UNL     1      -0.166   4.840  -4.173  1.00  0.00     0.002 A 
BRANCH  26  31
ATOM     31  C   UNL     1       1.093   2.218  -1.019  1.00  0.00     0.339 C 
ATOM     32  O   UNL     1       2.016   2.506  -0.282  1.00  0.00    -0.246 OA
BRANCH  31  33
ATOM     33  O   UNL     1       0.485   1.004  -1.097  1.00  0.00    -0.465 OA
ATOM     34  C   UNL     1       1.008   0.047  -0.172  1.00  0.00     0.282 C 
ENDBRANCH  31  33
ENDBRANCH  26  31
ENDBRANCH  18  25
ENDBRANCH  13  17
ENDBRANCH   6  12
ENDBRANCH   1   5
BRANCH   3  35
ATOM     35  C   UNL     1      -3.708  -5.425  -7.919  1.00  0.00     0.118 C 
BRANCH  35  36
ATOM     36  C   UNL     1      -4.193  -6.479  -6.937  1.00  0.00     0.042 C 
BRANCH  36  37
ATOM     37  C   UNL     1      -4.003  -7.916  -7.391  1.00  0.00     0.118 C 
BRANCH  37  38
ATOM     38  N   UNL     1      -2.602  -8.288  -7.548  1.00  0.00    -0.352 N 
ATOM     39  C   UNL     1      -1.767  -9.058  -6.773  1.00  0.00     0.251 C 
ATOM     40  H   UNL     1      -2.176  -7.921  -8.356  1.00  0.00     0.163 HD
ATOM     41  O   UNL     1      -0.565  -9.076  -7.027  1.00  0.00    -0.269 OA
BRANCH  39  42
ATOM     42  C   UNL     1      -2.278  -9.843  -5.625  1.00  0.00     0.039 A 
ATOM     43  C   UNL     1      -1.486  -9.954  -4.475  1.00  0.00     0.014 A 
ATOM     44  C   UNL     1      -3.501 -10.509  -5.680  1.00  0.00     0.014 A 
ATOM     45  C   UNL     1      -1.958 -10.657  -3.362  1.00  0.00     0.010 A 
ATOM     46  C   UNL     1      -4.015 -11.123  -4.540  1.00  0.00     0.010 A 
ATOM     47  C   UNL     1      -3.248 -11.208  -3.369  1.00  0.00    -0.014 A 
BRANCH  47  48
ATOM     48  C   UNL     1      -3.821 -11.886  -2.177  1.00  0.00     0.031 A 
ATOM     49  C   UNL     1      -4.230 -13.332  -2.254  1.00  0.00     0.074 A 
ATOM     50  C   UNL     1      -4.062 -11.178  -1.056  1.00  0.00     0.049 A 
ATOM     51  N   UNL     1      -4.870 -14.061  -1.375  1.00  0.00    -0.248 NA
ATOM     52  C   UNL     1      -3.909 -14.044  -3.502  1.00  0.00     0.031 C 
ATOM     53  C   UNL     1      -3.760  -9.757  -0.868  1.00  0.00     0.029 A 
ATOM     54  N   UNL     1      -4.637 -11.554   0.133  1.00  0.00    -0.354 N 
ATOM     55  C   UNL     1      -5.054 -15.301  -1.973  1.00  0.00     0.074 A 
ATOM     56  C   UNL     1      -4.500 -15.213  -3.307  1.00  0.00     0.031 C 
ATOM     57  C   UNL     1      -4.135  -9.387   0.367  1.00  0.00     0.029 A 
ATOM     58  C   UNL     1      -4.742 -10.529   1.043  1.00  0.00     0.049 A 
ATOM     59  H   UNL     1      -4.945 -12.471   0.316  1.00  0.00     0.167 HD
ATOM     60  C   UNL     1      -5.614 -16.419  -1.453  1.00  0.00     0.037 A 
ATOM     61  C   UNL     1      -5.278 -10.509   2.278  1.00  0.00     0.037 A 
ATOM     62  C   UNL     1      -6.124 -16.518  -0.111  1.00  0.00     0.049 A 
ATOM     63  C   UNL     1      -5.877 -11.767   2.841  1.00  0.00     0.074 A 
ATOM     64  C   UNL     1      -6.643 -17.627   0.535  1.00  0.00     0.029 A 
ATOM     65  N   UNL     1      -6.175 -15.467   0.792  1.00  0.00    -0.354 N 
ATOM     66  N   UNL     1      -5.989 -12.949   2.284  1.00  0.00    -0.248 NA
ATOM     67  C   UNL     1      -6.422 -11.690   4.204  1.00  0.00     0.031 C 
ATOM     68  C   UNL     1      -7.041 -17.238   1.819  1.00  0.00     0.029 A 
ATOM     69  C   UNL     1      -6.732 -15.898   1.985  1.00  0.00     0.049 A 
ATOM     70  H   UNL     1      -5.862 -14.551   0.613  1.00  0.00     0.167 HD
ATOM     71  C   UNL     1      -6.591 -13.761   3.236  1.00  0.00     0.074 A 
ATOM     72  C   UNL     1      -6.809 -12.941   4.410  1.00  0.00     0.031 C 
ATOM     73  C   UNL     1      -6.932 -15.070   3.147  1.00  0.00     0.037 A 
BRANCH  60  74
ATOM     74  C   UNL     1      -5.696 -17.630  -2.337  1.00  0.00     0.057 A 
ATOM     75  C   UNL     1      -4.555 -18.359  -2.698  1.00  0.00     0.134 A 
ATOM     76  C   UNL     1      -6.932 -18.090  -2.808  1.00  0.00     0.134 A 
ATOM     77  F   UNL     1      -3.339 -17.965  -2.290  1.00  0.00    -0.206 F 
ATOM     78  C   UNL     1      -4.638 -19.486  -3.518  1.00  0.00     0.040 A 
ATOM     79  C   UNL     1      -7.030 -19.231  -3.606  1.00  0.00     0.040 A 
ATOM     80  F   UNL     1      -8.064 -17.442  -2.494  1.00  0.00    -0.206 F 
ATOM     81  C   UNL     1      -5.880 -19.928  -3.969  1.00  0.00     0.006 A 
ENDBRANCH  60  74
BRANCH  61  82
ATOM     82  C   UNL     1      -5.253  -9.258   3.077  1.00  0.00     0.057 A 
ATOM     83  C   UNL     1      -4.415  -9.135   4.192  1.00  0.00     0.134 A 
ATOM     84  C   UNL     1      -6.061  -8.163   2.753  1.00  0.00     0.134 A 
ATOM     85  F   UNL     1      -3.631 -10.158   4.563  1.00  0.00    -0.206 F 
ATOM     86  C   UNL     1      -4.395  -7.975   4.967  1.00  0.00     0.040 A 
ATOM     87  C   UNL     1      -6.033  -6.987   3.505  1.00  0.00     0.040 A 
ATOM     88  F   UNL     1      -6.878  -8.214   1.691  1.00  0.00    -0.206 F 
ATOM     89  C   UNL     1      -5.203  -6.894   4.620  1.00  0.00     0.006 A 
ENDBRANCH  61  82
BRANCH  73  90
ATOM     90  C   UNL     1      -7.544 -15.704   4.360  1.00  0.00     0.057 A 
ATOM     91  C   UNL     1      -8.863 -15.436   4.747  1.00  0.00     0.134 A 
ATOM     92  C   UNL     1      -6.818 -16.627   5.123  1.00  0.00     0.134 A 
ATOM     93  F   UNL     1      -9.605 -14.551   4.065  1.00  0.00    -0.206 F 
ATOM     94  C   UNL     1      -9.432 -16.051   5.863  1.00  0.00     0.040 A 
ATOM     95  C   UNL     1      -7.384 -17.266   6.226  1.00  0.00     0.040 A 
ATOM     96  F   UNL     1      -5.552 -16.932   4.800  1.00  0.00    -0.206 F 
ATOM     97  C   UNL     1      -8.694 -16.975   6.601  1.00  0.00     0.006 A 
ENDBRANCH  73  90
ENDBRANCH  47  48
ENDBRANCH  39  42
ENDBRANCH  37  38
ENDBRANCH  36  37
ENDBRANCH  35  36
ENDBRANCH   3  35
TORSDOF 15
