REMARK SMILES CC(C)[NH2+][C@@]1(C(=O)NCCCNC(=O)c2ccc(-c3c4nc(c(-c5c(F)cccc5F)c5ccc([nH]5)c(-c5c(F)cccc5F)c5nc(c(-c6c(F)cccc6F)c6ccc3[nH]6)C=C5)C=C4)cc2)CC[C@@H](Sc2ccncc2)C1
REMARK SMILES IDX 10 1 9 2 8 3 6 4 7 5 5 7 69 8 79 9 70 10 71 11 4 12 2 15
REMARK SMILES IDX 1 16 3 17 72 18 73 19 74 20 78 21 75 22 77 23 76 24 11 25
REMARK SMILES IDX 12 26 13 27 14 29 15 30 16 31 68 32 17 33 67 34 18 35 19 36
REMARK SMILES IDX 20 37 61 38 21 39 66 40 60 41 62 42 22 43 65 44 59 45 58 46
REMARK SMILES IDX 23 48 49 49 32 50 48 51 33 52 36 53 47 54 63 55 34 56 35 57
REMARK SMILES IDX 46 59 64 60 37 61 24 62 25 63 30 64 26 65 27 66 29 67 31 68
REMARK SMILES IDX 28 69 50 70 51 71 56 72 52 73 53 74 55 75 57 76 54 77 38 78
REMARK SMILES IDX 39 79 44 80 40 81 41 82 43 83 45 84 42 85
REMARK H PARENT 8 6 4 13 4 14 12 28 62 47 36 58
REMARK Flexibility Score: inf
ROOT
ATOM      1  C   UNL     1      -3.578   3.945  -4.673  1.00  0.00     0.042 C 
ENDROOT
BRANCH   1   2
ATOM      2  C   UNL     1      -3.688   3.943  -3.153  1.00  0.00     0.118 C 
BRANCH   2   3
ATOM      3  N   UNL     1      -3.697   2.599  -2.634  1.00  0.00    -0.351 N 
ATOM      4  C   UNL     1      -2.732   1.791  -2.139  1.00  0.00     0.281 C 
ATOM      5  O   UNL     1      -3.107   0.622  -1.944  1.00  0.00    -0.268 OA
ATOM      6  H   UNL     1      -4.589   2.183  -2.642  1.00  0.00     0.163 HD
BRANCH   4   7
ATOM      7  C   UNL     1      -1.227   2.197  -1.829  1.00  0.00     0.176 C 
ATOM      8  C   UNL     1      -1.112   3.458  -0.952  1.00  0.00     0.080 C 
ATOM      9  C   UNL     1      -0.431   2.509  -3.108  1.00  0.00     0.094 C 
ATOM     10  C   UNL     1      -0.517   4.588  -1.798  1.00  0.00     0.022 C 
ATOM     11  C   UNL     1      -0.273   4.026  -3.195  1.00  0.00     0.058 C 
BRANCH   7  12
ATOM     12  N   UNL     1      -0.746   1.040  -1.019  1.00  0.00    -0.332 N 
ATOM     13  H   UNL     1      -1.030   1.227  -0.057  1.00  0.00     0.347 HD
ATOM     14  H   UNL     1      -1.159   0.248  -1.513  1.00  0.00     0.347 HD
BRANCH  12  15
ATOM     15  C   UNL     1       0.657   0.665  -0.963  1.00  0.00     0.176 C 
ATOM     16  C   UNL     1       0.876  -0.051   0.375  1.00  0.00     0.075 C 
ATOM     17  C   UNL     1       1.071  -0.298  -2.083  1.00  0.00     0.075 C 
ENDBRANCH  12  15
ENDBRANCH   7  12
BRANCH  11  18
ATOM     18  S   UNL     1       1.275   4.567  -4.042  1.00  0.00    -0.122 SA
BRANCH  18  19
ATOM     19  C   UNL     1       2.478   4.497  -2.728  1.00  0.00     0.011 A 
ATOM     20  C   UNL     1       3.008   3.289  -2.288  1.00  0.00     0.035 A 
ATOM     21  C   UNL     1       2.895   5.680  -2.120  1.00  0.00     0.035 A 
ATOM     22  C   UNL     1       3.868   3.305  -1.203  1.00  0.00     0.112 A 
ATOM     23  C   UNL     1       3.769   5.595  -1.051  1.00  0.00     0.112 A 
ATOM     24  N   UNL     1       4.253   4.431  -0.569  1.00  0.00    -0.265 NA
ENDBRANCH  18  19
ENDBRANCH  11  18
ENDBRANCH   4   7
ENDBRANCH   2   3
ENDBRANCH   1   2
BRANCH   1  25
ATOM     25  C   UNL     1      -4.922   3.729  -5.357  1.00  0.00     0.118 C 
BRANCH  25  26
ATOM     26  N   UNL     1      -5.815   4.864  -5.149  1.00  0.00    -0.352 N 
ATOM     27  C   UNL     1      -6.296   5.788  -6.043  1.00  0.00     0.251 C 
ATOM     28  H   UNL     1      -6.122   4.986  -4.222  1.00  0.00     0.163 HD
ATOM     29  O   UNL     1      -6.805   6.824  -5.630  1.00  0.00    -0.269 OA
BRANCH  27  30
ATOM     30  C   UNL     1      -6.199   5.540  -7.496  1.00  0.00     0.039 A 
ATOM     31  C   UNL     1      -5.912   6.607  -8.351  1.00  0.00     0.014 A 
ATOM     32  C   UNL     1      -6.424   4.264  -8.018  1.00  0.00     0.014 A 
ATOM     33  C   UNL     1      -5.787   6.380  -9.723  1.00  0.00     0.010 A 
ATOM     34  C   UNL     1      -6.208   4.021  -9.368  1.00  0.00     0.010 A 
ATOM     35  C   UNL     1      -5.896   5.077 -10.236  1.00  0.00    -0.014 A 
BRANCH  35  36
ATOM     36  C   UNL     1      -5.700   4.788 -11.677  1.00  0.00     0.031 A 
ATOM     37  C   UNL     1      -6.826   4.203 -12.484  1.00  0.00     0.074 A 
ATOM     38  C   UNL     1      -4.486   4.969 -12.232  1.00  0.00     0.049 A 
ATOM     39  N   UNL     1      -6.821   3.768 -13.718  1.00  0.00    -0.248 NA
ATOM     40  C   UNL     1      -8.122   4.055 -11.801  1.00  0.00     0.031 C 
ATOM     41  C   UNL     1      -3.305   5.486 -11.538  1.00  0.00     0.029 A 
ATOM     42  N   UNL     1      -4.040   4.720 -13.505  1.00  0.00    -0.354 N 
ATOM     43  C   UNL     1      -8.100   3.278 -13.950  1.00  0.00     0.074 A 
ATOM     44  C   UNL     1      -8.838   3.416 -12.714  1.00  0.00     0.031 C 
ATOM     45  C   UNL     1      -2.276   5.535 -12.398  1.00  0.00     0.029 A 
ATOM     46  C   UNL     1      -2.709   5.010 -13.688  1.00  0.00     0.049 A 
ATOM     47  H   UNL     1      -4.618   4.367 -14.220  1.00  0.00     0.167 HD
ATOM     48  C   UNL     1      -8.619   2.780 -15.097  1.00  0.00     0.037 A 
ATOM     49  C   UNL     1      -1.925   4.855 -14.771  1.00  0.00     0.037 A 
ATOM     50  C   UNL     1      -7.885   2.674 -16.330  1.00  0.00     0.049 A 
ATOM     51  C   UNL     1      -2.521   4.286 -16.029  1.00  0.00     0.074 A 
ATOM     52  C   UNL     1      -8.336   2.247 -17.567  1.00  0.00     0.029 A 
ATOM     53  N   UNL     1      -6.544   2.995 -16.480  1.00  0.00    -0.354 N 
ATOM     54  N   UNL     1      -3.750   3.891 -16.255  1.00  0.00    -0.248 NA
ATOM     55  C   UNL     1      -1.621   4.142 -17.181  1.00  0.00     0.031 C 
ATOM     56  C   UNL     1      -7.255   2.264 -18.453  1.00  0.00     0.029 A 
ATOM     57  C   UNL     1      -6.144   2.750 -17.782  1.00  0.00     0.049 A 
ATOM     58  H   UNL     1      -5.964   3.345 -15.766  1.00  0.00     0.167 HD
ATOM     59  C   UNL     1      -3.779   3.475 -17.580  1.00  0.00     0.074 A 
ATOM     60  C   UNL     1      -2.447   3.682 -18.110  1.00  0.00     0.031 C 
ATOM     61  C   UNL     1      -4.814   2.968 -18.293  1.00  0.00     0.037 A 
BRANCH  48  62
ATOM     62  C   UNL     1     -10.047   2.318 -15.070  1.00  0.00     0.057 A 
ATOM     63  C   UNL     1     -11.114   3.217 -14.943  1.00  0.00     0.134 A 
ATOM     64  C   UNL     1     -10.362   0.960 -15.205  1.00  0.00     0.134 A 
ATOM     65  F   UNL     1     -10.883   4.531 -14.797  1.00  0.00    -0.206 F 
ATOM     66  C   UNL     1     -12.440   2.781 -14.921  1.00  0.00     0.040 A 
ATOM     67  C   UNL     1     -11.685   0.514 -15.215  1.00  0.00     0.040 A 
ATOM     68  F   UNL     1      -9.391   0.044 -15.338  1.00  0.00    -0.206 F 
ATOM     69  C   UNL     1     -12.729   1.425 -15.064  1.00  0.00     0.006 A 
ENDBRANCH  48  62
BRANCH  49  70
ATOM     70  C   UNL     1      -0.496   5.255 -14.718  1.00  0.00     0.057 A 
ATOM     71  C   UNL     1      -0.030   6.359 -15.442  1.00  0.00     0.134 A 
ATOM     72  C   UNL     1       0.437   4.549 -13.950  1.00  0.00     0.134 A 
ATOM     73  F   UNL     1      -0.872   7.066 -16.209  1.00  0.00    -0.206 F 
ATOM     74  C   UNL     1       1.315   6.734 -15.420  1.00  0.00     0.040 A 
ATOM     75  C   UNL     1       1.779   4.928 -13.897  1.00  0.00     0.040 A 
ATOM     76  F   UNL     1       0.053   3.487 -13.225  1.00  0.00    -0.206 F 
ATOM     77  C   UNL     1       2.223   6.020 -14.641  1.00  0.00     0.006 A 
ENDBRANCH  49  70
BRANCH  61  78
ATOM     78  C   UNL     1      -4.556   2.628 -19.731  1.00  0.00     0.057 A 
ATOM     79  C   UNL     1      -3.793   1.514 -20.101  1.00  0.00     0.134 A 
ATOM     80  C   UNL     1      -5.126   3.394 -20.756  1.00  0.00     0.134 A 
ATOM     81  F   UNL     1      -3.209   0.749 -19.166  1.00  0.00    -0.206 F 
ATOM     82  C   UNL     1      -3.591   1.183 -21.442  1.00  0.00     0.040 A 
ATOM     83  C   UNL     1      -4.955   3.057 -22.099  1.00  0.00     0.040 A 
ATOM     84  F   UNL     1      -5.876   4.468 -20.469  1.00  0.00    -0.206 F 
ATOM     85  C   UNL     1      -4.181   1.951 -22.445  1.00  0.00     0.006 A 
ENDBRANCH  61  78
ENDBRANCH  35  36
ENDBRANCH  27  30
ENDBRANCH  25  26
ENDBRANCH   1  25
TORSDOF 14
