REMARK SMILES CC(C)C[C@H](NC(=O)CNC(=O)[C@@H](NC(=O)OCc1ccccc1)C(C)C)C(=O)N[C@@H](C)C(=O)NCCCNC(=O)c1ccc(-c2c3nc(c(-c4c(F)cccc4F)c4ccc([nH]4)c(-c4c(F)cccc4F)c4nc(c(-c5c(F)cccc5F)c5ccc2[nH]5)C=C4)C=C3)cc1
REMARK SMILES IDX 28 1 29 2 30 3 5 5 4 6 2 7 1 8 3 9 6 10 7 11 8 13 9 14 10 15
REMARK SMILES IDX 11 16 12 18 13 19 14 20 15 21 16 23 17 24 18 25 19 26 20 27
REMARK SMILES IDX 24 28 21 29 23 30 22 31 25 32 26 33 27 34 31 35 32 36 33 37
REMARK SMILES IDX 34 38 35 39 36 41 37 42 38 43 39 44 40 45 41 47 42 48 43 49
REMARK SMILES IDX 95 50 44 51 94 52 45 53 46 54 47 55 88 56 48 57 93 58 87 59
REMARK SMILES IDX 89 60 49 61 92 62 86 63 85 64 50 66 76 67 59 68 75 69 60 70
REMARK SMILES IDX 63 71 74 72 90 73 61 74 62 75 73 77 91 78 64 79 51 80 52 81
REMARK SMILES IDX 57 82 53 83 54 84 56 85 58 86 55 87 77 88 78 89 83 90 79 91
REMARK SMILES IDX 80 92 82 93 84 94 81 95 65 96 66 97 71 98 67 99 68 100
REMARK SMILES IDX 70 101 72 102 69 103
REMARK H PARENT 30 4 6 12 10 17 14 22 35 40 39 46 89 65 63 76
REMARK Flexibility Score: inf
ROOT
ATOM      1  C   UNL     1      -2.700  -1.855   0.270  1.00  0.00     0.243 C 
ATOM      2  O   UNL     1      -2.813  -1.586  -0.935  1.00  0.00    -0.273 OA
ATOM      3  N   UNL     1      -3.901  -1.908   0.986  1.00  0.00    -0.343 N 
ATOM      4  H   UNL     1      -4.660  -1.575   0.455  1.00  0.00     0.164 HD
ENDROOT
BRANCH   1   5
ATOM      5  C   UNL     1      -1.216  -2.000   0.900  1.00  0.00     0.171 C 
BRANCH   5   6
ATOM      6  C   UNL     1      -0.004  -2.810   0.228  1.00  0.00     0.038 C 
BRANCH   6   7
ATOM      7  C   UNL     1       0.832  -3.950   1.009  1.00  0.00    -0.015 C 
ATOM      8  C   UNL     1       0.579  -5.428   0.625  1.00  0.00     0.007 C 
ATOM      9  C   UNL     1       2.353  -3.835   0.958  1.00  0.00     0.007 C 
ENDBRANCH   6   7
ENDBRANCH   5   6
BRANCH   5  10
ATOM     10  N   UNL     1      -1.296  -2.374   2.257  1.00  0.00    -0.343 N 
ATOM     11  C   UNL     1      -1.565  -3.657   2.628  1.00  0.00     0.240 C 
ATOM     12  H   UNL     1      -1.155  -1.692   2.952  1.00  0.00     0.164 HD
ATOM     13  O   UNL     1      -1.364  -3.937   3.811  1.00  0.00    -0.273 OA
BRANCH  11  14
ATOM     14  C   UNL     1      -2.077  -4.742   1.572  1.00  0.00     0.216 C 
BRANCH  14  15
ATOM     15  N   UNL     1      -2.610  -4.591   0.144  1.00  0.00    -0.345 N 
ATOM     16  C   UNL     1      -2.501  -4.675  -1.208  1.00  0.00     0.243 C 
ATOM     17  H   UNL     1      -3.523  -4.249   0.278  1.00  0.00     0.164 HD
ATOM     18  O   UNL     1      -3.651  -4.538  -1.695  1.00  0.00    -0.273 OA
BRANCH  16  19
ATOM     19  C   UNL     1      -1.320  -4.827  -2.346  1.00  0.00     0.177 C 
BRANCH  19  20
ATOM     20  N   UNL     1      -0.668  -3.579  -2.837  1.00  0.00    -0.309 N 
ATOM     21  C   UNL     1       0.623  -3.110  -2.877  1.00  0.00     0.408 C 
ATOM     22  H   UNL     1      -1.312  -2.943  -3.224  1.00  0.00     0.167 HD
ATOM     23  O   UNL     1       0.846  -1.953  -3.198  1.00  0.00    -0.225 OA
BRANCH  21  24
ATOM     24  O   UNL     1       1.575  -3.989  -2.474  1.00  0.00    -0.445 OA
BRANCH  24  25
ATOM     25  C   UNL     1       2.876  -3.425  -2.202  1.00  0.00     0.270 C 
BRANCH  25  26
ATOM     26  C   UNL     1       3.750  -2.989  -3.347  1.00  0.00    -0.011 A 
ATOM     27  C   UNL     1       4.616  -1.895  -3.166  1.00  0.00     0.007 A 
ATOM     28  C   UNL     1       3.815  -3.719  -4.535  1.00  0.00     0.007 A 
ATOM     29  C   UNL     1       5.488  -1.504  -4.180  1.00  0.00     0.000 A 
ATOM     30  C   UNL     1       4.689  -3.325  -5.549  1.00  0.00     0.000 A 
ATOM     31  C   UNL     1       5.516  -2.214  -5.376  1.00  0.00     0.000 A 
ENDBRANCH  25  26
ENDBRANCH  24  25
ENDBRANCH  21  24
ENDBRANCH  19  20
BRANCH  19  32
ATOM     32  C   UNL     1      -0.510  -6.140  -2.506  1.00  0.00     0.015 C 
ATOM     33  C   UNL     1      -1.408  -7.359  -2.275  1.00  0.00     0.010 C 
ATOM     34  C   UNL     1       0.130  -6.305  -3.904  1.00  0.00     0.010 C 
ENDBRANCH  19  32
ENDBRANCH  16  19
ENDBRANCH  14  15
ENDBRANCH  11  14
ENDBRANCH   5  10
ENDBRANCH   1   5
BRANCH   3  35
ATOM     35  C   UNL     1      -4.322  -2.344   2.356  1.00  0.00     0.168 C 
ATOM     36  C   UNL     1      -5.207  -1.373   3.128  1.00  0.00     0.041 C 
BRANCH  35  37
ATOM     37  C   UNL     1      -4.975  -3.751   2.419  1.00  0.00     0.242 C 
ATOM     38  O   UNL     1      -4.832  -4.492   3.394  1.00  0.00    -0.273 OA
ATOM     39  N   UNL     1      -5.792  -4.198   1.418  1.00  0.00    -0.354 N 
ATOM     40  H   UNL     1      -5.502  -4.969   0.878  1.00  0.00     0.163 HD
BRANCH  39  41
ATOM     41  C   UNL     1      -7.071  -3.579   1.121  1.00  0.00     0.117 C 
BRANCH  41  42
ATOM     42  C   UNL     1      -7.640  -3.957  -0.239  1.00  0.00     0.042 C 
BRANCH  42  43
ATOM     43  C   UNL     1      -7.633  -5.451  -0.551  1.00  0.00     0.118 C 
BRANCH  43  44
ATOM     44  N   UNL     1      -8.365  -6.257   0.421  1.00  0.00    -0.352 N 
ATOM     45  C   UNL     1      -9.695  -6.594   0.491  1.00  0.00     0.251 C 
ATOM     46  H   UNL     1      -7.812  -6.620   1.150  1.00  0.00     0.163 HD
ATOM     47  O   UNL     1     -10.137  -7.132   1.502  1.00  0.00    -0.269 OA
BRANCH  45  48
ATOM     48  C   UNL     1     -10.605  -6.281  -0.627  1.00  0.00     0.039 A 
ATOM     49  C   UNL     1     -11.852  -5.710  -0.353  1.00  0.00     0.014 A 
ATOM     50  C   UNL     1     -10.240  -6.563  -1.942  1.00  0.00     0.014 A 
ATOM     51  C   UNL     1     -12.688  -5.333  -1.407  1.00  0.00     0.010 A 
ATOM     52  C   UNL     1     -11.027  -6.105  -2.990  1.00  0.00     0.010 A 
ATOM     53  C   UNL     1     -12.258  -5.482  -2.735  1.00  0.00    -0.014 A 
BRANCH  53  54
ATOM     54  C   UNL     1     -13.065  -4.992  -3.881  1.00  0.00     0.031 A 
ATOM     55  C   UNL     1     -13.546  -5.959  -4.927  1.00  0.00     0.074 A 
ATOM     56  C   UNL     1     -13.267  -3.669  -4.034  1.00  0.00     0.049 A 
ATOM     57  N   UNL     1     -14.134  -5.716  -6.070  1.00  0.00    -0.248 NA
ATOM     58  C   UNL     1     -13.297  -7.388  -4.673  1.00  0.00     0.031 C 
ATOM     59  C   UNL     1     -12.803  -2.627  -3.115  1.00  0.00     0.029 A 
ATOM     60  N   UNL     1     -13.900  -2.971  -5.032  1.00  0.00    -0.354 N 
ATOM     61  C   UNL     1     -14.292  -6.953  -6.683  1.00  0.00     0.074 A 
ATOM     62  C   UNL     1     -13.701  -7.940  -5.808  1.00  0.00     0.031 C 
ATOM     63  C   UNL     1     -13.186  -1.427  -3.580  1.00  0.00     0.029 A 
ATOM     64  C   UNL     1     -13.881  -1.609  -4.850  1.00  0.00     0.049 A 
ATOM     65  H   UNL     1     -14.327  -3.405  -5.805  1.00  0.00     0.167 HD
ATOM     66  C   UNL     1     -14.894  -7.240  -7.861  1.00  0.00     0.037 A 
ATOM     67  C   UNL     1     -14.359  -0.619  -5.626  1.00  0.00     0.037 A 
ATOM     68  C   UNL     1     -15.528  -6.260  -8.702  1.00  0.00     0.049 A 
ATOM     69  C   UNL     1     -15.035  -0.969  -6.923  1.00  0.00     0.074 A 
ATOM     70  C   UNL     1     -16.252  -6.460  -9.864  1.00  0.00     0.029 A 
ATOM     71  N   UNL     1     -15.514  -4.894  -8.467  1.00  0.00    -0.354 N 
ATOM     72  N   UNL     1     -15.248  -2.149  -7.452  1.00  0.00    -0.248 NA
ATOM     73  C   UNL     1     -15.536   0.152  -7.732  1.00  0.00     0.031 C 
ATOM     74  C   UNL     1     -16.642  -5.210 -10.354  1.00  0.00     0.029 A 
ATOM     75  C   UNL     1     -16.196  -4.236  -9.476  1.00  0.00     0.049 A 
ATOM     76  H   UNL     1     -15.083  -4.457  -7.697  1.00  0.00     0.167 HD
ATOM     77  C   UNL     1     -15.930  -1.916  -8.639  1.00  0.00     0.074 A 
ATOM     78  C   UNL     1     -16.106  -0.483  -8.746  1.00  0.00     0.031 C 
ATOM     79  C   UNL     1     -16.371  -2.809  -9.558  1.00  0.00     0.037 A 
BRANCH  66  80
ATOM     80  C   UNL     1     -14.904  -8.673  -8.307  1.00  0.00     0.057 A 
ATOM     81  C   UNL     1     -15.690  -9.642  -7.670  1.00  0.00     0.134 A 
ATOM     82  C   UNL     1     -14.149  -9.080  -9.415  1.00  0.00     0.134 A 
ATOM     83  F   UNL     1     -16.427  -9.320  -6.597  1.00  0.00    -0.206 F 
ATOM     84  C   UNL     1     -15.705 -10.969  -8.102  1.00  0.00     0.040 A 
ATOM     85  C   UNL     1     -14.176 -10.399  -9.872  1.00  0.00     0.040 A 
ATOM     86  F   UNL     1     -13.378  -8.202 -10.075  1.00  0.00    -0.206 F 
ATOM     87  C   UNL     1     -14.952 -11.349  -9.211  1.00  0.00     0.006 A 
ENDBRANCH  66  80
BRANCH  67  88
ATOM     88  C   UNL     1     -14.239   0.796  -5.194  1.00  0.00     0.057 A 
ATOM     89  C   UNL     1     -15.368   1.524  -4.801  1.00  0.00     0.134 A 
ATOM     90  C   UNL     1     -13.006   1.459  -5.176  1.00  0.00     0.134 A 
ATOM     91  F   UNL     1     -16.579   0.948  -4.816  1.00  0.00    -0.206 F 
ATOM     92  C   UNL     1     -15.281   2.865  -4.426  1.00  0.00     0.040 A 
ATOM     93  C   UNL     1     -12.900   2.794  -4.780  1.00  0.00     0.040 A 
ATOM     94  F   UNL     1     -11.885   0.815  -5.533  1.00  0.00    -0.206 F 
ATOM     95  C   UNL     1     -14.042   3.503  -4.412  1.00  0.00     0.006 A 
ENDBRANCH  67  88
BRANCH  79  96
ATOM     96  C   UNL     1     -17.114  -2.265 -10.740  1.00  0.00     0.057 A 
ATOM     97  C   UNL     1     -16.457  -1.597 -11.780  1.00  0.00     0.134 A 
ATOM     98  C   UNL     1     -18.496  -2.458 -10.862  1.00  0.00     0.134 A 
ATOM     99  F   UNL     1     -15.136  -1.369 -11.714  1.00  0.00    -0.206 F 
ATOM    100  C   UNL     1     -17.151  -1.124 -12.894  1.00  0.00     0.040 A 
ATOM    101  C   UNL     1     -19.197  -2.012 -11.983  1.00  0.00     0.040 A 
ATOM    102  F   UNL     1     -19.182  -3.098  -9.903  1.00  0.00    -0.206 F 
ATOM    103  C   UNL     1     -18.524  -1.339 -13.001  1.00  0.00     0.006 A 
ENDBRANCH  79  96
ENDBRANCH  53  54
ENDBRANCH  45  48
ENDBRANCH  43  44
ENDBRANCH  42  43
ENDBRANCH  41  42
ENDBRANCH  39  41
ENDBRANCH  35  37
ENDBRANCH   3  35
TORSDOF 23
