REMARK SMILES CC(C)[C@H](NC(=O)[C@H](C)NC(=O)C[NH3+])C(=O)NCCCNC(=O)c1ccc(-c2c3nc(c(-c4c(F)cccc4F)c4ccc([nH]4)c(-c4c(F)cccc4F)c4nc(c(-c5c(F)cccc5F)c5ccc2[nH]5)C=C4)C=C3)cc1
REMARK SMILES IDX 15 1 16 2 17 3 4 5 2 6 1 7 3 8 5 9 6 10 7 12 8 13 9 14 10 15
REMARK SMILES IDX 11 16 12 18 13 19 14 20 18 24 19 25 20 26 21 27 22 28 23 30
REMARK SMILES IDX 24 31 25 32 77 33 26 34 76 35 27 36 28 37 29 38 70 39 30 40
REMARK SMILES IDX 75 41 69 42 71 43 31 44 74 45 68 46 67 47 32 49 58 50 41 51
REMARK SMILES IDX 57 52 42 53 45 54 56 55 72 56 43 57 44 58 55 60 73 61 46 62
REMARK SMILES IDX 33 63 34 64 39 65 35 66 36 67 38 68 40 69 37 70 59 71 60 72
REMARK SMILES IDX 65 73 61 74 62 75 64 76 66 77 63 78 47 79 48 80 53 81 49 82
REMARK SMILES IDX 50 83 52 84 54 85 51 86
REMARK H PARENT 17 4 5 11 10 17 14 21 14 22 14 23 21 29 71 48 45 59
REMARK Flexibility Score: inf
ROOT
ATOM      1  C   UNL     1      -3.551  -3.155   3.698  1.00  0.00     0.242 C 
ATOM      2  O   UNL     1      -3.911  -1.983   3.561  1.00  0.00    -0.273 OA
ATOM      3  N   UNL     1      -3.837  -4.033   2.691  1.00  0.00    -0.354 N 
ATOM      4  H   UNL     1      -4.585  -3.779   2.103  1.00  0.00     0.163 HD
ENDROOT
BRANCH   1   5
ATOM      5  C   UNL     1      -2.655  -3.569   4.886  1.00  0.00     0.173 C 
BRANCH   5   6
ATOM      6  C   UNL     1      -1.170  -3.533   4.419  1.00  0.00     0.015 C 
ATOM      7  C   UNL     1      -0.520  -2.222   4.879  1.00  0.00     0.010 C 
ATOM      8  C   UNL     1      -0.304  -4.712   4.864  1.00  0.00     0.010 C 
ENDBRANCH   5   6
BRANCH   5   9
ATOM      9  N   UNL     1      -3.118  -4.830   5.464  1.00  0.00    -0.342 N 
ATOM     10  C   UNL     1      -4.129  -5.033   6.366  1.00  0.00     0.242 C 
ATOM     11  H   UNL     1      -2.640  -5.638   5.168  1.00  0.00     0.164 HD
ATOM     12  O   UNL     1      -4.391  -6.203   6.655  1.00  0.00    -0.273 OA
BRANCH  10  13
ATOM     13  C   UNL     1      -4.864  -3.830   7.010  1.00  0.00     0.168 C 
ATOM     14  C   UNL     1      -5.821  -4.308   8.105  1.00  0.00     0.041 C 
BRANCH  13  15
ATOM     15  N   UNL     1      -5.644  -3.096   6.014  1.00  0.00    -0.340 N 
ATOM     16  C   UNL     1      -5.817  -1.744   5.904  1.00  0.00     0.275 C 
ATOM     17  H   UNL     1      -6.102  -3.645   5.337  1.00  0.00     0.164 HD
ATOM     18  O   UNL     1      -6.755  -1.321   5.226  1.00  0.00    -0.268 OA
BRANCH  16  19
ATOM     19  C   UNL     1      -4.849  -0.793   6.614  1.00  0.00     0.360 C 
BRANCH  19  20
ATOM     20  N   UNL     1      -5.141  -0.725   8.053  1.00  0.00    -0.350 N 
ATOM     21  H   UNL     1      -6.089  -0.375   8.191  1.00  0.00     0.344 HD
ATOM     22  H   UNL     1      -4.477  -0.095   8.504  1.00  0.00     0.344 HD
ATOM     23  H   UNL     1      -5.058  -1.655   8.461  1.00  0.00     0.344 HD
ENDBRANCH  19  20
ENDBRANCH  16  19
ENDBRANCH  13  15
ENDBRANCH  10  13
ENDBRANCH   5   9
ENDBRANCH   1   5
BRANCH   3  24
ATOM     24  C   UNL     1      -3.188  -5.290   2.373  1.00  0.00     0.117 C 
BRANCH  24  25
ATOM     25  C   UNL     1      -4.117  -6.488   2.445  1.00  0.00     0.042 C 
BRANCH  25  26
ATOM     26  C   UNL     1      -5.231  -6.457   1.409  1.00  0.00     0.118 C 
BRANCH  26  27
ATOM     27  N   UNL     1      -4.724  -6.399   0.041  1.00  0.00    -0.352 N 
ATOM     28  C   UNL     1      -4.798  -7.315  -0.977  1.00  0.00     0.251 C 
ATOM     29  H   UNL     1      -4.251  -5.567  -0.188  1.00  0.00     0.163 HD
ATOM     30  O   UNL     1      -4.115  -7.158  -1.987  1.00  0.00    -0.269 OA
BRANCH  28  31
ATOM     31  C   UNL     1      -5.680  -8.492  -0.860  1.00  0.00     0.039 A 
ATOM     32  C   UNL     1      -5.234  -9.728  -1.337  1.00  0.00     0.014 A 
ATOM     33  C   UNL     1      -6.951  -8.379  -0.294  1.00  0.00     0.014 A 
ATOM     34  C   UNL     1      -6.033 -10.860  -1.176  1.00  0.00     0.010 A 
ATOM     35  C   UNL     1      -7.700  -9.521  -0.041  1.00  0.00     0.010 A 
ATOM     36  C   UNL     1      -7.254 -10.773  -0.487  1.00  0.00    -0.014 A 
BRANCH  36  37
ATOM     37  C   UNL     1      -8.084 -11.974  -0.226  1.00  0.00     0.031 A 
ATOM     38  C   UNL     1      -9.478 -12.064  -0.784  1.00  0.00     0.074 A 
ATOM     39  C   UNL     1      -7.612 -12.948   0.576  1.00  0.00     0.049 A 
ATOM     40  N   UNL     1     -10.383 -12.992  -0.605  1.00  0.00    -0.248 NA
ATOM     41  C   UNL     1      -9.926 -10.946  -1.631  1.00  0.00     0.031 C 
ATOM     42  C   UNL     1      -6.298 -12.950   1.223  1.00  0.00     0.029 A 
ATOM     43  N   UNL     1      -8.188 -14.121   0.993  1.00  0.00    -0.354 N 
ATOM     44  C   UNL     1     -11.507 -12.562  -1.298  1.00  0.00     0.074 A 
ATOM     45  C   UNL     1     -11.193 -11.262  -1.849  1.00  0.00     0.031 C 
ATOM     46  C   UNL     1      -6.159 -14.081   1.932  1.00  0.00     0.029 A 
ATOM     47  C   UNL     1      -7.386 -14.863   1.826  1.00  0.00     0.049 A 
ATOM     48  H   UNL     1      -9.091 -14.405   0.721  1.00  0.00     0.167 HD
ATOM     49  C   UNL     1     -12.685 -13.203  -1.482  1.00  0.00     0.037 A 
ATOM     50  C   UNL     1      -7.618 -16.037   2.442  1.00  0.00     0.037 A 
ATOM     51  C   UNL     1     -12.984 -14.506  -0.949  1.00  0.00     0.049 A 
ATOM     52  C   UNL     1      -8.937 -16.727   2.229  1.00  0.00     0.074 A 
ATOM     53  C   UNL     1     -14.122 -15.271  -1.130  1.00  0.00     0.029 A 
ATOM     54  N   UNL     1     -12.138 -15.234  -0.124  1.00  0.00    -0.354 N 
ATOM     55  N   UNL     1      -9.963 -16.345   1.508  1.00  0.00    -0.248 NA
ATOM     56  C   UNL     1      -9.127 -18.014   2.911  1.00  0.00     0.031 C 
ATOM     57  C   UNL     1     -13.988 -16.439  -0.372  1.00  0.00     0.029 A 
ATOM     58  C   UNL     1     -12.742 -16.428   0.234  1.00  0.00     0.049 A 
ATOM     59  H   UNL     1     -11.243 -14.944   0.164  1.00  0.00     0.167 HD
ATOM     60  C   UNL     1     -10.908 -17.355   1.625  1.00  0.00     0.074 A 
ATOM     61  C   UNL     1     -10.326 -18.374   2.475  1.00  0.00     0.031 C 
ATOM     62  C   UNL     1     -12.146 -17.434   1.078  1.00  0.00     0.037 A 
BRANCH  49  63
ATOM     63  C   UNL     1     -13.736 -12.500  -2.293  1.00  0.00     0.057 A 
ATOM     64  C   UNL     1     -13.588 -12.279  -3.669  1.00  0.00     0.134 A 
ATOM     65  C   UNL     1     -14.923 -12.056  -1.695  1.00  0.00     0.134 A 
ATOM     66  F   UNL     1     -12.471 -12.667  -4.304  1.00  0.00    -0.206 F 
ATOM     67  C   UNL     1     -14.563 -11.613  -4.413  1.00  0.00     0.040 A 
ATOM     68  C   UNL     1     -15.920 -11.417  -2.434  1.00  0.00     0.040 A 
ATOM     69  F   UNL     1     -15.136 -12.239  -0.383  1.00  0.00    -0.206 F 
ATOM     70  C   UNL     1     -15.737 -11.186  -3.796  1.00  0.00     0.006 A 
ENDBRANCH  49  63
BRANCH  50  71
ATOM     71  C   UNL     1      -6.568 -16.646   3.298  1.00  0.00     0.057 A 
ATOM     72  C   UNL     1      -5.901 -17.811   2.903  1.00  0.00     0.134 A 
ATOM     73  C   UNL     1      -6.205 -16.080   4.526  1.00  0.00     0.134 A 
ATOM     74  F   UNL     1      -6.215 -18.409   1.744  1.00  0.00    -0.206 F 
ATOM     75  C   UNL     1      -4.925 -18.404   3.706  1.00  0.00     0.040 A 
ATOM     76  C   UNL     1      -5.212 -16.647   5.327  1.00  0.00     0.040 A 
ATOM     77  F   UNL     1      -6.800 -14.958   4.957  1.00  0.00    -0.206 F 
ATOM     78  C   UNL     1      -4.574 -17.817   4.921  1.00  0.00     0.006 A 
ENDBRANCH  50  71
BRANCH  62  79
ATOM     79  C   UNL     1     -12.940 -18.678   1.351  1.00  0.00     0.057 A 
ATOM     80  C   UNL     1     -13.485 -18.950   2.612  1.00  0.00     0.134 A 
ATOM     81  C   UNL     1     -13.196 -19.598   0.325  1.00  0.00     0.134 A 
ATOM     82  F   UNL     1     -13.267 -18.117   3.642  1.00  0.00    -0.206 F 
ATOM     83  C   UNL     1     -14.235 -20.104   2.849  1.00  0.00     0.040 A 
ATOM     84  C   UNL     1     -13.969 -20.738   0.542  1.00  0.00     0.040 A 
ATOM     85  F   UNL     1     -12.712 -19.393  -0.910  1.00  0.00    -0.206 F 
ATOM     86  C   UNL     1     -14.485 -20.998   1.810  1.00  0.00     0.006 A 
ENDBRANCH  62  79
ENDBRANCH  36  37
ENDBRANCH  28  31
ENDBRANCH  26  27
ENDBRANCH  25  26
ENDBRANCH  24  25
ENDBRANCH   3  24
TORSDOF 16
