REMARK SMILES Cc1nnc(SCC(=O)Nc2cccc(C(=O)NCCCNC(=O)c3ccc(-c4c5nc(c(-c6c(F)cccc6F)c6ccc([nH]6)c(-c6c(F)cccc6F)c6nc(c(-c7c(F)cccc7F)c7ccc4[nH]7)C=C6)C=C5)cc3)c2)n1-c1ccccc1
REMARK SMILES IDX 16 1 17 2 18 3 15 5 11 6 12 7 79 8 13 9 14 10 10 11 8 12
REMARK SMILES IDX 9 13 7 15 6 16 5 17 1 18 2 19 3 20 80 21 4 22 81 23 82 24
REMARK SMILES IDX 86 25 83 26 85 27 84 28 19 29 20 30 21 31 22 32 23 33 24 35
REMARK SMILES IDX 25 36 26 37 78 38 27 39 77 40 28 41 29 42 30 43 71 44 31 45
REMARK SMILES IDX 76 46 70 47 72 48 32 49 75 50 69 51 68 52 33 54 59 55 42 56
REMARK SMILES IDX 58 57 43 58 46 59 57 60 73 61 44 62 45 63 56 65 74 66 47 67
REMARK SMILES IDX 34 68 35 69 40 70 36 71 37 72 39 73 41 74 38 75 60 76 61 77
REMARK SMILES IDX 66 78 62 79 63 80 65 81 67 82 64 83 48 84 49 85 54 86 50 87
REMARK SMILES IDX 51 88 53 89 55 90 52 91
REMARK H PARENT 18 4 10 14 22 34 72 53 46 64
REMARK Flexibility Score: inf
ROOT
ATOM      1  C   UNL     1       0.124  -2.264   8.497  1.00  0.00     0.251 C 
ATOM      2  O   UNL     1       0.313  -2.930   9.518  1.00  0.00    -0.269 OA
ATOM      3  N   UNL     1      -0.608  -2.874   7.519  1.00  0.00    -0.352 N 
ATOM      4  H   UNL     1      -0.910  -3.776   7.776  1.00  0.00     0.163 HD
ENDROOT
BRANCH   1   5
ATOM      5  C   UNL     1       0.699  -0.884   8.424  1.00  0.00     0.041 A 
ATOM      6  C   UNL     1       1.318   1.212   7.370  1.00  0.00     0.041 A 
ATOM      7  C   UNL     1       1.992   1.607   8.529  1.00  0.00     0.026 A 
ATOM      8  C   UNL     1       0.697  -0.035   7.310  1.00  0.00     0.040 A 
ATOM      9  C   UNL     1       1.978   0.798   9.654  1.00  0.00     0.003 A 
ATOM     10  C   UNL     1       1.332  -0.433   9.600  1.00  0.00     0.014 A 
BRANCH   6  11
ATOM     11  N   UNL     1       1.380   2.101   6.300  1.00  0.00    -0.325 N 
ATOM     12  C   UNL     1       0.509   2.472   5.331  1.00  0.00     0.234 C 
ATOM     13  O   UNL     1       0.925   3.412   4.644  1.00  0.00    -0.274 OA
ATOM     14  H   UNL     1       2.248   2.562   6.234  1.00  0.00     0.169 HD
BRANCH  12  15
ATOM     15  C   UNL     1      -0.933   2.040   5.250  1.00  0.00     0.178 C 
BRANCH  15  16
ATOM     16  S   UNL     1      -1.493   0.698   4.210  1.00  0.00    -0.076 SA
BRANCH  16  17
ATOM     17  C   UNL     1      -0.385   0.238   2.969  1.00  0.00     0.196 A 
ATOM     18  C   UNL     1       1.212   0.255  -0.300  1.00  0.00     0.090 C 
ATOM     19  C   UNL     1       0.599  -0.002   1.018  1.00  0.00     0.135 A 
ATOM     20  N   UNL     1       0.597  -1.172   1.619  1.00  0.00    -0.134 NA
ATOM     21  N   UNL     1      -0.044   0.920   1.823  1.00  0.00    -0.274 N 
ATOM     22  N   UNL     1      -0.041  -1.017   2.809  1.00  0.00    -0.123 NA
BRANCH  21  23
ATOM     23  C   UNL     1      -0.407   2.226   1.507  1.00  0.00     0.049 A 
ATOM     24  C   UNL     1       0.403   3.252   1.977  1.00  0.00     0.027 A 
ATOM     25  C   UNL     1      -1.693   2.460   1.025  1.00  0.00     0.027 A 
ATOM     26  C   UNL     1      -0.133   4.530   2.085  1.00  0.00     0.002 A 
ATOM     27  C   UNL     1      -2.202   3.752   1.094  1.00  0.00     0.002 A 
ATOM     28  C   UNL     1      -1.438   4.776   1.660  1.00  0.00     0.000 A 
ENDBRANCH  21  23
ENDBRANCH  16  17
ENDBRANCH  15  16
ENDBRANCH  12  15
ENDBRANCH   6  11
ENDBRANCH   1   5
BRANCH   3  29
ATOM     29  C   UNL     1      -1.040  -2.494   6.191  1.00  0.00     0.118 C 
BRANCH  29  30
ATOM     30  C   UNL     1       0.060  -2.744   5.163  1.00  0.00     0.042 C 
BRANCH  30  31
ATOM     31  C   UNL     1      -0.395  -3.610   3.993  1.00  0.00     0.118 C 
BRANCH  31  32
ATOM     32  N   UNL     1      -1.647  -3.199   3.325  1.00  0.00    -0.352 N 
ATOM     33  C   UNL     1      -2.435  -3.916   2.423  1.00  0.00     0.251 C 
ATOM     34  H   UNL     1      -1.971  -2.296   3.548  1.00  0.00     0.163 HD
ATOM     35  O   UNL     1      -3.237  -3.381   1.685  1.00  0.00    -0.269 OA
BRANCH  33  36
ATOM     36  C   UNL     1      -2.254  -5.379   2.394  1.00  0.00     0.039 A 
ATOM     37  C   UNL     1      -2.071  -6.104   1.210  1.00  0.00     0.014 A 
ATOM     38  C   UNL     1      -2.055  -5.963   3.629  1.00  0.00     0.014 A 
ATOM     39  C   UNL     1      -1.545  -7.393   1.300  1.00  0.00     0.010 A 
ATOM     40  C   UNL     1      -1.239  -7.050   3.674  1.00  0.00     0.010 A 
ATOM     41  C   UNL     1      -1.086  -7.841   2.546  1.00  0.00    -0.014 A 
BRANCH  41  42
ATOM     42  C   UNL     1      -0.346  -9.080   2.741  1.00  0.00     0.031 A 
ATOM     43  C   UNL     1       0.852  -9.234   1.875  1.00  0.00     0.074 A 
ATOM     44  C   UNL     1      -0.572  -9.869   3.819  1.00  0.00     0.049 A 
ATOM     45  N   UNL     1       1.026 -10.082   0.916  1.00  0.00    -0.248 NA
ATOM     46  C   UNL     1       1.932  -8.238   1.985  1.00  0.00     0.031 C 
ATOM     47  C   UNL     1      -1.498  -9.647   4.944  1.00  0.00     0.029 A 
ATOM     48  N   UNL     1       0.076 -10.998   4.206  1.00  0.00    -0.354 N 
ATOM     49  C   UNL     1       2.328  -9.884   0.462  1.00  0.00     0.074 A 
ATOM     50  C   UNL     1       2.746  -8.616   0.995  1.00  0.00     0.031 C 
ATOM     51  C   UNL     1      -1.174 -10.453   5.977  1.00  0.00     0.029 A 
ATOM     52  C   UNL     1      -0.165 -11.386   5.522  1.00  0.00     0.049 A 
ATOM     53  H   UNL     1       0.670 -11.503   3.604  1.00  0.00     0.167 HD
ATOM     54  C   UNL     1       3.038 -10.913  -0.081  1.00  0.00     0.037 A 
ATOM     55  C   UNL     1       0.432 -12.403   6.189  1.00  0.00     0.037 A 
ATOM     56  C   UNL     1       2.164 -12.014  -0.415  1.00  0.00     0.049 A 
ATOM     57  C   UNL     1       1.031 -13.295   5.167  1.00  0.00     0.074 A 
ATOM     58  C   UNL     1       1.060 -12.168  -1.231  1.00  0.00     0.029 A 
ATOM     59  N   UNL     1       2.137 -13.083   0.450  1.00  0.00    -0.354 N 
ATOM     60  N   UNL     1       0.329 -14.000   4.323  1.00  0.00    -0.248 NA
ATOM     61  C   UNL     1       2.401 -13.018   4.763  1.00  0.00     0.031 C 
ATOM     62  C   UNL     1       0.177 -13.017  -0.498  1.00  0.00     0.029 A 
ATOM     63  C   UNL     1       0.825 -13.405   0.676  1.00  0.00     0.049 A 
ATOM     64  H   UNL     1       2.921 -13.535   0.837  1.00  0.00     0.167 HD
ATOM     65  C   UNL     1       1.002 -13.877   3.115  1.00  0.00     0.074 A 
ATOM     66  C   UNL     1       2.312 -13.329   3.467  1.00  0.00     0.031 C 
ATOM     67  C   UNL     1       0.333 -13.942   1.925  1.00  0.00     0.037 A 
BRANCH  54  68
ATOM     68  C   UNL     1       4.532 -11.108   0.065  1.00  0.00     0.057 A 
ATOM     69  C   UNL     1       5.142 -12.184  -0.609  1.00  0.00     0.134 A 
ATOM     70  C   UNL     1       5.335 -10.496   1.049  1.00  0.00     0.134 A 
ATOM     71  F   UNL     1       4.490 -12.853  -1.573  1.00  0.00    -0.206 F 
ATOM     72  C   UNL     1       6.406 -12.676  -0.259  1.00  0.00     0.040 A 
ATOM     73  C   UNL     1       6.618 -10.947   1.371  1.00  0.00     0.040 A 
ATOM     74  F   UNL     1       4.897  -9.498   1.823  1.00  0.00    -0.206 F 
ATOM     75  C   UNL     1       7.144 -12.064   0.745  1.00  0.00     0.006 A 
ENDBRANCH  54  68
BRANCH  55  76
ATOM     76  C   UNL     1       0.770 -12.499   7.627  1.00  0.00     0.057 A 
ATOM     77  C   UNL     1       1.083 -13.730   8.219  1.00  0.00     0.134 A 
ATOM     78  C   UNL     1       1.072 -11.355   8.387  1.00  0.00     0.134 A 
ATOM     79  F   UNL     1       0.867 -14.876   7.557  1.00  0.00    -0.206 F 
ATOM     80  C   UNL     1       1.689 -13.819   9.480  1.00  0.00     0.040 A 
ATOM     81  C   UNL     1       1.673 -11.429   9.648  1.00  0.00     0.040 A 
ATOM     82  F   UNL     1       0.877 -10.124   7.890  1.00  0.00    -0.206 F 
ATOM     83  C   UNL     1       1.998 -12.665  10.193  1.00  0.00     0.006 A 
ENDBRANCH  55  76
BRANCH  67  84
ATOM     84  C   UNL     1      -1.105 -14.394   1.945  1.00  0.00     0.057 A 
ATOM     85  C   UNL     1      -2.149 -13.697   2.573  1.00  0.00     0.134 A 
ATOM     86  C   UNL     1      -1.469 -15.492   1.160  1.00  0.00     0.134 A 
ATOM     87  F   UNL     1      -1.919 -12.579   3.269  1.00  0.00    -0.206 F 
ATOM     88  C   UNL     1      -3.485 -14.097   2.455  1.00  0.00     0.040 A 
ATOM     89  C   UNL     1      -2.801 -15.883   1.007  1.00  0.00     0.040 A 
ATOM     90  F   UNL     1      -0.533 -16.177   0.483  1.00  0.00    -0.206 F 
ATOM     91  C   UNL     1      -3.814 -15.191   1.662  1.00  0.00     0.006 A 
ENDBRANCH  67  84
ENDBRANCH  41  42
ENDBRANCH  33  36
ENDBRANCH  31  32
ENDBRANCH  30  31
ENDBRANCH  29  30
ENDBRANCH   3  29
TORSDOF 15
