REMARK SMILES CC1CCN(C(=O)N[C@]2(C(=O)NCCCNC(=O)c3ccc(-c4c5nc(c(-c6c(F)cccc6F)c6ccc([nH]6)c(-c6c(F)cccc6F)c6nc(c(-c7c(F)cccc7F)c7ccc4[nH]7)C=C6)C=C5)cc3)CCSC2)CC1
REMARK SMILES IDX 14 1 13 2 12 3 10 4 11 5 9 7 73 8 76 9 74 10 75 11 8 12 1 13
REMARK SMILES IDX 2 14 3 15 78 16 4 17 77 18 5 19 6 20 7 21 15 23 16 24 17 25
REMARK SMILES IDX 18 27 19 28 20 29 72 30 21 31 71 32 22 33 23 34 24 35 65 36
REMARK SMILES IDX 25 37 70 38 64 39 66 40 26 41 69 42 63 43 62 44 27 46 53 47
REMARK SMILES IDX 36 48 52 49 37 50 40 51 51 52 67 53 38 54 39 55 50 57 68 58
REMARK SMILES IDX 41 59 28 60 29 61 34 62 30 63 31 64 33 65 35 66 32 67 54 68
REMARK SMILES IDX 55 69 60 70 56 71 57 72 59 73 61 74 58 75 42 76 43 77 48 78
REMARK SMILES IDX 44 79 45 80 47 81 49 82 46 83
REMARK H PARENT 12 6 8 22 16 26 66 45 40 56
REMARK Flexibility Score: inf
ROOT
ATOM      1  C   UNL     1       0.385  -4.743   1.363  1.00  0.00     0.042 C 
ENDROOT
BRANCH   1   2
ATOM      2  C   UNL     1       0.507  -4.837  -0.161  1.00  0.00     0.117 C 
BRANCH   2   3
ATOM      3  N   UNL     1       0.349  -3.604  -0.909  1.00  0.00    -0.354 N 
ATOM      4  C   UNL     1       1.222  -2.782  -1.553  1.00  0.00     0.246 C 
ATOM      5  O   UNL     1       0.714  -2.115  -2.467  1.00  0.00    -0.272 OA
ATOM      6  H   UNL     1      -0.585  -3.298  -0.962  1.00  0.00     0.163 HD
BRANCH   4   7
ATOM      7  C   UNL     1       2.750  -2.661  -1.266  1.00  0.00     0.130 C 
ATOM      8  C   UNL     1       3.368  -3.172   0.048  1.00  0.00     0.050 C 
ATOM      9  C   UNL     1       3.383  -3.474  -2.440  1.00  0.00     0.108 C 
ATOM     10  C   UNL     1       4.659  -3.932  -0.215  1.00  0.00     0.072 C 
ATOM     11  S   UNL     1       4.303  -4.849  -1.712  1.00  0.00    -0.159 SA
BRANCH   7  12
ATOM     12  N   UNL     1       3.116  -1.216  -1.419  1.00  0.00    -0.323 N 
ATOM     13  C   UNL     1      -2.506   0.822  -0.050  1.00  0.00     0.008 C 
ATOM     14  C   UNL     1      -1.070   0.754   0.469  1.00  0.00    -0.011 C 
ATOM     15  C   UNL     1      -0.159   1.783  -0.218  1.00  0.00     0.025 C 
ATOM     16  C   UNL     1      -0.511  -0.650   0.245  1.00  0.00     0.025 C 
ATOM     17  C   UNL     1       1.319   1.596   0.166  1.00  0.00     0.121 C 
ATOM     18  C   UNL     1       0.941  -0.734   0.712  1.00  0.00     0.121 C 
ATOM     19  N   UNL     1       1.754   0.205  -0.039  1.00  0.00    -0.325 N 
ATOM     20  C   UNL     1       2.785  -0.019  -0.903  1.00  0.00     0.318 C 
ATOM     21  O   UNL     1       3.490   0.909  -1.317  1.00  0.00    -0.249 OA
ATOM     22  H   UNL     1       3.811  -1.111  -2.108  1.00  0.00     0.166 HD
ENDBRANCH   7  12
ENDBRANCH   4   7
ENDBRANCH   2   3
ENDBRANCH   1   2
BRANCH   1  23
ATOM     23  C   UNL     1      -0.830  -4.049   1.962  1.00  0.00     0.118 C 
BRANCH  23  24
ATOM     24  N   UNL     1      -2.097  -4.373   1.343  1.00  0.00    -0.352 N 
ATOM     25  C   UNL     1      -3.280  -4.755   1.934  1.00  0.00     0.251 C 
ATOM     26  H   UNL     1      -2.117  -4.310   0.361  1.00  0.00     0.163 HD
ATOM     27  O   UNL     1      -4.237  -5.072   1.247  1.00  0.00    -0.269 OA
BRANCH  25  28
ATOM     28  C   UNL     1      -3.374  -4.818   3.410  1.00  0.00     0.039 A 
ATOM     29  C   UNL     1      -3.859  -5.988   3.997  1.00  0.00     0.014 A 
ATOM     30  C   UNL     1      -2.980  -3.740   4.208  1.00  0.00     0.014 A 
ATOM     31  C   UNL     1      -3.889  -6.103   5.388  1.00  0.00     0.010 A 
ATOM     32  C   UNL     1      -2.950  -3.881   5.595  1.00  0.00     0.010 A 
ATOM     33  C   UNL     1      -3.402  -5.064   6.199  1.00  0.00    -0.014 A 
BRANCH  33  34
ATOM     34  C   UNL     1      -3.355  -5.212   7.677  1.00  0.00     0.031 A 
ATOM     35  C   UNL     1      -4.197  -4.331   8.558  1.00  0.00     0.074 A 
ATOM     36  C   UNL     1      -2.518  -6.111   8.231  1.00  0.00     0.049 A 
ATOM     37  N   UNL     1      -4.263  -4.290   9.865  1.00  0.00    -0.248 NA
ATOM     38  C   UNL     1      -5.063  -3.352   7.883  1.00  0.00     0.031 C 
ATOM     39  C   UNL     1      -1.616  -6.995   7.491  1.00  0.00     0.029 A 
ATOM     40  N   UNL     1      -2.283  -6.425   9.547  1.00  0.00    -0.354 N 
ATOM     41  C   UNL     1      -5.167  -3.280  10.168  1.00  0.00     0.074 A 
ATOM     42  C   UNL     1      -5.583  -2.697   8.910  1.00  0.00     0.031 C 
ATOM     43  C   UNL     1      -0.945  -7.767   8.361  1.00  0.00     0.029 A 
ATOM     44  C   UNL     1      -1.339  -7.409   9.720  1.00  0.00     0.049 A 
ATOM     45  H   UNL     1      -2.747  -5.986  10.296  1.00  0.00     0.167 HD
ATOM     46  C   UNL     1      -5.628  -2.889  11.380  1.00  0.00     0.037 A 
ATOM     47  C   UNL     1      -0.843  -7.956  10.845  1.00  0.00     0.037 A 
ATOM     48  C   UNL     1      -5.226  -3.481  12.630  1.00  0.00     0.049 A 
ATOM     49  C   UNL     1      -1.358  -7.493  12.180  1.00  0.00     0.074 A 
ATOM     50  C   UNL     1      -5.680  -3.191  13.905  1.00  0.00     0.029 A 
ATOM     51  N   UNL     1      -4.273  -4.479  12.762  1.00  0.00    -0.354 N 
ATOM     52  N   UNL     1      -2.266  -6.586  12.446  1.00  0.00    -0.248 NA
ATOM     53  C   UNL     1      -0.783  -8.135  13.371  1.00  0.00     0.031 C 
ATOM     54  C   UNL     1      -4.965  -3.978  14.814  1.00  0.00     0.029 A 
ATOM     55  C   UNL     1      -4.105  -4.798  14.100  1.00  0.00     0.049 A 
ATOM     56  H   UNL     1      -3.787  -4.899  12.016  1.00  0.00     0.167 HD
ATOM     57  C   UNL     1      -2.394  -6.569  13.829  1.00  0.00     0.074 A 
ATOM     58  C   UNL     1      -1.480  -7.567  14.346  1.00  0.00     0.031 C 
ATOM     59  C   UNL     1      -3.196  -5.797  14.602  1.00  0.00     0.037 A 
BRANCH  46  60
ATOM     60  C   UNL     1      -6.622  -1.763  11.414  1.00  0.00     0.057 A 
ATOM     61  C   UNL     1      -7.933  -1.920  10.944  1.00  0.00     0.134 A 
ATOM     62  C   UNL     1      -6.277  -0.519  11.958  1.00  0.00     0.134 A 
ATOM     63  F   UNL     1      -8.326  -3.083  10.402  1.00  0.00    -0.206 F 
ATOM     64  C   UNL     1      -8.855  -0.874  10.989  1.00  0.00     0.040 A 
ATOM     65  C   UNL     1      -7.199   0.526  12.034  1.00  0.00     0.040 A 
ATOM     66  F   UNL     1      -5.041  -0.302  12.432  1.00  0.00    -0.206 F 
ATOM     67  C   UNL     1      -8.491   0.352  11.542  1.00  0.00     0.006 A 
ENDBRANCH  46  60
BRANCH  47  68
ATOM     68  C   UNL     1       0.190  -9.021  10.762  1.00  0.00     0.057 A 
ATOM     69  C   UNL     1      -0.102 -10.341  11.122  1.00  0.00     0.134 A 
ATOM     70  C   UNL     1       1.494  -8.743  10.334  1.00  0.00     0.134 A 
ATOM     71  F   UNL     1      -1.328 -10.666  11.558  1.00  0.00    -0.206 F 
ATOM     72  C   UNL     1       0.869 -11.343  11.082  1.00  0.00     0.040 A 
ATOM     73  C   UNL     1       2.468  -9.740  10.263  1.00  0.00     0.040 A 
ATOM     74  F   UNL     1       1.836  -7.499   9.967  1.00  0.00    -0.206 F 
ATOM     75  C   UNL     1       2.158 -11.044  10.646  1.00  0.00     0.006 A 
ENDBRANCH  47  68
BRANCH  59  76
ATOM     76  C   UNL     1      -3.151  -6.024  16.085  1.00  0.00     0.057 A 
ATOM     77  C   UNL     1      -2.051  -5.637  16.862  1.00  0.00     0.134 A 
ATOM     78  C   UNL     1      -4.239  -6.604  16.751  1.00  0.00     0.134 A 
ATOM     79  F   UNL     1      -0.971  -5.088  16.285  1.00  0.00    -0.206 F 
ATOM     80  C   UNL     1      -2.026  -5.840  18.243  1.00  0.00     0.040 A 
ATOM     81  C   UNL     1      -4.237  -6.786  18.134  1.00  0.00     0.040 A 
ATOM     82  F   UNL     1      -5.328  -6.990  16.068  1.00  0.00    -0.206 F 
ATOM     83  C   UNL     1      -3.125  -6.410  18.883  1.00  0.00     0.006 A 
ENDBRANCH  59  76
ENDBRANCH  33  34
ENDBRANCH  25  28
ENDBRANCH  23  24
ENDBRANCH   1  23
TORSDOF 11
