REMARK SMILES O=C(CSc1nc(-c2cccc(Br)c2)c[nH]1)NCCCNC(=O)c1ccc(-c2c3nc(c(-c4c(F)cccc4F)c4ccc([nH]4)c(-c4c(F)cccc4F)c4nc(c(-c5c(F)cccc5F)c5ccc2[nH]5)C=C4)C=C3)cc1
REMARK SMILES IDX 18 1 17 2 1 3 2 4 3 6 4 7 5 8 6 9 16 10 7 11 15 12 8 14 9 15
REMARK SMILES IDX 14 16 10 17 12 18 11 19 13 20 19 21 20 22 21 23 22 24 23 26
REMARK SMILES IDX 24 27 25 28 77 29 26 30 76 31 27 32 28 33 29 34 70 35 30 36
REMARK SMILES IDX 75 37 69 38 71 39 31 40 74 41 68 42 67 43 32 45 58 46 41 47
REMARK SMILES IDX 57 48 42 49 45 50 56 51 72 52 43 53 44 54 55 56 73 57 46 58
REMARK SMILES IDX 33 59 34 60 39 61 35 62 36 63 38 64 40 65 37 66 59 67 60 68
REMARK SMILES IDX 65 69 61 70 62 71 64 72 66 73 63 74 47 75 48 76 53 77 49 78
REMARK SMILES IDX 50 79 52 80 54 81 51 82
REMARK H PARENT 17 5 16 13 21 25 71 44 45 55
REMARK Flexibility Score: inf
ROOT
ATOM      1  C   UNL     1       2.206  -1.742   1.559  1.00  0.00     0.117 C 
ENDROOT
BRANCH   1   2
ATOM      2  N   UNL     1       2.826  -0.719   0.736  1.00  0.00    -0.355 N 
ATOM      3  O   UNL     1       0.869   0.220   0.005  1.00  0.00    -0.274 OA
ATOM      4  C   UNL     1       2.096   0.211   0.024  1.00  0.00     0.230 C 
ATOM      5  H   UNL     1       3.808  -0.687   0.684  1.00  0.00     0.163 HD
BRANCH   4   6
ATOM      6  C   UNL     1       2.922   1.244  -0.721  1.00  0.00     0.178 C 
BRANCH   6   7
ATOM      7  S   UNL     1       4.089   2.083   0.387  1.00  0.00    -0.078 SA
BRANCH   7   8
ATOM      8  C   UNL     1       3.040   2.964   1.438  1.00  0.00     0.166 A 
ATOM      9  N   UNL     1       3.045   4.263   1.617  1.00  0.00    -0.223 NA
ATOM     10  N   UNL     1       2.198   2.333   2.309  1.00  0.00    -0.339 N 
ATOM     11  C   UNL     1       2.204   4.475   2.685  1.00  0.00     0.089 A 
ATOM     12  C   UNL     1       1.657   3.289   3.123  1.00  0.00     0.113 A 
ATOM     13  H   UNL     1       2.014   1.367   2.344  1.00  0.00     0.168 HD
BRANCH  11  14
ATOM     14  C   UNL     1       1.958   5.769   3.281  1.00  0.00     0.003 A 
ATOM     15  C   UNL     1       1.522   6.837   2.490  1.00  0.00     0.010 A 
ATOM     16  C   UNL     1       2.152   5.961   4.655  1.00  0.00     0.026 A 
ATOM     17  C   UNL     1       1.256   8.080   3.070  1.00  0.00     0.002 A 
ATOM     18  C   UNL     1       1.899   7.208   5.224  1.00  0.00     0.018 A 
ATOM     19  C   UNL     1       1.443   8.266   4.440  1.00  0.00     0.016 A 
ATOM     20  Br  UNL     1       2.177   7.463   7.077  1.00  0.00    -0.051 Br
ENDBRANCH  11  14
ENDBRANCH   7   8
ENDBRANCH   6   7
ENDBRANCH   4   6
ENDBRANCH   1   2
BRANCH   1  21
ATOM     21  C   UNL     1       2.538  -3.155   1.096  1.00  0.00     0.042 C 
BRANCH  21  22
ATOM     22  C   UNL     1       4.021  -3.513   1.162  1.00  0.00     0.118 C 
BRANCH  22  23
ATOM     23  N   UNL     1       4.560  -3.489   2.515  1.00  0.00    -0.352 N 
ATOM     24  C   UNL     1       5.156  -4.480   3.257  1.00  0.00     0.251 C 
ATOM     25  H   UNL     1       4.485  -2.621   2.973  1.00  0.00     0.163 HD
ATOM     26  O   UNL     1       5.409  -4.275   4.442  1.00  0.00    -0.269 OA
BRANCH  24  27
ATOM     27  C   UNL     1       5.465  -5.798   2.661  1.00  0.00     0.039 A 
ATOM     28  C   UNL     1       5.189  -6.950   3.404  1.00  0.00     0.014 A 
ATOM     29  C   UNL     1       6.035  -5.911   1.390  1.00  0.00     0.014 A 
ATOM     30  C   UNL     1       5.395  -8.211   2.838  1.00  0.00     0.010 A 
ATOM     31  C   UNL     1       6.172  -7.166   0.799  1.00  0.00     0.010 A 
ATOM     32  C   UNL     1       5.839  -8.329   1.511  1.00  0.00    -0.014 A 
BRANCH  32  33
ATOM     33  C   UNL     1       5.912  -9.652   0.838  1.00  0.00     0.031 A 
ATOM     34  C   UNL     1       7.228 -10.197   0.356  1.00  0.00     0.074 A 
ATOM     35  C   UNL     1       4.774 -10.331   0.590  1.00  0.00     0.049 A 
ATOM     36  N   UNL     1       7.470 -11.287  -0.329  1.00  0.00    -0.248 NA
ATOM     37  C   UNL     1       8.426  -9.405   0.668  1.00  0.00     0.031 C 
ATOM     38  C   UNL     1       3.429  -9.895   0.971  1.00  0.00     0.029 A 
ATOM     39  N   UNL     1       4.564 -11.525  -0.056  1.00  0.00    -0.354 N 
ATOM     40  C   UNL     1       8.843 -11.306  -0.538  1.00  0.00     0.074 A 
ATOM     41  C   UNL     1       9.375 -10.095   0.051  1.00  0.00     0.031 C 
ATOM     42  C   UNL     1       2.538 -10.814   0.569  1.00  0.00     0.029 A 
ATOM     43  C   UNL     1       3.239 -11.879  -0.141  1.00  0.00     0.049 A 
ATOM     44  H   UNL     1       5.293 -12.075  -0.422  1.00  0.00     0.167 HD
ATOM     45  C   UNL     1       9.593 -12.254  -1.149  1.00  0.00     0.037 A 
ATOM     46  C   UNL     1       2.650 -12.931  -0.741  1.00  0.00     0.037 A 
ATOM     47  C   UNL     1       9.063 -13.463  -1.727  1.00  0.00     0.049 A 
ATOM     48  C   UNL     1       3.502 -13.947  -1.448  1.00  0.00     0.074 A 
ATOM     49  C   UNL     1       9.751 -14.509  -2.318  1.00  0.00     0.029 A 
ATOM     50  N   UNL     1       7.715 -13.783  -1.797  1.00  0.00    -0.354 N 
ATOM     51  N   UNL     1       4.806 -13.986  -1.580  1.00  0.00    -0.248 NA
ATOM     52  C   UNL     1       2.800 -15.067  -2.091  1.00  0.00     0.031 C 
ATOM     53  C   UNL     1       8.817 -15.433  -2.798  1.00  0.00     0.029 A 
ATOM     54  C   UNL     1       7.550 -14.993  -2.453  1.00  0.00     0.049 A 
ATOM     55  H   UNL     1       6.984 -13.232  -1.435  1.00  0.00     0.167 HD
ATOM     56  C   UNL     1       5.082 -15.143  -2.297  1.00  0.00     0.074 A 
ATOM     57  C   UNL     1       3.811 -15.788  -2.555  1.00  0.00     0.031 C 
ATOM     58  C   UNL     1       6.280 -15.626  -2.707  1.00  0.00     0.037 A 
BRANCH  45  59
ATOM     59  C   UNL     1      11.075 -12.021  -1.231  1.00  0.00     0.057 A 
ATOM     60  C   UNL     1      11.897 -12.071  -0.097  1.00  0.00     0.134 A 
ATOM     61  C   UNL     1      11.695 -11.787  -2.466  1.00  0.00     0.134 A 
ATOM     62  F   UNL     1      11.367 -12.282   1.117  1.00  0.00    -0.206 F 
ATOM     63  C   UNL     1      13.276 -11.869  -0.184  1.00  0.00     0.040 A 
ATOM     64  C   UNL     1      13.077 -11.614  -2.569  1.00  0.00     0.040 A 
ATOM     65  F   UNL     1      10.971 -11.735  -3.594  1.00  0.00    -0.206 F 
ATOM     66  C   UNL     1      13.870 -11.648  -1.424  1.00  0.00     0.006 A 
ENDBRANCH  45  59
BRANCH  46  67
ATOM     67  C   UNL     1       1.172 -13.080  -0.700  1.00  0.00     0.057 A 
ATOM     68  C   UNL     1       0.570 -14.114   0.026  1.00  0.00     0.134 A 
ATOM     69  C   UNL     1       0.328 -12.205  -1.395  1.00  0.00     0.134 A 
ATOM     70  F   UNL     1       1.326 -14.997   0.696  1.00  0.00    -0.206 F 
ATOM     71  C   UNL     1      -0.815 -14.287   0.043  1.00  0.00     0.040 A 
ATOM     72  C   UNL     1      -1.060 -12.348  -1.364  1.00  0.00     0.040 A 
ATOM     73  F   UNL     1       0.841 -11.189  -2.104  1.00  0.00    -0.206 F 
ATOM     74  C   UNL     1      -1.634 -13.398  -0.650  1.00  0.00     0.006 A 
ENDBRANCH  46  67
BRANCH  58  75
ATOM     75  C   UNL     1       6.277 -16.928  -3.456  1.00  0.00     0.057 A 
ATOM     76  C   UNL     1       5.786 -17.029  -4.764  1.00  0.00     0.134 A 
ATOM     77  C   UNL     1       6.803 -18.089  -2.873  1.00  0.00     0.134 A 
ATOM     78  F   UNL     1       5.256 -15.959  -5.376  1.00  0.00    -0.206 F 
ATOM     79  C   UNL     1       5.796 -18.241  -5.457  1.00  0.00     0.040 A 
ATOM     80  C   UNL     1       6.846 -19.299  -3.566  1.00  0.00     0.040 A 
ATOM     81  F   UNL     1       7.297 -18.062  -1.626  1.00  0.00    -0.206 F 
ATOM     82  C   UNL     1       6.334 -19.380  -4.859  1.00  0.00     0.006 A 
ENDBRANCH  58  75
ENDBRANCH  32  33
ENDBRANCH  24  27
ENDBRANCH  22  23
ENDBRANCH  21  22
ENDBRANCH   1  21
TORSDOF 13
