REMARK SMILES O=C(NCCCNC(=O)[C@H](NC(=O)[C@H]1CC[C@@H](CNC(=O)[C@@H]2Cc3ccccc3C[NH2+]2)CC1)c1ccccc1)c1ccc(-c2c3nc(c(-c4c(F)cccc4F)c4ccc([nH]4)c(-c4c(F)cccc4F)c4nc(c(-c5c(F)cccc5F)c5ccc2[nH]5)C=C4)C=C3)cc1
REMARK SMILES IDX 7 1 8 2 9 3 6 5 5 6 4 7 3 8 1 9 2 10 40 12 41 13 93 14 42 15
REMARK SMILES IDX 92 16 43 17 44 18 45 19 86 20 46 21 91 22 85 23 87 24 47 25
REMARK SMILES IDX 90 26 84 27 83 28 48 30 74 31 57 32 73 33 58 34 61 35 72 36
REMARK SMILES IDX 88 37 59 38 60 39 71 41 89 42 62 43 49 44 50 45 55 46 51 47
REMARK SMILES IDX 52 48 54 49 56 50 53 51 75 52 76 53 81 54 77 55 78 56 80 57
REMARK SMILES IDX 82 58 79 59 63 60 64 61 69 62 65 63 66 64 68 65 70 66 67 67
REMARK SMILES IDX 10 68 34 69 35 70 39 71 36 72 38 73 37 74 11 75 12 76 13 78
REMARK SMILES IDX 14 79 33 80 15 81 32 82 16 83 17 84 18 85 19 86 20 87 21 89
REMARK SMILES IDX 22 90 23 91 31 92 24 93 30 94 25 97 29 98 26 99 28 100
REMARK SMILES IDX 27 101
REMARK H PARENT 7 4 3 11 87 29 61 40 11 77 19 88 31 95 31 96
REMARK Flexibility Score: inf
ROOT
ATOM      1  N   UNL     1       6.884   2.486   1.127  1.00  0.00    -0.354 N 
ATOM      2  C   UNL     1       6.320   3.282   2.073  1.00  0.00     0.247 C 
ATOM      3  O   UNL     1       7.098   3.668   2.956  1.00  0.00    -0.272 OA
ATOM      4  H   UNL     1       7.838   2.301   1.284  1.00  0.00     0.163 HD
ENDROOT
BRANCH   1   5
ATOM      5  C   UNL     1       6.359   1.858  -0.067  1.00  0.00     0.117 C 
BRANCH   5   6
ATOM      6  C   UNL     1       6.717   2.630  -1.315  1.00  0.00     0.042 C 
BRANCH   6   7
ATOM      7  C   UNL     1       8.205   2.577  -1.594  1.00  0.00     0.118 C 
BRANCH   7   8
ATOM      8  N   UNL     1       8.653   1.231  -1.936  1.00  0.00    -0.352 N 
ATOM      9  O   UNL     1       9.220  -0.463  -3.315  1.00  0.00    -0.269 OA
ATOM     10  C   UNL     1       9.104   0.741  -3.138  1.00  0.00     0.251 C 
ATOM     11  H   UNL     1       8.628   0.579  -1.198  1.00  0.00     0.163 HD
BRANCH  10  12
ATOM     12  C   UNL     1       9.444   1.694  -4.212  1.00  0.00     0.039 A 
ATOM     13  C   UNL     1      10.128   2.869  -3.899  1.00  0.00     0.014 A 
ATOM     14  C   UNL     1       9.079   1.417  -5.531  1.00  0.00     0.014 A 
ATOM     15  C   UNL     1      10.290   3.845  -4.863  1.00  0.00     0.010 A 
ATOM     16  C   UNL     1       9.366   2.347  -6.532  1.00  0.00     0.010 A 
ATOM     17  C   UNL     1       9.957   3.575  -6.199  1.00  0.00    -0.014 A 
BRANCH  17  18
ATOM     18  C   UNL     1      10.367   4.556  -7.229  1.00  0.00     0.031 A 
ATOM     19  C   UNL     1       9.359   5.281  -8.069  1.00  0.00     0.074 A 
ATOM     20  C   UNL     1      11.685   4.810  -7.355  1.00  0.00     0.049 A 
ATOM     21  N   UNL     1       9.566   6.178  -8.998  1.00  0.00    -0.248 NA
ATOM     22  C   UNL     1       7.941   4.957  -7.851  1.00  0.00     0.031 C 
ATOM     23  C   UNL     1      12.747   4.145  -6.589  1.00  0.00     0.029 A 
ATOM     24  N   UNL     1      12.360   5.705  -8.140  1.00  0.00    -0.354 N 
ATOM     25  C   UNL     1       8.313   6.507  -9.495  1.00  0.00     0.074 A 
ATOM     26  C   UNL     1       7.348   5.706  -8.773  1.00  0.00     0.031 C 
ATOM     27  C   UNL     1      13.927   4.698  -6.896  1.00  0.00     0.029 A 
ATOM     28  C   UNL     1      13.718   5.692  -7.938  1.00  0.00     0.049 A 
ATOM     29  H   UNL     1      11.915   6.300  -8.786  1.00  0.00     0.167 HD
ATOM     30  C   UNL     1       8.006   7.399 -10.467  1.00  0.00     0.037 A 
ATOM     31  C   UNL     1      14.696   6.384  -8.546  1.00  0.00     0.037 A 
ATOM     32  C   UNL     1       8.980   8.206 -11.158  1.00  0.00     0.049 A 
ATOM     33  C   UNL     1      14.320   7.353  -9.624  1.00  0.00     0.074 A 
ATOM     34  C   UNL     1       8.767   9.169 -12.129  1.00  0.00     0.029 A 
ATOM     35  N   UNL     1      10.350   8.142 -10.952  1.00  0.00    -0.354 N 
ATOM     36  N   UNL     1      13.128   7.672 -10.065  1.00  0.00    -0.248 NA
ATOM     37  C   UNL     1      15.422   8.048 -10.299  1.00  0.00     0.031 C 
ATOM     38  C   UNL     1      10.012   9.657 -12.540  1.00  0.00     0.029 A 
ATOM     39  C   UNL     1      10.997   9.030 -11.795  1.00  0.00     0.049 A 
ATOM     40  H   UNL     1      10.797   7.552 -10.302  1.00  0.00     0.167 HD
ATOM     41  C   UNL     1      13.334   8.609 -11.065  1.00  0.00     0.074 A 
ATOM     42  C   UNL     1      14.764   8.829 -11.143  1.00  0.00     0.031 C 
ATOM     43  C   UNL     1      12.423   9.226 -11.855  1.00  0.00     0.037 A 
BRANCH  30  44
ATOM     44  C   UNL     1       6.566   7.542 -10.863  1.00  0.00     0.057 A 
ATOM     45  C   UNL     1       5.639   8.214 -10.057  1.00  0.00     0.134 A 
ATOM     46  C   UNL     1       6.121   7.068 -12.104  1.00  0.00     0.134 A 
ATOM     47  F   UNL     1       5.997   8.682  -8.853  1.00  0.00    -0.206 F 
ATOM     48  C   UNL     1       4.318   8.405 -10.470  1.00  0.00     0.040 A 
ATOM     49  C   UNL     1       4.810   7.271 -12.537  1.00  0.00     0.040 A 
ATOM     50  F   UNL     1       6.961   6.420 -12.925  1.00  0.00    -0.206 F 
ATOM     51  C   UNL     1       3.903   7.941 -11.718  1.00  0.00     0.006 A 
ENDBRANCH  30  44
BRANCH  31  52
ATOM     52  C   UNL     1      16.113   6.154  -8.170  1.00  0.00     0.057 A 
ATOM     53  C   UNL     1      16.864   7.142  -7.527  1.00  0.00     0.134 A 
ATOM     54  C   UNL     1      16.745   4.933  -8.439  1.00  0.00     0.134 A 
ATOM     55  F   UNL     1      16.317   8.336  -7.254  1.00  0.00    -0.206 F 
ATOM     56  C   UNL     1      18.200   6.932  -7.181  1.00  0.00     0.040 A 
ATOM     57  C   UNL     1      18.070   4.699  -8.071  1.00  0.00     0.040 A 
ATOM     58  F   UNL     1      16.075   3.940  -9.043  1.00  0.00    -0.206 F 
ATOM     59  C   UNL     1      18.804   5.705  -7.448  1.00  0.00     0.006 A 
ENDBRANCH  31  52
BRANCH  43  60
ATOM     60  C   UNL     1      12.957  10.205 -12.854  1.00  0.00     0.057 A 
ATOM     61  C   UNL     1      13.635   9.783 -14.005  1.00  0.00     0.134 A 
ATOM     62  C   UNL     1      12.782  11.582 -12.669  1.00  0.00     0.134 A 
ATOM     63  F   UNL     1      13.850   8.478 -14.227  1.00  0.00    -0.206 F 
ATOM     64  C   UNL     1      14.143  10.700 -14.925  1.00  0.00     0.040 A 
ATOM     65  C   UNL     1      13.263  12.506 -13.596  1.00  0.00     0.040 A 
ATOM     66  F   UNL     1      12.137  12.048 -11.589  1.00  0.00    -0.206 F 
ATOM     67  C   UNL     1      13.952  12.066 -14.724  1.00  0.00     0.006 A 
ENDBRANCH  43  60
ENDBRANCH  17  18
ENDBRANCH  10  12
ENDBRANCH   7   8
ENDBRANCH   6   7
ENDBRANCH   5   6
ENDBRANCH   1   5
BRANCH   2  68
ATOM     68  C   UNL     1       4.785   3.560   2.176  1.00  0.00     0.202 C 
BRANCH  68  69
ATOM     69  C   UNL     1       4.532   4.955   2.739  1.00  0.00    -0.016 A 
ATOM     70  C   UNL     1       3.856   5.110   3.960  1.00  0.00     0.006 A 
ATOM     71  C   UNL     1       4.978   6.104   2.064  1.00  0.00     0.006 A 
ATOM     72  C   UNL     1       3.639   6.379   4.497  1.00  0.00     0.000 A 
ATOM     73  C   UNL     1       4.760   7.372   2.606  1.00  0.00     0.000 A 
ATOM     74  C   UNL     1       4.091   7.509   3.821  1.00  0.00     0.000 A 
ENDBRANCH  68  69
BRANCH  68  75
ATOM     75  N   UNL     1       3.916   3.355   1.021  1.00  0.00    -0.340 N 
ATOM     76  C   UNL     1       3.052   2.358   0.690  1.00  0.00     0.224 C 
ATOM     77  H   UNL     1       3.964   4.077   0.353  1.00  0.00     0.164 HD
ATOM     78  O   UNL     1       2.454   2.481  -0.384  1.00  0.00    -0.275 OA
BRANCH  76  79
ATOM     79  C   UNL     1       2.837   1.096   1.538  1.00  0.00     0.078 C 
ATOM     80  C   UNL     1       4.090   0.217   1.638  1.00  0.00     0.014 C 
ATOM     81  C   UNL     1       2.155   1.391   2.877  1.00  0.00     0.014 C 
ATOM     82  C   UNL     1       3.933  -0.975   2.572  1.00  0.00     0.006 C 
ATOM     83  C   UNL     1       2.097   0.174   3.800  1.00  0.00     0.006 C 
ATOM     84  C   UNL     1       3.447  -0.543   3.961  1.00  0.00     0.008 C 
BRANCH  84  85
ATOM     85  C   UNL     1       4.523   0.295   4.678  1.00  0.00     0.119 C 
BRANCH  85  86
ATOM     86  N   UNL     1       4.170   0.604   6.048  1.00  0.00    -0.351 N 
ATOM     87  C   UNL     1       4.955   0.534   7.165  1.00  0.00     0.278 C 
ATOM     88  H   UNL     1       3.244   0.903   6.195  1.00  0.00     0.163 HD
ATOM     89  O   UNL     1       4.506   0.991   8.218  1.00  0.00    -0.268 OA
BRANCH  87  90
ATOM     90  C   UNL     1       6.372  -0.052   7.057  1.00  0.00     0.277 C 
ATOM     91  C   UNL     1       6.766  -0.732   8.380  1.00  0.00     0.111 C 
ATOM     92  N   UNL     1       7.308   0.999   6.563  1.00  0.00    -0.332 N 
ATOM     93  C   UNL     1       8.169  -1.254   8.225  1.00  0.00    -0.033 A 
ATOM     94  C   UNL     1       8.615   0.993   7.239  1.00  0.00     0.298 C 
ATOM     95  H   UNL     1       6.874   1.911   6.708  1.00  0.00     0.347 HD
ATOM     96  H   UNL     1       7.481   0.804   5.577  1.00  0.00     0.347 HD
ATOM     97  C   UNL     1       8.554  -2.533   8.626  1.00  0.00     0.004 A 
ATOM     98  C   UNL     1       9.093  -0.388   7.614  1.00  0.00     0.010 A 
ATOM     99  C   UNL     1       9.866  -2.953   8.413  1.00  0.00     0.000 A 
ATOM    100  C   UNL     1      10.411  -0.808   7.425  1.00  0.00     0.010 A 
ATOM    101  C   UNL     1      10.792  -2.093   7.817  1.00  0.00     0.001 A 
ENDBRANCH  87  90
ENDBRANCH  85  86
ENDBRANCH  84  85
ENDBRANCH  76  79
ENDBRANCH  68  75
ENDBRANCH   2  68
TORSDOF 16
