REMARK SMILES CNc1cc(-c2cncc(SCC(=O)NCCCNC(=O)c3ccc(-c4c5nc(c(-c6c(F)cccc6F)c6ccc([nH]6)c(-c6c(F)cccc6F)c6nc(c(-c7c(F)cccc7F)c7ccc4[nH]7)C=C6)C=C5)cc3)n2)c2cc[nH]c2n1
REMARK SMILES IDX 16 1 15 2 13 3 14 4 12 6 11 7 10 8 6 9 7 10 76 11 8 12 9 13
REMARK SMILES IDX 5 14 3 15 4 16 82 17 81 18 77 19 80 20 78 21 79 22 2 24 1 25
REMARK SMILES IDX 17 27 18 28 19 29 20 30 21 32 22 33 23 34 75 35 24 36 74 37
REMARK SMILES IDX 25 38 26 39 27 40 68 41 28 42 73 43 67 44 69 45 29 46 72 47
REMARK SMILES IDX 66 48 65 49 30 51 56 52 39 53 55 54 40 55 43 56 54 57 70 58
REMARK SMILES IDX 41 59 42 60 53 62 71 63 44 64 31 65 32 66 37 67 33 68 34 69
REMARK SMILES IDX 36 70 38 71 35 72 57 73 58 74 63 75 59 76 60 77 62 78 64 79
REMARK SMILES IDX 61 80 45 81 46 82 51 83 47 84 48 85 50 86 52 87 49 88
REMARK H PARENT 15 5 80 23 2 26 19 31 69 50 43 61
REMARK Flexibility Score: inf
ROOT
ATOM      1  C   UNL     1      -5.175  -7.463   4.571  1.00  0.00     0.117 C 
ENDROOT
BRANCH   1   2
ATOM      2  N   UNL     1      -4.032  -7.235   3.709  1.00  0.00    -0.355 N 
ATOM      3  C   UNL     1      -3.046  -6.295   3.770  1.00  0.00     0.230 C 
ATOM      4  O   UNL     1      -2.118  -6.419   2.966  1.00  0.00    -0.274 OA
ATOM      5  H   UNL     1      -3.955  -7.863   2.954  1.00  0.00     0.163 HD
BRANCH   3   6
ATOM      6  C   UNL     1      -3.002  -5.245   4.864  1.00  0.00     0.176 C 
BRANCH   6   7
ATOM      7  S   UNL     1      -4.460  -4.164   4.960  1.00  0.00    -0.095 SA
BRANCH   7   8
ATOM      8  C   UNL     1      -4.407  -3.294   3.410  1.00  0.00     0.116 A 
ATOM      9  C   UNL     1      -3.381  -2.739   1.423  1.00  0.00     0.091 A 
ATOM     10  C   UNL     1      -4.453  -1.901   1.117  1.00  0.00     0.140 A 
ATOM     11  N   UNL     1      -3.350  -3.448   2.584  1.00  0.00    -0.238 NA
ATOM     12  N   UNL     1      -5.517  -1.733   1.935  1.00  0.00    -0.260 NA
ATOM     13  C   UNL     1      -5.463  -2.446   3.084  1.00  0.00     0.146 A 
BRANCH   9  14
ATOM     14  C   UNL     1      -2.238  -2.866   0.527  1.00  0.00     0.016 A 
ATOM     15  C   UNL     1      -0.337  -1.929  -0.674  1.00  0.00     0.128 A 
ATOM     16  C   UNL     1      -1.389  -1.783   0.228  1.00  0.00     0.058 A 
ATOM     17  N   UNL     1      -0.094  -3.069  -1.343  1.00  0.00    -0.213 NA
ATOM     18  C   UNL     1      -0.902  -4.090  -1.020  1.00  0.00     0.140 A 
ATOM     19  C   UNL     1      -1.960  -4.084  -0.120  1.00  0.00     0.028 A 
ATOM     20  N   UNL     1      -0.793  -5.346  -1.546  1.00  0.00    -0.346 N 
ATOM     21  C   UNL     1      -2.499  -5.403  -0.130  1.00  0.00     0.030 A 
ATOM     22  C   UNL     1      -1.757  -6.160  -1.012  1.00  0.00     0.085 A 
ATOM     23  H   UNL     1      -0.121  -5.625  -2.211  1.00  0.00     0.167 HD
BRANCH  15  24
ATOM     24  N   UNL     1       0.548  -0.915  -0.954  1.00  0.00    -0.373 N 
ATOM     25  C   UNL     1       0.924   0.092   0.005  1.00  0.00     0.141 C 
ATOM     26  H   UNL     1       0.946  -0.876  -1.853  1.00  0.00     0.161 HD
ENDBRANCH  15  24
ENDBRANCH   9  14
ENDBRANCH   7   8
ENDBRANCH   6   7
ENDBRANCH   3   6
ENDBRANCH   1   2
BRANCH   1  27
ATOM     27  C   UNL     1      -6.491  -7.094   3.889  1.00  0.00     0.042 C 
BRANCH  27  28
ATOM     28  C   UNL     1      -6.814  -7.929   2.651  1.00  0.00     0.118 C 
BRANCH  28  29
ATOM     29  N   UNL     1      -7.038  -9.336   2.957  1.00  0.00    -0.352 N 
ATOM     30  C   UNL     1      -8.134 -10.130   2.733  1.00  0.00     0.251 C 
ATOM     31  H   UNL     1      -6.281  -9.789   3.394  1.00  0.00     0.163 HD
ATOM     32  O   UNL     1      -8.173 -11.259   3.225  1.00  0.00    -0.269 OA
BRANCH  30  33
ATOM     33  C   UNL     1      -9.279  -9.643   1.934  1.00  0.00     0.039 A 
ATOM     34  C   UNL     1     -10.575  -9.918   2.383  1.00  0.00     0.014 A 
ATOM     35  C   UNL     1      -9.092  -8.944   0.739  1.00  0.00     0.014 A 
ATOM     36  C   UNL     1     -11.676  -9.423   1.680  1.00  0.00     0.010 A 
ATOM     37  C   UNL     1     -10.188  -8.393   0.076  1.00  0.00     0.010 A 
ATOM     38  C   UNL     1     -11.491  -8.617   0.545  1.00  0.00    -0.014 A 
BRANCH  38  39
ATOM     39  C   UNL     1     -12.644  -7.974  -0.139  1.00  0.00     0.031 A 
ATOM     40  C   UNL     1     -12.982  -8.325  -1.562  1.00  0.00     0.074 A 
ATOM     41  C   UNL     1     -13.351  -7.023   0.505  1.00  0.00     0.049 A 
ATOM     42  N   UNL     1     -13.890  -7.803  -2.348  1.00  0.00    -0.248 NA
ATOM     43  C   UNL     1     -12.184  -9.388  -2.191  1.00  0.00     0.031 C 
ATOM     44  C   UNL     1     -13.101  -6.564   1.873  1.00  0.00     0.029 A 
ATOM     45  N   UNL     1     -14.413  -6.259   0.089  1.00  0.00    -0.354 N 
ATOM     46  C   UNL     1     -13.772  -8.471  -3.560  1.00  0.00     0.074 A 
ATOM     47  C   UNL     1     -12.670  -9.399  -3.425  1.00  0.00     0.031 C 
ATOM     48  C   UNL     1     -13.989  -5.607   2.186  1.00  0.00     0.029 A 
ATOM     49  C   UNL     1     -14.842  -5.353   1.030  1.00  0.00     0.049 A 
ATOM     50  H   UNL     1     -14.828  -6.351  -0.799  1.00  0.00     0.167 HD
ATOM     51  C   UNL     1     -14.528  -8.339  -4.676  1.00  0.00     0.037 A 
ATOM     52  C   UNL     1     -15.801  -4.410   0.963  1.00  0.00     0.037 A 
ATOM     53  C   UNL     1     -15.631  -7.423  -4.809  1.00  0.00     0.049 A 
ATOM     54  C   UNL     1     -16.600  -4.261  -0.303  1.00  0.00     0.074 A 
ATOM     55  C   UNL     1     -16.476  -7.242  -5.891  1.00  0.00     0.029 A 
ATOM     56  N   UNL     1     -16.042  -6.532  -3.829  1.00  0.00    -0.354 N 
ATOM     57  N   UNL     1     -16.512  -4.939  -1.421  1.00  0.00    -0.248 NA
ATOM     58  C   UNL     1     -17.634  -3.216  -0.317  1.00  0.00     0.031 C 
ATOM     59  C   UNL     1     -17.371  -6.215  -5.582  1.00  0.00     0.029 A 
ATOM     60  C   UNL     1     -17.116  -5.788  -4.289  1.00  0.00     0.049 A 
ATOM     61  H   UNL     1     -15.631  -6.442  -2.939  1.00  0.00     0.167 HD
ATOM     62  C   UNL     1     -17.494  -4.424  -2.257  1.00  0.00     0.074 A 
ATOM     63  C   UNL     1     -18.180  -3.390  -1.511  1.00  0.00     0.031 C 
ATOM     64  C   UNL     1     -17.798  -4.772  -3.531  1.00  0.00     0.037 A 
BRANCH  51  65
ATOM     65  C   UNL     1     -14.203  -9.222  -5.846  1.00  0.00     0.057 A 
ATOM     66  C   UNL     1     -14.481 -10.595  -5.828  1.00  0.00     0.134 A 
ATOM     67  C   UNL     1     -13.673  -8.686  -7.027  1.00  0.00     0.134 A 
ATOM     68  F   UNL     1     -14.982 -11.172  -4.725  1.00  0.00    -0.206 F 
ATOM     69  C   UNL     1     -14.229 -11.406  -6.935  1.00  0.00     0.040 A 
ATOM     70  C   UNL     1     -13.441  -9.483  -8.150  1.00  0.00     0.040 A 
ATOM     71  F   UNL     1     -13.391  -7.378  -7.116  1.00  0.00    -0.206 F 
ATOM     72  C   UNL     1     -13.716 -10.848  -8.104  1.00  0.00     0.006 A 
ENDBRANCH  51  65
BRANCH  52  73
ATOM     73  C   UNL     1     -16.060  -3.517   2.123  1.00  0.00     0.057 A 
ATOM     74  C   UNL     1     -17.262  -3.585   2.836  1.00  0.00     0.134 A 
ATOM     75  C   UNL     1     -15.130  -2.548   2.519  1.00  0.00     0.134 A 
ATOM     76  F   UNL     1     -18.201  -4.479   2.492  1.00  0.00    -0.206 F 
ATOM     77  C   UNL     1     -17.546  -2.701   3.878  1.00  0.00     0.040 A 
ATOM     78  C   UNL     1     -15.388  -1.677   3.579  1.00  0.00     0.040 A 
ATOM     79  F   UNL     1     -13.955  -2.435   1.883  1.00  0.00    -0.206 F 
ATOM     80  C   UNL     1     -16.605  -1.744   4.254  1.00  0.00     0.006 A 
ENDBRANCH  52  73
BRANCH  64  81
ATOM     81  C   UNL     1     -18.943  -4.055  -4.185  1.00  0.00     0.057 A 
ATOM     82  C   UNL     1     -18.845  -2.719  -4.591  1.00  0.00     0.134 A 
ATOM     83  C   UNL     1     -20.147  -4.724  -4.445  1.00  0.00     0.134 A 
ATOM     84  F   UNL     1     -17.724  -2.018  -4.358  1.00  0.00    -0.206 F 
ATOM     85  C   UNL     1     -19.910  -2.065  -5.212  1.00  0.00     0.040 A 
ATOM     86  C   UNL     1     -21.209  -4.089  -5.090  1.00  0.00     0.040 A 
ATOM     87  F   UNL     1     -20.304  -6.008  -4.090  1.00  0.00    -0.206 F 
ATOM     88  C   UNL     1     -21.094  -2.754  -5.470  1.00  0.00     0.006 A 
ENDBRANCH  64  81
ENDBRANCH  38  39
ENDBRANCH  30  33
ENDBRANCH  28  29
ENDBRANCH  27  28
ENDBRANCH   1  27
TORSDOF 14
