REMARK SMILES O=C(C[C@@H](c1ccc(Cl)c(Cl)c1)N1Cc2ccccc2C1=O)NCCCNC(=O)c1ccc(-c2c3nc(c(-c4c(F)cccc4F)c4ccc([nH]4)c(-c4c(F)cccc4F)c4nc(c(-c5c(F)cccc5F)c5ccc2[nH]5)C=C4)C=C3)cc1
REMARK SMILES IDX 25 1 24 2 23 3 1 4 2 5 3 7 4 8 5 9 6 10 12 11 7 12 10 13
REMARK SMILES IDX 8 14 11 15 9 16 13 17 14 18 21 19 15 20 20 21 22 22 16 23
REMARK SMILES IDX 19 24 17 25 18 26 26 27 27 28 28 29 29 31 30 32 31 33 83 34
REMARK SMILES IDX 32 35 82 36 33 37 34 38 35 39 76 40 36 41 81 42 75 43 77 44
REMARK SMILES IDX 37 45 80 46 74 47 73 48 38 50 64 51 47 52 63 53 48 54 51 55
REMARK SMILES IDX 62 56 78 57 49 58 50 59 61 61 79 62 52 63 39 64 40 65 45 66
REMARK SMILES IDX 41 67 42 68 44 69 46 70 43 71 65 72 66 73 71 74 67 75 68 76
REMARK SMILES IDX 70 77 72 78 69 79 53 80 54 81 59 82 55 83 56 84 58 85 60 86
REMARK SMILES IDX 57 87
REMARK H PARENT 23 6 27 30 77 49 51 60
REMARK Flexibility Score: inf
ROOT
ATOM      1  C   UNL     1       2.211   3.712  -0.007  1.00  0.00     0.042 C 
ENDROOT
BRANCH   1   2
ATOM      2  C   UNL     1       1.883   2.331  -0.559  1.00  0.00     0.117 C 
BRANCH   2   3
ATOM      3  N   UNL     1       2.591   1.255   0.106  1.00  0.00    -0.356 N 
ATOM      4  O   UNL     1       1.375  -0.419  -0.892  1.00  0.00    -0.275 OA
ATOM      5  C   UNL     1       2.316  -0.066  -0.188  1.00  0.00     0.222 C 
ATOM      6  H   UNL     1       3.279   1.469   0.778  1.00  0.00     0.163 HD
BRANCH   5   7
ATOM      7  C   UNL     1       3.327  -1.045   0.356  1.00  0.00     0.130 C 
BRANCH   7   8
ATOM      8  C   UNL     1       4.131  -1.744  -0.767  1.00  0.00     0.125 C 
BRANCH   8   9
ATOM      9  C   UNL     1       5.181  -0.844  -1.464  1.00  0.00    -0.023 A 
ATOM     10  C   UNL     1       4.844   0.423  -1.959  1.00  0.00     0.007 A 
ATOM     11  C   UNL     1       6.521  -1.238  -1.638  1.00  0.00     0.028 A 
ATOM     12  C   UNL     1       5.822   1.335  -2.373  1.00  0.00     0.022 A 
ATOM     13  C   UNL     1       7.510  -0.340  -2.064  1.00  0.00     0.060 A 
ATOM     14  C   UNL     1       7.165   0.971  -2.381  1.00  0.00     0.059 A 
ATOM     15  Cl  UNL     1       9.136  -0.916  -2.157  1.00  0.00    -0.083 Cl
ATOM     16  Cl  UNL     1       8.329   2.176  -2.791  1.00  0.00    -0.083 Cl
ENDBRANCH   8   9
BRANCH   8  17
ATOM     17  N   UNL     1       4.734  -2.959  -0.188  1.00  0.00    -0.327 N 
ATOM     18  C   UNL     1       4.221  -4.294  -0.460  1.00  0.00     0.157 C 
ATOM     19  C   UNL     1       5.728  -2.971   0.781  1.00  0.00     0.255 C 
ATOM     20  C   UNL     1       5.180  -5.164   0.286  1.00  0.00    -0.016 A 
ATOM     21  C   UNL     1       6.084  -4.374   0.996  1.00  0.00     0.045 A 
ATOM     22  O   UNL     1       6.255  -2.027   1.341  1.00  0.00    -0.269 OA
ATOM     23  C   UNL     1       5.285  -6.542   0.332  1.00  0.00     0.006 A 
ATOM     24  C   UNL     1       7.149  -4.896   1.704  1.00  0.00     0.014 A 
ATOM     25  C   UNL     1       6.346  -7.099   1.059  1.00  0.00     0.000 A 
ATOM     26  C   UNL     1       7.280  -6.283   1.725  1.00  0.00     0.001 A 
ENDBRANCH   8  17
ENDBRANCH   7   8
ENDBRANCH   5   7
ENDBRANCH   2   3
ENDBRANCH   1   2
BRANCH   1  27
ATOM     27  C   UNL     1       3.663   4.154  -0.163  1.00  0.00     0.118 C 
BRANCH  27  28
ATOM     28  N   UNL     1       4.065   4.426  -1.532  1.00  0.00    -0.352 N 
ATOM     29  C   UNL     1       4.911   5.395  -2.023  1.00  0.00     0.251 C 
ATOM     30  H   UNL     1       3.674   3.828  -2.210  1.00  0.00     0.163 HD
ATOM     31  O   UNL     1       5.122   5.448  -3.232  1.00  0.00    -0.269 OA
BRANCH  29  32
ATOM     32  C   UNL     1       5.509   6.415  -1.126  1.00  0.00     0.039 A 
ATOM     33  C   UNL     1       5.519   7.744  -1.560  1.00  0.00     0.014 A 
ATOM     34  C   UNL     1       6.039   6.096   0.127  1.00  0.00     0.014 A 
ATOM     35  C   UNL     1       5.990   8.754  -0.717  1.00  0.00     0.010 A 
ATOM     36  C   UNL     1       6.429   7.114   1.001  1.00  0.00     0.010 A 
ATOM     37  C   UNL     1       6.413   8.455   0.589  1.00  0.00    -0.014 A 
BRANCH  37  38
ATOM     38  C   UNL     1       6.846   9.544   1.507  1.00  0.00     0.031 A 
ATOM     39  C   UNL     1       8.264   9.604   2.010  1.00  0.00     0.074 A 
ATOM     40  C   UNL     1       5.959  10.482   1.899  1.00  0.00     0.049 A 
ATOM     41  N   UNL     1       8.832  10.501   2.779  1.00  0.00    -0.248 NA
ATOM     42  C   UNL     1       9.156   8.503   1.617  1.00  0.00     0.031 C 
ATOM     43  C   UNL     1       4.543  10.513   1.529  1.00  0.00     0.029 A 
ATOM     44  N   UNL     1       6.119  11.595   2.686  1.00  0.00    -0.354 N 
ATOM     45  C   UNL     1      10.141  10.071   2.959  1.00  0.00     0.074 A 
ATOM     46  C   UNL     1      10.264   8.801   2.279  1.00  0.00     0.031 C 
ATOM     47  C   UNL     1       3.974  11.611   2.053  1.00  0.00     0.029 A 
ATOM     48  C   UNL     1       4.974  12.344   2.823  1.00  0.00     0.049 A 
ATOM     49  H   UNL     1       6.973  11.835   3.113  1.00  0.00     0.167 HD
ATOM     50  C   UNL     1      11.158  10.690   3.606  1.00  0.00     0.037 A 
ATOM     51  C   UNL     1       4.754  13.495   3.488  1.00  0.00     0.037 A 
ATOM     52  C   UNL     1      11.039  11.959   4.277  1.00  0.00     0.049 A 
ATOM     53  C   UNL     1       5.898  14.159   4.206  1.00  0.00     0.074 A 
ATOM     54  C   UNL     1      12.021  12.687   4.927  1.00  0.00     0.029 A 
ATOM     55  N   UNL     1       9.863  12.686   4.390  1.00  0.00    -0.354 N 
ATOM     56  N   UNL     1       7.149  13.777   4.305  1.00  0.00    -0.248 NA
ATOM     57  C   UNL     1       5.603  15.426   4.890  1.00  0.00     0.031 C 
ATOM     58  C   UNL     1      11.428  13.827   5.479  1.00  0.00     0.029 A 
ATOM     59  C   UNL     1      10.091  13.845   5.115  1.00  0.00     0.049 A 
ATOM     60  H   UNL     1       8.995  12.419   4.011  1.00  0.00     0.167 HD
ATOM     61  C   UNL     1       7.796  14.774   5.025  1.00  0.00     0.074 A 
ATOM     62  C   UNL     1       6.802  15.784   5.324  1.00  0.00     0.031 C 
ATOM     63  C   UNL     1       9.097  14.850   5.399  1.00  0.00     0.037 A 
BRANCH  50  64
ATOM     64  C   UNL     1      12.492   9.997   3.618  1.00  0.00     0.057 A 
ATOM     65  C   UNL     1      13.259   9.844   2.453  1.00  0.00     0.134 A 
ATOM     66  C   UNL     1      13.031   9.499   4.811  1.00  0.00     0.134 A 
ATOM     67  F   UNL     1      12.799  10.288   1.273  1.00  0.00    -0.206 F 
ATOM     68  C   UNL     1      14.493   9.192   2.470  1.00  0.00     0.040 A 
ATOM     69  C   UNL     1      14.279   8.874   4.846  1.00  0.00     0.040 A 
ATOM     70  F   UNL     1      12.357   9.618   5.965  1.00  0.00    -0.206 F 
ATOM     71  C   UNL     1      15.009   8.711   3.671  1.00  0.00     0.006 A 
ENDBRANCH  50  64
BRANCH  51  72
ATOM     72  C   UNL     1       3.404  14.118   3.482  1.00  0.00     0.057 A 
ATOM     73  C   UNL     1       3.167  15.335   2.830  1.00  0.00     0.134 A 
ATOM     74  C   UNL     1       2.324  13.527   4.149  1.00  0.00     0.134 A 
ATOM     75  F   UNL     1       4.164  15.962   2.188  1.00  0.00    -0.206 F 
ATOM     76  C   UNL     1       1.917  15.955   2.866  1.00  0.00     0.040 A 
ATOM     77  C   UNL     1       1.061  14.121   4.168  1.00  0.00     0.040 A 
ATOM     78  F   UNL     1       2.480  12.357   4.787  1.00  0.00    -0.206 F 
ATOM     79  C   UNL     1       0.858  15.345   3.535  1.00  0.00     0.006 A 
ENDBRANCH  51  72
BRANCH  63  80
ATOM     80  C   UNL     1       9.534  16.094   6.122  1.00  0.00     0.057 A 
ATOM     81  C   UNL     1       9.107  16.397   7.421  1.00  0.00     0.134 A 
ATOM     82  C   UNL     1      10.408  16.999   5.505  1.00  0.00     0.134 A 
ATOM     83  F   UNL     1       8.262  15.579   8.068  1.00  0.00    -0.206 F 
ATOM     84  C   UNL     1       9.498  17.574   8.063  1.00  0.00     0.040 A 
ATOM     85  C   UNL     1      10.834  18.161   6.149  1.00  0.00     0.040 A 
ATOM     86  F   UNL     1      10.868  16.767   4.266  1.00  0.00    -0.206 F 
ATOM     87  C   UNL     1      10.368  18.457   7.428  1.00  0.00     0.006 A 
ENDBRANCH  63  80
ENDBRANCH  37  38
ENDBRANCH  29  32
ENDBRANCH  27  28
ENDBRANCH   1  27
TORSDOF 13
