REMARK SMILES CC(C)[C@H](C(=O)NCCCNC(=O)c1ccc(-c2c3nc(c(-c4c(F)cccc4F)c4ccc([nH]4)c(-c4c(F)cccc4F)c4nc(c(-c5c(F)cccc5F)c5ccc2[nH]5)C=C4)C=C3)cc1)[NH+]1CC2(CCCCCC2)C1
REMARK SMILES IDX 8 1 7 2 5 3 6 4 4 6 2 7 1 8 3 9 68 10 69 11 77 12 70 14
REMARK SMILES IDX 71 15 72 16 73 17 76 19 75 20 74 21 9 23 10 24 11 25 12 26
REMARK SMILES IDX 13 28 14 29 15 30 67 31 16 32 66 33 17 34 18 35 19 36 60 37
REMARK SMILES IDX 20 38 65 39 59 40 61 41 21 42 64 43 58 44 57 45 22 47 48 48
REMARK SMILES IDX 31 49 47 50 32 51 35 52 46 53 62 54 33 55 34 56 45 58 63 59
REMARK SMILES IDX 36 60 23 61 24 62 29 63 25 64 26 65 28 66 30 67 27 68 49 69
REMARK SMILES IDX 50 70 55 71 51 72 52 73 54 74 56 75 53 76 37 77 38 78 43 79
REMARK SMILES IDX 39 80 40 81 42 82 44 83 41 84
REMARK H PARENT 7 5 68 13 11 27 61 46 35 57
REMARK Flexibility Score: 90.00
ROOT
ATOM      1  C   UNL     1       0.442   3.662  -1.517  1.00  0.00     0.118 C 
ENDROOT
BRANCH   1   2
ATOM      2  N   UNL     1       0.837   2.435  -0.852  1.00  0.00    -0.351 N 
ATOM      3  C   UNL     1       0.122   1.470  -0.208  1.00  0.00     0.278 C 
ATOM      4  O   UNL     1       0.810   0.568   0.286  1.00  0.00    -0.268 OA
ATOM      5  H   UNL     1       1.807   2.268  -0.869  1.00  0.00     0.163 HD
BRANCH   3   6
ATOM      6  C   UNL     1      -1.452   1.466  -0.111  1.00  0.00     0.276 C 
BRANCH   6   7
ATOM      7  C   UNL     1      -1.892  -0.034   0.247  1.00  0.00     0.051 C 
ATOM      8  C   UNL     1      -3.266  -0.332   0.844  1.00  0.00     0.014 C 
ATOM      9  C   UNL     1      -1.801  -0.912  -1.020  1.00  0.00     0.014 C 
ENDBRANCH   6   7
BRANCH   6  10
ATOM     10  N   UNL     1      -1.958   2.723   0.523  1.00  0.00    -0.323 N 
ATOM     11  C   UNL     1      -1.184   3.361   1.614  1.00  0.00     0.275 C 
ATOM     12  C   UNL     1      -3.078   2.612   1.458  1.00  0.00     0.275 C 
ATOM     13  H   UNL     1      -2.047   3.185  -0.382  1.00  0.00     0.348 HD
ATOM     14  C   UNL     1      -2.072   2.652   2.692  1.00  0.00     0.068 C 
BRANCH  14  15
ATOM     15  C   UNL     1      -2.664   3.559   3.786  1.00  0.00     0.019 C 
BRANCH  15  16
ATOM     16  C   UNL     1      -3.459   2.837   4.888  1.00  0.00     0.001 C 
BRANCH  16  17
ATOM     17  C   UNL     1      -3.952   1.424   4.575  1.00  0.00     0.000 CG0
ATOM     18  G   UNL     1      -2.875   0.343   4.656  1.00  0.00     0.000 G0
ENDBRANCH  16  17
ENDBRANCH  15  16
ENDBRANCH  14  15
BRANCH  14  19
ATOM     19  C   UNL     1      -1.107   1.577   3.236  1.00  0.00     0.019 C 
BRANCH  19  20
ATOM     20  C   UNL     1      -1.452   0.842   4.516  1.00  0.00     0.001 C 
BRANCH  20  21
ATOM     21  C   UNL     1      -2.875   0.343   4.656  1.00  0.00     0.000 CG0
ATOM     22  G   UNL     1      -3.952   1.424   4.575  1.00  0.00     0.000 G0
ENDBRANCH  20  21
ENDBRANCH  19  20
ENDBRANCH  14  19
ENDBRANCH   6  10
ENDBRANCH   3   6
ENDBRANCH   1   2
BRANCH   1  23
ATOM     23  C   UNL     1       0.847   4.919  -0.738  1.00  0.00     0.042 C 
BRANCH  23  24
ATOM     24  C   UNL     1       2.345   5.077  -0.467  1.00  0.00     0.118 C 
BRANCH  24  25
ATOM     25  N   UNL     1       3.063   5.606  -1.613  1.00  0.00    -0.352 N 
ATOM     26  C   UNL     1       3.642   6.836  -1.814  1.00  0.00     0.251 C 
ATOM     27  H   UNL     1       3.150   4.981  -2.370  1.00  0.00     0.163 HD
ATOM     28  O   UNL     1       3.996   7.149  -2.948  1.00  0.00    -0.269 OA
BRANCH  26  29
ATOM     29  C   UNL     1       3.845   7.801  -0.703  1.00  0.00     0.039 A 
ATOM     30  C   UNL     1       3.657   9.164  -0.963  1.00  0.00     0.014 A 
ATOM     31  C   UNL     1       4.307   7.402   0.555  1.00  0.00     0.014 A 
ATOM     32  C   UNL     1       3.889  10.114   0.039  1.00  0.00     0.010 A 
ATOM     33  C   UNL     1       4.477   8.345   1.574  1.00  0.00     0.010 A 
ATOM     34  C   UNL     1       4.282   9.713   1.325  1.00  0.00    -0.014 A 
BRANCH  34  35
ATOM     35  C   UNL     1       4.505  10.712   2.407  1.00  0.00     0.031 A 
ATOM     36  C   UNL     1       5.877  10.911   2.997  1.00  0.00     0.074 A 
ATOM     37  C   UNL     1       3.465  11.412   2.900  1.00  0.00     0.049 A 
ATOM     38  N   UNL     1       6.252  11.693   3.979  1.00  0.00    -0.248 NA
ATOM     39  C   UNL     1       6.966  10.107   2.423  1.00  0.00     0.031 C 
ATOM     40  C   UNL     1       2.077  11.290   2.453  1.00  0.00     0.029 A 
ATOM     41  N   UNL     1       3.412  12.357   3.896  1.00  0.00    -0.354 N 
ATOM     42  C   UNL     1       7.610  11.459   4.154  1.00  0.00     0.074 A 
ATOM     43  C   UNL     1       7.984  10.432   3.205  1.00  0.00     0.031 C 
ATOM     44  C   UNL     1       1.313  12.139   3.159  1.00  0.00     0.029 A 
ATOM     45  C   UNL     1       2.148  12.840   4.130  1.00  0.00     0.049 A 
ATOM     46  H   UNL     1       4.205  12.659   4.395  1.00  0.00     0.167 HD
ATOM     47  C   UNL     1       8.473  12.056   5.013  1.00  0.00     0.037 A 
ATOM     48  C   UNL     1       1.706  13.742   5.028  1.00  0.00     0.037 A 
ATOM     49  C   UNL     1       8.112  13.100   5.937  1.00  0.00     0.049 A 
ATOM     50  C   UNL     1       2.681  14.399   5.963  1.00  0.00     0.074 A 
ATOM     51  C   UNL     1       8.931  13.817   6.793  1.00  0.00     0.029 A 
ATOM     52  N   UNL     1       6.824  13.576   6.129  1.00  0.00    -0.354 N 
ATOM     53  N   UNL     1       3.974  14.216   6.069  1.00  0.00    -0.248 NA
ATOM     54  C   UNL     1       2.136  15.393   6.899  1.00  0.00     0.031 C 
ATOM     55  C   UNL     1       8.133  14.696   7.532  1.00  0.00     0.029 A 
ATOM     56  C   UNL     1       6.822  14.559   7.106  1.00  0.00     0.049 A 
ATOM     57  H   UNL     1       6.027  13.261   5.642  1.00  0.00     0.167 HD
ATOM     58  C   UNL     1       4.401  15.085   7.066  1.00  0.00     0.074 A 
ATOM     59  C   UNL     1       3.231  15.805   7.523  1.00  0.00     0.031 C 
ATOM     60  C   UNL     1       5.652  15.269   7.555  1.00  0.00     0.037 A 
BRANCH  47  61
ATOM     61  C   UNL     1       9.900  11.588   4.994  1.00  0.00     0.057 A 
ATOM     62  C   UNL     1      10.758  11.869   3.923  1.00  0.00     0.134 A 
ATOM     63  C   UNL     1      10.429  10.865   6.072  1.00  0.00     0.134 A 
ATOM     64  F   UNL     1      10.312  12.550   2.856  1.00  0.00    -0.206 F 
ATOM     65  C   UNL     1      12.080  11.421   3.908  1.00  0.00     0.040 A 
ATOM     66  C   UNL     1      11.758  10.435   6.081  1.00  0.00     0.040 A 
ATOM     67  F   UNL     1       9.666  10.569   7.135  1.00  0.00    -0.206 F 
ATOM     68  C   UNL     1      12.585  10.706   4.992  1.00  0.00     0.006 A 
ENDBRANCH  47  61
BRANCH  48  69
ATOM     69  C   UNL     1       0.265  14.093   5.066  1.00  0.00     0.057 A 
ATOM     70  C   UNL     1      -0.188  15.333   4.603  1.00  0.00     0.134 A 
ATOM     71  C   UNL     1      -0.693  13.196   5.554  1.00  0.00     0.134 A 
ATOM     72  F   UNL     1       0.686  16.241   4.143  1.00  0.00    -0.206 F 
ATOM     73  C   UNL     1      -1.541  15.674   4.630  1.00  0.00     0.040 A 
ATOM     74  C   UNL     1      -2.052  13.515   5.566  1.00  0.00     0.040 A 
ATOM     75  F   UNL     1      -0.323  11.990   6.007  1.00  0.00    -0.206 F 
ATOM     76  C   UNL     1      -2.478  14.760   5.107  1.00  0.00     0.006 A 
ENDBRANCH  48  69
BRANCH  60  77
ATOM     77  C   UNL     1       5.824  16.305   8.626  1.00  0.00     0.057 A 
ATOM     78  C   UNL     1       5.383  16.092   9.938  1.00  0.00     0.134 A 
ATOM     79  C   UNL     1       6.471  17.517   8.350  1.00  0.00     0.134 A 
ATOM     80  F   UNL     1       4.744  14.959  10.265  1.00  0.00    -0.206 F 
ATOM     81  C   UNL     1       5.561  17.055  10.933  1.00  0.00     0.040 A 
ATOM     82  C   UNL     1       6.677  18.477   9.342  1.00  0.00     0.040 A 
ATOM     83  F   UNL     1       6.925  17.781   7.115  1.00  0.00    -0.206 F 
ATOM     84  C   UNL     1       6.216  18.250  10.637  1.00  0.00     0.006 A 
ENDBRANCH  60  77
ENDBRANCH  34  35
ENDBRANCH  26  29
ENDBRANCH  24  25
ENDBRANCH  23  24
ENDBRANCH   1  23
TORSDOF 12
