REMARK SMILES NS(=O)(=O)c1ccc(C#Cc2cc(Cl)cc3c2O[C@H](C(F)(F)F)C(C(=O)NCCCNC(=O)c2ccc(-c4c5nc(c(-c6c(F)cccc6F)c6ccc([nH]6)c(-c6c(F)cccc6F)c6nc(c(-c7c(F)cccc7F)c7ccc4[nH]7)C=C6)C=C5)cc2)=C3)cc1
REMARK SMILES IDX 28 1 27 2 25 3 26 4 24 6 11 7 12 8 17 9 13 10 16 11 18 12
REMARK SMILES IDX 14 13 15 14 88 15 19 16 10 17 9 18 8 19 5 20 6 21 90 22 7 23
REMARK SMILES IDX 89 24 2 25 3 26 4 27 1 28 20 31 21 32 22 33 23 34 29 35
REMARK SMILES IDX 30 36 31 37 32 38 33 40 34 41 35 42 87 43 36 44 86 45 37 46
REMARK SMILES IDX 38 47 39 48 80 49 40 50 85 51 79 52 81 53 41 54 84 55 78 56
REMARK SMILES IDX 77 57 42 59 68 60 51 61 67 62 52 63 55 64 66 65 82 66 53 67
REMARK SMILES IDX 54 68 65 70 83 71 56 72 43 73 44 74 49 75 45 76 46 77 48 78
REMARK SMILES IDX 50 79 47 80 69 81 70 82 75 83 71 84 72 85 74 86 76 87 73 88
REMARK SMILES IDX 57 89 58 90 63 91 59 92 60 93 62 94 64 95 61 96
REMARK H PARENT 27 5 1 29 1 30 31 39 81 58 55 69
REMARK Flexibility Score: inf
ROOT
ATOM      1  C   UNL     1       9.310  -6.555   6.349  1.00  0.00     0.118 C 
ENDROOT
BRANCH   1   2
ATOM      2  N   UNL     1       9.235  -7.998   6.513  1.00  0.00    -0.352 N 
ATOM      3  C   UNL     1       8.366  -8.986   6.192  1.00  0.00     0.251 C 
ATOM      4  O   UNL     1       8.713 -10.126   6.514  1.00  0.00    -0.270 OA
ATOM      5  H   UNL     1      10.025  -8.351   6.983  1.00  0.00     0.163 HD
BRANCH   3   6
ATOM      6  C   UNL     1       7.061  -8.773   5.503  1.00  0.00     0.067 C 
ATOM      7  C   UNL     1       3.243  -8.225   3.837  1.00  0.00     0.069 A 
ATOM      8  C   UNL     1       2.490  -9.337   3.458  1.00  0.00     0.041 A 
ATOM      9  C   UNL     1       4.497  -8.412   4.431  1.00  0.00     0.143 A 
ATOM     10  C   UNL     1       2.991 -10.619   3.685  1.00  0.00     0.043 A 
ATOM     11  C   UNL     1       4.997  -9.699   4.666  1.00  0.00     0.020 A 
ATOM     12  O   UNL     1       5.184  -7.294   4.814  1.00  0.00    -0.474 OA
ATOM     13  Cl  UNL     1       2.056 -11.988   3.223  1.00  0.00    -0.084 Cl
ATOM     14  C   UNL     1       4.236 -10.807   4.289  1.00  0.00     0.032 A 
ATOM     15  C   UNL     1       6.283  -9.858   5.338  1.00  0.00     0.025 C 
ATOM     16  C   UNL     1       6.612  -7.441   4.983  1.00  0.00     0.314 C 
BRANCH   7  17
ATOM     17  C   UNL     1       2.736  -6.906   3.596  1.00  0.00    -0.058 C 
ATOM     18  C   UNL     1       2.342  -5.789   3.380  1.00  0.00    -0.062 C 
BRANCH  18  19
ATOM     19  C   UNL     1       1.883  -4.469   3.077  1.00  0.00     0.025 A 
ATOM     20  C   UNL     1       1.016  -1.911   2.381  1.00  0.00     0.082 A 
ATOM     21  C   UNL     1       2.216  -2.069   3.083  1.00  0.00     0.023 A 
ATOM     22  C   UNL     1       0.230  -3.020   2.056  1.00  0.00     0.023 A 
ATOM     23  C   UNL     1       2.650  -3.353   3.427  1.00  0.00     0.018 A 
ATOM     24  C   UNL     1       0.669  -4.299   2.403  1.00  0.00     0.018 A 
BRANCH  20  25
ATOM     25  S   UNL     1       0.475  -0.289   1.926  1.00  0.00     0.238 S 
ATOM     26  O   UNL     1       1.168   0.689   2.733  1.00  0.00    -0.207 OA
ATOM     27  O   UNL     1      -0.961  -0.292   1.774  1.00  0.00    -0.207 OA
BRANCH  25  28
ATOM     28  N   UNL     1       1.108  -0.139   0.378  1.00  0.00    -0.225 NA
ATOM     29  H   UNL     1       0.860   0.774  -0.003  1.00  0.00     0.137 HD
ATOM     30  H   UNL     1       0.724  -0.872  -0.218  1.00  0.00     0.137 HD
ENDBRANCH  25  28
ENDBRANCH  20  25
ENDBRANCH  18  19
ENDBRANCH   7  17
BRANCH  16  31
ATOM     31  C   UNL     1       7.333  -7.046   3.677  1.00  0.00     0.429 C 
ATOM     32  F   UNL     1       7.224  -5.710   3.464  1.00  0.00    -0.167 F 
ATOM     33  F   UNL     1       8.660  -7.319   3.710  1.00  0.00    -0.167 F 
ATOM     34  F   UNL     1       6.833  -7.676   2.593  1.00  0.00    -0.167 F 
ENDBRANCH  16  31
ENDBRANCH   3   6
ENDBRANCH   1   2
BRANCH   1  35
ATOM     35  C   UNL     1       9.118  -5.824   7.664  1.00  0.00     0.042 C 
BRANCH  35  36
ATOM     36  C   UNL     1      10.403  -5.787   8.471  1.00  0.00     0.118 C 
BRANCH  36  37
ATOM     37  N   UNL     1      11.463  -5.045   7.786  1.00  0.00    -0.352 N 
ATOM     38  C   UNL     1      12.062  -3.846   8.089  1.00  0.00     0.251 C 
ATOM     39  H   UNL     1      11.803  -5.477   6.970  1.00  0.00     0.163 HD
ATOM     40  O   UNL     1      12.758  -3.281   7.252  1.00  0.00    -0.269 OA
BRANCH  38  41
ATOM     41  C   UNL     1      11.848  -3.237   9.415  1.00  0.00     0.039 A 
ATOM     42  C   UNL     1      11.745  -4.051  10.538  1.00  0.00     0.014 A 
ATOM     43  C   UNL     1      11.728  -1.851   9.539  1.00  0.00     0.014 A 
ATOM     44  C   UNL     1      11.267  -3.520  11.720  1.00  0.00     0.010 A 
ATOM     45  C   UNL     1      11.409  -1.297  10.782  1.00  0.00     0.010 A 
ATOM     46  C   UNL     1      11.114  -2.133  11.870  1.00  0.00    -0.014 A 
BRANCH  46  47
ATOM     47  C   UNL     1      10.660  -1.616  13.185  1.00  0.00     0.031 A 
ATOM     48  C   UNL     1       9.386  -0.826  13.315  1.00  0.00     0.074 A 
ATOM     49  C   UNL     1      11.362  -1.955  14.285  1.00  0.00     0.049 A 
ATOM     50  N   UNL     1       8.806  -0.373  14.399  1.00  0.00    -0.248 NA
ATOM     51  C   UNL     1       8.672  -0.492  12.073  1.00  0.00     0.031 C 
ATOM     52  C   UNL     1      12.611  -2.726  14.287  1.00  0.00     0.029 A 
ATOM     53  N   UNL     1      11.108  -1.742  15.614  1.00  0.00    -0.354 N 
ATOM     54  C   UNL     1       7.670   0.302  13.970  1.00  0.00     0.074 A 
ATOM     55  C   UNL     1       7.669   0.247  12.525  1.00  0.00     0.031 C 
ATOM     56  C   UNL     1      12.963  -2.995  15.551  1.00  0.00     0.029 A 
ATOM     57  C   UNL     1      12.024  -2.336  16.448  1.00  0.00     0.049 A 
ATOM     58  H   UNL     1      10.343  -1.215  15.940  1.00  0.00     0.167 HD
ATOM     59  C   UNL     1       6.706   0.899  14.713  1.00  0.00     0.037 A 
ATOM     60  C   UNL     1      12.113  -2.333  17.789  1.00  0.00     0.037 A 
ATOM     61  C   UNL     1       6.716   0.960  16.153  1.00  0.00     0.049 A 
ATOM     62  C   UNL     1      11.076  -1.587  18.577  1.00  0.00     0.074 A 
ATOM     63  C   UNL     1       5.791   1.544  17.000  1.00  0.00     0.029 A 
ATOM     64  N   UNL     1       7.710   0.424  16.960  1.00  0.00    -0.354 N 
ATOM     65  N   UNL     1       9.998  -0.969  18.157  1.00  0.00    -0.248 NA
ATOM     66  C   UNL     1      11.274  -1.537  20.030  1.00  0.00     0.031 C 
ATOM     67  C   UNL     1       6.255   1.416  18.314  1.00  0.00     0.029 A 
ATOM     68  C   UNL     1       7.433   0.688  18.293  1.00  0.00     0.049 A 
ATOM     69  H   UNL     1       8.496  -0.071  16.634  1.00  0.00     0.167 HD
ATOM     70  C   UNL     1       9.376  -0.480  19.297  1.00  0.00     0.074 A 
ATOM     71  C   UNL     1      10.179  -0.907  20.425  1.00  0.00     0.031 C 
ATOM     72  C   UNL     1       8.245   0.261  19.405  1.00  0.00     0.037 A 
BRANCH  59  73
ATOM     73  C   UNL     1       5.572   1.556  13.974  1.00  0.00     0.057 A 
ATOM     74  C   UNL     1       5.415   2.948  13.995  1.00  0.00     0.134 A 
ATOM     75  C   UNL     1       4.626   0.815  13.252  1.00  0.00     0.134 A 
ATOM     76  F   UNL     1       6.277   3.721  14.674  1.00  0.00    -0.206 F 
ATOM     77  C   UNL     1       4.365   3.578  13.325  1.00  0.00     0.040 A 
ATOM     78  C   UNL     1       3.591   1.435  12.550  1.00  0.00     0.040 A 
ATOM     79  F   UNL     1       4.721  -0.522  13.178  1.00  0.00    -0.206 F 
ATOM     80  C   UNL     1       3.455   2.821  12.590  1.00  0.00     0.006 A 
ENDBRANCH  59  73
BRANCH  60  81
ATOM     81  C   UNL     1      13.233  -3.028  18.475  1.00  0.00     0.057 A 
ATOM     82  C   UNL     1      14.558  -2.600  18.325  1.00  0.00     0.134 A 
ATOM     83  C   UNL     1      12.998  -4.101  19.343  1.00  0.00     0.134 A 
ATOM     84  F   UNL     1      14.855  -1.585  17.500  1.00  0.00    -0.206 F 
ATOM     85  C   UNL     1      15.606  -3.208  19.016  1.00  0.00     0.040 A 
ATOM     86  C   UNL     1      14.031  -4.692  20.070  1.00  0.00     0.040 A 
ATOM     87  F   UNL     1      11.749  -4.550  19.539  1.00  0.00    -0.206 F 
ATOM     88  C   UNL     1      15.341  -4.245  19.907  1.00  0.00     0.006 A 
ENDBRANCH  60  81
BRANCH  72  89
ATOM     89  C   UNL     1       7.798   0.608  20.797  1.00  0.00     0.057 A 
ATOM     90  C   UNL     1       6.630   0.046  21.329  1.00  0.00     0.134 A 
ATOM     91  C   UNL     1       8.531   1.470  21.624  1.00  0.00     0.134 A 
ATOM     92  F   UNL     1       5.871  -0.778  20.590  1.00  0.00    -0.206 F 
ATOM     93  C   UNL     1       6.218   0.314  22.634  1.00  0.00     0.040 A 
ATOM     94  C   UNL     1       8.152   1.714  22.945  1.00  0.00     0.040 A 
ATOM     95  F   UNL     1       9.667   2.033  21.183  1.00  0.00    -0.206 F 
ATOM     96  C   UNL     1       6.990   1.136  23.452  1.00  0.00     0.006 A 
ENDBRANCH  72  89
ENDBRANCH  46  47
ENDBRANCH  38  41
ENDBRANCH  36  37
ENDBRANCH  35  36
ENDBRANCH   1  35
TORSDOF 15
