REMARK SMILES O=C(NCCCNC(=O)[C@H]1Cc2[nH]cnc2CN1C(=O)C[C@]12C[C@H]3C[C@H](C[C@H](C3)C1)C2)c1ccc(-c2c3nc(c(-c4c(F)cccc4F)c4ccc([nH]4)c(-c4c(F)cccc4F)c4nc(c(-c5c(F)cccc5F)c5ccc2[nH]5)C=C4)C=C3)cc1
REMARK SMILES IDX 5 1 4 2 3 3 1 4 2 5 32 7 33 8 85 9 34 10 84 11 35 12 36 13
REMARK SMILES IDX 37 14 78 15 38 16 83 17 77 18 79 19 39 20 82 21 76 22 75 23
REMARK SMILES IDX 40 25 66 26 49 27 65 28 50 29 53 30 64 31 80 32 51 33 52 34
REMARK SMILES IDX 63 36 81 37 54 38 41 39 42 40 47 41 43 42 44 43 46 44 48 45
REMARK SMILES IDX 45 46 67 47 68 48 73 49 69 50 70 51 72 52 74 53 71 54 55 55
REMARK SMILES IDX 56 56 61 57 57 58 58 59 60 60 62 61 59 62 6 63 7 64 8 65
REMARK SMILES IDX 9 67 10 68 11 69 18 70 12 71 17 72 13 73 16 74 14 75 15 77
REMARK SMILES IDX 19 78 20 79 21 80 22 81 23 82 30 83 31 84 24 85 28 86 26 87
REMARK SMILES IDX 25 88 29 89 27 90
REMARK H PARENT 3 6 79 24 53 35 7 66 13 76
REMARK Flexibility Score: inf
ROOT
ATOM      1  C   UNL     1       5.881   0.937  -1.051  1.00  0.00     0.042 C 
ENDROOT
BRANCH   1   2
ATOM      2  C   UNL     1       5.278   0.415   0.260  1.00  0.00     0.118 C 
BRANCH   2   3
ATOM      3  N   UNL     1       3.846   0.461   0.507  1.00  0.00    -0.352 N 
ATOM      4  O   UNL     1       1.751  -0.028   0.954  1.00  0.00    -0.269 OA
ATOM      5  C   UNL     1       2.717  -0.276   0.234  1.00  0.00     0.251 C 
ATOM      6  H   UNL     1       3.614   1.264   1.028  1.00  0.00     0.163 HD
BRANCH   5   7
ATOM      7  C   UNL     1       2.513  -1.256  -0.871  1.00  0.00     0.039 A 
ATOM      8  C   UNL     1       3.509  -1.814  -1.661  1.00  0.00     0.014 A 
ATOM      9  C   UNL     1       1.170  -1.638  -1.123  1.00  0.00     0.014 A 
ATOM     10  C   UNL     1       3.164  -2.705  -2.691  1.00  0.00     0.010 A 
ATOM     11  C   UNL     1       0.825  -2.533  -2.141  1.00  0.00     0.010 A 
ATOM     12  C   UNL     1       1.823  -3.065  -2.943  1.00  0.00    -0.014 A 
BRANCH  12  13
ATOM     13  C   UNL     1       1.554  -4.157  -3.896  1.00  0.00     0.031 A 
ATOM     14  C   UNL     1       2.228  -5.444  -3.533  1.00  0.00     0.074 A 
ATOM     15  C   UNL     1       0.685  -4.154  -4.933  1.00  0.00     0.049 A 
ATOM     16  N   UNL     1       3.180  -6.051  -4.164  1.00  0.00    -0.248 NA
ATOM     17  C   UNL     1       1.874  -6.065  -2.247  1.00  0.00     0.031 C 
ATOM     18  C   UNL     1      -0.326  -3.155  -5.287  1.00  0.00     0.029 A 
ATOM     19  N   UNL     1       0.492  -5.123  -5.883  1.00  0.00    -0.354 N 
ATOM     20  C   UNL     1       3.448  -7.215  -3.442  1.00  0.00     0.074 A 
ATOM     21  C   UNL     1       2.708  -7.107  -2.212  1.00  0.00     0.031 C 
ATOM     22  C   UNL     1      -1.146  -3.659  -6.242  1.00  0.00     0.029 A 
ATOM     23  C   UNL     1      -0.641  -4.953  -6.673  1.00  0.00     0.049 A 
ATOM     24  H   UNL     1       1.108  -5.882  -5.997  1.00  0.00     0.167 HD
ATOM     25  C   UNL     1       4.128  -8.262  -3.990  1.00  0.00     0.037 A 
ATOM     26  C   UNL     1      -1.141  -5.825  -7.589  1.00  0.00     0.037 A 
ATOM     27  C   UNL     1       4.832  -7.865  -5.179  1.00  0.00     0.049 A 
ATOM     28  C   UNL     1      -0.053  -6.760  -7.965  1.00  0.00     0.074 A 
ATOM     29  C   UNL     1       5.845  -6.970  -5.463  1.00  0.00     0.029 A 
ATOM     30  N   UNL     1       4.275  -8.190  -6.390  1.00  0.00    -0.354 N 
ATOM     31  N   UNL     1       1.001  -6.420  -8.649  1.00  0.00    -0.248 NA
ATOM     32  C   UNL     1       0.060  -7.997  -7.210  1.00  0.00     0.031 C 
ATOM     33  C   UNL     1       5.505  -6.428  -6.737  1.00  0.00     0.029 A 
ATOM     34  C   UNL     1       4.343  -7.067  -7.170  1.00  0.00     0.049 A 
ATOM     35  H   UNL     1       3.899  -9.062  -6.648  1.00  0.00     0.167 HD
ATOM     36  C   UNL     1       2.036  -7.143  -8.079  1.00  0.00     0.074 A 
ATOM     37  C   UNL     1       1.384  -8.158  -7.255  1.00  0.00     0.031 C 
ATOM     38  C   UNL     1       3.318  -6.681  -8.109  1.00  0.00     0.037 A 
BRANCH  25  39
ATOM     39  C   UNL     1       3.893  -9.718  -3.663  1.00  0.00     0.057 A 
ATOM     40  C   UNL     1       4.741 -10.695  -4.222  1.00  0.00     0.134 A 
ATOM     41  C   UNL     1       2.706 -10.215  -3.093  1.00  0.00     0.134 A 
ATOM     42  F   UNL     1       5.904 -10.352  -4.798  1.00  0.00    -0.206 F 
ATOM     43  C   UNL     1       4.387 -12.047  -4.295  1.00  0.00     0.040 A 
ATOM     44  C   UNL     1       2.365 -11.571  -3.116  1.00  0.00     0.040 A 
ATOM     45  F   UNL     1       1.768  -9.412  -2.577  1.00  0.00    -0.206 F 
ATOM     46  C   UNL     1       3.188 -12.488  -3.751  1.00  0.00     0.006 A 
ENDBRANCH  25  39
BRANCH  26  47
ATOM     47  C   UNL     1      -2.552  -6.112  -7.949  1.00  0.00     0.057 A 
ATOM     48  C   UNL     1      -2.890  -6.807  -9.123  1.00  0.00     0.134 A 
ATOM     49  C   UNL     1      -3.579  -5.982  -6.999  1.00  0.00     0.134 A 
ATOM     50  F   UNL     1      -1.969  -7.027 -10.073  1.00  0.00    -0.206 F 
ATOM     51  C   UNL     1      -4.164  -7.359  -9.328  1.00  0.00     0.040 A 
ATOM     52  C   UNL     1      -4.855  -6.526  -7.192  1.00  0.00     0.040 A 
ATOM     53  F   UNL     1      -3.347  -5.407  -5.811  1.00  0.00    -0.206 F 
ATOM     54  C   UNL     1      -5.148  -7.230  -8.353  1.00  0.00     0.006 A 
ENDBRANCH  26  47
BRANCH  38  55
ATOM     55  C   UNL     1       3.633  -5.510  -8.994  1.00  0.00     0.057 A 
ATOM     56  C   UNL     1       3.111  -4.222  -8.807  1.00  0.00     0.134 A 
ATOM     57  C   UNL     1       4.643  -5.654  -9.952  1.00  0.00     0.134 A 
ATOM     58  F   UNL     1       2.208  -3.969  -7.851  1.00  0.00    -0.206 F 
ATOM     59  C   UNL     1       3.559  -3.132  -9.560  1.00  0.00     0.040 A 
ATOM     60  C   UNL     1       5.122  -4.568 -10.686  1.00  0.00     0.040 A 
ATOM     61  F   UNL     1       5.224  -6.849 -10.146  1.00  0.00    -0.206 F 
ATOM     62  C   UNL     1       4.577  -3.302 -10.495  1.00  0.00     0.006 A 
ENDBRANCH  38  55
ENDBRANCH  12  13
ENDBRANCH   5   7
ENDBRANCH   2   3
ENDBRANCH   1   2
BRANCH   1  63
ATOM     63  C   UNL     1       5.977   2.421  -1.478  1.00  0.00     0.117 C 
BRANCH  63  64
ATOM     64  N   UNL     1       6.304   3.509  -0.559  1.00  0.00    -0.354 N 
ATOM     65  C   UNL     1       6.451   4.877  -0.755  1.00  0.00     0.243 C 
ATOM     66  H   UNL     1       6.447   3.219   0.371  1.00  0.00     0.163 HD
ATOM     67  O   UNL     1       6.715   5.527   0.266  1.00  0.00    -0.273 OA
BRANCH  65  68
ATOM     68  C   UNL     1       6.359   5.640  -2.156  1.00  0.00     0.180 C 
ATOM     69  C   UNL     1       6.362   4.700  -3.402  1.00  0.00     0.091 C 
ATOM     70  N   UNL     1       5.553   6.953  -2.398  1.00  0.00    -0.324 N 
ATOM     71  C   UNL     1       6.198   5.439  -4.663  1.00  0.00     0.042 A 
ATOM     72  C   UNL     1       5.967   7.718  -3.617  1.00  0.00     0.178 C 
ATOM     73  N   UNL     1       6.075   4.921  -5.918  1.00  0.00    -0.348 N 
ATOM     74  C   UNL     1       5.991   6.787  -4.781  1.00  0.00     0.081 A 
ATOM     75  C   UNL     1       5.792   5.972  -6.747  1.00  0.00     0.197 A 
ATOM     76  H   UNL     1       6.170   3.975  -6.177  1.00  0.00     0.167 HD
ATOM     77  N   UNL     1       5.758   7.115  -6.092  1.00  0.00    -0.240 NA
BRANCH  70  78
ATOM     78  C   UNL     1       4.398   7.458  -1.799  1.00  0.00     0.224 C 
ATOM     79  O   UNL     1       3.813   8.451  -2.252  1.00  0.00    -0.275 OA
BRANCH  78  80
ATOM     80  C   UNL     1       3.809   6.862  -0.538  1.00  0.00     0.107 C 
BRANCH  80  81
ATOM     81  C   UNL     1       2.814   5.699  -0.732  1.00  0.00    -0.020 C 
ATOM     82  C   UNL     1       2.875   4.825   0.547  1.00  0.00     0.011 C 
ATOM     83  C   UNL     1       3.174   4.871  -1.972  1.00  0.00     0.011 C 
ATOM     84  C   UNL     1       1.333   6.127  -0.917  1.00  0.00     0.011 C 
ATOM     85  C   UNL     1       1.995   3.582   0.398  1.00  0.00    -0.010 C 
ATOM     86  C   UNL     1       2.319   3.624  -2.110  1.00  0.00    -0.010 C 
ATOM     87  C   UNL     1       0.422   4.875  -1.070  1.00  0.00    -0.010 C 
ATOM     88  C   UNL     1       0.538   3.997   0.190  1.00  0.00     0.007 C 
ATOM     89  C   UNL     1       2.454   2.801  -0.833  1.00  0.00     0.007 C 
ATOM     90  C   UNL     1       0.866   4.045  -2.290  1.00  0.00     0.007 C 
ENDBRANCH  80  81
ENDBRANCH  78  80
ENDBRANCH  70  78
ENDBRANCH  65  68
ENDBRANCH  63  64
ENDBRANCH   1  63
TORSDOF 13
