REMARK SMILES O=C1NC(=S)S/C1=C\c1ccc(OCc2cn(-c3ccc(C(=O)NCCCNC(=O)c4ccc(-c5c6nc(c(-c7c(F)cccc7F)c7ccc([nH]7)c(-c7c(F)cccc7F)c7nc(c(-c8c(F)cccc8F)c8ccc5[nH]8)C=C7)C=C6)cc4)cc3)nn2)cc1
REMARK SMILES IDX 22 1 23 2 24 3 21 5 18 6 19 7 86 8 20 9 85 10 17 11 15 12
REMARK SMILES IDX 16 13 88 14 87 15 14 16 13 17 12 18 9 19 10 20 90 21 11 22
REMARK SMILES IDX 89 23 8 24 1 25 2 26 3 27 7 28 4 29 6 31 5 32 25 33 26 34
REMARK SMILES IDX 27 35 28 36 29 37 30 39 31 40 32 41 84 42 33 43 83 44 34 45
REMARK SMILES IDX 35 46 36 47 77 48 37 49 82 50 76 51 78 52 38 53 81 54 75 55
REMARK SMILES IDX 74 56 39 58 65 59 48 60 64 61 49 62 52 63 63 64 79 65 50 66
REMARK SMILES IDX 51 67 62 69 80 70 53 71 40 72 41 73 46 74 42 75 43 76 45 77
REMARK SMILES IDX 47 78 44 79 66 80 67 81 72 82 68 83 69 84 71 85 73 86 70 87
REMARK SMILES IDX 54 88 55 89 60 90 56 91 57 92 59 93 61 94 58 95
REMARK H PARENT 24 4 3 30 28 38 78 57 52 68
REMARK Flexibility Score: inf
ROOT
ATOM      1  C   UNL     1       6.470   9.113  -1.012  1.00  0.00     0.251 C 
ATOM      2  O   UNL     1       7.339   8.581  -1.703  1.00  0.00    -0.269 OA
ATOM      3  N   UNL     1       6.827  10.201  -0.251  1.00  0.00    -0.352 N 
ATOM      4  H   UNL     1       7.787  10.419  -0.284  1.00  0.00     0.163 HD
ENDROOT
BRANCH   1   5
ATOM      5  C   UNL     1       5.072   8.600  -1.074  1.00  0.00     0.039 A 
ATOM      6  C   UNL     1       2.413   7.776  -1.379  1.00  0.00     0.066 A 
ATOM      7  C   UNL     1       3.359   7.446  -2.357  1.00  0.00     0.029 A 
ATOM      8  C   UNL     1       2.802   8.438  -0.220  1.00  0.00     0.029 A 
ATOM      9  C   UNL     1       4.679   7.887  -2.216  1.00  0.00     0.016 A 
ATOM     10  C   UNL     1       4.136   8.787  -0.056  1.00  0.00     0.016 A 
BRANCH   6  11
ATOM     11  N   UNL     1       1.063   7.425  -1.542  1.00  0.00    -0.220 N 
ATOM     12  C   UNL     1      -1.106   7.270  -1.411  1.00  0.00     0.120 A 
ATOM     13  C   UNL     1      -0.044   8.046  -1.008  1.00  0.00     0.144 A 
ATOM     14  N   UNL     1      -0.625   6.260  -2.204  1.00  0.00    -0.131 NA
ATOM     15  N   UNL     1       0.686   6.384  -2.307  1.00  0.00    -0.062 NA
BRANCH  12  16
ATOM     16  C   UNL     1      -2.575   7.451  -1.207  1.00  0.00     0.289 C 
BRANCH  16  17
ATOM     17  O   UNL     1      -3.149   6.712  -0.114  1.00  0.00    -0.487 OA
BRANCH  17  18
ATOM     18  C   UNL     1      -3.170   5.346  -0.191  1.00  0.00     0.119 A 
ATOM     19  C   UNL     1      -2.933   2.554  -0.006  1.00  0.00    -0.024 A 
ATOM     20  C   UNL     1      -3.378   3.293   1.092  1.00  0.00     0.012 A 
ATOM     21  C   UNL     1      -2.711   3.206  -1.220  1.00  0.00     0.012 A 
ATOM     22  C   UNL     1      -3.488   4.686   0.999  1.00  0.00     0.047 A 
ATOM     23  C   UNL     1      -2.866   4.588  -1.319  1.00  0.00     0.047 A 
BRANCH  19  24
ATOM     24  C   UNL     1      -2.686   1.116   0.100  1.00  0.00     0.029 C 
ATOM     25  O   UNL     1      -2.196  -1.756   0.149  1.00  0.00    -0.268 OA
ATOM     26  C   UNL     1      -1.287  -0.923   0.111  1.00  0.00     0.263 C 
ATOM     27  N   UNL     1       0.039  -1.230   0.063  1.00  0.00    -0.307 N 
ATOM     28  C   UNL     1      -1.471   0.547   0.091  1.00  0.00     0.080 C 
ATOM     29  C   UNL     1       0.931  -0.202   0.021  1.00  0.00     0.145 C 
ATOM     30  H   UNL     1       0.343  -2.167   0.060  1.00  0.00     0.171 HD
ATOM     31  S   UNL     1       0.074   1.321   0.034  1.00  0.00    -0.055 SA
ATOM     32  S   UNL     1       2.572  -0.414  -0.030  1.00  0.00    -0.052 S 
ENDBRANCH  19  24
ENDBRANCH  17  18
ENDBRANCH  16  17
ENDBRANCH  12  16
ENDBRANCH   6  11
ENDBRANCH   1   5
BRANCH   3  33
ATOM     33  C   UNL     1       6.043  11.090   0.596  1.00  0.00     0.118 C 
BRANCH  33  34
ATOM     34  C   UNL     1       6.017  10.617   2.060  1.00  0.00     0.042 C 
BRANCH  34  35
ATOM     35  C   UNL     1       7.221  11.104   2.833  1.00  0.00     0.118 C 
BRANCH  35  36
ATOM     36  N   UNL     1       7.194  12.557   3.063  1.00  0.00    -0.352 N 
ATOM     37  C   UNL     1       8.147  13.376   3.651  1.00  0.00     0.251 C 
ATOM     38  H   UNL     1       6.380  13.016   2.754  1.00  0.00     0.163 HD
ATOM     39  O   UNL     1       7.847  14.488   4.070  1.00  0.00    -0.269 OA
BRANCH  37  40
ATOM     40  C   UNL     1       9.531  12.888   3.757  1.00  0.00     0.039 A 
ATOM     41  C   UNL     1      10.405  13.195   4.805  1.00  0.00     0.014 A 
ATOM     42  C   UNL     1       9.929  12.013   2.771  1.00  0.00     0.014 A 
ATOM     43  C   UNL     1      11.668  12.600   4.797  1.00  0.00     0.010 A 
ATOM     44  C   UNL     1      10.867  11.098   3.097  1.00  0.00     0.010 A 
ATOM     45  C   UNL     1      11.889  11.562   3.890  1.00  0.00    -0.014 A 
BRANCH  45  46
ATOM     46  C   UNL     1      13.145  10.867   3.681  1.00  0.00     0.031 A 
ATOM     47  C   UNL     1      13.530   9.975   4.791  1.00  0.00     0.074 A 
ATOM     48  C   UNL     1      13.697  10.788   2.446  1.00  0.00     0.049 A 
ATOM     49  N   UNL     1      14.513  10.126   5.610  1.00  0.00    -0.248 NA
ATOM     50  C   UNL     1      12.612   8.882   5.150  1.00  0.00     0.031 C 
ATOM     51  C   UNL     1      13.203  11.327   1.167  1.00  0.00     0.029 A 
ATOM     52  N   UNL     1      14.792  10.082   2.058  1.00  0.00    -0.354 N 
ATOM     53  C   UNL     1      14.461   9.031   6.465  1.00  0.00     0.074 A 
ATOM     54  C   UNL     1      13.159   8.447   6.286  1.00  0.00     0.031 C 
ATOM     55  C   UNL     1      13.868  10.752   0.139  1.00  0.00     0.029 A 
ATOM     56  C   UNL     1      14.926   9.922   0.680  1.00  0.00     0.049 A 
ATOM     57  H   UNL     1      15.440   9.713   2.700  1.00  0.00     0.167 HD
ATOM     58  C   UNL     1      15.584   8.552   7.066  1.00  0.00     0.037 A 
ATOM     59  C   UNL     1      15.820   9.104   0.068  1.00  0.00     0.037 A 
ATOM     60  C   UNL     1      16.682   9.475   6.904  1.00  0.00     0.049 A 
ATOM     61  C   UNL     1      16.891   8.821   1.067  1.00  0.00     0.074 A 
ATOM     62  C   UNL     1      16.903  10.783   7.289  1.00  0.00     0.029 A 
ATOM     63  N   UNL     1      17.576   9.226   5.887  1.00  0.00    -0.354 N 
ATOM     64  N   UNL     1      17.703   9.736   1.527  1.00  0.00    -0.248 NA
ATOM     65  C   UNL     1      16.711   7.661   1.930  1.00  0.00     0.031 C 
ATOM     66  C   UNL     1      17.548  11.389   6.170  1.00  0.00     0.029 A 
ATOM     67  C   UNL     1      17.766  10.403   5.206  1.00  0.00     0.049 A 
ATOM     68  H   UNL     1      18.000   8.361   5.685  1.00  0.00     0.167 HD
ATOM     69  C   UNL     1      17.799   9.481   2.890  1.00  0.00     0.074 A 
ATOM     70  C   UNL     1      17.215   8.151   3.068  1.00  0.00     0.031 C 
ATOM     71  C   UNL     1      18.050  10.481   3.788  1.00  0.00     0.037 A 
BRANCH  58  72
ATOM     72  C   UNL     1      15.801   7.123   7.493  1.00  0.00     0.057 A 
ATOM     73  C   UNL     1      16.942   6.809   8.253  1.00  0.00     0.134 A 
ATOM     74  C   UNL     1      15.098   6.011   6.987  1.00  0.00     0.134 A 
ATOM     75  F   UNL     1      17.699   7.777   8.792  1.00  0.00    -0.206 F 
ATOM     76  C   UNL     1      17.391   5.495   8.429  1.00  0.00     0.040 A 
ATOM     77  C   UNL     1      15.507   4.692   7.202  1.00  0.00     0.040 A 
ATOM     78  F   UNL     1      14.040   6.132   6.178  1.00  0.00    -0.206 F 
ATOM     79  C   UNL     1      16.676   4.431   7.896  1.00  0.00     0.006 A 
ENDBRANCH  58  72
BRANCH  59  80
ATOM     80  C   UNL     1      15.616   8.289  -1.157  1.00  0.00     0.057 A 
ATOM     81  C   UNL     1      16.689   7.677  -1.821  1.00  0.00     0.134 A 
ATOM     82  C   UNL     1      14.333   7.873  -1.560  1.00  0.00     0.134 A 
ATOM     83  F   UNL     1      17.953   7.972  -1.485  1.00  0.00    -0.206 F 
ATOM     84  C   UNL     1      16.498   6.697  -2.808  1.00  0.00     0.040 A 
ATOM     85  C   UNL     1      14.128   6.902  -2.547  1.00  0.00     0.040 A 
ATOM     86  F   UNL     1      13.231   8.330  -0.949  1.00  0.00    -0.206 F 
ATOM     87  C   UNL     1      15.213   6.298  -3.166  1.00  0.00     0.006 A 
ENDBRANCH  59  80
BRANCH  71  88
ATOM     88  C   UNL     1      18.414  11.845   3.256  1.00  0.00     0.057 A 
ATOM     89  C   UNL     1      17.553  12.647   2.489  1.00  0.00     0.134 A 
ATOM     90  C   UNL     1      19.597  12.448   3.694  1.00  0.00     0.134 A 
ATOM     91  F   UNL     1      16.351  12.206   2.108  1.00  0.00    -0.206 F 
ATOM     92  C   UNL     1      17.867  13.967   2.146  1.00  0.00     0.040 A 
ATOM     93  C   UNL     1      19.910  13.775   3.387  1.00  0.00     0.040 A 
ATOM     94  F   UNL     1      20.445  11.771   4.484  1.00  0.00    -0.206 F 
ATOM     95  C   UNL     1      19.048  14.538   2.603  1.00  0.00     0.006 A 
ENDBRANCH  71  88
ENDBRANCH  45  46
ENDBRANCH  37  40
ENDBRANCH  35  36
ENDBRANCH  34  35
ENDBRANCH  33  34
ENDBRANCH   3  33
TORSDOF 15
