REMARK SMILES Cc1ccc(S(=O)(=O)n2cc(C(=O)C(=O)N[C@@H](Cc3cnc[nH]3)C(=O)NCCCNC(=O)c3ccc(-c4c5nc(c(-c6c(F)cccc6F)c6ccc([nH]6)c(-c6c(F)cccc6F)c6nc(c(-c7c(F)cccc7F)c7ccc4[nH]7)C=C6)C=C5)cc3)c3ccccc32)cc1
REMARK SMILES IDX 24 1 25 2 26 3 17 5 16 6 14 7 15 8 12 10 13 11 11 12 9 13
REMARK SMILES IDX 10 14 92 15 87 16 91 17 88 18 90 19 89 20 6 21 7 22 8 23
REMARK SMILES IDX 5 24 1 25 2 26 3 27 94 28 4 29 93 30 18 31 19 32 20 33 23 34
REMARK SMILES IDX 21 35 22 36 27 38 28 39 29 40 30 41 31 42 32 44 33 45 34 46
REMARK SMILES IDX 86 47 35 48 85 49 36 50 37 51 38 52 79 53 39 54 84 55 78 56
REMARK SMILES IDX 80 57 40 58 83 59 77 60 76 61 41 63 67 64 50 65 66 66 51 67
REMARK SMILES IDX 54 68 65 69 81 70 52 71 53 72 64 74 82 75 55 76 42 77 43 78
REMARK SMILES IDX 48 79 44 80 45 81 47 82 49 83 46 84 68 85 69 86 74 87 70 88
REMARK SMILES IDX 71 89 73 90 75 91 72 92 56 93 57 94 62 95 58 96 59 97 61 98
REMARK SMILES IDX 63 99 60 100
REMARK H PARENT 26 4 16 9 23 37 30 43 80 62 54 73
REMARK Flexibility Score: inf
ROOT
ATOM      1  C   UNL     1      -7.407   7.259   3.824  1.00  0.00     0.242 C 
ATOM      2  O   UNL     1      -6.796   8.287   3.516  1.00  0.00    -0.273 OA
ATOM      3  N   UNL     1      -7.542   6.998   5.163  1.00  0.00    -0.354 N 
ATOM      4  H   UNL     1      -6.829   7.336   5.751  1.00  0.00     0.163 HD
ENDROOT
BRANCH   1   5
ATOM      5  C   UNL     1      -8.065   6.369   2.730  1.00  0.00     0.177 C 
BRANCH   5   6
ATOM      6  N   UNL     1      -7.816   4.939   2.983  1.00  0.00    -0.337 N 
ATOM      7  C   UNL     1      -6.835   4.097   2.485  1.00  0.00     0.293 C 
ATOM      8  O   UNL     1      -6.674   3.014   3.042  1.00  0.00    -0.265 OA
ATOM      9  H   UNL     1      -8.448   4.513   3.606  1.00  0.00     0.164 HD
BRANCH   7  10
ATOM     10  C   UNL     1      -5.974   4.474   1.248  1.00  0.00     0.252 C 
ATOM     11  O   UNL     1      -5.964   5.645   0.882  1.00  0.00    -0.283 OA
BRANCH  10  12
ATOM     12  C   UNL     1      -5.189   3.479   0.495  1.00  0.00     0.054 A 
ATOM     13  N   UNL     1      -4.159   1.606  -0.166  1.00  0.00    -0.240 N 
ATOM     14  C   UNL     1      -4.932   2.159   0.827  1.00  0.00     0.117 A 
ATOM     15  C   UNL     1      -3.903   2.516  -1.167  1.00  0.00     0.065 A 
ATOM     16  C   UNL     1      -4.510   3.712  -0.760  1.00  0.00     0.012 A 
ATOM     17  C   UNL     1      -3.181   2.422  -2.373  1.00  0.00     0.028 A 
ATOM     18  C   UNL     1      -4.368   4.848  -1.589  1.00  0.00     0.011 A 
ATOM     19  C   UNL     1      -3.050   3.568  -3.160  1.00  0.00     0.002 A 
ATOM     20  C   UNL     1      -3.633   4.768  -2.775  1.00  0.00     0.001 A 
BRANCH  13  21
ATOM     21  S   UNL     1      -3.570   0.007  -0.115  1.00  0.00     0.268 S 
ATOM     22  O   UNL     1      -3.901  -0.551  -1.427  1.00  0.00    -0.201 OA
ATOM     23  O   UNL     1      -4.067  -0.567   1.105  1.00  0.00    -0.201 OA
BRANCH  21  24
ATOM     24  C   UNL     1      -1.800   0.066   0.002  1.00  0.00     0.088 A 
ATOM     25  C   UNL     1       2.502  -0.043   0.036  1.00  0.00     0.044 C 
ATOM     26  C   UNL     1       1.002   0.000   0.045  1.00  0.00    -0.051 A 
ATOM     27  C   UNL     1       0.271  -1.189  -0.056  1.00  0.00     0.005 A 
ATOM     28  C   UNL     1       0.317   1.217   0.157  1.00  0.00     0.005 A 
ATOM     29  C   UNL     1      -1.124  -1.158  -0.084  1.00  0.00     0.022 A 
ATOM     30  C   UNL     1      -1.082   1.253   0.148  1.00  0.00     0.022 A 
ENDBRANCH  21  24
ENDBRANCH  13  21
ENDBRANCH  10  12
ENDBRANCH   7  10
ENDBRANCH   5   6
BRANCH   5  31
ATOM     31  C   UNL     1      -9.525   6.722   2.346  1.00  0.00     0.090 C 
BRANCH  31  32
ATOM     32  C   UNL     1     -10.606   6.402   3.327  1.00  0.00     0.037 A 
ATOM     33  C   UNL     1     -11.186   5.212   3.724  1.00  0.00     0.134 A 
ATOM     34  N   UNL     1     -11.231   7.360   4.097  1.00  0.00    -0.348 N 
ATOM     35  N   UNL     1     -12.008   5.412   4.804  1.00  0.00    -0.245 NA
ATOM     36  C   UNL     1     -12.025   6.710   5.000  1.00  0.00     0.196 A 
ATOM     37  H   UNL     1     -11.124   8.335   4.013  1.00  0.00     0.167 HD
ENDBRANCH  31  32
ENDBRANCH   5  31
ENDBRANCH   1   5
BRANCH   3  38
ATOM     38  C   UNL     1      -8.617   6.278   5.800  1.00  0.00     0.117 C 
BRANCH  38  39
ATOM     39  C   UNL     1      -8.230   5.098   6.654  1.00  0.00     0.042 C 
BRANCH  39  40
ATOM     40  C   UNL     1      -8.324   5.423   8.124  1.00  0.00     0.118 C 
BRANCH  40  41
ATOM     41  N   UNL     1      -9.678   5.569   8.663  1.00  0.00    -0.352 N 
ATOM     42  C   UNL     1     -10.094   5.858   9.958  1.00  0.00     0.251 C 
ATOM     43  H   UNL     1     -10.403   5.445   8.009  1.00  0.00     0.163 HD
ATOM     44  O   UNL     1     -11.295   5.938  10.204  1.00  0.00    -0.269 OA
BRANCH  42  45
ATOM     45  C   UNL     1      -9.106   6.253  11.003  1.00  0.00     0.039 A 
ATOM     46  C   UNL     1      -9.467   7.285  11.880  1.00  0.00     0.014 A 
ATOM     47  C   UNL     1      -7.771   5.954  10.826  1.00  0.00     0.014 A 
ATOM     48  C   UNL     1      -8.509   8.225  12.240  1.00  0.00     0.010 A 
ATOM     49  C   UNL     1      -6.894   6.996  10.931  1.00  0.00     0.010 A 
ATOM     50  C   UNL     1      -7.277   8.153  11.610  1.00  0.00    -0.014 A 
BRANCH  50  51
ATOM     51  C   UNL     1      -6.256   9.179  11.609  1.00  0.00     0.031 A 
ATOM     52  C   UNL     1      -5.024   8.896  12.370  1.00  0.00     0.074 A 
ATOM     53  C   UNL     1      -6.354  10.188  10.715  1.00  0.00     0.049 A 
ATOM     54  N   UNL     1      -4.080   9.740  12.561  1.00  0.00    -0.248 NA
ATOM     55  C   UNL     1      -4.758   7.599  12.991  1.00  0.00     0.031 C 
ATOM     56  C   UNL     1      -5.296  11.074  10.240  1.00  0.00     0.029 A 
ATOM     57  N   UNL     1      -7.527  10.744  10.184  1.00  0.00    -0.354 N 
ATOM     58  C   UNL     1      -3.003   9.066  13.092  1.00  0.00     0.074 A 
ATOM     59  C   UNL     1      -3.482   7.735  13.358  1.00  0.00     0.031 C 
ATOM     60  C   UNL     1      -5.852  12.204   9.771  1.00  0.00     0.029 A 
ATOM     61  C   UNL     1      -7.271  12.132  10.076  1.00  0.00     0.049 A 
ATOM     62  H   UNL     1      -8.354  10.270   9.938  1.00  0.00     0.167 HD
ATOM     63  C   UNL     1      -1.807   9.715  13.140  1.00  0.00     0.037 A 
ATOM     64  C   UNL     1      -7.937  13.020  10.874  1.00  0.00     0.037 A 
ATOM     65  C   UNL     1      -1.990  11.106  12.734  1.00  0.00     0.049 A 
ATOM     66  C   UNL     1      -7.018  13.762  11.821  1.00  0.00     0.074 A 
ATOM     67  C   UNL     1      -1.859  11.755  11.517  1.00  0.00     0.029 A 
ATOM     68  N   UNL     1      -2.751  11.937  13.546  1.00  0.00    -0.354 N 
ATOM     69  N   UNL     1      -5.841  13.326  12.184  1.00  0.00    -0.248 NA
ATOM     70  C   UNL     1      -7.327  15.067  12.399  1.00  0.00     0.031 C 
ATOM     71  C   UNL     1      -2.618  12.954  11.580  1.00  0.00     0.029 A 
ATOM     72  C   UNL     1      -3.180  13.043  12.843  1.00  0.00     0.049 A 
ATOM     73  H   UNL     1      -2.955  11.760  14.493  1.00  0.00     0.167 HD
ATOM     74  C   UNL     1      -5.234  14.252  12.995  1.00  0.00     0.074 A 
ATOM     75  C   UNL     1      -6.206  15.323  13.100  1.00  0.00     0.031 C 
ATOM     76  C   UNL     1      -3.979  14.064  13.505  1.00  0.00     0.037 A 
BRANCH  63  77
ATOM     77  C   UNL     1      -0.458   9.072  13.341  1.00  0.00     0.057 A 
ATOM     78  C   UNL     1       0.702   9.704  12.847  1.00  0.00     0.134 A 
ATOM     79  C   UNL     1      -0.219   7.837  13.966  1.00  0.00     0.134 A 
ATOM     80  F   UNL     1       0.655  10.912  12.270  1.00  0.00    -0.206 F 
ATOM     81  C   UNL     1       1.976   9.125  12.911  1.00  0.00     0.040 A 
ATOM     82  C   UNL     1       1.044   7.226  13.999  1.00  0.00     0.040 A 
ATOM     83  F   UNL     1      -1.175   7.178  14.627  1.00  0.00    -0.206 F 
ATOM     84  C   UNL     1       2.149   7.869  13.467  1.00  0.00     0.006 A 
ENDBRANCH  63  77
BRANCH  64  85
ATOM     85  C   UNL     1      -9.338  12.580  11.140  1.00  0.00     0.057 A 
ATOM     86  C   UNL     1     -10.206  12.497  10.032  1.00  0.00     0.134 A 
ATOM     87  C   UNL     1      -9.666  11.806  12.257  1.00  0.00     0.134 A 
ATOM     88  F   UNL     1      -9.962  13.229   8.932  1.00  0.00    -0.206 F 
ATOM     89  C   UNL     1     -11.238  11.556   9.967  1.00  0.00     0.040 A 
ATOM     90  C   UNL     1     -10.719  10.881  12.212  1.00  0.00     0.040 A 
ATOM     91  F   UNL     1      -8.888  11.818  13.349  1.00  0.00    -0.206 F 
ATOM     92  C   UNL     1     -11.465  10.710  11.046  1.00  0.00     0.006 A 
ENDBRANCH  64  85
BRANCH  76  93
ATOM     93  C   UNL     1      -3.333  14.838  14.635  1.00  0.00     0.057 A 
ATOM     94  C   UNL     1      -4.043  15.511  15.637  1.00  0.00     0.134 A 
ATOM     95  C   UNL     1      -1.935  14.755  14.851  1.00  0.00     0.134 A 
ATOM     96  F   UNL     1      -5.380  15.590  15.623  1.00  0.00    -0.206 F 
ATOM     97  C   UNL     1      -3.411  16.085  16.749  1.00  0.00     0.040 A 
ATOM     98  C   UNL     1      -1.304  15.262  15.989  1.00  0.00     0.040 A 
ATOM     99  F   UNL     1      -1.116  14.144  13.981  1.00  0.00    -0.206 F 
ATOM    100  C   UNL     1      -2.042  15.943  16.941  1.00  0.00     0.006 A 
ENDBRANCH  76  93
ENDBRANCH  50  51
ENDBRANCH  42  45
ENDBRANCH  40  41
ENDBRANCH  39  40
ENDBRANCH  38  39
ENDBRANCH   3  38
TORSDOF 17
