REMARK SMILES CCc1ccc(/C=C2\C(=O)N(c3ccc(Cl)c(C(=O)NCCCNC(=O)c4ccc(-c5c6nc(c(-c7c(F)cccc7F)c7ccc([nH]7)c(-c7c(F)cccc7F)c7nc(c(-c8c(F)cccc8F)c8ccc5[nH]8)C=C7)C=C6)cc4)c3)N=C2C)cc1
REMARK SMILES IDX 21 1 20 2 18 3 19 4 17 6 12 7 13 8 81 9 14 10 15 11 16 12
REMARK SMILES IDX 11 13 7 14 8 15 9 16 83 17 10 18 82 19 84 20 6 21 3 22 4 23
REMARK SMILES IDX 86 24 5 25 85 26 2 27 1 28 22 29 23 30 24 31 25 32 26 34
REMARK SMILES IDX 27 35 28 36 80 37 29 38 79 39 30 40 31 41 32 42 73 43 33 44
REMARK SMILES IDX 78 45 72 46 74 47 34 48 77 49 71 50 70 51 35 53 61 54 44 55
REMARK SMILES IDX 60 56 45 57 48 58 59 59 75 60 46 61 47 62 58 64 76 65 49 66
REMARK SMILES IDX 36 67 37 68 42 69 38 70 39 71 41 72 43 73 40 74 62 75 63 76
REMARK SMILES IDX 68 77 64 78 65 79 67 80 69 81 66 82 50 83 51 84 56 85 52 86
REMARK SMILES IDX 53 87 55 88 57 89 54 90
REMARK H PARENT 20 5 24 33 74 52 48 63
REMARK Flexibility Score: inf
ROOT
ATOM      1  C   UNL     1       5.470  -4.800   1.550  1.00  0.00     0.118 C 
ENDROOT
BRANCH   1   2
ATOM      2  N   UNL     1       6.837  -4.477   1.961  1.00  0.00    -0.352 N 
ATOM      3  C   UNL     1       8.049  -4.332   1.308  1.00  0.00     0.252 C 
ATOM      4  O   UNL     1       8.995  -3.961   2.001  1.00  0.00    -0.269 OA
ATOM      5  H   UNL     1       6.913  -4.328   2.932  1.00  0.00     0.163 HD
BRANCH   3   6
ATOM      6  C   UNL     1       8.243  -4.650  -0.141  1.00  0.00     0.060 A 
ATOM      7  C   UNL     1       7.111  -5.193  -2.232  1.00  0.00     0.070 A 
ATOM      8  C   UNL     1       8.286  -5.752  -2.725  1.00  0.00     0.030 A 
ATOM      9  C   UNL     1       7.168  -4.506  -1.015  1.00  0.00     0.044 A 
ATOM     10  C   UNL     1       9.466  -5.650  -1.982  1.00  0.00     0.023 A 
ATOM     11  C   UNL     1       9.441  -5.147  -0.671  1.00  0.00     0.053 A 
ATOM     12  Cl  UNL     1      10.937  -5.196   0.190  1.00  0.00    -0.083 Cl
BRANCH   7  13
ATOM     13  N   UNL     1       5.864  -5.401  -2.867  1.00  0.00    -0.196 N 
ATOM     14  C   UNL     1       2.379  -5.147  -3.566  1.00  0.00     0.024 C 
ATOM     15  C   UNL     1       3.661  -5.477  -3.347  1.00  0.00     0.065 C 
ATOM     16  C   UNL     1       4.675  -4.713  -2.583  1.00  0.00     0.280 C 
ATOM     17  C   UNL     1       4.400  -6.645  -3.856  1.00  0.00     0.071 C 
ATOM     18  O   UNL     1       4.476  -3.759  -1.861  1.00  0.00    -0.267 OA
ATOM     19  N   UNL     1       5.686  -6.561  -3.624  1.00  0.00    -0.169 NA
ATOM     20  C   UNL     1       3.747  -7.806  -4.531  1.00  0.00     0.069 C 
BRANCH  14  21
ATOM     21  C   UNL     1       1.800  -3.874  -3.110  1.00  0.00    -0.025 A 
ATOM     22  C   UNL     1       0.883  -1.435  -2.039  1.00  0.00    -0.048 A 
ATOM     23  C   UNL     1       0.266  -2.646  -1.694  1.00  0.00     0.004 A 
ATOM     24  C   UNL     1       1.929  -1.450  -2.966  1.00  0.00     0.004 A 
ATOM     25  C   UNL     1       0.721  -3.859  -2.225  1.00  0.00     0.008 A 
ATOM     26  C   UNL     1       2.365  -2.656  -3.515  1.00  0.00     0.008 A 
BRANCH  22  27
ATOM     27  C   UNL     1       0.469  -0.140  -1.387  1.00  0.00     0.032 C 
ATOM     28  C   UNL     1       1.046   0.001   0.015  1.00  0.00     0.009 C 
ENDBRANCH  22  27
ENDBRANCH  14  21
ENDBRANCH   7  13
ENDBRANCH   3   6
ENDBRANCH   1   2
BRANCH   1  29
ATOM     29  C   UNL     1       4.882  -6.026   2.227  1.00  0.00     0.042 C 
BRANCH  29  30
ATOM     30  C   UNL     1       4.621  -5.868   3.713  1.00  0.00     0.118 C 
BRANCH  30  31
ATOM     31  N   UNL     1       3.625  -4.845   4.011  1.00  0.00    -0.352 N 
ATOM     32  C   UNL     1       2.352  -4.943   4.516  1.00  0.00     0.251 C 
ATOM     33  H   UNL     1       3.917  -3.924   3.817  1.00  0.00     0.163 HD
ATOM     34  O   UNL     1       1.619  -3.957   4.507  1.00  0.00    -0.269 OA
BRANCH  32  35
ATOM     35  C   UNL     1       1.843  -6.221   5.061  1.00  0.00     0.039 A 
ATOM     36  C   UNL     1       0.494  -6.547   4.885  1.00  0.00     0.014 A 
ATOM     37  C   UNL     1       2.671  -7.081   5.783  1.00  0.00     0.014 A 
ATOM     38  C   UNL     1      -0.003  -7.752   5.389  1.00  0.00     0.010 A 
ATOM     39  C   UNL     1       2.209  -8.332   6.172  1.00  0.00     0.010 A 
ATOM     40  C   UNL     1       0.859  -8.668   6.013  1.00  0.00    -0.014 A 
BRANCH  40  41
ATOM     41  C   UNL     1       0.361  -9.953   6.565  1.00  0.00     0.031 A 
ATOM     42  C   UNL     1       0.497 -10.240   8.037  1.00  0.00     0.074 A 
ATOM     43  C   UNL     1      -0.156 -10.883   5.740  1.00  0.00     0.049 A 
ATOM     44  N   UNL     1       0.177 -11.320   8.705  1.00  0.00    -0.248 NA
ATOM     45  C   UNL     1       1.113  -9.188   8.863  1.00  0.00     0.031 C 
ATOM     46  C   UNL     1      -0.288 -10.748   4.289  1.00  0.00     0.029 A 
ATOM     47  N   UNL     1      -0.662 -12.130   6.006  1.00  0.00    -0.354 N 
ATOM     48  C   UNL     1       0.572 -11.082  10.017  1.00  0.00     0.074 A 
ATOM     49  C   UNL     1       1.223  -9.792  10.035  1.00  0.00     0.031 C 
ATOM     50  C   UNL     1      -0.869 -11.854   3.797  1.00  0.00     0.029 A 
ATOM     51  C   UNL     1      -1.112 -12.790   4.890  1.00  0.00     0.049 A 
ATOM     52  H   UNL     1      -0.698 -12.514   6.912  1.00  0.00     0.167 HD
ATOM     53  C   UNL     1       0.381 -11.852  11.114  1.00  0.00     0.037 A 
ATOM     54  C   UNL     1      -1.660 -14.013   4.763  1.00  0.00     0.037 A 
ATOM     55  C   UNL     1      -0.287 -13.126  11.092  1.00  0.00     0.049 A 
ATOM     56  C   UNL     1      -1.871 -14.850   5.994  1.00  0.00     0.074 A 
ATOM     57  C   UNL     1      -0.586 -13.964  12.152  1.00  0.00     0.029 A 
ATOM     58  N   UNL     1      -0.754 -13.751   9.944  1.00  0.00    -0.354 N 
ATOM     59  N   UNL     1      -1.560 -14.585   7.240  1.00  0.00    -0.248 NA
ATOM     60  C   UNL     1      -2.524 -16.151   5.802  1.00  0.00     0.031 C 
ATOM     61  C   UNL     1      -1.182 -15.121  11.638  1.00  0.00     0.029 A 
ATOM     62  C   UNL     1      -1.319 -14.974  10.267  1.00  0.00     0.049 A 
ATOM     63  H   UNL     1      -0.693 -13.379   9.034  1.00  0.00     0.167 HD
ATOM     64  C   UNL     1      -2.011 -15.667   7.985  1.00  0.00     0.074 A 
ATOM     65  C   UNL     1      -2.626 -16.586   7.050  1.00  0.00     0.031 C 
ATOM     66  C   UNL     1      -1.930 -15.877   9.323  1.00  0.00     0.037 A 
BRANCH  53  67
ATOM     67  C   UNL     1       0.914 -11.331  12.421  1.00  0.00     0.057 A 
ATOM     68  C   UNL     1       0.396 -10.180  13.033  1.00  0.00     0.134 A 
ATOM     69  C   UNL     1       1.968 -11.983  13.073  1.00  0.00     0.134 A 
ATOM     70  F   UNL     1      -0.606  -9.496  12.459  1.00  0.00    -0.206 F 
ATOM     71  C   UNL     1       0.937  -9.670  14.215  1.00  0.00     0.040 A 
ATOM     72  C   UNL     1       2.493 -11.504  14.276  1.00  0.00     0.040 A 
ATOM     73  F   UNL     1       2.510 -13.094  12.553  1.00  0.00    -0.206 F 
ATOM     74  C   UNL     1       1.987 -10.337  14.842  1.00  0.00     0.006 A 
ENDBRANCH  53  67
BRANCH  54  75
ATOM     75  C   UNL     1      -2.082 -14.496   3.424  1.00  0.00     0.057 A 
ATOM     76  C   UNL     1      -3.437 -14.628   3.096  1.00  0.00     0.134 A 
ATOM     77  C   UNL     1      -1.146 -14.818   2.434  1.00  0.00     0.134 A 
ATOM     78  F   UNL     1      -4.382 -14.348   4.006  1.00  0.00    -0.206 F 
ATOM     79  C   UNL     1      -3.846 -15.079   1.840  1.00  0.00     0.040 A 
ATOM     80  C   UNL     1      -1.541 -15.244   1.165  1.00  0.00     0.040 A 
ATOM     81  F   UNL     1       0.167 -14.700   2.680  1.00  0.00    -0.206 F 
ATOM     82  C   UNL     1      -2.895 -15.382   0.868  1.00  0.00     0.006 A 
ENDBRANCH  54  75
BRANCH  66  83
ATOM     83  C   UNL     1      -2.568 -17.127   9.861  1.00  0.00     0.057 A 
ATOM     84  C   UNL     1      -2.051 -18.403   9.604  1.00  0.00     0.134 A 
ATOM     85  C   UNL     1      -3.710 -17.046  10.670  1.00  0.00     0.134 A 
ATOM     86  F   UNL     1      -0.966 -18.554   8.829  1.00  0.00    -0.206 F 
ATOM     87  C   UNL     1      -2.667 -19.554  10.100  1.00  0.00     0.040 A 
ATOM     88  C   UNL     1      -4.314 -18.186  11.200  1.00  0.00     0.040 A 
ATOM     89  F   UNL     1      -4.252 -15.854  10.967  1.00  0.00    -0.206 F 
ATOM     90  C   UNL     1      -3.799 -19.446  10.906  1.00  0.00     0.006 A 
ENDBRANCH  66  83
ENDBRANCH  40  41
ENDBRANCH  32  35
ENDBRANCH  30  31
ENDBRANCH  29  30
ENDBRANCH   1  29
TORSDOF 13
