REMARK SMILES COc1ccc(-c2c(C(=O)NCCCNC(=O)c3ccc(-c4c5nc(c(-c6c(F)cccc6F)c6ccc([nH]6)c(-c6c(F)cccc6F)c6nc(c(-c7c(F)cccc7F)c7ccc4[nH]7)C=C6)C=C5)cc3)sc3c2N=C(O)C[C@H]3c2ccc(OC)c(OC)c2)cc1
REMARK SMILES IDX 13 1 12 2 11 3 9 4 10 5 8 7 7 8 74 9 72 10 73 11 75 12 79 13
REMARK SMILES IDX 76 14 78 15 6 16 3 17 4 18 91 19 5 20 90 21 2 22 1 23 80 24
REMARK SMILES IDX 81 25 89 26 82 27 86 28 83 29 87 30 88 31 84 32 85 33 77 34
REMARK SMILES IDX 14 36 15 37 16 38 17 40 18 41 19 42 71 43 20 44 70 45 21 46
REMARK SMILES IDX 22 47 23 48 64 49 24 50 69 51 63 52 65 53 25 54 68 55 62 56
REMARK SMILES IDX 61 57 26 59 52 60 35 61 51 62 36 63 39 64 50 65 66 66 37 67
REMARK SMILES IDX 38 68 49 70 67 71 40 72 27 73 28 74 33 75 29 76 30 77 32 78
REMARK SMILES IDX 34 79 31 80 53 81 54 82 59 83 55 84 56 85 58 86 60 87 57 88
REMARK SMILES IDX 41 89 42 90 47 91 43 92 44 93 46 94 48 95 45 96
REMARK H PARENT 11 6 77 35 15 39 65 58 39 69
REMARK Flexibility Score: inf
ROOT
ATOM      1  C   UNL     1       0.944  -3.757  -1.189  1.00  0.00     0.042 C 
ENDROOT
BRANCH   1   2
ATOM      2  C   UNL     1       0.736  -4.470   0.127  1.00  0.00     0.118 C 
BRANCH   2   3
ATOM      3  N   UNL     1       0.117  -5.760   0.155  1.00  0.00    -0.351 N 
ATOM      4  C   UNL     1       0.272  -6.720   1.142  1.00  0.00     0.262 C 
ATOM      5  O   UNL     1      -0.481  -7.694   1.024  1.00  0.00    -0.268 OA
ATOM      6  H   UNL     1      -0.476  -5.987  -0.597  1.00  0.00     0.163 HD
BRANCH   4   7
ATOM      7  C   UNL     1       1.311  -6.642   2.187  1.00  0.00     0.102 A 
ATOM      8  C   UNL     1       1.899  -5.650   2.991  1.00  0.00     0.031 A 
ATOM      9  C   UNL     1       2.952  -6.193   3.795  1.00  0.00     0.090 A 
ATOM     10  S   UNL     1       2.039  -8.194   2.539  1.00  0.00    -0.131 S 
ATOM     11  C   UNL     1       3.128  -7.536   3.651  1.00  0.00     0.040 A 
ATOM     12  N   UNL     1       3.728  -5.401   4.651  1.00  0.00    -0.216 NA
ATOM     13  C   UNL     1       4.144  -8.338   4.390  1.00  0.00     0.071 C 
ATOM     14  C   UNL     1       4.742  -5.992   5.185  1.00  0.00     0.186 C 
ATOM     15  C   UNL     1       5.216  -7.410   4.982  1.00  0.00     0.111 C 
BRANCH   8  16
ATOM     16  C   UNL     1       1.618  -4.214   2.945  1.00  0.00    -0.014 A 
ATOM     17  C   UNL     1       1.070  -1.528   2.360  1.00  0.00     0.118 A 
ATOM     18  C   UNL     1       0.112  -2.329   2.999  1.00  0.00     0.047 A 
ATOM     19  C   UNL     1       2.347  -2.030   2.135  1.00  0.00     0.047 A 
ATOM     20  C   UNL     1       0.378  -3.676   3.289  1.00  0.00     0.012 A 
ATOM     21  C   UNL     1       2.624  -3.360   2.448  1.00  0.00     0.012 A 
BRANCH  17  22
ATOM     22  O   UNL     1       0.644  -0.290   1.965  1.00  0.00    -0.497 OA
ATOM     23  C   UNL     1       1.326   0.283   0.849  1.00  0.00     0.278 C 
ENDBRANCH  17  22
ENDBRANCH   8  16
BRANCH  13  24
ATOM     24  C   UNL     1       3.520  -9.233   5.449  1.00  0.00    -0.035 A 
ATOM     25  C   UNL     1       2.686  -8.725   6.449  1.00  0.00     0.008 A 
ATOM     26  C   UNL     1       3.771 -10.617   5.418  1.00  0.00     0.054 A 
ATOM     27  C   UNL     1       2.115  -9.588   7.382  1.00  0.00     0.051 A 
ATOM     28  C   UNL     1       3.208 -11.495   6.359  1.00  0.00     0.161 A 
ATOM     29  C   UNL     1       2.362 -10.968   7.350  1.00  0.00     0.160 A 
BRANCH  28  30
ATOM     30  O   UNL     1       3.458 -12.841   6.357  1.00  0.00    -0.493 OA
ATOM     31  C   UNL     1       4.295 -13.374   5.339  1.00  0.00     0.278 C 
ENDBRANCH  28  30
BRANCH  29  32
ATOM     32  O   UNL     1       1.708 -11.627   8.359  1.00  0.00    -0.493 OA
ATOM     33  C   UNL     1       1.720 -13.045   8.370  1.00  0.00     0.278 C 
ENDBRANCH  29  32
ENDBRANCH  13  24
BRANCH  14  34
ATOM     34  O   UNL     1       5.550  -5.255   5.974  1.00  0.00    -0.496 OA
ATOM     35  H   UNL     1       5.338  -4.362   6.159  1.00  0.00     0.294 HD
ENDBRANCH  14  34
ENDBRANCH   4   7
ENDBRANCH   2   3
ENDBRANCH   1   2
BRANCH   1  36
ATOM     36  C   UNL     1      -0.277  -2.995  -1.657  1.00  0.00     0.118 C 
BRANCH  36  37
ATOM     37  N   UNL     1      -0.720  -1.883  -0.805  1.00  0.00    -0.352 N 
ATOM     38  C   UNL     1      -1.661  -0.906  -1.133  1.00  0.00     0.251 C 
ATOM     39  H   UNL     1      -0.311  -1.821   0.089  1.00  0.00     0.163 HD
ATOM     40  O   UNL     1      -1.875   0.067  -0.452  1.00  0.00    -0.269 OA
BRANCH  38  41
ATOM     41  C   UNL     1      -2.381  -1.127  -2.404  1.00  0.00     0.039 A 
ATOM     42  C   UNL     1      -2.084  -0.328  -3.506  1.00  0.00     0.014 A 
ATOM     43  C   UNL     1      -2.974  -2.372  -2.544  1.00  0.00     0.014 A 
ATOM     44  C   UNL     1      -2.214  -0.882  -4.779  1.00  0.00     0.010 A 
ATOM     45  C   UNL     1      -2.913  -2.966  -3.787  1.00  0.00     0.010 A 
ATOM     46  C   UNL     1      -2.539  -2.244  -4.924  1.00  0.00    -0.014 A 
BRANCH  46  47
ATOM     47  C   UNL     1      -2.376  -2.911  -6.228  1.00  0.00     0.031 A 
ATOM     48  C   UNL     1      -1.268  -2.447  -7.130  1.00  0.00     0.074 A 
ATOM     49  C   UNL     1      -3.051  -4.008  -6.640  1.00  0.00     0.049 A 
ATOM     50  N   UNL     1      -1.387  -1.804  -8.249  1.00  0.00    -0.248 NA
ATOM     51  C   UNL     1       0.128  -2.708  -6.750  1.00  0.00     0.031 C 
ATOM     52  C   UNL     1      -4.001  -4.863  -5.919  1.00  0.00     0.029 A 
ATOM     53  N   UNL     1      -2.957  -4.627  -7.854  1.00  0.00    -0.354 N 
ATOM     54  C   UNL     1      -0.109  -1.702  -8.799  1.00  0.00     0.074 A 
ATOM     55  C   UNL     1       0.796  -2.199  -7.792  1.00  0.00     0.031 C 
ATOM     56  C   UNL     1      -4.217  -5.998  -6.614  1.00  0.00     0.029 A 
ATOM     57  C   UNL     1      -3.609  -5.843  -7.918  1.00  0.00     0.049 A 
ATOM     58  H   UNL     1      -2.468  -4.241  -8.616  1.00  0.00     0.167 HD
ATOM     59  C   UNL     1       0.093  -1.349 -10.103  1.00  0.00     0.037 A 
ATOM     60  C   UNL     1      -3.726  -6.665  -8.981  1.00  0.00     0.037 A 
ATOM     61  C   UNL     1      -1.100  -0.807 -10.699  1.00  0.00     0.049 A 
ATOM     62  C   UNL     1      -3.561  -5.845 -10.199  1.00  0.00     0.074 A 
ATOM     63  C   UNL     1      -1.920   0.275 -10.448  1.00  0.00     0.029 A 
ATOM     64  N   UNL     1      -1.809  -1.605 -11.562  1.00  0.00    -0.354 N 
ATOM     65  N   UNL     1      -4.413  -4.936 -10.586  1.00  0.00    -0.248 NA
ATOM     66  C   UNL     1      -2.244  -5.763 -10.806  1.00  0.00     0.031 C 
ATOM     67  C   UNL     1      -3.238  -0.189 -10.744  1.00  0.00     0.029 A 
ATOM     68  C   UNL     1      -3.123  -1.508 -11.186  1.00  0.00     0.049 A 
ATOM     69  H   UNL     1      -1.446  -2.140 -12.304  1.00  0.00     0.167 HD
ATOM     70  C   UNL     1      -3.635  -3.938 -11.151  1.00  0.00     0.074 A 
ATOM     71  C   UNL     1      -2.333  -4.559 -11.374  1.00  0.00     0.031 C 
ATOM     72  C   UNL     1      -4.033  -2.631 -11.139  1.00  0.00     0.037 A 
BRANCH  59  73
ATOM     73  C   UNL     1       1.276  -1.736 -10.957  1.00  0.00     0.057 A 
ATOM     74  C   UNL     1       1.481  -1.101 -12.200  1.00  0.00     0.134 A 
ATOM     75  C   UNL     1       2.049  -2.891 -10.742  1.00  0.00     0.134 A 
ATOM     76  F   UNL     1       0.789  -0.002 -12.535  1.00  0.00    -0.206 F 
ATOM     77  C   UNL     1       2.345  -1.614 -13.177  1.00  0.00     0.040 A 
ATOM     78  C   UNL     1       2.951  -3.386 -11.693  1.00  0.00     0.040 A 
ATOM     79  F   UNL     1       1.897  -3.648  -9.648  1.00  0.00    -0.206 F 
ATOM     80  C   UNL     1       3.081  -2.764 -12.926  1.00  0.00     0.006 A 
ENDBRANCH  59  73
BRANCH  60  81
ATOM     81  C   UNL     1      -3.818  -8.133  -8.969  1.00  0.00     0.057 A 
ATOM     82  C   UNL     1      -4.352  -8.846 -10.046  1.00  0.00     0.134 A 
ATOM     83  C   UNL     1      -3.155  -8.888  -7.983  1.00  0.00     0.134 A 
ATOM     84  F   UNL     1      -4.972  -8.205 -11.046  1.00  0.00    -0.206 F 
ATOM     85  C   UNL     1      -4.215 -10.235 -10.149  1.00  0.00     0.040 A 
ATOM     86  C   UNL     1      -3.016 -10.274  -8.071  1.00  0.00     0.040 A 
ATOM     87  F   UNL     1      -2.550  -8.290  -6.945  1.00  0.00    -0.206 F 
ATOM     88  C   UNL     1      -3.536 -10.951  -9.167  1.00  0.00     0.006 A 
ENDBRANCH  60  81
BRANCH  72  89
ATOM     89  C   UNL     1      -5.458  -2.326 -10.765  1.00  0.00     0.057 A 
ATOM     90  C   UNL     1      -6.007  -2.586  -9.501  1.00  0.00     0.134 A 
ATOM     91  C   UNL     1      -6.254  -1.603 -11.660  1.00  0.00     0.134 A 
ATOM     92  F   UNL     1      -5.287  -3.178  -8.541  1.00  0.00    -0.206 F 
ATOM     93  C   UNL     1      -7.303  -2.187  -9.161  1.00  0.00     0.040 A 
ATOM     94  C   UNL     1      -7.540  -1.171 -11.323  1.00  0.00     0.040 A 
ATOM     95  F   UNL     1      -5.775  -1.260 -12.867  1.00  0.00    -0.206 F 
ATOM     96  C   UNL     1      -8.073  -1.472 -10.072  1.00  0.00     0.006 A 
ENDBRANCH  72  89
ENDBRANCH  46  47
ENDBRANCH  38  41
ENDBRANCH  36  37
ENDBRANCH   1  36
TORSDOF 16
