REMARK SMILES C[NH2+]C[C@@H](C)C(=O)N1CC[NH+](CC(=O)NCCCNC(=O)c2ccc(-c3c4nc(c(-c5c(F)cccc5F)c5ccc([nH]5)c(-c5c(F)cccc5F)c5nc(c(-c6c(F)cccc6F)c6ccc3[nH]6)C=C5)C=C4)cc2)CC1
REMARK SMILES IDX 16 1 15 2 13 3 14 4 12 6 11 7 6 8 7 9 8 10 9 11 77 12 10 13
REMARK SMILES IDX 76 14 4 16 5 17 3 18 2 19 1 20 17 23 18 24 19 25 20 26 21 28
REMARK SMILES IDX 22 29 23 30 75 31 24 32 74 33 25 34 26 35 27 36 68 37 28 38
REMARK SMILES IDX 73 39 67 40 69 41 29 42 72 43 66 44 65 45 30 47 56 48 39 49
REMARK SMILES IDX 55 50 40 51 43 52 54 53 70 54 41 55 42 56 53 58 71 59 44 60
REMARK SMILES IDX 31 61 32 62 37 63 33 64 34 65 36 66 38 67 35 68 57 69 58 70
REMARK SMILES IDX 63 71 59 72 60 73 62 74 64 75 61 76 45 77 46 78 51 79 47 80
REMARK SMILES IDX 48 81 50 82 52 83 49 84
REMARK H PARENT 15 5 11 15 2 21 2 22 19 27 69 46 43 57
REMARK Flexibility Score: inf
ROOT
ATOM      1  C   UNL     1      -3.728  -4.105   2.018  1.00  0.00     0.118 C 
ENDROOT
BRANCH   1   2
ATOM      2  N   UNL     1      -4.885  -3.386   1.501  1.00  0.00    -0.351 N 
ATOM      3  C   UNL     1      -5.738  -3.616   0.453  1.00  0.00     0.275 C 
ATOM      4  O   UNL     1      -6.680  -2.830   0.317  1.00  0.00    -0.269 OA
ATOM      5  H   UNL     1      -5.097  -2.568   2.007  1.00  0.00     0.163 HD
BRANCH   3   6
ATOM      6  C   UNL     1      -5.521  -4.754  -0.545  1.00  0.00     0.363 C 
BRANCH   6   7
ATOM      7  N   UNL     1      -4.795  -4.385  -1.777  1.00  0.00    -0.324 N 
ATOM      8  C   UNL     1      -2.840  -0.658  -2.695  1.00  0.00     0.231 C 
ATOM      9  O   UNL     1      -3.430   0.345  -3.114  1.00  0.00    -0.274 OA
ATOM     10  N   UNL     1      -3.571  -1.748  -2.272  1.00  0.00    -0.331 N 
ATOM     11  C   UNL     1      -4.997  -1.893  -2.602  1.00  0.00     0.181 C 
ATOM     12  C   UNL     1      -3.220  -2.592  -1.164  1.00  0.00     0.181 C 
ATOM     13  C   UNL     1      -5.447  -3.393  -2.670  1.00  0.00     0.284 C 
ATOM     14  C   UNL     1      -3.393  -4.058  -1.539  1.00  0.00     0.284 C 
ATOM     15  H   UNL     1      -4.837  -5.253  -2.311  1.00  0.00     0.348 HD
BRANCH   8  16
ATOM     16  C   UNL     1      -1.285  -0.699  -2.807  1.00  0.00     0.130 C 
ATOM     17  C   UNL     1      -0.962  -0.684  -4.306  1.00  0.00     0.024 C 
BRANCH  16  18
ATOM     18  C   UNL     1      -0.521  -1.837  -2.108  1.00  0.00     0.273 C 
BRANCH  18  19
ATOM     19  N   UNL     1       0.911  -2.015  -2.333  1.00  0.00    -0.348 N 
ATOM     20  C   UNL     1       1.681  -1.082  -1.538  1.00  0.00     0.330 C 
ATOM     21  H   UNL     1       1.173  -2.967  -2.076  1.00  0.00     0.346 HD
ATOM     22  H   UNL     1       1.109  -1.842  -3.318  1.00  0.00     0.346 HD
ENDBRANCH  18  19
ENDBRANCH  16  18
ENDBRANCH   8  16
ENDBRANCH   6   7
ENDBRANCH   3   6
ENDBRANCH   1   2
BRANCH   1  23
ATOM     23  C   UNL     1      -2.370  -3.359   1.988  1.00  0.00     0.042 C 
BRANCH  23  24
ATOM     24  C   UNL     1      -2.366  -1.832   2.209  1.00  0.00     0.118 C 
BRANCH  24  25
ATOM     25  N   UNL     1      -1.490  -1.452   3.309  1.00  0.00    -0.352 N 
ATOM     26  C   UNL     1      -0.342  -0.711   3.429  1.00  0.00     0.251 C 
ATOM     27  H   UNL     1      -1.796  -1.813   4.173  1.00  0.00     0.163 HD
ATOM     28  O   UNL     1       0.220  -0.748   4.525  1.00  0.00    -0.269 OA
BRANCH  26  29
ATOM     29  C   UNL     1       0.273   0.136   2.363  1.00  0.00     0.039 A 
ATOM     30  C   UNL     1       1.666   0.334   2.433  1.00  0.00     0.014 A 
ATOM     31  C   UNL     1      -0.448   0.884   1.431  1.00  0.00     0.014 A 
ATOM     32  C   UNL     1       2.328   1.258   1.605  1.00  0.00     0.010 A 
ATOM     33  C   UNL     1       0.221   1.791   0.578  1.00  0.00     0.010 A 
ATOM     34  C   UNL     1       1.614   2.006   0.665  1.00  0.00    -0.014 A 
BRANCH  34  35
ATOM     35  C   UNL     1       2.275   3.047  -0.188  1.00  0.00     0.031 A 
ATOM     36  C   UNL     1       1.967   4.507   0.014  1.00  0.00     0.074 A 
ATOM     37  C   UNL     1       3.128   2.724  -1.181  1.00  0.00     0.049 A 
ATOM     38  N   UNL     1       2.325   5.536  -0.714  1.00  0.00    -0.248 NA
ATOM     39  C   UNL     1       1.194   4.855   1.214  1.00  0.00     0.031 C 
ATOM     40  C   UNL     1       3.673   1.400  -1.437  1.00  0.00     0.029 A 
ATOM     41  N   UNL     1       3.637   3.487  -2.209  1.00  0.00    -0.354 N 
ATOM     42  C   UNL     1       1.857   6.657  -0.043  1.00  0.00     0.074 A 
ATOM     43  C   UNL     1       1.129   6.176   1.115  1.00  0.00     0.031 C 
ATOM     44  C   UNL     1       4.292   1.393  -2.629  1.00  0.00     0.029 A 
ATOM     45  C   UNL     1       4.237   2.736  -3.194  1.00  0.00     0.049 A 
ATOM     46  H   UNL     1       3.578   4.469  -2.236  1.00  0.00     0.167 HD
ATOM     47  C   UNL     1       2.053   7.966  -0.334  1.00  0.00     0.037 A 
ATOM     48  C   UNL     1       4.675   3.075  -4.421  1.00  0.00     0.037 A 
ATOM     49  C   UNL     1       2.775   8.465  -1.475  1.00  0.00     0.049 A 
ATOM     50  C   UNL     1       4.677   4.513  -4.848  1.00  0.00     0.074 A 
ATOM     51  C   UNL     1       3.069   9.778  -1.806  1.00  0.00     0.029 A 
ATOM     52  N   UNL     1       3.300   7.675  -2.484  1.00  0.00    -0.354 N 
ATOM     53  N   UNL     1       4.283   5.566  -4.179  1.00  0.00    -0.248 NA
ATOM     54  C   UNL     1       5.229   4.817  -6.178  1.00  0.00     0.031 C 
ATOM     55  C   UNL     1       3.736   9.784  -3.037  1.00  0.00     0.029 A 
ATOM     56  C   UNL     1       3.883   8.473  -3.457  1.00  0.00     0.049 A 
ATOM     57  H   UNL     1       3.263   6.691  -2.508  1.00  0.00     0.167 HD
ATOM     58  C   UNL     1       4.618   6.660  -4.963  1.00  0.00     0.074 A 
ATOM     59  C   UNL     1       5.199   6.144  -6.184  1.00  0.00     0.031 C 
ATOM     60  C   UNL     1       4.490   7.974  -4.663  1.00  0.00     0.037 A 
BRANCH  47  61
ATOM     61  C   UNL     1       1.478   8.962   0.626  1.00  0.00     0.057 A 
ATOM     62  C   UNL     1       2.072   9.199   1.873  1.00  0.00     0.134 A 
ATOM     63  C   UNL     1       0.334   9.698   0.299  1.00  0.00     0.134 A 
ATOM     64  F   UNL     1       3.167   8.518   2.244  1.00  0.00    -0.206 F 
ATOM     65  C   UNL     1       1.530  10.114   2.775  1.00  0.00     0.040 A 
ATOM     66  C   UNL     1      -0.207  10.629   1.186  1.00  0.00     0.040 A 
ATOM     67  F   UNL     1      -0.274   9.521  -0.883  1.00  0.00    -0.206 F 
ATOM     68  C   UNL     1       0.387  10.833   2.431  1.00  0.00     0.006 A 
ENDBRANCH  47  61
BRANCH  48  69
ATOM     69  C   UNL     1       5.174   2.026  -5.341  1.00  0.00     0.057 A 
ATOM     70  C   UNL     1       6.543   1.829  -5.543  1.00  0.00     0.134 A 
ATOM     71  C   UNL     1       4.286   1.210  -6.052  1.00  0.00     0.134 A 
ATOM     72  F   UNL     1       7.436   2.595  -4.902  1.00  0.00    -0.206 F 
ATOM     73  C   UNL     1       7.015   0.860  -6.430  1.00  0.00     0.040 A 
ATOM     74  C   UNL     1       4.744   0.232  -6.936  1.00  0.00     0.040 A 
ATOM     75  F   UNL     1       2.961   1.356  -5.899  1.00  0.00    -0.206 F 
ATOM     76  C   UNL     1       6.113   0.058  -7.128  1.00  0.00     0.006 A 
ENDBRANCH  48  69
BRANCH  60  77
ATOM     77  C   UNL     1       5.072   8.964  -5.626  1.00  0.00     0.057 A 
ATOM     78  C   UNL     1       4.434   9.305  -6.823  1.00  0.00     0.134 A 
ATOM     79  C   UNL     1       6.274   9.618  -5.322  1.00  0.00     0.134 A 
ATOM     80  F   UNL     1       3.291   8.699  -7.180  1.00  0.00    -0.206 F 
ATOM     81  C   UNL     1       4.973  10.259  -7.689  1.00  0.00     0.040 A 
ATOM     82  C   UNL     1       6.814  10.585  -6.171  1.00  0.00     0.040 A 
ATOM     83  F   UNL     1       6.936   9.335  -4.191  1.00  0.00    -0.206 F 
ATOM     84  C   UNL     1       6.163  10.907  -7.359  1.00  0.00     0.006 A 
ENDBRANCH  60  77
ENDBRANCH  34  35
ENDBRANCH  26  29
ENDBRANCH  24  25
ENDBRANCH  23  24
ENDBRANCH   1  23
TORSDOF 14
