REMARK SMILES CC[NH+](CC)[C@@H](C(=O)NCCCNC(=O)c1ccc(-c2c3nc(c(-c4c(F)cccc4F)c4ccc([nH]4)c(-c4c(F)cccc4F)c4nc(c(-c5c(F)cccc5F)c5ccc2[nH]5)C=C4)C=C3)cc1)c1ccc(C2CC2)cc1
REMARK SMILES IDX 11 1 10 2 9 3 7 4 8 5 6 7 3 8 2 10 1 11 4 12 5 13 70 14
REMARK SMILES IDX 71 15 78 16 72 17 77 18 73 19 74 20 75 21 76 22 12 23 13 24
REMARK SMILES IDX 14 25 15 27 16 28 17 29 69 30 18 31 68 32 19 33 20 34 21 35
REMARK SMILES IDX 62 36 22 37 67 38 61 39 63 40 23 41 66 42 60 43 59 44 24 46
REMARK SMILES IDX 50 47 33 48 49 49 34 50 37 51 48 52 64 53 35 54 36 55 47 57
REMARK SMILES IDX 65 58 38 59 25 60 26 61 31 62 27 63 28 64 30 65 32 66 29 67
REMARK SMILES IDX 51 68 52 69 57 70 53 71 54 72 56 73 58 74 55 75 39 76 40 77
REMARK SMILES IDX 45 78 41 79 42 80 44 81 46 82 43 83
REMARK H PARENT 9 6 3 9 13 26 63 45 37 56
REMARK Flexibility Score: inf
ROOT
ATOM      1  C   UNL     1       1.375  -1.975  -5.858  1.00  0.00     0.042 C 
ENDROOT
BRANCH   1   2
ATOM      2  C   UNL     1       2.594  -2.072  -4.921  1.00  0.00     0.118 C 
BRANCH   2   3
ATOM      3  N   UNL     1       2.957  -0.820  -4.276  1.00  0.00    -0.351 N 
ATOM      4  C   UNL     1       2.815  -0.319  -3.008  1.00  0.00     0.283 C 
ATOM      5  O   UNL     1       3.115   0.876  -2.901  1.00  0.00    -0.268 OA
ATOM      6  H   UNL     1       3.405  -0.192  -4.886  1.00  0.00     0.163 HD
BRANCH   4   7
ATOM      7  C   UNL     1       2.278  -1.177  -1.818  1.00  0.00     0.305 C 
BRANCH   7   8
ATOM      8  N   UNL     1       0.831  -0.919  -1.517  1.00  0.00    -0.321 N 
ATOM      9  H   UNL     1       0.661  -1.702  -0.885  1.00  0.00     0.349 HD
BRANCH   8  10
ATOM     10  C   UNL     1       0.499   0.243  -0.687  1.00  0.00     0.259 C 
ATOM     11  C   UNL     1       0.340  -0.126   0.787  1.00  0.00     0.071 C 
ENDBRANCH   8  10
BRANCH   8  12
ATOM     12  C   UNL     1      -0.091  -1.103  -2.636  1.00  0.00     0.259 C 
ATOM     13  C   UNL     1      -0.330   0.106  -3.546  1.00  0.00     0.071 C 
ENDBRANCH   8  12
ENDBRANCH   7   8
BRANCH   7  14
ATOM     14  C   UNL     1       3.138  -1.102  -0.536  1.00  0.00     0.019 A 
ATOM     15  C   UNL     1       3.120  -2.175   0.371  1.00  0.00     0.011 A 
ATOM     16  C   UNL     1       3.791   0.070  -0.124  1.00  0.00     0.011 A 
ATOM     17  C   UNL     1       3.633  -2.031   1.671  1.00  0.00     0.004 A 
ATOM     18  C   UNL     1       4.310   0.202   1.171  1.00  0.00     0.004 A 
ATOM     19  C   UNL     1       4.185  -0.819   2.120  1.00  0.00    -0.045 A 
BRANCH  19  20
ATOM     20  C   UNL     1       4.555  -0.633   3.578  1.00  0.00     0.019 C 
ATOM     21  C   UNL     1       4.632   0.725   4.241  1.00  0.00     0.009 C 
ATOM     22  C   UNL     1       3.460  -0.163   4.518  1.00  0.00     0.009 C 
ENDBRANCH  19  20
ENDBRANCH   7  14
ENDBRANCH   4   7
ENDBRANCH   2   3
ENDBRANCH   1   2
BRANCH   1  23
ATOM     23  C   UNL     1       1.260  -0.723  -6.734  1.00  0.00     0.118 C 
BRANCH  23  24
ATOM     24  N   UNL     1       1.903  -0.880  -8.026  1.00  0.00    -0.352 N 
ATOM     25  C   UNL     1       1.384  -0.686  -9.282  1.00  0.00     0.251 C 
ATOM     26  H   UNL     1       2.844  -1.167  -7.998  1.00  0.00     0.163 HD
ATOM     27  O   UNL     1       2.035  -1.055 -10.265  1.00  0.00    -0.269 OA
BRANCH  25  28
ATOM     28  C   UNL     1       0.056  -0.058  -9.495  1.00  0.00     0.039 A 
ATOM     29  C   UNL     1      -0.804  -0.619 -10.446  1.00  0.00     0.014 A 
ATOM     30  C   UNL     1      -0.317   1.124  -8.845  1.00  0.00     0.014 A 
ATOM     31  C   UNL     1      -2.038  -0.021 -10.725  1.00  0.00     0.010 A 
ATOM     32  C   UNL     1      -1.567   1.704  -9.101  1.00  0.00     0.010 A 
ATOM     33  C   UNL     1      -2.437   1.143 -10.050  1.00  0.00    -0.014 A 
BRANCH  33  34
ATOM     34  C   UNL     1      -3.753   1.777 -10.343  1.00  0.00     0.031 A 
ATOM     35  C   UNL     1      -3.830   3.098 -11.062  1.00  0.00     0.074 A 
ATOM     36  C   UNL     1      -4.892   1.182  -9.934  1.00  0.00     0.049 A 
ATOM     37  N   UNL     1      -4.886   3.806 -11.380  1.00  0.00    -0.248 NA
ATOM     38  C   UNL     1      -2.554   3.710 -11.462  1.00  0.00     0.031 C 
ATOM     39  C   UNL     1      -4.968  -0.079  -9.196  1.00  0.00     0.029 A 
ATOM     40  N   UNL     1      -6.204   1.568 -10.071  1.00  0.00    -0.354 N 
ATOM     41  C   UNL     1      -4.404   4.952 -12.000  1.00  0.00     0.074 A 
ATOM     42  C   UNL     1      -2.959   4.858 -11.991  1.00  0.00     0.031 C 
ATOM     43  C   UNL     1      -6.257  -0.362  -8.944  1.00  0.00     0.029 A 
ATOM     44  C   UNL     1      -7.097   0.704  -9.484  1.00  0.00     0.049 A 
ATOM     45  H   UNL     1      -6.478   2.386 -10.544  1.00  0.00     0.167 HD
ATOM     46  C   UNL     1      -5.099   5.983 -12.540  1.00  0.00     0.037 A 
ATOM     47  C   UNL     1      -8.439   0.765  -9.383  1.00  0.00     0.037 A 
ATOM     48  C   UNL     1      -6.535   6.069 -12.590  1.00  0.00     0.049 A 
ATOM     49  C   UNL     1      -9.186   1.911 -10.005  1.00  0.00     0.074 A 
ATOM     50  C   UNL     1      -7.320   7.035 -13.198  1.00  0.00     0.029 A 
ATOM     51  N   UNL     1      -7.403   5.161 -12.006  1.00  0.00    -0.354 N 
ATOM     52  N   UNL     1      -8.717   2.943 -10.662  1.00  0.00    -0.248 NA
ATOM     53  C   UNL     1     -10.652   1.897  -9.880  1.00  0.00     0.031 C 
ATOM     54  C   UNL     1      -8.663   6.733 -12.950  1.00  0.00     0.029 A 
ATOM     55  C   UNL     1      -8.714   5.558 -12.218  1.00  0.00     0.049 A 
ATOM     56  H   UNL     1      -7.130   4.354 -11.514  1.00  0.00     0.167 HD
ATOM     57  C   UNL     1      -9.827   3.686 -11.046  1.00  0.00     0.074 A 
ATOM     58  C   UNL     1     -10.994   2.981 -10.561  1.00  0.00     0.031 C 
ATOM     59  C   UNL     1      -9.871   4.850 -11.738  1.00  0.00     0.037 A 
BRANCH  46  60
ATOM     60  C   UNL     1      -4.316   7.117 -13.134  1.00  0.00     0.057 A 
ATOM     61  C   UNL     1      -3.669   6.998 -14.369  1.00  0.00     0.134 A 
ATOM     62  C   UNL     1      -4.272   8.363 -12.495  1.00  0.00     0.134 A 
ATOM     63  F   UNL     1      -3.671   5.830 -15.028  1.00  0.00    -0.206 F 
ATOM     64  C   UNL     1      -2.992   8.076 -14.943  1.00  0.00     0.040 A 
ATOM     65  C   UNL     1      -3.615   9.453 -13.068  1.00  0.00     0.040 A 
ATOM     66  F   UNL     1      -4.881   8.544 -11.313  1.00  0.00    -0.206 F 
ATOM     67  C   UNL     1      -2.970   9.310 -14.295  1.00  0.00     0.006 A 
ENDBRANCH  46  60
BRANCH  47  68
ATOM     68  C   UNL     1      -9.175  -0.302  -8.661  1.00  0.00     0.057 A 
ATOM     69  C   UNL     1      -9.963  -1.232  -9.349  1.00  0.00     0.134 A 
ATOM     70  C   UNL     1      -9.127  -0.401  -7.266  1.00  0.00     0.134 A 
ATOM     71  F   UNL     1     -10.066  -1.171 -10.685  1.00  0.00    -0.206 F 
ATOM     72  C   UNL     1     -10.691  -2.212  -8.674  1.00  0.00     0.040 A 
ATOM     73  C   UNL     1      -9.832  -1.390  -6.579  1.00  0.00     0.040 A 
ATOM     74  F   UNL     1      -8.387   0.460  -6.551  1.00  0.00    -0.206 F 
ATOM     75  C   UNL     1     -10.623  -2.295  -7.285  1.00  0.00     0.006 A 
ENDBRANCH  47  68
BRANCH  59  76
ATOM     76  C   UNL     1     -11.224   5.424 -12.034  1.00  0.00     0.057 A 
ATOM     77  C   UNL     1     -11.989   6.053 -11.045  1.00  0.00     0.134 A 
ATOM     78  C   UNL     1     -11.752   5.378 -13.331  1.00  0.00     0.134 A 
ATOM     79  F   UNL     1     -11.546   6.118  -9.781  1.00  0.00    -0.206 F 
ATOM     80  C   UNL     1     -13.241   6.603 -11.331  1.00  0.00     0.040 A 
ATOM     81  C   UNL     1     -12.992   5.942 -13.634  1.00  0.00     0.040 A 
ATOM     82  F   UNL     1     -11.066   4.795 -14.325  1.00  0.00    -0.206 F 
ATOM     83  C   UNL     1     -13.742   6.553 -12.631  1.00  0.00     0.006 A 
ENDBRANCH  59  76
ENDBRANCH  33  34
ENDBRANCH  25  28
ENDBRANCH  23  24
ENDBRANCH   1  23
TORSDOF 15
