REMARK SMILES COc1cccc(-c2nn(-c3cc4c(cc3C(N)=O)OCO4)cc2C(=O)NCCCNC(=O)c2ccc(-c3c4nc(c(-c5c(F)cccc5F)c5ccc([nH]5)c(-c5c(F)cccc5F)c5nc(c(-c6c(F)cccc6F)c6ccc3[nH]6)C=C5)C=C4)cc2)c1
REMARK SMILES IDX 29 1 28 2 27 3 25 4 26 5 24 7 8 8 9 9 10 10 23 11 7 12 3 13
REMARK SMILES IDX 4 14 88 15 5 16 6 17 2 18 1 19 11 20 12 21 16 22 13 23 15 24
REMARK SMILES IDX 14 25 22 26 20 27 21 28 17 29 18 30 19 31 30 34 31 35 32 36
REMARK SMILES IDX 33 38 34 39 35 40 87 41 36 42 86 43 37 44 38 45 39 46 80 47
REMARK SMILES IDX 40 48 85 49 79 50 81 51 41 52 84 53 78 54 77 55 42 57 68 58
REMARK SMILES IDX 51 59 67 60 52 61 55 62 66 63 82 64 53 65 54 66 65 68 83 69
REMARK SMILES IDX 56 70 43 71 44 72 49 73 45 74 46 75 48 76 50 77 47 78 69 79
REMARK SMILES IDX 70 80 75 81 71 82 72 83 74 84 76 85 73 86 57 87 58 88 63 89
REMARK SMILES IDX 59 90 60 91 62 92 64 93 61 94
REMARK H PARENT 27 6 18 32 18 33 31 37 81 56 55 67
REMARK Flexibility Score: inf
ROOT
ATOM      1  C   UNL     1       6.191  -1.949  -7.913  1.00  0.00     0.042 C 
ENDROOT
BRANCH   1   2
ATOM      2  C   UNL     1       5.624  -0.897  -6.954  1.00  0.00     0.118 C 
BRANCH   2   3
ATOM      3  N   UNL     1       4.215  -1.112  -6.666  1.00  0.00    -0.352 N 
ATOM      4  C   UNL     1       3.571  -1.768  -5.643  1.00  0.00     0.255 C 
ATOM      5  O   UNL     1       2.343  -1.688  -5.645  1.00  0.00    -0.269 OA
ATOM      6  H   UNL     1       3.607  -0.712  -7.329  1.00  0.00     0.163 HD
BRANCH   4   7
ATOM      7  C   UNL     1       4.306  -2.485  -4.610  1.00  0.00     0.086 A 
ATOM      8  C   UNL     1       3.843  -2.941  -3.324  1.00  0.00     0.106 A 
ATOM      9  N   UNL     1       4.849  -3.474  -2.595  1.00  0.00    -0.167 NA
ATOM     10  N   UNL     1       5.949  -3.198  -3.327  1.00  0.00    -0.239 N 
ATOM     11  C   UNL     1       5.616  -2.911  -4.626  1.00  0.00     0.129 A 
BRANCH   8  12
ATOM     12  C   UNL     1       2.478  -2.873  -2.798  1.00  0.00     0.007 A 
ATOM     13  C   UNL     1       0.871  -2.018  -1.197  1.00  0.00     0.119 A 
ATOM     14  C   UNL     1      -0.162  -2.653  -1.888  1.00  0.00     0.046 A 
ATOM     15  C   UNL     1       2.194  -2.143  -1.635  1.00  0.00     0.056 A 
ATOM     16  C   UNL     1       0.116  -3.395  -3.034  1.00  0.00     0.005 A 
ATOM     17  C   UNL     1       1.432  -3.509  -3.483  1.00  0.00     0.011 A 
BRANCH  13  18
ATOM     18  O   UNL     1       0.506  -1.345  -0.061  1.00  0.00    -0.497 OA
ATOM     19  C   UNL     1       1.052  -0.032   0.022  1.00  0.00     0.278 C 
ENDBRANCH  13  18
ENDBRANCH   8  12
BRANCH  10  20
ATOM     20  C   UNL     1       7.276  -3.367  -2.862  1.00  0.00     0.081 A 
ATOM     21  C   UNL     1       7.589  -4.552  -2.173  1.00  0.00     0.079 A 
ATOM     22  C   UNL     1       8.293  -2.417  -3.189  1.00  0.00     0.069 A 
ATOM     23  C   UNL     1       8.922  -4.793  -1.909  1.00  0.00     0.167 A 
ATOM     24  C   UNL     1       9.638  -2.761  -2.989  1.00  0.00     0.066 A 
ATOM     25  C   UNL     1       9.912  -3.939  -2.335  1.00  0.00     0.166 A 
ATOM     26  O   UNL     1       9.433  -5.862  -1.240  1.00  0.00    -0.454 OA
ATOM     27  O   UNL     1      11.157  -4.362  -1.988  1.00  0.00    -0.454 OA
ATOM     28  C   UNL     1      10.820  -5.472  -1.131  1.00  0.00     0.468 C 
BRANCH  22  29
ATOM     29  C   UNL     1       7.963  -0.990  -3.535  1.00  0.00     0.251 C 
ATOM     30  N   UNL     1       8.962  -0.056  -3.491  1.00  0.00    -0.366 N 
ATOM     31  O   UNL     1       6.831  -0.596  -3.775  1.00  0.00    -0.269 OA
ATOM     32  H   UNL     1       9.887  -0.333  -3.301  1.00  0.00     0.159 HD
ATOM     33  H   UNL     1       8.755   0.893  -3.650  1.00  0.00     0.159 HD
ENDBRANCH  22  29
ENDBRANCH  10  20
ENDBRANCH   4   7
ENDBRANCH   2   3
ENDBRANCH   1   2
BRANCH   1  34
ATOM     34  C   UNL     1       5.821  -1.640  -9.353  1.00  0.00     0.118 C 
BRANCH  34  35
ATOM     35  N   UNL     1       6.502  -0.445  -9.860  1.00  0.00    -0.352 N 
ATOM     36  C   UNL     1       6.369   0.176 -11.090  1.00  0.00     0.251 C 
ATOM     37  H   UNL     1       7.143  -0.026  -9.241  1.00  0.00     0.163 HD
ATOM     38  O   UNL     1       7.206   0.959 -11.495  1.00  0.00    -0.269 OA
BRANCH  36  39
ATOM     39  C   UNL     1       5.183  -0.145 -11.904  1.00  0.00     0.039 A 
ATOM     40  C   UNL     1       5.274  -0.344 -13.283  1.00  0.00     0.014 A 
ATOM     41  C   UNL     1       3.975  -0.307 -11.239  1.00  0.00     0.014 A 
ATOM     42  C   UNL     1       4.150  -0.801 -13.965  1.00  0.00     0.010 A 
ATOM     43  C   UNL     1       2.948  -0.955 -11.864  1.00  0.00     0.010 A 
ATOM     44  C   UNL     1       2.994  -1.132 -13.240  1.00  0.00    -0.014 A 
BRANCH  44  45
ATOM     45  C   UNL     1       1.843  -1.752 -13.886  1.00  0.00     0.031 A 
ATOM     46  C   UNL     1       2.163  -2.960 -14.689  1.00  0.00     0.074 A 
ATOM     47  C   UNL     1       0.570  -1.395 -13.605  1.00  0.00     0.049 A 
ATOM     48  N   UNL     1       2.109  -3.089 -15.973  1.00  0.00    -0.248 NA
ATOM     49  C   UNL     1       2.751  -4.121 -13.999  1.00  0.00     0.031 C 
ATOM     50  C   UNL     1       0.095  -0.427 -12.605  1.00  0.00     0.029 A 
ATOM     51  N   UNL     1      -0.593  -1.906 -14.095  1.00  0.00    -0.354 N 
ATOM     52  C   UNL     1       2.436  -4.416 -16.236  1.00  0.00     0.074 A 
ATOM     53  C   UNL     1       3.003  -4.941 -15.023  1.00  0.00     0.031 C 
ATOM     54  C   UNL     1      -1.227  -0.594 -12.396  1.00  0.00     0.029 A 
ATOM     55  C   UNL     1      -1.726  -1.530 -13.383  1.00  0.00     0.049 A 
ATOM     56  H   UNL     1      -0.628  -2.491 -14.885  1.00  0.00     0.167 HD
ATOM     57  C   UNL     1       1.954  -5.043 -17.344  1.00  0.00     0.037 A 
ATOM     58  C   UNL     1      -2.995  -1.949 -13.588  1.00  0.00     0.037 A 
ATOM     59  C   UNL     1       1.425  -4.089 -18.287  1.00  0.00     0.049 A 
ATOM     60  C   UNL     1      -3.065  -2.460 -14.973  1.00  0.00     0.074 A 
ATOM     61  C   UNL     1       1.936  -3.061 -19.050  1.00  0.00     0.029 A 
ATOM     62  N   UNL     1       0.067  -3.900 -18.239  1.00  0.00    -0.354 N 
ATOM     63  N   UNL     1      -2.929  -1.707 -16.029  1.00  0.00    -0.248 NA
ATOM     64  C   UNL     1      -2.878  -3.884 -15.195  1.00  0.00     0.031 C 
ATOM     65  C   UNL     1       0.901  -2.077 -19.099  1.00  0.00     0.029 A 
ATOM     66  C   UNL     1      -0.209  -2.571 -18.412  1.00  0.00     0.049 A 
ATOM     67  H   UNL     1      -0.603  -4.608 -18.102  1.00  0.00     0.167 HD
ATOM     68  C   UNL     1      -2.217  -2.488 -16.926  1.00  0.00     0.074 A 
ATOM     69  C   UNL     1      -2.352  -3.852 -16.423  1.00  0.00     0.031 C 
ATOM     70  C   UNL     1      -1.353  -1.913 -17.815  1.00  0.00     0.037 A 
BRANCH  57  71
ATOM     71  C   UNL     1       1.537  -6.498 -17.388  1.00  0.00     0.057 A 
ATOM     72  C   UNL     1       1.155  -7.061 -18.622  1.00  0.00     0.134 A 
ATOM     73  C   UNL     1       1.191  -7.262 -16.254  1.00  0.00     0.134 A 
ATOM     74  F   UNL     1       1.411  -6.426 -19.776  1.00  0.00    -0.206 F 
ATOM     75  C   UNL     1       0.417  -8.248 -18.711  1.00  0.00     0.040 A 
ATOM     76  C   UNL     1       0.500  -8.474 -16.336  1.00  0.00     0.040 A 
ATOM     77  F   UNL     1       1.404  -6.834 -15.005  1.00  0.00    -0.206 F 
ATOM     78  C   UNL     1       0.079  -8.955 -17.564  1.00  0.00     0.006 A 
ENDBRANCH  57  71
BRANCH  58  79
ATOM     79  C   UNL     1      -4.063  -2.167 -12.591  1.00  0.00     0.057 A 
ATOM     80  C   UNL     1      -5.412  -2.228 -12.961  1.00  0.00     0.134 A 
ATOM     81  C   UNL     1      -3.756  -2.593 -11.286  1.00  0.00     0.134 A 
ATOM     82  F   UNL     1      -5.794  -1.881 -14.198  1.00  0.00    -0.206 F 
ATOM     83  C   UNL     1      -6.400  -2.708 -12.090  1.00  0.00     0.040 A 
ATOM     84  C   UNL     1      -4.732  -3.071 -10.406  1.00  0.00     0.040 A 
ATOM     85  F   UNL     1      -2.486  -2.643 -10.858  1.00  0.00    -0.206 F 
ATOM     86  C   UNL     1      -6.059  -3.143 -10.812  1.00  0.00     0.006 A 
ENDBRANCH  58  79
BRANCH  70  87
ATOM     87  C   UNL     1      -1.474  -0.427 -18.027  1.00  0.00     0.057 A 
ATOM     88  C   UNL     1      -1.178   0.541 -17.056  1.00  0.00     0.134 A 
ATOM     89  C   UNL     1      -1.794   0.042 -19.305  1.00  0.00     0.134 A 
ATOM     90  F   UNL     1      -0.774   0.194 -15.830  1.00  0.00    -0.206 F 
ATOM     91  C   UNL     1      -1.242   1.911 -17.332  1.00  0.00     0.040 A 
ATOM     92  C   UNL     1      -1.829   1.406 -19.604  1.00  0.00     0.040 A 
ATOM     93  F   UNL     1      -2.038  -0.825 -20.300  1.00  0.00    -0.206 F 
ATOM     94  C   UNL     1      -1.564   2.347 -18.613  1.00  0.00     0.006 A 
ENDBRANCH  70  87
ENDBRANCH  44  45
ENDBRANCH  36  39
ENDBRANCH  34  35
ENDBRANCH   1  34
TORSDOF 14
