REMARK SMILES C[NH2+][C@]1(C(=O)NCCCNC(=O)c2ccc(-c3c4nc(c(-c5c(F)cccc5F)c5ccc([nH]5)c(-c5c(F)cccc5F)c5nc(c(-c6c(F)cccc6F)c6ccc3[nH]6)C=C5)C=C4)cc2)CCC[C@@H]1CCOC[C@@H]1CCCO1
REMARK SMILES IDX 4 1 5 2 6 3 3 5 67 6 70 7 68 8 69 9 2 10 1 11 71 14 72 15
REMARK SMILES IDX 73 16 74 17 75 18 76 19 79 20 77 21 78 22 7 23 8 24 9 25
REMARK SMILES IDX 10 26 11 27 12 29 13 30 14 31 66 32 15 33 65 34 16 35 17 36
REMARK SMILES IDX 18 37 59 38 19 39 64 40 58 41 60 42 20 43 63 44 57 45 56 46
REMARK SMILES IDX 21 48 47 49 30 50 46 51 31 52 34 53 45 54 61 55 32 56 33 57
REMARK SMILES IDX 44 59 62 60 35 61 22 62 23 63 28 64 24 65 25 66 27 67 29 68
REMARK SMILES IDX 26 69 48 70 49 71 54 72 50 73 51 74 53 75 55 76 52 77 36 78
REMARK SMILES IDX 37 79 42 80 38 81 39 82 41 83 43 84 40 85
REMARK H PARENT 6 4 2 12 2 13 10 28 60 47 34 58
REMARK Flexibility Score: inf
ROOT
ATOM      1  C   UNL     1       0.459   1.652   0.262  1.00  0.00     0.281 C 
ATOM      2  O   UNL     1       1.199   1.465   1.239  1.00  0.00    -0.268 OA
ATOM      3  N   UNL     1       1.098   1.728  -0.933  1.00  0.00    -0.351 N 
ATOM      4  H   UNL     1       2.062   1.538  -0.871  1.00  0.00     0.163 HD
ENDROOT
BRANCH   1   5
ATOM      5  C   UNL     1      -1.095   1.687   0.447  1.00  0.00     0.178 C 
ATOM      6  C   UNL     1      -1.851   2.849  -0.224  1.00  0.00     0.079 C 
ATOM      7  C   UNL     1      -1.770   0.471  -0.253  1.00  0.00     0.063 C 
ATOM      8  C   UNL     1      -3.295   2.362  -0.388  1.00  0.00     0.008 C 
ATOM      9  C   UNL     1      -3.262   0.844  -0.179  1.00  0.00     0.011 C 
BRANCH   5  10
ATOM     10  N   UNL     1      -1.401   1.583   1.912  1.00  0.00    -0.336 N 
ATOM     11  C   UNL     1      -1.337   2.838   2.647  1.00  0.00     0.331 C 
ATOM     12  H   UNL     1      -2.343   1.205   2.012  1.00  0.00     0.346 HD
ATOM     13  H   UNL     1      -0.679   0.983   2.311  1.00  0.00     0.346 HD
ENDBRANCH   5  10
BRANCH   7  14
ATOM     14  C   UNL     1      -1.421  -0.912   0.328  1.00  0.00     0.039 C 
BRANCH  14  15
ATOM     15  C   UNL     1      -1.678  -2.107  -0.599  1.00  0.00     0.161 C 
BRANCH  15  16
ATOM     16  O   UNL     1      -0.613  -2.402  -1.492  1.00  0.00    -0.379 OA
BRANCH  16  17
ATOM     17  C   UNL     1      -0.432  -1.654  -2.689  1.00  0.00     0.192 C 
BRANCH  17  18
ATOM     18  C   UNL     1      -1.546  -1.686  -3.751  1.00  0.00     0.144 C 
ATOM     19  C   UNL     1      -2.718  -0.746  -3.530  1.00  0.00     0.037 C 
ATOM     20  O   UNL     1      -2.088  -3.005  -3.920  1.00  0.00    -0.376 OA
ATOM     21  C   UNL     1      -3.861  -1.463  -4.198  1.00  0.00     0.031 C 
ATOM     22  C   UNL     1      -3.517  -2.914  -3.943  1.00  0.00     0.160 C 
ENDBRANCH  17  18
ENDBRANCH  16  17
ENDBRANCH  15  16
ENDBRANCH  14  15
ENDBRANCH   7  14
ENDBRANCH   1   5
BRANCH   3  23
ATOM     23  C   UNL     1       0.660   2.031  -2.282  1.00  0.00     0.118 C 
BRANCH  23  24
ATOM     24  C   UNL     1       0.895   3.494  -2.633  1.00  0.00     0.042 C 
BRANCH  24  25
ATOM     25  C   UNL     1       2.370   3.854  -2.766  1.00  0.00     0.118 C 
BRANCH  25  26
ATOM     26  N   UNL     1       2.990   3.230  -3.926  1.00  0.00    -0.352 N 
ATOM     27  C   UNL     1       3.589   3.800  -5.022  1.00  0.00     0.251 C 
ATOM     28  H   UNL     1       2.978   2.245  -3.924  1.00  0.00     0.163 HD
ATOM     29  O   UNL     1       3.862   3.102  -5.993  1.00  0.00    -0.269 OA
BRANCH  27  30
ATOM     30  C   UNL     1       3.893   5.248  -5.047  1.00  0.00     0.039 A 
ATOM     31  C   UNL     1       3.689   5.957  -6.234  1.00  0.00     0.014 A 
ATOM     32  C   UNL     1       4.408   5.901  -3.924  1.00  0.00     0.014 A 
ATOM     33  C   UNL     1       3.945   7.330  -6.276  1.00  0.00     0.010 A 
ATOM     34  C   UNL     1       4.587   7.282  -3.943  1.00  0.00     0.010 A 
ATOM     35  C   UNL     1       4.363   8.009  -5.121  1.00  0.00    -0.014 A 
BRANCH  35  36
ATOM     36  C   UNL     1       4.575   9.479  -5.127  1.00  0.00     0.031 A 
ATOM     37  C   UNL     1       5.944  10.049  -4.877  1.00  0.00     0.074 A 
ATOM     38  C   UNL     1       3.521  10.301  -5.293  1.00  0.00     0.049 A 
ATOM     39  N   UNL     1       6.312  11.300  -4.774  1.00  0.00    -0.248 NA
ATOM     40  C   UNL     1       7.039   9.084  -4.691  1.00  0.00     0.031 C 
ATOM     41  C   UNL     1       2.137   9.872  -5.498  1.00  0.00     0.029 A 
ATOM     42  N   UNL     1       3.449  11.671  -5.303  1.00  0.00    -0.354 N 
ATOM     43  C   UNL     1       7.674  11.273  -4.499  1.00  0.00     0.074 A 
ATOM     44  C   UNL     1       8.056   9.881  -4.398  1.00  0.00     0.031 C 
ATOM     45  C   UNL     1       1.357  10.956  -5.637  1.00  0.00     0.029 A 
ATOM     46  C   UNL     1       2.176  12.154  -5.490  1.00  0.00     0.049 A 
ATOM     47  H   UNL     1       4.234  12.253  -5.188  1.00  0.00     0.167 HD
ATOM     48  C   UNL     1       8.532  12.312  -4.364  1.00  0.00     0.037 A 
ATOM     49  C   UNL     1       1.720  13.420  -5.531  1.00  0.00     0.037 A 
ATOM     50  C   UNL     1       8.153  13.695  -4.487  1.00  0.00     0.049 A 
ATOM     51  C   UNL     1       2.691  14.556  -5.368  1.00  0.00     0.074 A 
ATOM     52  C   UNL     1       8.959  14.819  -4.429  1.00  0.00     0.029 A 
ATOM     53  N   UNL     1       6.856  14.143  -4.689  1.00  0.00    -0.354 N 
ATOM     54  N   UNL     1       3.987  14.515  -5.176  1.00  0.00    -0.248 NA
ATOM     55  C   UNL     1       2.136  15.915  -5.432  1.00  0.00     0.031 C 
ATOM     56  C   UNL     1       8.143  15.949  -4.549  1.00  0.00     0.029 A 
ATOM     57  C   UNL     1       6.836  15.528  -4.733  1.00  0.00     0.049 A 
ATOM     58  H   UNL     1       6.066  13.563  -4.787  1.00  0.00     0.167 HD
ATOM     59  C   UNL     1       4.407  15.838  -5.124  1.00  0.00     0.074 A 
ATOM     60  C   UNL     1       3.228  16.657  -5.319  1.00  0.00     0.031 C 
ATOM     61  C   UNL     1       5.655  16.330  -4.932  1.00  0.00     0.037 A 
BRANCH  48  62
ATOM     62  C   UNL     1       9.969  11.989  -4.069  1.00  0.00     0.057 A 
ATOM     63  C   UNL     1      10.805  11.394  -5.023  1.00  0.00     0.134 A 
ATOM     64  C   UNL     1      10.532  12.306  -2.826  1.00  0.00     0.134 A 
ATOM     65  F   UNL     1      10.326  11.054  -6.229  1.00  0.00    -0.206 F 
ATOM     66  C   UNL     1      12.140  11.098  -4.742  1.00  0.00     0.040 A 
ATOM     67  C   UNL     1      11.873  12.041  -2.543  1.00  0.00     0.040 A 
ATOM     68  F   UNL     1       9.791  12.884  -1.869  1.00  0.00    -0.206 F 
ATOM     69  C   UNL     1      12.679  11.428  -3.501  1.00  0.00     0.006 A 
ENDBRANCH  48  62
BRANCH  49  70
ATOM     70  C   UNL     1       0.276  13.681  -5.755  1.00  0.00     0.057 A 
ATOM     71  C   UNL     1      -0.177  14.239  -6.957  1.00  0.00     0.134 A 
ATOM     72  C   UNL     1      -0.683  13.386  -4.779  1.00  0.00     0.134 A 
ATOM     73  F   UNL     1       0.696  14.560  -7.923  1.00  0.00    -0.206 F 
ATOM     74  C   UNL     1      -1.528  14.511  -7.173  1.00  0.00     0.040 A 
ATOM     75  C   UNL     1      -2.041  13.629  -4.992  1.00  0.00     0.040 A 
ATOM     76  F   UNL     1      -0.314  12.842  -3.610  1.00  0.00    -0.206 F 
ATOM     77  C   UNL     1      -2.466  14.200  -6.189  1.00  0.00     0.006 A 
ENDBRANCH  49  70
BRANCH  61  78
ATOM     78  C   UNL     1       5.815  17.822  -4.955  1.00  0.00     0.057 A 
ATOM     79  C   UNL     1       5.354  18.632  -3.910  1.00  0.00     0.134 A 
ATOM     80  C   UNL     1       6.472  18.451  -6.020  1.00  0.00     0.134 A 
ATOM     81  F   UNL     1       4.705  18.093  -2.867  1.00  0.00    -0.206 F 
ATOM     82  C   UNL     1       5.521  20.018  -3.934  1.00  0.00     0.040 A 
ATOM     83  C   UNL     1       6.669  19.832  -6.043  1.00  0.00     0.040 A 
ATOM     84  F   UNL     1       6.945  17.732  -7.049  1.00  0.00    -0.206 F 
ATOM     85  C   UNL     1       6.186  20.620  -5.000  1.00  0.00     0.006 A 
ENDBRANCH  61  78
ENDBRANCH  35  36
ENDBRANCH  27  30
ENDBRANCH  25  26
ENDBRANCH  24  25
ENDBRANCH  23  24
ENDBRANCH   3  23
TORSDOF 16
