REMARK SMILES C[C@]1(C(=O)NCCCNC(=O)c2ccc(-c3c4nc(c(-c5c(F)cccc5F)c5ccc([nH]5)c(-c5c(F)cccc5F)c5nc(c(-c6c(F)cccc6F)c6ccc3[nH]6)C=C5)C=C4)cc2)COC[C@H]1Nc1ccc2nnnn2n1
REMARK SMILES IDX 7 1 6 2 5 3 3 4 4 5 2 7 1 8 66 9 69 10 67 11 68 12 70 13
REMARK SMILES IDX 71 15 72 16 79 17 73 18 78 19 74 20 77 21 75 22 76 23 8 24
REMARK SMILES IDX 9 25 10 26 11 28 12 29 13 30 65 31 14 32 64 33 15 34 16 35
REMARK SMILES IDX 17 36 58 37 18 38 63 39 57 40 59 41 19 42 62 43 56 44 55 45
REMARK SMILES IDX 20 47 46 48 29 49 45 50 30 51 33 52 44 53 60 54 31 55 32 56
REMARK SMILES IDX 43 58 61 59 34 60 21 61 22 62 27 63 23 64 24 65 26 66 28 67
REMARK SMILES IDX 25 68 47 69 48 70 53 71 49 72 50 73 52 74 54 75 51 76 35 77
REMARK SMILES IDX 36 78 41 79 37 80 38 81 40 82 42 83 39 84
REMARK H PARENT 5 6 70 14 9 27 59 46 33 57
REMARK Flexibility Score: inf
ROOT
ATOM      1  C   UNL     1       4.383   0.069  -0.640  1.00  0.00     0.042 C 
ENDROOT
BRANCH   1   2
ATOM      2  C   UNL     1       3.379  -1.059  -0.402  1.00  0.00     0.117 C 
BRANCH   2   3
ATOM      3  N   UNL     1       2.198  -0.589   0.298  1.00  0.00    -0.355 N 
ATOM      4  C   UNL     1       0.967  -0.188  -0.099  1.00  0.00     0.230 C 
ATOM      5  O   UNL     1       0.245   0.233   0.817  1.00  0.00    -0.274 OA
ATOM      6  H   UNL     1       2.318  -0.553   1.274  1.00  0.00     0.163 HD
BRANCH   4   7
ATOM      7  C   UNL     1       0.394  -0.355  -1.516  1.00  0.00     0.092 C 
ATOM      8  C   UNL     1       1.393  -0.230  -2.678  1.00  0.00     0.026 C 
ATOM      9  C   UNL     1      -0.301  -1.724  -1.538  1.00  0.00     0.179 C 
ATOM     10  C   UNL     1      -0.790   0.605  -1.828  1.00  0.00     0.124 C 
ATOM     11  O   UNL     1      -1.499  -1.580  -2.310  1.00  0.00    -0.378 OA
ATOM     12  C   UNL     1      -2.011  -0.280  -2.005  1.00  0.00     0.186 C 
BRANCH  10  13
ATOM     13  N   UNL     1      -1.010   1.724  -0.902  1.00  0.00    -0.362 N 
ATOM     14  H   UNL     1      -1.360   1.589   0.009  1.00  0.00     0.162 HD
BRANCH  13  15
ATOM     15  C   UNL     1      -0.699   2.964  -1.385  1.00  0.00     0.149 A 
ATOM     16  C   UNL     1      -1.772   3.656  -2.212  1.00  0.00     0.053 A 
ATOM     17  N   UNL     1       0.519   3.404  -1.245  1.00  0.00    -0.129 NA
ATOM     18  C   UNL     1      -1.251   4.178  -3.337  1.00  0.00     0.057 A 
ATOM     19  N   UNL     1       0.804   4.374  -2.152  1.00  0.00    -0.108 N 
ATOM     20  C   UNL     1       0.050   4.721  -3.258  1.00  0.00     0.200 A 
ATOM     21  N   UNL     1       2.024   4.914  -2.275  1.00  0.00    -0.022 NA
ATOM     22  N   UNL     1       0.794   5.435  -4.069  1.00  0.00    -0.107 NA
ATOM     23  N   UNL     1       2.009   5.565  -3.433  1.00  0.00    -0.022 NA
ENDBRANCH  13  15
ENDBRANCH  10  13
ENDBRANCH   4   7
ENDBRANCH   2   3
ENDBRANCH   1   2
BRANCH   1  24
ATOM     24  C   UNL     1       5.115   0.512   0.629  1.00  0.00     0.118 C 
BRANCH  24  25
ATOM     25  N   UNL     1       5.912  -0.563   1.208  1.00  0.00    -0.352 N 
ATOM     26  C   UNL     1       7.272  -0.721   1.302  1.00  0.00     0.251 C 
ATOM     27  H   UNL     1       5.386  -1.299   1.598  1.00  0.00     0.163 HD
ATOM     28  O   UNL     1       7.734  -1.821   1.586  1.00  0.00    -0.269 OA
BRANCH  26  29
ATOM     29  C   UNL     1       8.183   0.418   1.059  1.00  0.00     0.039 A 
ATOM     30  C   UNL     1       9.364   0.197   0.344  1.00  0.00     0.014 A 
ATOM     31  C   UNL     1       7.898   1.688   1.565  1.00  0.00     0.014 A 
ATOM     32  C   UNL     1      10.214   1.268   0.063  1.00  0.00     0.010 A 
ATOM     33  C   UNL     1       8.710   2.767   1.226  1.00  0.00     0.010 A 
ATOM     34  C   UNL     1       9.867   2.570   0.458  1.00  0.00    -0.014 A 
BRANCH  34  35
ATOM     35  C   UNL     1      10.663   3.745   0.023  1.00  0.00     0.031 A 
ATOM     36  C   UNL     1      11.364   4.613   1.028  1.00  0.00     0.074 A 
ATOM     37  C   UNL     1      10.675   4.075  -1.283  1.00  0.00     0.049 A 
ATOM     38  N   UNL     1      12.024   5.728   0.838  1.00  0.00    -0.248 NA
ATOM     39  C   UNL     1      11.298   4.186   2.434  1.00  0.00     0.031 C 
ATOM     40  C   UNL     1       9.992   3.337  -2.348  1.00  0.00     0.029 A 
ATOM     41  N   UNL     1      11.267   5.126  -1.938  1.00  0.00    -0.354 N 
ATOM     42  C   UNL     1      12.443   6.140   2.096  1.00  0.00     0.074 A 
ATOM     43  C   UNL     1      11.924   5.181   3.048  1.00  0.00     0.031 C 
ATOM     44  C   UNL     1      10.214   3.947  -3.521  1.00  0.00     0.029 A 
ATOM     45  C   UNL     1      11.014   5.145  -3.288  1.00  0.00     0.049 A 
ATOM     46  H   UNL     1      11.820   5.802  -1.483  1.00  0.00     0.167 HD
ATOM     47  C   UNL     1      13.204   7.212   2.423  1.00  0.00     0.037 A 
ATOM     48  C   UNL     1      11.366   6.038  -4.231  1.00  0.00     0.037 A 
ATOM     49  C   UNL     1      13.722   8.159   1.468  1.00  0.00     0.049 A 
ATOM     50  C   UNL     1      12.180   7.237  -3.835  1.00  0.00     0.074 A 
ATOM     51  C   UNL     1      14.556   9.241   1.693  1.00  0.00     0.029 A 
ATOM     52  N   UNL     1      13.445   8.145   0.109  1.00  0.00    -0.354 N 
ATOM     53  N   UNL     1      12.636   7.572  -2.652  1.00  0.00    -0.248 NA
ATOM     54  C   UNL     1      12.528   8.184  -4.904  1.00  0.00     0.031 C 
ATOM     55  C   UNL     1      14.737   9.913   0.481  1.00  0.00     0.029 A 
ATOM     56  C   UNL     1      14.062   9.219  -0.511  1.00  0.00     0.049 A 
ATOM     57  H   UNL     1      12.891   7.470  -0.347  1.00  0.00     0.167 HD
ATOM     58  C   UNL     1      13.338   8.756  -2.837  1.00  0.00     0.074 A 
ATOM     59  C   UNL     1      13.269   9.067  -4.250  1.00  0.00     0.031 C 
ATOM     60  C   UNL     1      13.979   9.520  -1.918  1.00  0.00     0.037 A 
BRANCH  47  61
ATOM     61  C   UNL     1      13.522   7.423   3.876  1.00  0.00     0.057 A 
ATOM     62  C   UNL     1      14.390   6.574   4.574  1.00  0.00     0.134 A 
ATOM     63  C   UNL     1      12.992   8.517   4.573  1.00  0.00     0.134 A 
ATOM     64  F   UNL     1      14.926   5.503   3.969  1.00  0.00    -0.206 F 
ATOM     65  C   UNL     1      14.702   6.790   5.918  1.00  0.00     0.040 A 
ATOM     66  C   UNL     1      13.318   8.759   5.909  1.00  0.00     0.040 A 
ATOM     67  F   UNL     1      12.160   9.375   3.965  1.00  0.00    -0.206 F 
ATOM     68  C   UNL     1      14.171   7.891   6.587  1.00  0.00     0.006 A 
ENDBRANCH  47  61
BRANCH  48  69
ATOM     69  C   UNL     1      10.949   5.834  -5.642  1.00  0.00     0.057 A 
ATOM     70  C   UNL     1      11.887   5.532  -6.636  1.00  0.00     0.134 A 
ATOM     71  C   UNL     1       9.609   5.942  -6.032  1.00  0.00     0.134 A 
ATOM     72  F   UNL     1      13.189   5.434  -6.327  1.00  0.00    -0.206 F 
ATOM     73  C   UNL     1      11.511   5.364  -7.969  1.00  0.00     0.040 A 
ATOM     74  C   UNL     1       9.215   5.749  -7.357  1.00  0.00     0.040 A 
ATOM     75  F   UNL     1       8.660   6.222  -5.127  1.00  0.00    -0.206 F 
ATOM     76  C   UNL     1      10.170   5.467  -8.332  1.00  0.00     0.006 A 
ENDBRANCH  48  69
BRANCH  60  77
ATOM     77  C   UNL     1      14.668  10.756  -2.417  1.00  0.00     0.057 A 
ATOM     78  C   UNL     1      13.948  11.878  -2.848  1.00  0.00     0.134 A 
ATOM     79  C   UNL     1      16.066  10.837  -2.438  1.00  0.00     0.134 A 
ATOM     80  F   UNL     1      12.607  11.860  -2.867  1.00  0.00    -0.206 F 
ATOM     81  C   UNL     1      14.595  13.028  -3.304  1.00  0.00     0.040 A 
ATOM     82  C   UNL     1      16.724  11.992  -2.864  1.00  0.00     0.040 A 
ATOM     83  F   UNL     1      16.815   9.801  -2.032  1.00  0.00    -0.206 F 
ATOM     84  C   UNL     1      15.988  13.089  -3.305  1.00  0.00     0.006 A 
ENDBRANCH  60  77
ENDBRANCH  34  35
ENDBRANCH  26  29
ENDBRANCH  24  25
ENDBRANCH   1  24
TORSDOF 12
