REMARK SMILES Cc1nc(=O)[nH]c(C)c1CC(=O)Nc1sccc1C(=O)NCCCNC(=O)c1ccc(-c2c3nc(c(-c4c(F)cccc4F)c4ccc([nH]4)c(-c4c(F)cccc4F)c4nc(c(-c5c(F)cccc5F)c5ccc2[nH]5)C=C4)C=C3)cc1
REMARK SMILES IDX 22 1 21 2 19 3 20 4 18 6 14 7 15 8 16 9 17 10 13 11 11 12
REMARK SMILES IDX 12 13 10 15 9 16 1 17 2 18 3 19 4 20 7 21 5 22 6 23 8 24
REMARK SMILES IDX 23 26 24 27 25 28 26 29 27 31 28 32 29 33 81 34 30 35 80 36
REMARK SMILES IDX 31 37 32 38 33 39 74 40 34 41 79 42 73 43 75 44 35 45 78 46
REMARK SMILES IDX 72 47 71 48 36 50 62 51 45 52 61 53 46 54 49 55 60 56 76 57
REMARK SMILES IDX 47 58 48 59 59 61 77 62 50 63 37 64 38 65 43 66 39 67 40 68
REMARK SMILES IDX 42 69 44 70 41 71 63 72 64 73 69 74 65 75 66 76 68 77 70 78
REMARK SMILES IDX 67 79 51 80 52 81 57 82 53 83 54 84 56 85 58 86 55 87
REMARK H PARENT 21 5 13 14 6 25 25 30 75 49 49 60
REMARK Flexibility Score: inf
ROOT
ATOM      1  C   UNL     1      -2.761  -0.669   2.690  1.00  0.00     0.118 C 
ENDROOT
BRANCH   1   2
ATOM      2  N   UNL     1      -1.617   0.148   2.380  1.00  0.00    -0.352 N 
ATOM      3  C   UNL     1      -0.288  -0.179   2.316  1.00  0.00     0.254 C 
ATOM      4  O   UNL     1       0.485   0.760   2.122  1.00  0.00    -0.269 OA
ATOM      5  H   UNL     1      -1.822   1.091   2.183  1.00  0.00     0.163 HD
BRANCH   3   6
ATOM      6  C   UNL     1       0.224  -1.531   2.573  1.00  0.00     0.074 A 
ATOM      7  C   UNL     1      -0.341  -2.789   2.431  1.00  0.00     0.108 A 
ATOM      8  S   UNL     1       0.538  -4.000   3.270  1.00  0.00    -0.126 S 
ATOM      9  C   UNL     1       1.868  -2.967   3.499  1.00  0.00     0.068 A 
ATOM     10  C   UNL     1       1.571  -1.687   3.098  1.00  0.00     0.028 A 
BRANCH   7  11
ATOM     11  N   UNL     1      -1.476  -3.343   1.895  1.00  0.00    -0.317 N 
ATOM     12  C   UNL     1      -2.146  -3.107   0.737  1.00  0.00     0.229 C 
ATOM     13  O   UNL     1      -3.351  -3.397   0.724  1.00  0.00    -0.274 OA
ATOM     14  H   UNL     1      -1.881  -4.043   2.456  1.00  0.00     0.170 HD
BRANCH  12  15
ATOM     15  C   UNL     1      -1.464  -2.740  -0.580  1.00  0.00     0.139 C 
BRANCH  15  16
ATOM     16  C   UNL     1      -0.651  -1.494  -0.688  1.00  0.00     0.002 A 
ATOM     17  C   UNL     1       1.548  -2.896  -0.489  1.00  0.00     0.067 C 
ATOM     18  C   UNL     1       0.850  -1.558  -0.644  1.00  0.00     0.049 A 
ATOM     19  N   UNL     1       1.638  -0.542  -0.780  1.00  0.00    -0.198 NA
ATOM     20  C   UNL     1       1.099   0.697  -0.974  1.00  0.00     0.345 A 
ATOM     21  C   UNL     1      -1.132  -0.269  -0.981  1.00  0.00     0.022 A 
ATOM     22  O   UNL     1       1.775   1.715  -1.093  1.00  0.00    -0.246 OA
ATOM     23  N   UNL     1      -0.262   0.783  -1.095  1.00  0.00    -0.310 N 
ATOM     24  C   UNL     1      -2.574   0.094  -1.207  1.00  0.00     0.065 C 
ATOM     25  H   UNL     1      -0.646   1.672  -1.276  1.00  0.00     0.171 HD
ENDBRANCH  15  16
ENDBRANCH  12  15
ENDBRANCH   7  11
ENDBRANCH   3   6
ENDBRANCH   1   2
BRANCH   1  26
ATOM     26  C   UNL     1      -3.981   0.102   3.154  1.00  0.00     0.042 C 
BRANCH  26  27
ATOM     27  C   UNL     1      -4.711   0.838   2.038  1.00  0.00     0.118 C 
BRANCH  27  28
ATOM     28  N   UNL     1      -5.294  -0.021   1.009  1.00  0.00    -0.352 N 
ATOM     29  C   UNL     1      -6.489   0.119   0.338  1.00  0.00     0.251 C 
ATOM     30  H   UNL     1      -4.758  -0.809   0.760  1.00  0.00     0.163 HD
ATOM     31  O   UNL     1      -6.816  -0.674  -0.537  1.00  0.00    -0.269 OA
BRANCH  29  32
ATOM     32  C   UNL     1      -7.417   1.189   0.753  1.00  0.00     0.039 A 
ATOM     33  C   UNL     1      -8.714   0.830   1.123  1.00  0.00     0.014 A 
ATOM     34  C   UNL     1      -6.965   2.499   0.923  1.00  0.00     0.014 A 
ATOM     35  C   UNL     1      -9.519   1.759   1.779  1.00  0.00     0.010 A 
ATOM     36  C   UNL     1      -7.727   3.386   1.673  1.00  0.00     0.010 A 
ATOM     37  C   UNL     1      -9.005   3.021   2.124  1.00  0.00    -0.014 A 
BRANCH  37  38
ATOM     38  C   UNL     1      -9.783   3.943   2.990  1.00  0.00     0.031 A 
ATOM     39  C   UNL     1     -10.193   5.297   2.484  1.00  0.00     0.074 A 
ATOM     40  C   UNL     1     -10.074   3.576   4.254  1.00  0.00     0.049 A 
ATOM     41  N   UNL     1     -10.887   6.227   3.089  1.00  0.00    -0.248 NA
ATOM     42  C   UNL     1      -9.736   5.672   1.137  1.00  0.00     0.031 C 
ATOM     43  C   UNL     1      -9.657   2.324   4.893  1.00  0.00     0.029 A 
ATOM     44  N   UNL     1     -10.797   4.216   5.230  1.00  0.00    -0.354 N 
ATOM     45  C   UNL     1     -10.944   7.292   2.200  1.00  0.00     0.074 A 
ATOM     46  C   UNL     1     -10.151   6.925   1.048  1.00  0.00     0.031 C 
ATOM     47  C   UNL     1     -10.173   2.267   6.131  1.00  0.00     0.029 A 
ATOM     48  C   UNL     1     -10.930   3.487   6.388  1.00  0.00     0.049 A 
ATOM     49  H   UNL     1     -11.184   5.114   5.112  1.00  0.00     0.167 HD
ATOM     50  C   UNL     1     -11.624   8.457   2.316  1.00  0.00     0.037 A 
ATOM     51  C   UNL     1     -11.599   3.765   7.522  1.00  0.00     0.037 A 
ATOM     52  C   UNL     1     -12.430   8.808   3.454  1.00  0.00     0.049 A 
ATOM     53  C   UNL     1     -12.364   5.056   7.618  1.00  0.00     0.074 A 
ATOM     54  C   UNL     1     -13.212   9.934   3.643  1.00  0.00     0.029 A 
ATOM     55  N   UNL     1     -12.555   8.037   4.600  1.00  0.00    -0.354 N 
ATOM     56  N   UNL     1     -12.487   6.013   6.730  1.00  0.00    -0.248 NA
ATOM     57  C   UNL     1     -13.094   5.300   8.870  1.00  0.00     0.031 C 
ATOM     58  C   UNL     1     -13.775   9.865   4.922  1.00  0.00     0.029 A 
ATOM     59  C   UNL     1     -13.383   8.672   5.510  1.00  0.00     0.049 A 
ATOM     60  H   UNL     1     -12.119   7.166   4.745  1.00  0.00     0.167 HD
ATOM     61  C   UNL     1     -13.323   6.960   7.305  1.00  0.00     0.074 A 
ATOM     62  C   UNL     1     -13.698   6.449   8.607  1.00  0.00     0.031 C 
ATOM     63  C   UNL     1     -13.741   8.149   6.804  1.00  0.00     0.037 A 
BRANCH  50  64
ATOM     64  C   UNL     1     -11.531   9.424   1.171  1.00  0.00     0.057 A 
ATOM     65  C   UNL     1     -12.117   9.152  -0.074  1.00  0.00     0.134 A 
ATOM     66  C   UNL     1     -10.864  10.646   1.316  1.00  0.00     0.134 A 
ATOM     67  F   UNL     1     -12.758   7.992  -0.285  1.00  0.00    -0.206 F 
ATOM     68  C   UNL     1     -12.015  10.046  -1.141  1.00  0.00     0.040 A 
ATOM     69  C   UNL     1     -10.781  11.561   0.265  1.00  0.00     0.040 A 
ATOM     70  F   UNL     1     -10.283  10.972   2.480  1.00  0.00    -0.206 F 
ATOM     71  C   UNL     1     -11.351  11.258  -0.971  1.00  0.00     0.006 A 
ENDBRANCH  50  64
BRANCH  51  72
ATOM     72  C   UNL     1     -11.615   2.788   8.642  1.00  0.00     0.057 A 
ATOM     73  C   UNL     1     -12.786   2.099   8.982  1.00  0.00     0.134 A 
ATOM     74  C   UNL     1     -10.472   2.530   9.408  1.00  0.00     0.134 A 
ATOM     75  F   UNL     1     -13.919   2.315   8.298  1.00  0.00    -0.206 F 
ATOM     76  C   UNL     1     -12.826   1.208  10.056  1.00  0.00     0.040 A 
ATOM     77  C   UNL     1     -10.491   1.621  10.468  1.00  0.00     0.040 A 
ATOM     78  F   UNL     1      -9.316   3.150   9.129  1.00  0.00    -0.206 F 
ATOM     79  C   UNL     1     -11.674   0.964  10.800  1.00  0.00     0.006 A 
ENDBRANCH  51  72
BRANCH  63  80
ATOM     80  C   UNL     1     -14.663   8.963   7.664  1.00  0.00     0.057 A 
ATOM     81  C   UNL     1     -14.219   9.595   8.832  1.00  0.00     0.134 A 
ATOM     82  C   UNL     1     -16.008   9.129   7.310  1.00  0.00     0.134 A 
ATOM     83  F   UNL     1     -12.945   9.465   9.234  1.00  0.00    -0.206 F 
ATOM     84  C   UNL     1     -15.087  10.335   9.636  1.00  0.00     0.040 A 
ATOM     85  C   UNL     1     -16.879   9.892   8.089  1.00  0.00     0.040 A 
ATOM     86  F   UNL     1     -16.496   8.559   6.198  1.00  0.00    -0.206 F 
ATOM     87  C   UNL     1     -16.421  10.489   9.262  1.00  0.00     0.006 A 
ENDBRANCH  63  80
ENDBRANCH  37  38
ENDBRANCH  29  32
ENDBRANCH  27  28
ENDBRANCH  26  27
ENDBRANCH   1  26
TORSDOF 13
