REMARK SMILES CC1=C(CC(=O)NCCCNC(=O)c2ccc(-c3c4nc(c(-c5c(F)cccc5F)c5ccc([nH]5)c(-c5c(F)cccc5F)c5nc(c(-c6c(F)cccc6F)c6ccc3[nH]6)C=C5)C=C4)cc2)c2cc(F)ccc2/C1=C\c1cccc(OCc2ccccc2)c1
REMARK SMILES IDX 5 1 6 2 7 3 4 5 3 6 1 7 2 8 75 9 68 10 74 11 76 12 69 13
REMARK SMILES IDX 73 14 70 15 72 16 71 17 77 18 78 19 90 20 79 21 81 22 80 23
REMARK SMILES IDX 82 24 83 25 84 26 85 27 89 28 86 29 88 30 87 31 8 32 9 33
REMARK SMILES IDX 10 34 11 35 12 36 13 38 14 39 15 40 67 41 16 42 66 43 17 44
REMARK SMILES IDX 18 45 19 46 60 47 20 48 65 49 59 50 61 51 21 52 64 53 58 54
REMARK SMILES IDX 57 55 22 57 48 58 31 59 47 60 32 61 35 62 46 63 62 64 33 65
REMARK SMILES IDX 34 66 45 68 63 69 36 70 23 71 24 72 29 73 25 74 26 75 28 76
REMARK SMILES IDX 30 77 27 78 49 79 50 80 55 81 51 82 52 83 54 84 56 85 53 86
REMARK SMILES IDX 37 87 38 88 43 89 39 90 40 91 42 92 44 93 41 94
REMARK H PARENT 7 4 11 37 61 56 35 67
REMARK Flexibility Score: inf
ROOT
ATOM      1  C   UNL     1       1.265  -3.824   1.916  1.00  0.00     0.224 C 
ATOM      2  O   UNL     1       1.634  -4.985   2.105  1.00  0.00    -0.275 OA
ATOM      3  N   UNL     1       0.234  -3.349   2.673  1.00  0.00    -0.356 N 
ATOM      4  H   UNL     1      -0.132  -3.982   3.332  1.00  0.00     0.163 HD
ENDROOT
BRANCH   1   5
ATOM      5  C   UNL     1       1.955  -2.929   0.890  1.00  0.00     0.136 C 
BRANCH   5   6
ATOM      6  C   UNL     1       1.112  -2.656  -0.313  1.00  0.00    -0.027 C 
ATOM      7  C   UNL     1       1.073  -0.104  -0.315  1.00  0.00     0.045 C 
ATOM      8  C   UNL     1       0.701  -1.464  -0.807  1.00  0.00    -0.039 C 
ATOM      9  C   UNL     1      -0.168  -1.690  -1.972  1.00  0.00    -0.014 C 
ATOM     10  C   UNL     1       0.601  -3.713  -1.205  1.00  0.00    -0.011 A 
ATOM     11  C   UNL     1      -0.154  -3.138  -2.244  1.00  0.00    -0.010 A 
ATOM     12  C   UNL     1      -0.862  -0.726  -2.602  1.00  0.00     0.017 C 
ATOM     13  C   UNL     1       0.795  -5.087  -1.151  1.00  0.00     0.048 A 
ATOM     14  C   UNL     1      -0.692  -3.929  -3.252  1.00  0.00     0.012 A 
ATOM     15  C   UNL     1       0.224  -5.874  -2.148  1.00  0.00     0.123 A 
ATOM     16  C   UNL     1      -0.508  -5.311  -3.194  1.00  0.00     0.040 A 
ATOM     17  F   UNL     1       0.389  -7.203  -2.112  1.00  0.00    -0.207 F 
BRANCH  12  18
ATOM     18  C   UNL     1      -1.719  -0.921  -3.771  1.00  0.00    -0.021 A 
ATOM     19  C   UNL     1      -3.010  -1.448  -3.650  1.00  0.00     0.008 A 
ATOM     20  C   UNL     1      -1.207  -0.601  -5.034  1.00  0.00     0.054 A 
ATOM     21  C   UNL     1      -3.764  -1.702  -4.795  1.00  0.00     0.004 A 
ATOM     22  C   UNL     1      -1.978  -0.811  -6.175  1.00  0.00     0.120 A 
ATOM     23  C   UNL     1      -3.242  -1.395  -6.052  1.00  0.00     0.046 A 
BRANCH  22  24
ATOM     24  O   UNL     1      -1.643  -0.430  -7.446  1.00  0.00    -0.489 OA
BRANCH  24  25
ATOM     25  C   UNL     1      -0.545   0.473  -7.622  1.00  0.00     0.265 C 
BRANCH  25  26
ATOM     26  C   UNL     1      -0.774   1.909  -7.179  1.00  0.00    -0.011 A 
ATOM     27  C   UNL     1      -1.965   2.348  -6.580  1.00  0.00     0.007 A 
ATOM     28  C   UNL     1       0.259   2.843  -7.361  1.00  0.00     0.007 A 
ATOM     29  C   UNL     1      -2.103   3.663  -6.131  1.00  0.00     0.000 A 
ATOM     30  C   UNL     1       0.112   4.165  -6.933  1.00  0.00     0.000 A 
ATOM     31  C   UNL     1      -1.065   4.571  -6.308  1.00  0.00     0.000 A 
ENDBRANCH  25  26
ENDBRANCH  24  25
ENDBRANCH  22  24
ENDBRANCH  12  18
ENDBRANCH   5   6
ENDBRANCH   1   5
BRANCH   3  32
ATOM     32  C   UNL     1      -0.400  -2.045   2.646  1.00  0.00     0.117 C 
BRANCH  32  33
ATOM     33  C   UNL     1      -1.710  -2.051   1.866  1.00  0.00     0.042 C 
BRANCH  33  34
ATOM     34  C   UNL     1      -2.824  -2.860   2.522  1.00  0.00     0.118 C 
BRANCH  34  35
ATOM     35  N   UNL     1      -3.296  -2.275   3.772  1.00  0.00    -0.352 N 
ATOM     36  C   UNL     1      -4.562  -1.899   4.153  1.00  0.00     0.251 C 
ATOM     37  H   UNL     1      -2.597  -2.126   4.449  1.00  0.00     0.163 HD
ATOM     38  O   UNL     1      -4.723  -1.282   5.202  1.00  0.00    -0.269 OA
BRANCH  36  39
ATOM     39  C   UNL     1      -5.726  -2.200   3.291  1.00  0.00     0.039 A 
ATOM     40  C   UNL     1      -5.862  -3.443   2.671  1.00  0.00     0.014 A 
ATOM     41  C   UNL     1      -6.700  -1.215   3.098  1.00  0.00     0.014 A 
ATOM     42  C   UNL     1      -6.862  -3.636   1.723  1.00  0.00     0.010 A 
ATOM     43  C   UNL     1      -7.755  -1.442   2.208  1.00  0.00     0.010 A 
ATOM     44  C   UNL     1      -7.812  -2.634   1.469  1.00  0.00    -0.014 A 
BRANCH  44  45
ATOM     45  C   UNL     1      -8.832  -2.841   0.407  1.00  0.00     0.031 A 
ATOM     46  C   UNL     1      -8.840  -1.974  -0.825  1.00  0.00     0.074 A 
ATOM     47  C   UNL     1      -9.722  -3.845   0.528  1.00  0.00     0.049 A 
ATOM     48  N   UNL     1      -9.643  -2.015  -1.859  1.00  0.00    -0.248 NA
ATOM     49  C   UNL     1      -7.817  -0.918  -0.908  1.00  0.00     0.031 C 
ATOM     50  C   UNL     1      -9.818  -4.758   1.669  1.00  0.00     0.029 A 
ATOM     51  N   UNL     1     -10.706  -4.277  -0.326  1.00  0.00    -0.354 N 
ATOM     52  C   UNL     1      -9.243  -0.980  -2.696  1.00  0.00     0.074 A 
ATOM     53  C   UNL     1      -8.137  -0.313  -2.043  1.00  0.00     0.031 C 
ATOM     54  C   UNL     1     -10.778  -5.663   1.428  1.00  0.00     0.029 A 
ATOM     55  C   UNL     1     -11.403  -5.363   0.145  1.00  0.00     0.049 A 
ATOM     56  H   UNL     1     -10.894  -3.849  -1.192  1.00  0.00     0.167 HD
ATOM     57  C   UNL     1      -9.743  -0.624  -3.904  1.00  0.00     0.037 A 
ATOM     58  C   UNL     1     -12.442  -6.032  -0.389  1.00  0.00     0.037 A 
ATOM     59  C   UNL     1     -10.819  -1.309  -4.573  1.00  0.00     0.049 A 
ATOM     60  C   UNL     1     -12.991  -5.596  -1.718  1.00  0.00     0.074 A 
ATOM     61  C   UNL     1     -11.357  -1.055  -5.823  1.00  0.00     0.029 A 
ATOM     62  N   UNL     1     -11.521  -2.381  -4.046  1.00  0.00    -0.354 N 
ATOM     63  N   UNL     1     -12.575  -4.640  -2.512  1.00  0.00    -0.248 NA
ATOM     64  C   UNL     1     -14.161  -6.330  -2.221  1.00  0.00     0.031 C 
ATOM     65  C   UNL     1     -12.413  -1.947  -6.035  1.00  0.00     0.029 A 
ATOM     66  C   UNL     1     -12.505  -2.784  -4.935  1.00  0.00     0.049 A 
ATOM     67  H   UNL     1     -11.347  -2.796  -3.170  1.00  0.00     0.167 HD
ATOM     68  C   UNL     1     -13.420  -4.668  -3.613  1.00  0.00     0.074 A 
ATOM     69  C   UNL     1     -14.356  -5.752  -3.396  1.00  0.00     0.031 C 
ATOM     70  C   UNL     1     -13.427  -3.865  -4.704  1.00  0.00     0.037 A 
BRANCH  57  71
ATOM     71  C   UNL     1      -9.145   0.574  -4.582  1.00  0.00     0.057 A 
ATOM     72  C   UNL     1      -9.872   1.767  -4.683  1.00  0.00     0.134 A 
ATOM     73  C   UNL     1      -7.880   0.533  -5.181  1.00  0.00     0.134 A 
ATOM     74  F   UNL     1     -11.092   1.870  -4.136  1.00  0.00    -0.206 F 
ATOM     75  C   UNL     1      -9.365   2.875  -5.363  1.00  0.00     0.040 A 
ATOM     76  C   UNL     1      -7.352   1.643  -5.845  1.00  0.00     0.040 A 
ATOM     77  F   UNL     1      -7.129  -0.576  -5.109  1.00  0.00    -0.206 F 
ATOM     78  C   UNL     1      -8.100   2.816  -5.944  1.00  0.00     0.006 A 
ENDBRANCH  57  71
BRANCH  58  79
ATOM     79  C   UNL     1     -13.055  -7.170   0.341  1.00  0.00     0.057 A 
ATOM     80  C   UNL     1     -13.783  -6.968   1.520  1.00  0.00     0.134 A 
ATOM     81  C   UNL     1     -12.965  -8.478  -0.146  1.00  0.00     0.134 A 
ATOM     82  F   UNL     1     -13.904  -5.737   2.039  1.00  0.00    -0.206 F 
ATOM     83  C   UNL     1     -14.398  -8.026   2.189  1.00  0.00     0.040 A 
ATOM     84  C   UNL     1     -13.598  -9.542   0.498  1.00  0.00     0.040 A 
ATOM     85  F   UNL     1     -12.300  -8.731  -1.284  1.00  0.00    -0.206 F 
ATOM     86  C   UNL     1     -14.315  -9.317   1.671  1.00  0.00     0.006 A 
ENDBRANCH  58  79
BRANCH  70  87
ATOM     87  C   UNL     1     -14.463  -4.150  -5.750  1.00  0.00     0.057 A 
ATOM     88  C   UNL     1     -14.102  -4.723  -6.976  1.00  0.00     0.134 A 
ATOM     89  C   UNL     1     -15.815  -3.849  -5.548  1.00  0.00     0.134 A 
ATOM     90  F   UNL     1     -12.821  -5.029  -7.235  1.00  0.00    -0.206 F 
ATOM     91  C   UNL     1     -15.051  -4.990  -7.963  1.00  0.00     0.040 A 
ATOM     92  C   UNL     1     -16.778  -4.135  -6.518  1.00  0.00     0.040 A 
ATOM     93  F   UNL     1     -16.227  -3.315  -4.388  1.00  0.00    -0.206 F 
ATOM     94  C   UNL     1     -16.395  -4.702  -7.731  1.00  0.00     0.006 A 
ENDBRANCH  70  87
ENDBRANCH  44  45
ENDBRANCH  36  39
ENDBRANCH  34  35
ENDBRANCH  33  34
ENDBRANCH  32  33
ENDBRANCH   3  32
TORSDOF 15
