REMARK SMILES CC1(C)[C@@H](C(=O)NCCCNC(=O)c2ccc(-c3c4nc(c(-c5c(F)cccc5F)c5ccc([nH]5)c(-c5c(F)cccc5F)c5nc(c(-c6c(F)cccc6F)c6ccc3[nH]6)C=C5)C=C4)cc2)CC[C@@]1(C)C(N)=O
REMARK SMILES IDX 9 1 8 2 7 3 5 4 6 5 4 7 1 8 2 9 3 10 70 11 68 12 69 13 71 14
REMARK SMILES IDX 72 15 73 16 74 17 10 20 11 21 12 22 13 24 14 25 15 26 67 27
REMARK SMILES IDX 16 28 66 29 17 30 18 31 19 32 60 33 20 34 65 35 59 36 61 37
REMARK SMILES IDX 21 38 64 39 58 40 57 41 22 43 48 44 31 45 47 46 32 47 35 48
REMARK SMILES IDX 46 49 62 50 33 51 34 52 45 54 63 55 36 56 23 57 24 58 29 59
REMARK SMILES IDX 25 60 26 61 28 62 30 63 27 64 49 65 50 66 55 67 51 68 52 69
REMARK SMILES IDX 54 70 56 71 53 72 37 73 38 74 43 75 39 76 40 77 42 78 44 79
REMARK SMILES IDX 41 80
REMARK H PARENT 7 6 73 18 73 19 11 23 61 42 35 53
REMARK Flexibility Score: inf
ROOT
ATOM      1  C   UNL     1       2.463  -4.590   1.999  1.00  0.00     0.042 C 
ENDROOT
BRANCH   1   2
ATOM      2  C   UNL     1       2.551  -3.505   3.067  1.00  0.00     0.117 C 
BRANCH   2   3
ATOM      3  N   UNL     1       3.206  -2.309   2.572  1.00  0.00    -0.356 N 
ATOM      4  C   UNL     1       2.681  -1.106   2.203  1.00  0.00     0.223 C 
ATOM      5  O   UNL     1       3.473  -0.233   1.852  1.00  0.00    -0.275 OA
ATOM      6  H   UNL     1       4.184  -2.377   2.488  1.00  0.00     0.163 HD
BRANCH   4   7
ATOM      7  C   UNL     1       1.182  -0.861   2.365  1.00  0.00     0.085 C 
ATOM      8  C   UNL     1       0.941  -0.029  -0.051  1.00  0.00     0.013 C 
ATOM      9  C   UNL     1       0.496   0.159   1.410  1.00  0.00    -0.010 C 
ATOM     10  C   UNL     1      -1.032  -0.161   1.417  1.00  0.00     0.013 C 
ATOM     11  C   UNL     1       0.798   1.575   2.048  1.00  0.00     0.052 C 
ATOM     12  C   UNL     1       0.960  -0.249   3.746  1.00  0.00     0.015 C 
ATOM     13  C   UNL     1       1.083   1.266   3.549  1.00  0.00     0.018 C 
ATOM     14  C   UNL     1      -0.399   2.558   1.988  1.00  0.00     0.022 C 
BRANCH  11  15
ATOM     15  C   UNL     1       1.913   2.359   1.300  1.00  0.00     0.223 C 
ATOM     16  N   UNL     1       3.148   2.457   1.848  1.00  0.00    -0.369 N 
ATOM     17  O   UNL     1       1.713   2.913   0.218  1.00  0.00    -0.275 OA
ATOM     18  H   UNL     1       3.340   2.026   2.712  1.00  0.00     0.159 HD
ATOM     19  H   UNL     1       3.854   2.961   1.382  1.00  0.00     0.159 HD
ENDBRANCH  11  15
ENDBRANCH   4   7
ENDBRANCH   2   3
ENDBRANCH   1   2
BRANCH   1  20
ATOM     20  C   UNL     1       3.819  -5.075   1.485  1.00  0.00     0.118 C 
BRANCH  20  21
ATOM     21  N   UNL     1       4.654  -5.646   2.535  1.00  0.00    -0.352 N 
ATOM     22  C   UNL     1       5.231  -6.885   2.637  1.00  0.00     0.251 C 
ATOM     23  H   UNL     1       4.832  -5.044   3.293  1.00  0.00     0.163 HD
ATOM     24  O   UNL     1       5.764  -7.217   3.698  1.00  0.00    -0.269 OA
BRANCH  22  25
ATOM     25  C   UNL     1       5.203  -7.834   1.506  1.00  0.00     0.039 A 
ATOM     26  C   UNL     1       4.944  -9.183   1.766  1.00  0.00     0.014 A 
ATOM     27  C   UNL     1       5.459  -7.413   0.198  1.00  0.00     0.014 A 
ATOM     28  C   UNL     1       4.870 -10.095   0.711  1.00  0.00     0.010 A 
ATOM     29  C   UNL     1       5.314  -8.308  -0.860  1.00  0.00     0.010 A 
ATOM     30  C   UNL     1       5.015  -9.657  -0.616  1.00  0.00    -0.014 A 
BRANCH  30  31
ATOM     31  C   UNL     1       4.841 -10.590  -1.758  1.00  0.00     0.031 A 
ATOM     32  C   UNL     1       5.991 -10.889  -2.679  1.00  0.00     0.074 A 
ATOM     33  C   UNL     1       3.626 -11.118  -2.004  1.00  0.00     0.049 A 
ATOM     34  N   UNL     1       6.010 -11.613  -3.770  1.00  0.00    -0.248 NA
ATOM     35  C   UNL     1       7.285 -10.276  -2.343  1.00  0.00     0.031 C 
ATOM     36  C   UNL     1       2.421 -10.877  -1.209  1.00  0.00     0.029 A 
ATOM     37  N   UNL     1       3.202 -11.960  -3.002  1.00  0.00    -0.354 N 
ATOM     38  C   UNL     1       7.309 -11.533  -4.255  1.00  0.00     0.074 A 
ATOM     39  C   UNL     1       8.036 -10.649  -3.369  1.00  0.00     0.031 C 
ATOM     40  C   UNL     1       1.400 -11.572  -1.735  1.00  0.00     0.029 A 
ATOM     41  C   UNL     1       1.866 -12.273  -2.927  1.00  0.00     0.049 A 
ATOM     42  H   UNL     1       3.798 -12.307  -3.704  1.00  0.00     0.167 HD
ATOM     43  C   UNL     1       7.853 -12.157  -5.327  1.00  0.00     0.037 A 
ATOM     44  C   UNL     1       1.100 -13.032  -3.733  1.00  0.00     0.037 A 
ATOM     45  C   UNL     1       7.133 -13.049  -6.198  1.00  0.00     0.049 A 
ATOM     46  C   UNL     1       1.722 -13.694  -4.931  1.00  0.00     0.074 A 
ATOM     47  C   UNL     1       7.608 -13.765  -7.283  1.00  0.00     0.029 A 
ATOM     48  N   UNL     1       5.783 -13.345  -6.085  1.00  0.00    -0.354 N 
ATOM     49  N   UNL     1       2.965 -13.654  -5.345  1.00  0.00    -0.248 NA
ATOM     50  C   UNL     1       0.835 -14.511  -5.771  1.00  0.00     0.031 C 
ATOM     51  C   UNL     1       6.537 -14.460  -7.853  1.00  0.00     0.029 A 
ATOM     52  C   UNL     1       5.404 -14.217  -7.093  1.00  0.00     0.049 A 
ATOM     53  H   UNL     1       5.182 -12.989  -5.391  1.00  0.00     0.167 HD
ATOM     54  C   UNL     1       3.016 -14.460  -6.475  1.00  0.00     0.074 A 
ATOM     55  C   UNL     1       1.681 -14.987  -6.673  1.00  0.00     0.031 C 
ATOM     56  C   UNL     1       4.074 -14.740  -7.275  1.00  0.00     0.037 A 
BRANCH  43  57
ATOM     57  C   UNL     1       9.304 -11.898  -5.615  1.00  0.00     0.057 A 
ATOM     58  C   UNL     1      10.320 -12.394  -4.787  1.00  0.00     0.134 A 
ATOM     59  C   UNL     1       9.692 -11.176  -6.750  1.00  0.00     0.134 A 
ATOM     60  F   UNL     1      10.017 -13.085  -3.677  1.00  0.00    -0.206 F 
ATOM     61  C   UNL     1      11.668 -12.158  -5.063  1.00  0.00     0.040 A 
ATOM     62  C   UNL     1      11.037 -10.957  -7.052  1.00  0.00     0.040 A 
ATOM     63  F   UNL     1       8.771 -10.679  -7.590  1.00  0.00    -0.206 F 
ATOM     64  C   UNL     1      12.030 -11.443  -6.203  1.00  0.00     0.006 A 
ENDBRANCH  43  57
BRANCH  44  65
ATOM     65  C   UNL     1      -0.339 -13.225  -3.424  1.00  0.00     0.057 A 
ATOM     66  C   UNL     1      -0.822 -14.465  -2.990  1.00  0.00     0.134 A 
ATOM     67  C   UNL     1      -1.265 -12.183  -3.558  1.00  0.00     0.134 A 
ATOM     68  F   UNL     1       0.014 -15.506  -2.861  1.00  0.00    -0.206 F 
ATOM     69  C   UNL     1      -2.175 -14.669  -2.719  1.00  0.00     0.040 A 
ATOM     70  C   UNL     1      -2.617 -12.366  -3.265  1.00  0.00     0.040 A 
ATOM     71  F   UNL     1      -0.864 -10.969  -3.961  1.00  0.00    -0.206 F 
ATOM     72  C   UNL     1      -3.077 -13.614  -2.851  1.00  0.00     0.006 A 
ENDBRANCH  44  65
BRANCH  56  73
ATOM     73  C   UNL     1       3.841 -15.687  -8.416  1.00  0.00     0.057 A 
ATOM     74  C   UNL     1       3.110 -15.314  -9.551  1.00  0.00     0.134 A 
ATOM     75  C   UNL     1       4.390 -16.975  -8.394  1.00  0.00     0.134 A 
ATOM     76  F   UNL     1       2.547 -14.099  -9.628  1.00  0.00    -0.206 F 
ATOM     77  C   UNL     1       2.915 -16.197 -10.614  1.00  0.00     0.040 A 
ATOM     78  C   UNL     1       4.225 -17.857  -9.463  1.00  0.00     0.040 A 
ATOM     79  F   UNL     1       5.108 -17.393  -7.340  1.00  0.00    -0.206 F 
ATOM     80  C   UNL     1       3.481 -17.471 -10.575  1.00  0.00     0.006 A 
ENDBRANCH  56  73
ENDBRANCH  30  31
ENDBRANCH  22  25
ENDBRANCH  20  21
ENDBRANCH   1  20
TORSDOF 11
