REMARK SMILES N#Cc1ccccc1C[C@@H](NC(=O)OCC1c2ccccc2-c2ccccc21)C(=O)NCCCNC(=O)c1ccc(-c2c3nc(c(-c4c(F)cccc4F)c4ccc([nH]4)c(-c4c(F)cccc4F)c4nc(c(-c5c(F)cccc5F)c5ccc2[nH]5)C=C4)C=C3)cc1
REMARK SMILES IDX 32 1 31 2 29 3 30 4 10 6 9 7 8 8 3 9 4 10 5 11 7 12 6 13
REMARK SMILES IDX 2 14 1 15 11 16 12 17 13 19 14 20 15 21 16 22 17 23 28 24
REMARK SMILES IDX 18 25 22 26 23 27 27 28 19 29 21 30 24 31 26 32 20 33 25 34
REMARK SMILES IDX 33 35 34 36 35 37 36 38 37 40 38 41 39 42 91 43 40 44 90 45
REMARK SMILES IDX 41 46 42 47 43 48 84 49 44 50 89 51 83 52 85 53 45 54 88 55
REMARK SMILES IDX 82 56 81 57 46 59 72 60 55 61 71 62 56 63 59 64 70 65 86 66
REMARK SMILES IDX 57 67 58 68 69 70 87 71 60 72 47 73 48 74 53 75 49 76 50 77
REMARK SMILES IDX 52 78 54 79 51 80 73 81 74 82 79 83 75 84 76 85 78 86 80 87
REMARK SMILES IDX 77 88 61 89 62 90 67 91 63 92 64 93 66 94 68 95 65 96
REMARK H PARENT 31 5 11 18 35 39 85 58 59 69
REMARK Flexibility Score: inf
ROOT
ATOM      1  C   UNL     1      -0.146  -5.343   0.914  1.00  0.00     0.117 C 
ENDROOT
BRANCH   1   2
ATOM      2  N   UNL     1      -1.089  -5.300  -0.197  1.00  0.00    -0.354 N 
ATOM      3  C   UNL     1      -1.121  -4.462  -1.280  1.00  0.00     0.243 C 
ATOM      4  O   UNL     1      -1.960  -4.672  -2.158  1.00  0.00    -0.273 OA
ATOM      5  H   UNL     1      -1.808  -5.972  -0.164  1.00  0.00     0.163 HD
BRANCH   3   6
ATOM      6  C   UNL     1      -0.167  -3.252  -1.345  1.00  0.00     0.179 C 
BRANCH   6   7
ATOM      7  C   UNL     1      -0.540  -2.295  -0.172  1.00  0.00     0.072 C 
BRANCH   7   8
ATOM      8  C   UNL     1       0.192  -0.968  -0.092  1.00  0.00    -0.028 A 
ATOM      9  C   UNL     1      -0.480   0.268  -0.177  1.00  0.00     0.055 A 
ATOM     10  C   UNL     1       0.245   1.466  -0.111  1.00  0.00     0.020 A 
ATOM     11  C   UNL     1       1.629   1.452   0.058  1.00  0.00     0.001 A 
ATOM     12  C   UNL     1       1.575  -0.954   0.174  1.00  0.00     0.005 A 
ATOM     13  C   UNL     1       2.291   0.241   0.216  1.00  0.00     0.000 A 
BRANCH   9  14
ATOM     14  C   UNL     1      -1.914   0.351  -0.259  1.00  0.00     0.099 C 
ATOM     15  N   UNL     1      -3.070   0.404  -0.292  1.00  0.00    -0.192 NA
ENDBRANCH   9  14
ENDBRANCH   7   8
ENDBRANCH   6   7
BRANCH   6  16
ATOM     16  N   UNL     1       1.258  -3.594  -1.427  1.00  0.00    -0.309 N 
ATOM     17  C   UNL     1       1.838  -4.806  -1.214  1.00  0.00     0.407 C 
ATOM     18  H   UNL     1       1.867  -2.858  -1.664  1.00  0.00     0.167 HD
ATOM     19  O   UNL     1       2.873  -4.898  -0.571  1.00  0.00    -0.225 OA
BRANCH  17  20
ATOM     20  O   UNL     1       1.168  -5.825  -1.806  1.00  0.00    -0.449 OA
BRANCH  20  21
ATOM     21  C   UNL     1       1.733  -7.144  -1.666  1.00  0.00     0.248 C 
BRANCH  21  22
ATOM     22  C   UNL     1       2.533  -7.550  -2.915  1.00  0.00     0.088 C 
ATOM     23  C   UNL     1       3.790  -6.700  -3.068  1.00  0.00    -0.029 A 
ATOM     24  C   UNL     1       3.132  -8.941  -2.727  1.00  0.00    -0.029 A 
ATOM     25  C   UNL     1       3.882  -5.350  -3.374  1.00  0.00     0.005 A 
ATOM     26  C   UNL     1       4.932  -7.463  -2.759  1.00  0.00    -0.014 A 
ATOM     27  C   UNL     1       4.539  -8.849  -2.623  1.00  0.00    -0.014 A 
ATOM     28  C   UNL     1       2.481 -10.163  -2.658  1.00  0.00     0.005 A 
ATOM     29  C   UNL     1       5.112  -4.721  -3.201  1.00  0.00     0.000 A 
ATOM     30  C   UNL     1       6.161  -6.843  -2.614  1.00  0.00     0.009 A 
ATOM     31  C   UNL     1       5.308  -9.991  -2.473  1.00  0.00     0.009 A 
ATOM     32  C   UNL     1       3.258 -11.313  -2.503  1.00  0.00     0.000 A 
ATOM     33  C   UNL     1       6.238  -5.458  -2.803  1.00  0.00     0.001 A 
ATOM     34  C   UNL     1       4.659 -11.228  -2.418  1.00  0.00     0.001 A 
ENDBRANCH  21  22
ENDBRANCH  20  21
ENDBRANCH  17  20
ENDBRANCH   6  16
ENDBRANCH   3   6
ENDBRANCH   1   2
BRANCH   1  35
ATOM     35  C   UNL     1      -0.847  -5.368   2.250  1.00  0.00     0.042 C 
BRANCH  35  36
ATOM     36  C   UNL     1      -1.541  -6.694   2.479  1.00  0.00     0.118 C 
BRANCH  36  37
ATOM     37  N   UNL     1      -0.599  -7.807   2.567  1.00  0.00    -0.352 N 
ATOM     38  C   UNL     1      -0.382  -8.680   3.602  1.00  0.00     0.251 C 
ATOM     39  H   UNL     1      -0.041  -7.951   1.769  1.00  0.00     0.163 HD
ATOM     40  O   UNL     1       0.584  -9.434   3.591  1.00  0.00    -0.269 OA
BRANCH  38  41
ATOM     41  C   UNL     1      -1.316  -8.675   4.740  1.00  0.00     0.039 A 
ATOM     42  C   UNL     1      -0.808  -8.706   6.038  1.00  0.00     0.014 A 
ATOM     43  C   UNL     1      -2.691  -8.573   4.514  1.00  0.00     0.014 A 
ATOM     44  C   UNL     1      -1.683  -8.563   7.112  1.00  0.00     0.010 A 
ATOM     45  C   UNL     1      -3.538  -8.298   5.574  1.00  0.00     0.010 A 
ATOM     46  C   UNL     1      -3.047  -8.310   6.886  1.00  0.00    -0.014 A 
BRANCH  46  47
ATOM     47  C   UNL     1      -3.982  -8.075   8.010  1.00  0.00     0.031 A 
ATOM     48  C   UNL     1      -5.157  -8.993   8.207  1.00  0.00     0.074 A 
ATOM     49  C   UNL     1      -3.805  -7.007   8.811  1.00  0.00     0.049 A 
ATOM     50  N   UNL     1      -6.113  -8.928   9.098  1.00  0.00    -0.248 NA
ATOM     51  C   UNL     1      -5.298 -10.113   7.261  1.00  0.00     0.031 C 
ATOM     52  C   UNL     1      -2.736  -6.014   8.679  1.00  0.00     0.029 A 
ATOM     53  N   UNL     1      -4.527  -6.574   9.894  1.00  0.00    -0.354 N 
ATOM     54  C   UNL     1      -6.969  -9.983   8.809  1.00  0.00     0.074 A 
ATOM     55  C   UNL     1      -6.460 -10.632   7.623  1.00  0.00     0.031 C 
ATOM     56  C   UNL     1      -2.852  -5.109   9.663  1.00  0.00     0.029 A 
ATOM     57  C   UNL     1      -4.030  -5.426  10.462  1.00  0.00     0.049 A 
ATOM     58  H   UNL     1      -5.324  -7.041  10.232  1.00  0.00     0.167 HD
ATOM     59  C   UNL     1      -8.066 -10.389   9.488  1.00  0.00     0.037 A 
ATOM     60  C   UNL     1      -4.484  -4.702  11.503  1.00  0.00     0.037 A 
ATOM     61  C   UNL     1      -8.553  -9.749  10.680  1.00  0.00     0.049 A 
ATOM     62  C   UNL     1      -5.715  -5.170  12.232  1.00  0.00     0.074 A 
ATOM     63  C   UNL     1      -9.615 -10.123  11.483  1.00  0.00     0.029 A 
ATOM     64  N   UNL     1      -8.018  -8.595  11.232  1.00  0.00    -0.354 N 
ATOM     65  N   UNL     1      -6.465  -6.221  12.001  1.00  0.00    -0.248 NA
ATOM     66  C   UNL     1      -6.158  -4.356  13.371  1.00  0.00     0.031 C 
ATOM     67  C   UNL     1      -9.768  -9.155  12.479  1.00  0.00     0.029 A 
ATOM     68  C   UNL     1      -8.752  -8.222  12.345  1.00  0.00     0.049 A 
ATOM     69  H   UNL     1      -7.232  -8.113  10.885  1.00  0.00     0.167 HD
ATOM     70  C   UNL     1      -7.447  -6.211  12.982  1.00  0.00     0.074 A 
ATOM     71  C   UNL     1      -7.185  -5.061  13.822  1.00  0.00     0.031 C 
ATOM     72  C   UNL     1      -8.474  -7.076  13.173  1.00  0.00     0.037 A 
BRANCH  59  73
ATOM     73  C   UNL     1      -8.818 -11.575   8.955  1.00  0.00     0.057 A 
ATOM     74  C   UNL     1      -8.278 -12.869   8.968  1.00  0.00     0.134 A 
ATOM     75  C   UNL     1     -10.120 -11.426   8.460  1.00  0.00     0.134 A 
ATOM     76  F   UNL     1      -7.031 -13.082   9.415  1.00  0.00    -0.206 F 
ATOM     77  C   UNL     1      -8.996 -13.965   8.487  1.00  0.00     0.040 A 
ATOM     78  C   UNL     1     -10.860 -12.520   8.008  1.00  0.00     0.040 A 
ATOM     79  F   UNL     1     -10.700 -10.217   8.419  1.00  0.00    -0.206 F 
ATOM     80  C   UNL     1     -10.295 -13.793   8.015  1.00  0.00     0.006 A 
ENDBRANCH  59  73
BRANCH  60  81
ATOM     81  C   UNL     1      -3.776  -3.465  11.921  1.00  0.00     0.057 A 
ATOM     82  C   UNL     1      -3.126  -3.379  13.158  1.00  0.00     0.134 A 
ATOM     83  C   UNL     1      -3.750  -2.328  11.102  1.00  0.00     0.134 A 
ATOM     84  F   UNL     1      -3.126  -4.427  13.995  1.00  0.00    -0.206 F 
ATOM     85  C   UNL     1      -2.507  -2.201  13.580  1.00  0.00     0.040 A 
ATOM     86  C   UNL     1      -3.107  -1.155  11.497  1.00  0.00     0.040 A 
ATOM     87  F   UNL     1      -4.342  -2.346   9.899  1.00  0.00    -0.206 F 
ATOM     88  C   UNL     1      -2.494  -1.085  12.746  1.00  0.00     0.006 A 
ENDBRANCH  60  81
BRANCH  72  89
ATOM     89  C   UNL     1      -9.364  -6.838  14.360  1.00  0.00     0.057 A 
ATOM     90  C   UNL     1     -10.239  -5.747  14.430  1.00  0.00     0.134 A 
ATOM     91  C   UNL     1      -9.372  -7.742  15.432  1.00  0.00     0.134 A 
ATOM     92  F   UNL     1     -10.275  -4.838  13.443  1.00  0.00    -0.206 F 
ATOM     93  C   UNL     1     -11.065  -5.544  15.537  1.00  0.00     0.040 A 
ATOM     94  C   UNL     1     -10.219  -7.570  16.526  1.00  0.00     0.040 A 
ATOM     95  F   UNL     1      -8.569  -8.816  15.424  1.00  0.00    -0.206 F 
ATOM     96  C   UNL     1     -11.062  -6.463  16.586  1.00  0.00     0.006 A 
ENDBRANCH  72  89
ENDBRANCH  46  47
ENDBRANCH  38  41
ENDBRANCH  36  37
ENDBRANCH  35  36
ENDBRANCH   1  35
TORSDOF 17
