REMARK SMILES Cc1c[nH]c(C[N@@H+](C)[C@@H](C(=O)NCCCNC(=O)c2ccc(-c3c4nc(c(-c5c(F)cccc5F)c5ccc([nH]5)c(-c5c(F)cccc5F)c5nc(c(-c6c(F)cccc6F)c6ccc3[nH]6)C=C5)C=C4)cc2)c2ccc(NC(=O)N3CCCC3)cc2)n1
REMARK SMILES IDX 13 1 12 2 10 3 11 4 9 6 7 7 8 8 6 10 5 11 1 12 2 13 3 14
REMARK SMILES IDX 87 15 4 16 73 18 74 19 86 20 75 21 85 22 76 23 77 24 78 25
REMARK SMILES IDX 79 27 80 28 81 29 84 30 82 31 83 32 14 33 15 34 16 35 17 36
REMARK SMILES IDX 18 38 19 39 20 40 72 41 21 42 71 43 22 44 23 45 24 46 65 47
REMARK SMILES IDX 25 48 70 49 64 50 66 51 26 52 69 53 63 54 62 55 27 57 53 58
REMARK SMILES IDX 36 59 52 60 37 61 40 62 51 63 67 64 38 65 39 66 50 68 68 69
REMARK SMILES IDX 41 70 28 71 29 72 34 73 30 74 31 75 33 76 35 77 32 78 54 79
REMARK SMILES IDX 55 80 60 81 56 82 57 83 59 84 61 85 58 86 42 87 43 88 48 89
REMARK SMILES IDX 44 90 45 91 47 92 49 93 46 94
REMARK H PARENT 12 5 7 9 4 17 77 26 16 37 66 56 40 67
REMARK Flexibility Score: inf
ROOT
ATOM      1  C   UNL     1      -5.278   3.033   2.884  1.00  0.00     0.118 C 
ENDROOT
BRANCH   1   2
ATOM      2  N   UNL     1      -4.943   1.651   2.595  1.00  0.00    -0.351 N 
ATOM      3  C   UNL     1      -3.778   1.111   2.128  1.00  0.00     0.283 C 
ATOM      4  O   UNL     1      -3.870  -0.009   1.609  1.00  0.00    -0.268 OA
ATOM      5  H   UNL     1      -5.666   1.004   2.760  1.00  0.00     0.163 HD
BRANCH   3   6
ATOM      6  C   UNL     1      -2.416   1.865   2.288  1.00  0.00     0.305 C 
BRANCH   6   7
ATOM      7  N   UNL     1      -2.017   2.543   1.024  1.00  0.00    -0.317 N 
ATOM      8  C   UNL     1      -2.480   3.907   0.876  1.00  0.00     0.334 C 
ATOM      9  H   UNL     1      -1.011   2.593   1.184  1.00  0.00     0.349 HD
BRANCH   7  10
ATOM     10  C   UNL     1      -2.124   1.779  -0.229  1.00  0.00     0.339 C 
BRANCH  10  11
ATOM     11  C   UNL     1      -0.978   0.844  -0.461  1.00  0.00     0.161 A 
ATOM     12  C   UNL     1       2.451  -0.046  -0.732  1.00  0.00     0.068 C 
ATOM     13  C   UNL     1       0.974  -0.024  -0.723  1.00  0.00     0.056 A 
ATOM     14  C   UNL     1       0.084  -1.073  -0.784  1.00  0.00     0.107 A 
ATOM     15  N   UNL     1       0.296   1.164  -0.595  1.00  0.00    -0.233 NA
ATOM     16  N   UNL     1      -1.147  -0.513  -0.579  1.00  0.00    -0.344 N 
ATOM     17  H   UNL     1      -2.003  -0.998  -0.526  1.00  0.00     0.167 HD
ENDBRANCH  10  11
ENDBRANCH   7  10
ENDBRANCH   6   7
BRANCH   6  18
ATOM     18  C   UNL     1      -1.302   0.943   2.817  1.00  0.00     0.019 A 
ATOM     19  C   UNL     1      -1.578  -0.242   3.511  1.00  0.00     0.012 A 
ATOM     20  C   UNL     1       0.048   1.260   2.597  1.00  0.00     0.012 A 
ATOM     21  C   UNL     1      -0.574  -1.190   3.716  1.00  0.00     0.027 A 
ATOM     22  C   UNL     1       1.046   0.300   2.780  1.00  0.00     0.027 A 
ATOM     23  C   UNL     1       0.705  -0.979   3.208  1.00  0.00     0.042 A 
BRANCH  23  24
ATOM     24  N   UNL     1       1.661  -2.000   3.073  1.00  0.00    -0.308 N 
ATOM     25  C   UNL     1       1.532  -3.355   3.126  1.00  0.00     0.321 C 
ATOM     26  H   UNL     1       2.579  -1.682   2.913  1.00  0.00     0.171 HD
ATOM     27  O   UNL     1       2.522  -4.026   3.425  1.00  0.00    -0.248 OA
ATOM     28  N   UNL     1       0.334  -3.944   2.837  1.00  0.00    -0.325 N 
ATOM     29  C   UNL     1      -0.586  -3.602   1.768  1.00  0.00     0.121 C 
ATOM     30  C   UNL     1       0.011  -5.258   3.342  1.00  0.00     0.121 C 
ATOM     31  C   UNL     1      -1.894  -4.210   2.237  1.00  0.00     0.023 C 
ATOM     32  C   UNL     1      -1.465  -5.464   3.002  1.00  0.00     0.023 C 
ENDBRANCH  23  24
ENDBRANCH   6  18
ENDBRANCH   3   6
ENDBRANCH   1   2
BRANCH   1  33
ATOM     33  C   UNL     1      -6.043   3.652   1.716  1.00  0.00     0.042 C 
BRANCH  33  34
ATOM     34  C   UNL     1      -7.425   3.050   1.486  1.00  0.00     0.118 C 
BRANCH  34  35
ATOM     35  N   UNL     1      -8.399   3.497   2.466  1.00  0.00    -0.352 N 
ATOM     36  C   UNL     1      -9.516   4.280   2.301  1.00  0.00     0.251 C 
ATOM     37  H   UNL     1      -8.234   3.192   3.388  1.00  0.00     0.163 HD
ATOM     38  O   UNL     1     -10.107   4.706   3.288  1.00  0.00    -0.269 OA
BRANCH  36  39
ATOM     39  C   UNL     1      -9.998   4.636   0.946  1.00  0.00     0.039 A 
ATOM     40  C   UNL     1     -10.424   5.946   0.708  1.00  0.00     0.014 A 
ATOM     41  C   UNL     1     -10.060   3.688  -0.078  1.00  0.00     0.014 A 
ATOM     42  C   UNL     1     -10.848   6.319  -0.571  1.00  0.00     0.010 A 
ATOM     43  C   UNL     1     -10.407   4.080  -1.370  1.00  0.00     0.010 A 
ATOM     44  C   UNL     1     -10.808   5.399  -1.630  1.00  0.00    -0.014 A 
BRANCH  44  45
ATOM     45  C   UNL     1     -11.187   5.790  -3.013  1.00  0.00     0.031 A 
ATOM     46  C   UNL     1     -12.367   5.144  -3.686  1.00  0.00     0.074 A 
ATOM     47  C   UNL     1     -10.430   6.676  -3.689  1.00  0.00     0.049 A 
ATOM     48  N   UNL     1     -12.794   5.278  -4.916  1.00  0.00    -0.248 NA
ATOM     49  C   UNL     1     -13.156   4.202  -2.876  1.00  0.00     0.031 C 
ATOM     50  C   UNL     1      -9.239   7.348  -3.166  1.00  0.00     0.029 A 
ATOM     51  N   UNL     1     -10.542   7.153  -4.972  1.00  0.00    -0.354 N 
ATOM     52  C   UNL     1     -13.886   4.427  -5.032  1.00  0.00     0.074 A 
ATOM     53  C   UNL     1     -14.028   3.746  -3.764  1.00  0.00     0.031 C 
ATOM     54  C   UNL     1      -8.742   8.162  -4.111  1.00  0.00     0.029 A 
ATOM     55  C   UNL     1      -9.550   8.039  -5.319  1.00  0.00     0.049 A 
ATOM     56  H   UNL     1     -11.264   6.886  -5.585  1.00  0.00     0.167 HD
ATOM     57  C   UNL     1     -14.710   4.245  -6.092  1.00  0.00     0.037 A 
ATOM     58  C   UNL     1      -9.310   8.670  -6.485  1.00  0.00     0.037 A 
ATOM     59  C   UNL     1     -14.587   4.946  -7.344  1.00  0.00     0.049 A 
ATOM     60  C   UNL     1     -10.228   8.438  -7.652  1.00  0.00     0.074 A 
ATOM     61  C   UNL     1     -15.412   4.877  -8.454  1.00  0.00     0.029 A 
ATOM     62  N   UNL     1     -13.575   5.841  -7.652  1.00  0.00    -0.354 N 
ATOM     63  N   UNL     1     -11.292   7.675  -7.728  1.00  0.00    -0.248 NA
ATOM     64  C   UNL     1      -9.913   9.153  -8.897  1.00  0.00     0.031 C 
ATOM     65  C   UNL     1     -14.873   5.699  -9.449  1.00  0.00     0.029 A 
ATOM     66  C   UNL     1     -13.739   6.314  -8.943  1.00  0.00     0.049 A 
ATOM     67  H   UNL     1     -12.847   6.103  -7.042  1.00  0.00     0.167 HD
ATOM     68  C   UNL     1     -11.786   7.838  -9.015  1.00  0.00     0.074 A 
ATOM     69  C   UNL     1     -10.914   8.781  -9.683  1.00  0.00     0.031 C 
ATOM     70  C   UNL     1     -12.866   7.257  -9.592  1.00  0.00     0.037 A 
BRANCH  57  71
ATOM     71  C   UNL     1     -15.823   3.249  -5.942  1.00  0.00     0.057 A 
ATOM     72  C   UNL     1     -16.929   3.496  -5.119  1.00  0.00     0.134 A 
ATOM     73  C   UNL     1     -15.806   2.045  -6.658  1.00  0.00     0.134 A 
ATOM     74  F   UNL     1     -17.001   4.625  -4.398  1.00  0.00    -0.206 F 
ATOM     75  C   UNL     1     -17.967   2.571  -4.993  1.00  0.00     0.040 A 
ATOM     76  C   UNL     1     -16.851   1.124  -6.561  1.00  0.00     0.040 A 
ATOM     77  F   UNL     1     -14.780   1.749  -7.470  1.00  0.00    -0.206 F 
ATOM     78  C   UNL     1     -17.932   1.383  -5.721  1.00  0.00     0.006 A 
ENDBRANCH  57  71
BRANCH  58  79
ATOM     79  C   UNL     1      -8.153   9.593  -6.604  1.00  0.00     0.057 A 
ATOM     80  C   UNL     1      -8.343  10.975  -6.717  1.00  0.00     0.134 A 
ATOM     81  C   UNL     1      -6.836   9.120  -6.615  1.00  0.00     0.134 A 
ATOM     82  F   UNL     1      -9.583  11.486  -6.732  1.00  0.00    -0.206 F 
ATOM     83  C   UNL     1      -7.266  11.852  -6.853  1.00  0.00     0.040 A 
ATOM     84  C   UNL     1      -5.748   9.987  -6.727  1.00  0.00     0.040 A 
ATOM     85  F   UNL     1      -6.587   7.806  -6.504  1.00  0.00    -0.206 F 
ATOM     86  C   UNL     1      -5.963  11.358  -6.853  1.00  0.00     0.006 A 
ENDBRANCH  58  79
BRANCH  70  87
ATOM     87  C   UNL     1     -13.183   7.646 -11.006  1.00  0.00     0.057 A 
ATOM     88  C   UNL     1     -12.417   7.189 -12.086  1.00  0.00     0.134 A 
ATOM     89  C   UNL     1     -14.297   8.444 -11.293  1.00  0.00     0.134 A 
ATOM     90  F   UNL     1     -11.330   6.432 -11.876  1.00  0.00    -0.206 F 
ATOM     91  C   UNL     1     -12.739   7.527 -13.401  1.00  0.00     0.040 A 
ATOM     92  C   UNL     1     -14.644   8.768 -12.606  1.00  0.00     0.040 A 
ATOM     93  F   UNL     1     -15.077   8.907 -10.305  1.00  0.00    -0.206 F 
ATOM     94  C   UNL     1     -13.861   8.312 -13.664  1.00  0.00     0.006 A 
ENDBRANCH  70  87
ENDBRANCH  44  45
ENDBRANCH  36  39
ENDBRANCH  34  35
ENDBRANCH  33  34
ENDBRANCH   1  33
TORSDOF 15
