REMARK SMILES CC(C)(C)c1ccc(NS(=O)(=O)c2cccc(C(=O)NCCCNC(=O)c3ccc(-c4c5nc(c(-c6c(F)cccc6F)c6ccc([nH]6)c(-c6c(F)cccc6F)c6nc(c(-c7c(F)cccc7F)c7ccc4[nH]7)C=C6)C=C5)cc3)c2)cc1
REMARK SMILES IDX 21 1 20 2 18 3 19 4 17 6 13 7 14 8 81 9 15 10 16 11 10 12
REMARK SMILES IDX 11 13 12 14 9 15 8 17 5 18 6 19 83 20 7 21 82 22 2 23 1 24
REMARK SMILES IDX 3 25 4 26 22 27 23 28 24 29 25 30 26 32 27 33 28 34 80 35
REMARK SMILES IDX 29 36 79 37 30 38 31 39 32 40 73 41 33 42 78 43 72 44 74 45
REMARK SMILES IDX 34 46 77 47 71 48 70 49 35 51 61 52 44 53 60 54 45 55 48 56
REMARK SMILES IDX 59 57 75 58 46 59 47 60 58 62 76 63 49 64 36 65 37 66 42 67
REMARK SMILES IDX 38 68 39 69 41 70 43 71 40 72 62 73 63 74 68 75 64 76 65 77
REMARK SMILES IDX 67 78 69 79 66 80 50 81 51 82 56 83 52 84 53 85 55 86 57 87
REMARK SMILES IDX 54 88
REMARK H PARENT 20 5 9 16 24 31 74 50 48 61
REMARK Flexibility Score: inf
ROOT
ATOM      1  C   UNL     1      -0.823 -10.008  -0.141  1.00  0.00     0.118 C 
ENDROOT
BRANCH   1   2
ATOM      2  N   UNL     1      -1.785  -9.195  -0.867  1.00  0.00    -0.352 N 
ATOM      3  C   UNL     1      -1.907  -7.840  -1.021  1.00  0.00     0.251 C 
ATOM      4  O   UNL     1      -2.841  -7.412  -1.698  1.00  0.00    -0.269 OA
ATOM      5  H   UNL     1      -2.478  -9.716  -1.334  1.00  0.00     0.163 HD
BRANCH   3   6
ATOM      6  C   UNL     1      -0.898  -6.887  -0.488  1.00  0.00     0.041 A 
ATOM      7  C   UNL     1       0.837  -6.197   1.049  1.00  0.00     0.088 A 
ATOM      8  C   UNL     1       1.210  -5.167   0.179  1.00  0.00     0.022 A 
ATOM      9  C   UNL     1      -0.230  -7.047   0.729  1.00  0.00     0.036 A 
ATOM     10  C   UNL     1       0.449  -4.919  -0.961  1.00  0.00     0.002 A 
ATOM     11  C   UNL     1      -0.597  -5.779  -1.296  1.00  0.00     0.014 A 
BRANCH   7  12
ATOM     12  S   UNL     1       1.816  -6.514   2.502  1.00  0.00     0.261 S 
ATOM     13  O   UNL     1       3.202  -6.332   2.131  1.00  0.00    -0.201 OA
ATOM     14  O   UNL     1       1.375  -7.781   3.055  1.00  0.00    -0.201 OA
BRANCH  12  15
ATOM     15  N   UNL     1       1.462  -5.334   3.684  1.00  0.00    -0.280 N 
ATOM     16  H   UNL     1       1.442  -5.575   4.639  1.00  0.00     0.180 HD
BRANCH  15  17
ATOM     17  C   UNL     1       1.197  -3.987   3.270  1.00  0.00     0.049 A 
ATOM     18  C   UNL     1       0.679  -1.372   2.305  1.00  0.00    -0.042 A 
ATOM     19  C   UNL     1      -0.234  -2.422   2.115  1.00  0.00     0.006 A 
ATOM     20  C   UNL     1       1.846  -1.664   3.036  1.00  0.00     0.006 A 
ATOM     21  C   UNL     1      -0.003  -3.695   2.635  1.00  0.00     0.027 A 
ATOM     22  C   UNL     1       2.111  -2.962   3.504  1.00  0.00     0.027 A 
BRANCH  18  23
ATOM     23  C   UNL     1       0.421   0.013   1.684  1.00  0.00    -0.013 C 
ATOM     24  C   UNL     1       1.051   0.035   0.277  1.00  0.00     0.016 C 
ATOM     25  C   UNL     1       1.029   1.166   2.512  1.00  0.00     0.016 C 
ATOM     26  C   UNL     1      -1.091   0.316   1.548  1.00  0.00     0.016 C 
ENDBRANCH  18  23
ENDBRANCH  15  17
ENDBRANCH  12  15
ENDBRANCH   7  12
ENDBRANCH   3   6
ENDBRANCH   1   2
BRANCH   1  27
ATOM     27  C   UNL     1      -1.445 -10.532   1.151  1.00  0.00     0.042 C 
BRANCH  27  28
ATOM     28  C   UNL     1      -2.429 -11.672   0.905  1.00  0.00     0.118 C 
BRANCH  28  29
ATOM     29  N   UNL     1      -1.754 -12.871   0.424  1.00  0.00    -0.352 N 
ATOM     30  C   UNL     1      -1.666 -14.117   0.988  1.00  0.00     0.251 C 
ATOM     31  H   UNL     1      -1.289 -12.770  -0.438  1.00  0.00     0.163 HD
ATOM     32  O   UNL     1      -0.833 -14.916   0.571  1.00  0.00    -0.269 OA
BRANCH  30  33
ATOM     33  C   UNL     1      -2.574 -14.505   2.087  1.00  0.00     0.039 A 
ATOM     34  C   UNL     1      -2.075 -15.291   3.129  1.00  0.00     0.014 A 
ATOM     35  C   UNL     1      -3.923 -14.143   2.065  1.00  0.00     0.014 A 
ATOM     36  C   UNL     1      -2.922 -15.679   4.168  1.00  0.00     0.010 A 
ATOM     37  C   UNL     1      -4.744 -14.456   3.142  1.00  0.00     0.010 A 
ATOM     38  C   UNL     1      -4.257 -15.243   4.196  1.00  0.00    -0.014 A 
BRANCH  38  39
ATOM     39  C   UNL     1      -5.164 -15.617   5.310  1.00  0.00     0.031 A 
ATOM     40  C   UNL     1      -6.391 -16.444   5.037  1.00  0.00     0.074 A 
ATOM     41  C   UNL     1      -4.913 -15.159   6.551  1.00  0.00     0.049 A 
ATOM     42  N   UNL     1      -7.338 -16.815   5.861  1.00  0.00    -0.248 NA
ATOM     43  C   UNL     1      -6.601 -16.890   3.649  1.00  0.00     0.031 C 
ATOM     44  C   UNL     1      -3.787 -14.301   6.926  1.00  0.00     0.029 A 
ATOM     45  N   UNL     1      -5.597 -15.339   7.727  1.00  0.00    -0.354 N 
ATOM     46  C   UNL     1      -8.260 -17.513   5.090  1.00  0.00     0.074 A 
ATOM     47  C   UNL     1      -7.787 -17.473   3.725  1.00  0.00     0.031 C 
ATOM     48  C   UNL     1      -3.846 -14.047   8.243  1.00  0.00     0.029 A 
ATOM     49  C   UNL     1      -5.033 -14.689   8.798  1.00  0.00     0.049 A 
ATOM     50  H   UNL     1      -6.415 -15.883   7.796  1.00  0.00     0.167 HD
ATOM     51  C   UNL     1      -9.386 -18.148   5.490  1.00  0.00     0.037 A 
ATOM     52  C   UNL     1      -5.436 -14.610  10.080  1.00  0.00     0.037 A 
ATOM     53  C   UNL     1      -9.830 -18.215   6.858  1.00  0.00     0.049 A 
ATOM     54  C   UNL     1      -6.682 -15.342  10.498  1.00  0.00     0.074 A 
ATOM     55  C   UNL     1     -10.915 -18.898   7.378  1.00  0.00     0.029 A 
ATOM     56  N   UNL     1      -9.210 -17.576   7.921  1.00  0.00    -0.354 N 
ATOM     57  N   UNL     1      -7.499 -16.067   9.773  1.00  0.00    -0.248 NA
ATOM     58  C   UNL     1      -7.055 -15.256  11.917  1.00  0.00     0.031 C 
ATOM     59  C   UNL     1     -10.983 -18.629   8.748  1.00  0.00     0.029 A 
ATOM     60  C   UNL     1      -9.905 -17.828   9.092  1.00  0.00     0.049 A 
ATOM     61  H   UNL     1      -8.398 -17.024   7.853  1.00  0.00     0.167 HD
ATOM     62  C   UNL     1      -8.462 -16.548  10.650  1.00  0.00     0.074 A 
ATOM     63  C   UNL     1      -8.116 -16.048  11.964  1.00  0.00     0.031 C 
ATOM     64  C   UNL     1      -9.537 -17.333  10.393  1.00  0.00     0.037 A 
BRANCH  51  65
ATOM     65  C   UNL     1     -10.220 -18.828   4.442  1.00  0.00     0.057 A 
ATOM     66  C   UNL     1      -9.789 -19.992   3.792  1.00  0.00     0.134 A 
ATOM     67  C   UNL     1     -11.497 -18.348   4.126  1.00  0.00     0.134 A 
ATOM     68  F   UNL     1      -8.572 -20.499   4.039  1.00  0.00    -0.206 F 
ATOM     69  C   UNL     1     -10.590 -20.643   2.852  1.00  0.00     0.040 A 
ATOM     70  C   UNL     1     -12.319 -19.006   3.209  1.00  0.00     0.040 A 
ATOM     71  F   UNL     1     -11.975 -17.242   4.715  1.00  0.00    -0.206 F 
ATOM     72  C   UNL     1     -11.864 -20.156   2.567  1.00  0.00     0.006 A 
ENDBRANCH  51  65
BRANCH  52  73
ATOM     73  C   UNL     1      -4.654 -13.819  11.065  1.00  0.00     0.057 A 
ATOM     74  C   UNL     1      -3.972 -14.440  12.118  1.00  0.00     0.134 A 
ATOM     75  C   UNL     1      -4.593 -12.421  10.995  1.00  0.00     0.134 A 
ATOM     76  F   UNL     1      -4.005 -15.774  12.250  1.00  0.00    -0.206 F 
ATOM     77  C   UNL     1      -3.288 -13.700  13.085  1.00  0.00     0.040 A 
ATOM     78  C   UNL     1      -3.887 -11.671  11.937  1.00  0.00     0.040 A 
ATOM     79  F   UNL     1      -5.215 -11.765  10.005  1.00  0.00    -0.206 F 
ATOM     80  C   UNL     1      -3.242 -12.311  12.993  1.00  0.00     0.006 A 
ENDBRANCH  52  73
BRANCH  64  81
ATOM     81  C   UNL     1     -10.386 -17.738  11.562  1.00  0.00     0.057 A 
ATOM     82  C   UNL     1     -11.209 -16.826  12.235  1.00  0.00     0.134 A 
ATOM     83  C   UNL     1     -10.404 -19.069  11.998  1.00  0.00     0.134 A 
ATOM     84  F   UNL     1     -11.229 -15.534  11.875  1.00  0.00    -0.206 F 
ATOM     85  C   UNL     1     -11.995 -17.217  13.320  1.00  0.00     0.040 A 
ATOM     86  C   UNL     1     -11.210 -19.479  13.060  1.00  0.00     0.040 A 
ATOM     87  F   UNL     1      -9.649 -19.996  11.390  1.00  0.00    -0.206 F 
ATOM     88  C   UNL     1     -12.002 -18.549  13.730  1.00  0.00     0.006 A 
ENDBRANCH  64  81
ENDBRANCH  38  39
ENDBRANCH  30  33
ENDBRANCH  28  29
ENDBRANCH  27  28
ENDBRANCH   1  27
TORSDOF 14
