REMARK SMILES CC[C@H](C)[C@@H](Nc1ncnc2ccccc12)C(=O)NCCCNC(=O)c1ccc(-c2c3nc(c(-c4c(F)cccc4F)c4ccc([nH]4)c(-c4c(F)cccc4F)c4nc(c(-c5c(F)cccc5F)c5ccc2[nH]5)C=C4)C=C3)cc1
REMARK SMILES IDX 21 1 20 2 19 3 17 4 18 5 5 7 3 8 4 9 2 10 1 11 6 12 7 14
REMARK SMILES IDX 8 15 16 16 9 17 11 18 15 19 10 20 12 21 14 22 13 23 22 24
REMARK SMILES IDX 23 25 24 26 25 28 26 29 27 30 79 31 28 32 78 33 29 34 30 35
REMARK SMILES IDX 31 36 72 37 32 38 77 39 71 40 73 41 33 42 76 43 70 44 69 45
REMARK SMILES IDX 34 47 60 48 43 49 59 50 44 51 47 52 58 53 74 54 45 55 46 56
REMARK SMILES IDX 57 58 75 59 48 60 35 61 36 62 41 63 37 64 38 65 40 66 42 67
REMARK SMILES IDX 39 68 61 69 62 70 67 71 63 72 64 73 66 74 68 75 65 76 49 77
REMARK SMILES IDX 50 78 55 79 51 80 52 81 54 82 56 83 53 84
REMARK H PARENT 19 6 6 13 23 27 73 46 47 57
REMARK Flexibility Score: inf
ROOT
ATOM      1  C   UNL     1       4.440  -0.234   3.604  1.00  0.00     0.042 C 
ENDROOT
BRANCH   1   2
ATOM      2  C   UNL     1       3.514  -1.368   3.995  1.00  0.00     0.117 C 
BRANCH   2   3
ATOM      3  N   UNL     1       2.443  -0.890   4.850  1.00  0.00    -0.354 N 
ATOM      4  C   UNL     1       1.095  -0.925   4.662  1.00  0.00     0.242 C 
ATOM      5  O   UNL     1       0.390  -0.359   5.504  1.00  0.00    -0.273 OA
ATOM      6  H   UNL     1       2.736  -0.478   5.695  1.00  0.00     0.163 HD
BRANCH   4   7
ATOM      7  C   UNL     1       0.466  -1.608   3.421  1.00  0.00     0.173 C 
BRANCH   7   8
ATOM      8  C   UNL     1       0.705  -0.675   2.191  1.00  0.00     0.018 C 
ATOM      9  C   UNL     1       0.251  -1.253   0.845  1.00  0.00     0.010 C 
BRANCH   8  10
ATOM     10  C   UNL     1       0.085   0.737   2.384  1.00  0.00     0.002 C 
ATOM     11  C   UNL     1      -1.395   0.754   2.750  1.00  0.00     0.004 C 
ENDBRANCH   8  10
ENDBRANCH   7   8
BRANCH   7  12
ATOM     12  N   UNL     1       0.931  -2.998   3.203  1.00  0.00    -0.358 N 
ATOM     13  H   UNL     1       0.803  -3.368   2.300  1.00  0.00     0.162 HD
BRANCH  12  14
ATOM     14  C   UNL     1       1.524  -3.829   4.132  1.00  0.00     0.137 A 
ATOM     15  N   UNL     1       2.562  -4.500   3.598  1.00  0.00    -0.219 NA
ATOM     16  C   UNL     1       1.224  -3.901   5.504  1.00  0.00     0.043 A 
ATOM     17  C   UNL     1       3.369  -5.143   4.447  1.00  0.00     0.224 A 
ATOM     18  C   UNL     1       2.194  -4.539   6.293  1.00  0.00     0.076 A 
ATOM     19  C   UNL     1       0.074  -3.368   6.141  1.00  0.00     0.014 A 
ATOM     20  N   UNL     1       3.263  -5.152   5.777  1.00  0.00    -0.236 NA
ATOM     21  C   UNL     1       2.060  -4.512   7.676  1.00  0.00     0.029 A 
ATOM     22  C   UNL     1      -0.041  -3.353   7.529  1.00  0.00     0.001 A 
ATOM     23  C   UNL     1       0.968  -3.907   8.301  1.00  0.00     0.002 A 
ENDBRANCH  12  14
ENDBRANCH   7  12
ENDBRANCH   4   7
ENDBRANCH   2   3
ENDBRANCH   1   2
BRANCH   1  24
ATOM     24  C   UNL     1       5.178   0.347   4.797  1.00  0.00     0.118 C 
BRANCH  24  25
ATOM     25  N   UNL     1       6.084  -0.615   5.412  1.00  0.00    -0.352 N 
ATOM     26  C   UNL     1       7.443  -0.532   5.578  1.00  0.00     0.251 C 
ATOM     27  H   UNL     1       5.663  -1.436   5.756  1.00  0.00     0.163 HD
ATOM     28  O   UNL     1       8.095  -1.513   5.923  1.00  0.00    -0.269 OA
BRANCH  26  29
ATOM     29  C   UNL     1       8.114   0.754   5.316  1.00  0.00     0.039 A 
ATOM     30  C   UNL     1       9.288   0.772   4.561  1.00  0.00     0.014 A 
ATOM     31  C   UNL     1       7.553   1.943   5.788  1.00  0.00     0.014 A 
ATOM     32  C   UNL     1       9.867   1.996   4.228  1.00  0.00     0.010 A 
ATOM     33  C   UNL     1       8.068   3.158   5.366  1.00  0.00     0.010 A 
ATOM     34  C   UNL     1       9.241   3.198   4.599  1.00  0.00    -0.014 A 
BRANCH  34  35
ATOM     35  C   UNL     1       9.809   4.518   4.236  1.00  0.00     0.031 A 
ATOM     36  C   UNL     1      10.221   5.469   5.325  1.00  0.00     0.074 A 
ATOM     37  C   UNL     1       9.875   4.890   2.944  1.00  0.00     0.049 A 
ATOM     38  N   UNL     1      10.630   6.708   5.232  1.00  0.00    -0.248 NA
ATOM     39  C   UNL     1      10.123   4.971   6.707  1.00  0.00     0.031 C 
ATOM     40  C   UNL     1       9.462   4.072   1.802  1.00  0.00     0.029 A 
ATOM     41  N   UNL     1      10.301   6.064   2.376  1.00  0.00    -0.354 N 
ATOM     42  C   UNL     1      10.814   7.140   6.539  1.00  0.00     0.074 A 
ATOM     43  C   UNL     1      10.409   6.057   7.406  1.00  0.00     0.031 C 
ATOM     44  C   UNL     1       9.675   4.761   0.670  1.00  0.00     0.029 A 
ATOM     45  C   UNL     1      10.195   6.082   1.007  1.00  0.00     0.049 A 
ATOM     46  H   UNL     1      10.649   6.821   2.900  1.00  0.00     0.167 HD
ATOM     47  C   UNL     1      11.303   8.324   6.977  1.00  0.00     0.037 A 
ATOM     48  C   UNL     1      10.475   7.060   0.126  1.00  0.00     0.037 A 
ATOM     49  C   UNL     1      11.726   9.387   6.106  1.00  0.00     0.049 A 
ATOM     50  C   UNL     1      11.007   8.372   0.634  1.00  0.00     0.074 A 
ATOM     51  C   UNL     1      12.289  10.605   6.442  1.00  0.00     0.029 A 
ATOM     52  N   UNL     1      11.626   9.359   4.722  1.00  0.00    -0.354 N 
ATOM     53  N   UNL     1      11.238   8.748   1.869  1.00  0.00    -0.248 NA
ATOM     54  C   UNL     1      11.324   9.393  -0.373  1.00  0.00     0.031 C 
ATOM     55  C   UNL     1      12.482  11.335   5.265  1.00  0.00     0.029 A 
ATOM     56  C   UNL     1      12.096  10.549   4.191  1.00  0.00     0.049 A 
ATOM     57  H   UNL     1      11.274   8.605   4.196  1.00  0.00     0.167 HD
ATOM     58  C   UNL     1      11.757  10.034   1.786  1.00  0.00     0.074 A 
ATOM     59  C   UNL     1      11.815  10.369   0.378  1.00  0.00     0.031 C 
ATOM     60  C   UNL     1      12.154  10.861   2.784  1.00  0.00     0.037 A 
BRANCH  47  61
ATOM     61  C   UNL     1      11.397   8.522   8.463  1.00  0.00     0.057 A 
ATOM     62  C   UNL     1      12.290   7.787   9.256  1.00  0.00     0.134 A 
ATOM     63  C   UNL     1      10.587   9.463   9.111  1.00  0.00     0.134 A 
ATOM     64  F   UNL     1      13.086   6.859   8.702  1.00  0.00    -0.206 F 
ATOM     65  C   UNL     1      12.345   7.952  10.641  1.00  0.00     0.040 A 
ATOM     66  C   UNL     1      10.657   9.661  10.491  1.00  0.00     0.040 A 
ATOM     67  F   UNL     1       9.713  10.206   8.415  1.00  0.00    -0.206 F 
ATOM     68  C   UNL     1      11.531   8.896  11.261  1.00  0.00     0.006 A 
ENDBRANCH  47  61
BRANCH  48  69
ATOM     69  C   UNL     1      10.281   6.825  -1.327  1.00  0.00     0.057 A 
ATOM     70  C   UNL     1      11.375   6.710  -2.192  1.00  0.00     0.134 A 
ATOM     71  C   UNL     1       9.002   6.700  -1.885  1.00  0.00     0.134 A 
ATOM     72  F   UNL     1      12.624   6.837  -1.721  1.00  0.00    -0.206 F 
ATOM     73  C   UNL     1      11.206   6.497  -3.561  1.00  0.00     0.040 A 
ATOM     74  C   UNL     1       8.819   6.460  -3.247  1.00  0.00     0.040 A 
ATOM     75  F   UNL     1       7.913   6.789  -1.108  1.00  0.00    -0.206 F 
ATOM     76  C   UNL     1       9.924   6.365  -4.091  1.00  0.00     0.006 A 
ENDBRANCH  48  69
BRANCH  60  77
ATOM     77  C   UNL     1      12.730  12.191   2.391  1.00  0.00     0.057 A 
ATOM     78  C   UNL     1      11.936  13.222   1.873  1.00  0.00     0.134 A 
ATOM     79  C   UNL     1      14.092  12.457   2.584  1.00  0.00     0.134 A 
ATOM     80  F   UNL     1      10.627  13.028   1.653  1.00  0.00    -0.206 F 
ATOM     81  C   UNL     1      12.481  14.463   1.541  1.00  0.00     0.040 A 
ATOM     82  C   UNL     1      14.642  13.703   2.285  1.00  0.00     0.040 A 
ATOM     83  F   UNL     1      14.906  11.516   3.086  1.00  0.00    -0.206 F 
ATOM     84  C   UNL     1      13.837  14.709   1.755  1.00  0.00     0.006 A 
ENDBRANCH  60  77
ENDBRANCH  34  35
ENDBRANCH  26  29
ENDBRANCH  24  25
ENDBRANCH   1  24
TORSDOF 14
