REMARK SMILES Cc1ccc([C@H]2NC(=O)N(C)C3=C2C(=O)N(c2cccc(C(=O)NCCCNC(=O)c4ccc(-c5c6nc(c(-c7c(F)cccc7F)c7ccc([nH]7)c(-c7c(F)cccc7F)c7nc(c(-c8c(F)cccc8F)c8ccc5[nH]8)C=C7)C=C6)cc4)c2)C3)cc1
REMARK SMILES IDX 26 1 25 2 24 3 22 4 23 5 21 7 17 8 18 9 85 10 19 11 20 12
REMARK SMILES IDX 16 13 6 14 7 15 13 16 8 17 12 19 14 20 9 21 10 22 86 23
REMARK SMILES IDX 15 24 11 25 5 26 1 27 2 28 3 29 88 30 4 31 87 32 27 33 28 34
REMARK SMILES IDX 29 35 30 37 31 38 32 39 84 40 33 41 83 42 34 43 35 44 36 45
REMARK SMILES IDX 77 46 37 47 82 48 76 49 78 50 38 51 81 52 75 53 74 54 39 56
REMARK SMILES IDX 65 57 48 58 64 59 49 60 52 61 63 62 79 63 50 64 51 65 62 67
REMARK SMILES IDX 80 68 53 69 40 70 41 71 46 72 42 73 43 74 45 75 47 76 44 77
REMARK SMILES IDX 66 78 67 79 72 80 68 81 69 82 71 83 73 84 70 85 54 86 55 87
REMARK SMILES IDX 60 88 56 89 57 90 59 91 61 92 58 93
REMARK H PARENT 24 6 7 18 28 36 78 55 52 66
REMARK Flexibility Score: inf
ROOT
ATOM      1  C   UNL     1      -5.322   1.337  10.472  1.00  0.00     0.042 C 
ENDROOT
BRANCH   1   2
ATOM      2  C   UNL     1      -5.791   0.029   9.839  1.00  0.00     0.118 C 
BRANCH   2   3
ATOM      3  N   UNL     1      -6.728   0.290   8.764  1.00  0.00    -0.352 N 
ATOM      4  C   UNL     1      -6.554   0.680   7.458  1.00  0.00     0.251 C 
ATOM      5  O   UNL     1      -7.580   0.852   6.796  1.00  0.00    -0.269 OA
ATOM      6  H   UNL     1      -7.670   0.163   9.018  1.00  0.00     0.163 HD
BRANCH   4   7
ATOM      7  C   UNL     1      -5.224   0.868   6.793  1.00  0.00     0.041 A 
ATOM      8  C   UNL     1      -4.047   1.015   4.660  1.00  0.00     0.045 A 
ATOM      9  C   UNL     1      -2.823   0.957   5.324  1.00  0.00     0.026 A 
ATOM     10  C   UNL     1      -5.239   0.980   5.392  1.00  0.00     0.040 A 
ATOM     11  C   UNL     1      -2.790   0.950   6.709  1.00  0.00     0.003 A 
ATOM     12  C   UNL     1      -3.983   0.916   7.433  1.00  0.00     0.014 A 
BRANCH   8  13
ATOM     13  N   UNL     1      -4.073   1.084   3.262  1.00  0.00    -0.303 N 
ATOM     14  C   UNL     1      -3.353  -0.080  -0.161  1.00  0.00     0.152 C 
ATOM     15  N   UNL     1      -3.722   0.762  -1.293  1.00  0.00    -0.327 N 
ATOM     16  C   UNL     1      -3.670   0.662   1.065  1.00  0.00     0.066 C 
ATOM     17  C   UNL     1      -4.564   1.841  -1.271  1.00  0.00     0.322 C 
ATOM     18  H   UNL     1      -3.324   0.530  -2.163  1.00  0.00     0.166 HD
ATOM     19  C   UNL     1      -4.511   1.691   1.134  1.00  0.00     0.053 C 
ATOM     20  C   UNL     1      -3.268   0.313   2.426  1.00  0.00     0.258 C 
ATOM     21  O   UNL     1      -4.872   2.380  -2.332  1.00  0.00    -0.248 OA
ATOM     22  N   UNL     1      -4.989   2.277  -0.016  1.00  0.00    -0.299 N 
ATOM     23  C   UNL     1      -4.895   2.023   2.535  1.00  0.00     0.180 C 
ATOM     24  O   UNL     1      -2.438  -0.522   2.699  1.00  0.00    -0.269 OA
ATOM     25  C   UNL     1      -5.873   3.429   0.069  1.00  0.00     0.155 C 
BRANCH  14  26
ATOM     26  C   UNL     1      -4.051  -1.439  -0.266  1.00  0.00    -0.021 A 
ATOM     27  C   UNL     1      -5.900  -5.349  -0.593  1.00  0.00     0.044 C 
ATOM     28  C   UNL     1      -5.268  -3.994  -0.482  1.00  0.00    -0.051 A 
ATOM     29  C   UNL     1      -4.296  -3.585  -1.402  1.00  0.00     0.004 A 
ATOM     30  C   UNL     1      -5.643  -3.118   0.534  1.00  0.00     0.004 A 
ATOM     31  C   UNL     1      -3.691  -2.326  -1.292  1.00  0.00     0.006 A 
ATOM     32  C   UNL     1      -5.052  -1.857   0.634  1.00  0.00     0.006 A 
ENDBRANCH  14  26
ENDBRANCH   8  13
ENDBRANCH   4   7
ENDBRANCH   2   3
ENDBRANCH   1   2
BRANCH   1  33
ATOM     33  C   UNL     1      -6.131   1.706  11.697  1.00  0.00     0.118 C 
BRANCH  33  34
ATOM     34  N   UNL     1      -5.631   1.068  12.912  1.00  0.00    -0.352 N 
ATOM     35  C   UNL     1      -5.997   1.224  14.235  1.00  0.00     0.251 C 
ATOM     36  H   UNL     1      -4.909   0.415  12.763  1.00  0.00     0.163 HD
ATOM     37  O   UNL     1      -5.371   0.621  15.102  1.00  0.00    -0.269 OA
BRANCH  35  38
ATOM     38  C   UNL     1      -7.256   1.926  14.587  1.00  0.00     0.039 A 
ATOM     39  C   UNL     1      -8.074   1.257  15.510  1.00  0.00     0.014 A 
ATOM     40  C   UNL     1      -7.801   2.850  13.709  1.00  0.00     0.014 A 
ATOM     41  C   UNL     1      -9.438   1.214  15.282  1.00  0.00     0.010 A 
ATOM     42  C   UNL     1      -9.111   2.672  13.363  1.00  0.00     0.010 A 
ATOM     43  C   UNL     1      -9.902   1.800  14.113  1.00  0.00    -0.014 A 
BRANCH  43  44
ATOM     44  C   UNL     1     -11.242   1.650  13.605  1.00  0.00     0.031 A 
ATOM     45  C   UNL     1     -12.190   2.707  13.977  1.00  0.00     0.074 A 
ATOM     46  C   UNL     1     -11.476   0.679  12.698  1.00  0.00     0.049 A 
ATOM     47  N   UNL     1     -13.463   2.568  14.003  1.00  0.00    -0.248 NA
ATOM     48  C   UNL     1     -11.748   4.024  14.435  1.00  0.00     0.031 C 
ATOM     49  C   UNL     1     -12.614   0.527  11.802  1.00  0.00     0.029 A 
ATOM     50  N   UNL     1     -10.749  -0.507  12.532  1.00  0.00    -0.354 N 
ATOM     51  C   UNL     1     -14.004   3.830  14.138  1.00  0.00     0.074 A 
ATOM     52  C   UNL     1     -12.909   4.671  14.542  1.00  0.00     0.031 C 
ATOM     53  C   UNL     1     -12.688  -0.758  11.408  1.00  0.00     0.029 A 
ATOM     54  C   UNL     1     -11.684  -1.496  12.159  1.00  0.00     0.049 A 
ATOM     55  H   UNL     1      -9.779  -0.627  12.652  1.00  0.00     0.167 HD
ATOM     56  C   UNL     1     -15.280   4.026  13.703  1.00  0.00     0.037 A 
ATOM     57  C   UNL     1     -11.954  -2.535  13.007  1.00  0.00     0.037 A 
ATOM     58  C   UNL     1     -15.823   2.754  13.226  1.00  0.00     0.049 A 
ATOM     59  C   UNL     1     -13.374  -2.483  13.520  1.00  0.00     0.074 A 
ATOM     60  C   UNL     1     -15.858   2.194  11.959  1.00  0.00     0.029 A 
ATOM     61  N   UNL     1     -16.029   1.717  14.127  1.00  0.00    -0.354 N 
ATOM     62  N   UNL     1     -14.063  -1.379  13.636  1.00  0.00    -0.248 NA
ATOM     63  C   UNL     1     -14.145  -3.669  13.879  1.00  0.00     0.031 C 
ATOM     64  C   UNL     1     -16.013   0.793  12.110  1.00  0.00     0.029 A 
ATOM     65  C   UNL     1     -16.093   0.507  13.463  1.00  0.00     0.049 A 
ATOM     66  H   UNL     1     -16.117   1.828  15.102  1.00  0.00     0.167 HD
ATOM     67  C   UNL     1     -15.339  -1.682  14.035  1.00  0.00     0.074 A 
ATOM     68  C   UNL     1     -15.338  -3.126  14.181  1.00  0.00     0.031 C 
ATOM     69  C   UNL     1     -16.309  -0.732  14.191  1.00  0.00     0.037 A 
BRANCH  56  70
ATOM     70  C   UNL     1     -15.919   5.362  13.394  1.00  0.00     0.057 A 
ATOM     71  C   UNL     1     -17.019   5.424  12.512  1.00  0.00     0.134 A 
ATOM     72  C   UNL     1     -15.502   6.616  13.873  1.00  0.00     0.134 A 
ATOM     73  F   UNL     1     -17.595   4.317  12.023  1.00  0.00    -0.206 F 
ATOM     74  C   UNL     1     -17.595   6.626  12.083  1.00  0.00     0.040 A 
ATOM     75  C   UNL     1     -16.050   7.830  13.429  1.00  0.00     0.040 A 
ATOM     76  F   UNL     1     -14.583   6.744  14.834  1.00  0.00    -0.206 F 
ATOM     77  C   UNL     1     -17.097   7.839  12.524  1.00  0.00     0.006 A 
ENDBRANCH  56  70
BRANCH  57  78
ATOM     78  C   UNL     1     -10.747  -2.943  13.786  1.00  0.00     0.057 A 
ATOM     79  C   UNL     1      -9.653  -3.450  13.055  1.00  0.00     0.134 A 
ATOM     80  C   UNL     1     -10.469  -2.395  15.042  1.00  0.00     0.134 A 
ATOM     81  F   UNL     1      -9.854  -4.020  11.856  1.00  0.00    -0.206 F 
ATOM     82  C   UNL     1      -8.332  -3.238  13.459  1.00  0.00     0.040 A 
ATOM     83  C   UNL     1      -9.147  -2.204  15.468  1.00  0.00     0.040 A 
ATOM     84  F   UNL     1     -11.453  -1.907  15.809  1.00  0.00    -0.206 F 
ATOM     85  C   UNL     1      -8.077  -2.564  14.648  1.00  0.00     0.006 A 
ENDBRANCH  57  78
BRANCH  69  86
ATOM     86  C   UNL     1     -17.605  -0.915  14.943  1.00  0.00     0.057 A 
ATOM     87  C   UNL     1     -17.795  -1.870  15.952  1.00  0.00     0.134 A 
ATOM     88  C   UNL     1     -18.675  -0.004  14.777  1.00  0.00     0.134 A 
ATOM     89  F   UNL     1     -16.819  -2.710  16.321  1.00  0.00    -0.206 F 
ATOM     90  C   UNL     1     -18.987  -1.968  16.680  1.00  0.00     0.040 A 
ATOM     91  C   UNL     1     -19.839  -0.048  15.547  1.00  0.00     0.040 A 
ATOM     92  F   UNL     1     -18.631   0.993  13.881  1.00  0.00    -0.206 F 
ATOM     93  C   UNL     1     -20.010  -1.049  16.486  1.00  0.00     0.006 A 
ENDBRANCH  69  86
ENDBRANCH  43  44
ENDBRANCH  35  38
ENDBRANCH  33  34
ENDBRANCH   1  33
TORSDOF 12
