REMARK SMILES C[C@@H]1CN(C(=O)N2CCC(CC(=O)NCCCNC(=O)c3ccc(-c4c5nc(c(-c6c(F)cccc6F)c6ccc([nH]6)c(-c6c(F)cccc6F)c6nc(c(-c7c(F)cccc7F)c7ccc4[nH]7)C=C6)C=C5)cc3)CC2)C[C@@H](C)S1
REMARK SMILES IDX 16 1 15 2 14 3 12 4 13 5 11 7 10 8 1 9 2 10 3 11 80 12 4 13
REMARK SMILES IDX 78 14 5 15 77 16 79 17 6 18 7 19 8 20 76 21 9 22 75 23 17 24
REMARK SMILES IDX 18 25 19 26 20 28 21 29 22 30 74 31 23 32 73 33 24 34 25 35
REMARK SMILES IDX 26 36 67 37 27 38 72 39 66 40 68 41 28 42 71 43 65 44 64 45
REMARK SMILES IDX 29 47 55 48 38 49 54 50 39 51 42 52 53 53 69 54 40 55 41 56
REMARK SMILES IDX 52 58 70 59 43 60 30 61 31 62 36 63 32 64 33 65 35 66 37 67
REMARK SMILES IDX 34 68 56 69 57 70 62 71 58 72 59 73 61 74 63 75 60 76 44 77
REMARK SMILES IDX 45 78 50 79 46 80 47 81 49 82 51 83 48 84
REMARK H PARENT 14 6 18 27 68 46 42 57
REMARK Flexibility Score: inf
ROOT
ATOM      1  C   UNL     1      -0.883   5.674  -3.189  1.00  0.00     0.042 C 
ENDROOT
BRANCH   1   2
ATOM      2  C   UNL     1       0.164   5.012  -4.090  1.00  0.00     0.117 C 
BRANCH   2   3
ATOM      3  N   UNL     1       1.208   5.942  -4.503  1.00  0.00    -0.356 N 
ATOM      4  C   UNL     1       2.518   6.059  -4.141  1.00  0.00     0.220 C 
ATOM      5  O   UNL     1       3.168   6.987  -4.626  1.00  0.00    -0.275 OA
ATOM      6  H   UNL     1       0.913   6.608  -5.165  1.00  0.00     0.163 HD
BRANCH   4   7
ATOM      7  C   UNL     1       3.163   5.089  -3.170  1.00  0.00     0.103 C 
BRANCH   7   8
ATOM      8  C   UNL     1       3.281   5.633  -1.728  1.00  0.00     0.002 C 
ATOM      9  C   UNL     1       1.496   0.769  -0.272  1.00  0.00     0.021 C 
ATOM     10  C   UNL     1       0.182   1.494   0.019  1.00  0.00     0.063 C 
ATOM     11  C   UNL     1       0.379   2.982   0.372  1.00  0.00     0.135 C 
ATOM     12  S   UNL     1      -0.771   0.591   1.289  1.00  0.00    -0.152 SA
ATOM     13  N   UNL     1       0.932   3.260   1.701  1.00  0.00    -0.322 N 
ATOM     14  C   UNL     1       0.182   1.121   2.765  1.00  0.00     0.063 C 
ATOM     15  C   UNL     1       2.127   3.928   1.928  1.00  0.00     0.320 C 
ATOM     16  C   UNL     1       0.235   2.653   2.837  1.00  0.00     0.135 C 
ATOM     17  C   UNL     1      -0.475   0.528   4.006  1.00  0.00     0.021 C 
ATOM     18  O   UNL     1       2.789   3.752   2.950  1.00  0.00    -0.248 OA
ATOM     19  N   UNL     1       2.569   4.762   0.925  1.00  0.00    -0.325 N 
ATOM     20  C   UNL     1       3.981   4.854   0.617  1.00  0.00     0.121 C 
ATOM     21  C   UNL     1       1.772   5.845   0.378  1.00  0.00     0.121 C 
ATOM     22  C   UNL     1       4.141   4.659  -0.888  1.00  0.00     0.026 C 
ATOM     23  C   UNL     1       1.880   5.868  -1.139  1.00  0.00     0.026 C 
ENDBRANCH   7   8
ENDBRANCH   4   7
ENDBRANCH   2   3
ENDBRANCH   1   2
BRANCH   1  24
ATOM     24  C   UNL     1      -1.766   6.703  -3.886  1.00  0.00     0.118 C 
BRANCH  24  25
ATOM     25  N   UNL     1      -2.913   6.087  -4.523  1.00  0.00    -0.352 N 
ATOM     26  C   UNL     1      -4.255   6.228  -4.265  1.00  0.00     0.251 C 
ATOM     27  H   UNL     1      -2.696   5.470  -5.259  1.00  0.00     0.163 HD
ATOM     28  O   UNL     1      -5.037   5.428  -4.775  1.00  0.00    -0.269 OA
BRANCH  26  29
ATOM     29  C   UNL     1      -4.786   7.304  -3.387  1.00  0.00     0.039 A 
ATOM     30  C   UNL     1      -5.922   7.025  -2.618  1.00  0.00     0.014 A 
ATOM     31  C   UNL     1      -4.258   8.600  -3.374  1.00  0.00     0.014 A 
ATOM     32  C   UNL     1      -6.507   8.022  -1.831  1.00  0.00     0.010 A 
ATOM     33  C   UNL     1      -4.801   9.578  -2.533  1.00  0.00     0.010 A 
ATOM     34  C   UNL     1      -5.945   9.307  -1.769  1.00  0.00    -0.014 A 
BRANCH  34  35
ATOM     35  C   UNL     1      -6.579  10.367  -0.937  1.00  0.00     0.031 A 
ATOM     36  C   UNL     1      -7.210  11.575  -1.580  1.00  0.00     0.074 A 
ATOM     37  C   UNL     1      -6.594  10.245   0.405  1.00  0.00     0.049 A 
ATOM     38  N   UNL     1      -7.833  12.581  -1.016  1.00  0.00    -0.248 NA
ATOM     39  C   UNL     1      -7.114  11.678  -3.044  1.00  0.00     0.031 C 
ATOM     40  C   UNL     1      -5.979   9.154   1.163  1.00  0.00     0.029 A 
ATOM     41  N   UNL     1      -7.153  11.045   1.371  1.00  0.00    -0.354 N 
ATOM     42  C   UNL     1      -8.199  13.432  -2.052  1.00  0.00     0.074 A 
ATOM     43  C   UNL     1      -7.684  12.852  -3.274  1.00  0.00     0.031 C 
ATOM     44  C   UNL     1      -6.219   9.337   2.471  1.00  0.00     0.029 A 
ATOM     45  C   UNL     1      -6.987  10.566   2.648  1.00  0.00     0.049 A 
ATOM     46  H   UNL     1      -7.628  11.883   1.167  1.00  0.00     0.167 HD
ATOM     47  C   UNL     1      -8.921  14.577  -1.999  1.00  0.00     0.037 A 
ATOM     48  C   UNL     1      -7.414  11.055   3.828  1.00  0.00     0.037 A 
ATOM     49  C   UNL     1      -9.460  15.149  -0.793  1.00  0.00     0.049 A 
ATOM     50  C   UNL     1      -8.237  12.312   3.856  1.00  0.00     0.074 A 
ATOM     51  C   UNL     1     -10.231  16.290  -0.647  1.00  0.00     0.029 A 
ATOM     52  N   UNL     1      -9.290  14.618   0.476  1.00  0.00    -0.354 N 
ATOM     53  N   UNL     1      -8.618  13.074   2.860  1.00  0.00    -0.248 NA
ATOM     54  C   UNL     1      -8.701  12.770   5.174  1.00  0.00     0.031 C 
ATOM     55  C   UNL     1     -10.509  16.462   0.714  1.00  0.00     0.029 A 
ATOM     56  C   UNL     1      -9.938  15.410   1.410  1.00  0.00     0.049 A 
ATOM     57  H   UNL     1      -8.785  13.799   0.682  1.00  0.00     0.167 HD
ATOM     58  C   UNL     1      -9.380  14.087   3.426  1.00  0.00     0.074 A 
ATOM     59  C   UNL     1      -9.427  13.831   4.851  1.00  0.00     0.031 C 
ATOM     60  C   UNL     1      -9.980  15.141   2.823  1.00  0.00     0.037 A 
BRANCH  47  61
ATOM     61  C   UNL     1      -9.194  15.284  -3.294  1.00  0.00     0.057 A 
ATOM     62  C   UNL     1     -10.121  14.785  -4.218  1.00  0.00     0.134 A 
ATOM     63  C   UNL     1      -8.567  16.499  -3.598  1.00  0.00     0.134 A 
ATOM     64  F   UNL     1     -10.747  13.620  -3.990  1.00  0.00    -0.206 F 
ATOM     65  C   UNL     1     -10.405  15.460  -5.406  1.00  0.00     0.040 A 
ATOM     66  C   UNL     1      -8.858  17.195  -4.773  1.00  0.00     0.040 A 
ATOM     67  F   UNL     1      -7.674  17.035  -2.753  1.00  0.00    -0.206 F 
ATOM     68  C   UNL     1      -9.777  16.674  -5.682  1.00  0.00     0.006 A 
ENDBRANCH  47  61
BRANCH  48  69
ATOM     69  C   UNL     1      -7.099  10.338   5.088  1.00  0.00     0.057 A 
ATOM     70  C   UNL     1      -8.095   9.661   5.802  1.00  0.00     0.134 A 
ATOM     71  C   UNL     1      -5.806  10.337   5.621  1.00  0.00     0.134 A 
ATOM     72  F   UNL     1      -9.357   9.646   5.351  1.00  0.00    -0.206 F 
ATOM     73  C   UNL     1      -7.820   9.027   7.015  1.00  0.00     0.040 A 
ATOM     74  C   UNL     1      -5.512   9.688   6.821  1.00  0.00     0.040 A 
ATOM     75  F   UNL     1      -4.809  10.964   4.980  1.00  0.00    -0.206 F 
ATOM     76  C   UNL     1      -6.524   9.037   7.526  1.00  0.00     0.006 A 
ENDBRANCH  48  69
BRANCH  60  77
ATOM     77  C   UNL     1     -10.754  16.078   3.701  1.00  0.00     0.057 A 
ATOM     78  C   UNL     1     -10.112  16.979   4.559  1.00  0.00     0.134 A 
ATOM     79  C   UNL     1     -12.154  16.085   3.681  1.00  0.00     0.134 A 
ATOM     80  F   UNL     1      -8.773  17.011   4.634  1.00  0.00    -0.206 F 
ATOM     81  C   UNL     1     -10.837  17.837   5.388  1.00  0.00     0.040 A 
ATOM     82  C   UNL     1     -12.889  16.953   4.489  1.00  0.00     0.040 A 
ATOM     83  F   UNL     1     -12.829  15.251   2.876  1.00  0.00    -0.206 F 
ATOM     84  C   UNL     1     -12.230  17.828   5.352  1.00  0.00     0.006 A 
ENDBRANCH  60  77
ENDBRANCH  34  35
ENDBRANCH  26  29
ENDBRANCH  24  25
ENDBRANCH   1  24
TORSDOF 11
