REMARK SMILES O=C(NCCCNC(=O)c1ccc(-c2ccc(F)c(C(F)(F)F)c2)cc1[N+](=O)[O-])c1ccc(-c2c3nc(c(-c4c(F)cccc4F)c4ccc([nH]4)c(-c4c(F)cccc4F)c4nc(c(-c5c(F)cccc5F)c5ccc2[nH]5)C=C4)C=C3)cc1
REMARK SMILES IDX 5 1 4 2 3 3 1 4 2 5 30 7 31 8 83 9 32 10 82 11 33 12 34 13
REMARK SMILES IDX 35 14 76 15 36 16 81 17 75 18 77 19 37 20 80 21 74 22 73 23
REMARK SMILES IDX 38 25 64 26 47 27 63 28 48 29 51 30 62 31 78 32 49 33 50 34
REMARK SMILES IDX 61 36 79 37 52 38 39 39 40 40 45 41 41 42 42 43 44 44 46 45
REMARK SMILES IDX 43 46 65 47 66 48 71 49 67 50 68 51 70 52 72 53 69 54 53 55
REMARK SMILES IDX 54 56 59 57 55 58 56 59 58 60 60 61 57 62 6 63 7 64 8 65
REMARK SMILES IDX 9 67 10 68 11 69 26 70 12 71 25 72 13 73 27 74 28 75 29 76
REMARK SMILES IDX 14 77 15 78 24 79 16 80 19 81 17 82 18 83 20 84 21 85 22 86
REMARK SMILES IDX 23 87
REMARK H PARENT 3 6 77 24 51 35 7 66
REMARK Flexibility Score: inf
ROOT
ATOM      1  C   UNL     1       5.166   2.321   0.671  1.00  0.00     0.042 C 
ENDROOT
BRANCH   1   2
ATOM      2  C   UNL     1       4.723   0.891   0.939  1.00  0.00     0.118 C 
BRANCH   2   3
ATOM      3  N   UNL     1       3.282   0.720   0.830  1.00  0.00    -0.352 N 
ATOM      4  O   UNL     1       1.328   0.118  -0.117  1.00  0.00    -0.269 OA
ATOM      5  C   UNL     1       2.548  -0.009  -0.072  1.00  0.00     0.251 C 
ATOM      6  H   UNL     1       2.752   1.201   1.506  1.00  0.00     0.163 HD
BRANCH   5   7
ATOM      7  C   UNL     1       3.224  -0.940  -0.999  1.00  0.00     0.039 A 
ATOM      8  C   UNL     1       4.254  -1.770  -0.551  1.00  0.00     0.014 A 
ATOM      9  C   UNL     1       2.790  -1.015  -2.326  1.00  0.00     0.014 A 
ATOM     10  C   UNL     1       4.939  -2.574  -1.453  1.00  0.00     0.010 A 
ATOM     11  C   UNL     1       3.417  -1.894  -3.213  1.00  0.00     0.010 A 
ATOM     12  C   UNL     1       4.505  -2.668  -2.784  1.00  0.00    -0.014 A 
BRANCH  12  13
ATOM     13  C   UNL     1       5.129  -3.678  -3.671  1.00  0.00     0.031 A 
ATOM     14  C   UNL     1       5.922  -3.277  -4.879  1.00  0.00     0.074 A 
ATOM     15  C   UNL     1       4.965  -4.978  -3.358  1.00  0.00     0.049 A 
ATOM     16  N   UNL     1       6.516  -4.043  -5.758  1.00  0.00    -0.248 NA
ATOM     17  C   UNL     1       6.063  -1.837  -5.144  1.00  0.00     0.031 C 
ATOM     18  C   UNL     1       4.189  -5.478  -2.219  1.00  0.00     0.029 A 
ATOM     19  N   UNL     1       5.441  -6.114  -3.958  1.00  0.00    -0.354 N 
ATOM     20  C   UNL     1       7.078  -3.184  -6.693  1.00  0.00     0.074 A 
ATOM     21  C   UNL     1       6.749  -1.836  -6.280  1.00  0.00     0.031 C 
ATOM     22  C   UNL     1       4.271  -6.815  -2.182  1.00  0.00     0.029 A 
ATOM     23  C   UNL     1       5.048  -7.269  -3.328  1.00  0.00     0.049 A 
ATOM     24  H   UNL     1       6.010  -6.103  -4.761  1.00  0.00     0.167 HD
ATOM     25  C   UNL     1       7.802  -3.501  -7.792  1.00  0.00     0.037 A 
ATOM     26  C   UNL     1       5.261  -8.556  -3.652  1.00  0.00     0.037 A 
ATOM     27  C   UNL     1       8.154  -4.845  -8.172  1.00  0.00     0.049 A 
ATOM     28  C   UNL     1       6.054  -8.871  -4.883  1.00  0.00     0.074 A 
ATOM     29  C   UNL     1       8.966  -5.261  -9.212  1.00  0.00     0.029 A 
ATOM     30  N   UNL     1       7.705  -5.989  -7.532  1.00  0.00    -0.354 N 
ATOM     31  N   UNL     1       6.629  -8.046  -5.724  1.00  0.00    -0.248 NA
ATOM     32  C   UNL     1       6.213 -10.291  -5.223  1.00  0.00     0.031 C 
ATOM     33  C   UNL     1       8.975  -6.660  -9.228  1.00  0.00     0.029 A 
ATOM     34  C   UNL     1       8.191  -7.113  -8.179  1.00  0.00     0.049 A 
ATOM     35  H   UNL     1       7.126  -6.002  -6.736  1.00  0.00     0.167 HD
ATOM     36  C   UNL     1       7.211  -8.844  -6.696  1.00  0.00     0.074 A 
ATOM     37  C   UNL     1       6.946 -10.220  -6.325  1.00  0.00     0.031 C 
ATOM     38  C   UNL     1       7.895  -8.471  -7.804  1.00  0.00     0.037 A 
BRANCH  25  39
ATOM     39  C   UNL     1       8.261  -2.384  -8.679  1.00  0.00     0.057 A 
ATOM     40  C   UNL     1       9.353  -1.575  -8.345  1.00  0.00     0.134 A 
ATOM     41  C   UNL     1       7.653  -2.174  -9.923  1.00  0.00     0.134 A 
ATOM     42  F   UNL     1       9.973  -1.722  -7.165  1.00  0.00    -0.206 F 
ATOM     43  C   UNL     1       9.825  -0.593  -9.219  1.00  0.00     0.040 A 
ATOM     44  C   UNL     1       8.124  -1.205 -10.811  1.00  0.00     0.040 A 
ATOM     45  F   UNL     1       6.604  -2.919 -10.303  1.00  0.00    -0.206 F 
ATOM     46  C   UNL     1       9.215  -0.412 -10.460  1.00  0.00     0.006 A 
ENDBRANCH  25  39
BRANCH  26  47
ATOM     47  C   UNL     1       4.675  -9.631  -2.817  1.00  0.00     0.057 A 
ATOM     48  C   UNL     1       5.477 -10.441  -2.008  1.00  0.00     0.134 A 
ATOM     49  C   UNL     1       3.293  -9.857  -2.795  1.00  0.00     0.134 A 
ATOM     50  F   UNL     1       6.809 -10.281  -2.001  1.00  0.00    -0.206 F 
ATOM     51  C   UNL     1       4.926 -11.444  -1.210  1.00  0.00     0.040 A 
ATOM     52  C   UNL     1       2.727 -10.840  -1.984  1.00  0.00     0.040 A 
ATOM     53  F   UNL     1       2.472  -9.107  -3.545  1.00  0.00    -0.206 F 
ATOM     54  C   UNL     1       3.546 -11.641  -1.191  1.00  0.00     0.006 A 
ENDBRANCH  26  47
BRANCH  38  55
ATOM     55  C   UNL     1       8.383  -9.570  -8.694  1.00  0.00     0.057 A 
ATOM     56  C   UNL     1       7.509 -10.249  -9.552  1.00  0.00     0.134 A 
ATOM     57  C   UNL     1       9.732  -9.938  -8.710  1.00  0.00     0.134 A 
ATOM     58  F   UNL     1       6.201  -9.951  -9.566  1.00  0.00    -0.206 F 
ATOM     59  C   UNL     1       7.960 -11.271 -10.386  1.00  0.00     0.040 A 
ATOM     60  C   UNL     1      10.199 -10.946  -9.555  1.00  0.00     0.040 A 
ATOM     61  F   UNL     1      10.617  -9.321  -7.913  1.00  0.00    -0.206 F 
ATOM     62  C   UNL     1       9.310 -11.618 -10.393  1.00  0.00     0.006 A 
ENDBRANCH  38  55
ENDBRANCH  12  13
ENDBRANCH   5   7
ENDBRANCH   2   3
ENDBRANCH   1   2
BRANCH   1  63
ATOM     63  C   UNL     1       4.631   3.326   1.676  1.00  0.00     0.118 C 
BRANCH  63  64
ATOM     64  N   UNL     1       5.098   3.061   3.031  1.00  0.00    -0.352 N 
ATOM     65  C   UNL     1       5.805   3.865   3.883  1.00  0.00     0.258 C 
ATOM     66  H   UNL     1       4.872   2.171   3.386  1.00  0.00     0.163 HD
ATOM     67  O   UNL     1       6.267   3.429   4.932  1.00  0.00    -0.269 OA
BRANCH  65  68
ATOM     68  C   UNL     1       6.061   5.261   3.504  1.00  0.00     0.117 A 
ATOM     69  C   UNL     1       7.390   5.658   3.341  1.00  0.00     0.022 A 
ATOM     70  C   UNL     1       5.041   6.176   3.251  1.00  0.00     0.282 A 
ATOM     71  C   UNL     1       7.680   6.941   2.863  1.00  0.00     0.010 A 
ATOM     72  C   UNL     1       5.324   7.450   2.747  1.00  0.00     0.095 A 
ATOM     73  C   UNL     1       6.655   7.849   2.536  1.00  0.00    -0.012 A 
BRANCH  70  74
ATOM     74  N   UNL     1       3.653   5.822   3.472  1.00  0.00     0.063 N 
ATOM     75  O   UNL     1       2.875   6.009   2.526  1.00  0.00    -0.258 OA
ATOM     76  O   UNL     1       3.342   5.378   4.582  1.00  0.00    -0.258 OA
ENDBRANCH  70  74
BRANCH  73  77
ATOM     77  C   UNL     1       6.954   9.181   1.984  1.00  0.00    -0.017 A 
ATOM     78  C   UNL     1       7.875   9.349   0.936  1.00  0.00     0.012 A 
ATOM     79  C   UNL     1       6.294  10.325   2.471  1.00  0.00     0.025 A 
ATOM     80  C   UNL     1       8.123  10.612   0.395  1.00  0.00     0.040 A 
ATOM     81  C   UNL     1       6.527  11.598   1.925  1.00  0.00     0.092 A 
ATOM     82  C   UNL     1       7.447  11.721   0.890  1.00  0.00     0.135 A 
ATOM     83  F   UNL     1       7.691  12.921   0.350  1.00  0.00    -0.206 F 
BRANCH  81  84
ATOM     84  C   UNL     1       5.808  12.813   2.424  1.00  0.00     0.419 C 
ATOM     85  F   UNL     1       6.644  13.744   2.958  1.00  0.00    -0.166 F 
ATOM     86  F   UNL     1       5.095  13.445   1.453  1.00  0.00    -0.166 F 
ATOM     87  F   UNL     1       4.906  12.526   3.408  1.00  0.00    -0.166 F 
ENDBRANCH  81  84
ENDBRANCH  73  77
ENDBRANCH  65  68
ENDBRANCH  63  64
ENDBRANCH   1  63
TORSDOF 13
