REMARK SMILES Cc1cc(C)c(C(=O)NCCCNC(=O)c2ccc(-c3c4nc(c(-c5c(F)cccc5F)c5ccc([nH]5)c(-c5c(F)cccc5F)c5nc(c(-c6c(F)cccc6F)c6ccc3[nH]6)C=C5)C=C4)cc2)c(NC[C@@H]2C[N@@H+](C)CCO2)n1
REMARK SMILES IDX 10 1 9 2 7 3 8 4 6 6 1 7 2 8 3 9 80 10 4 11 70 12 5 13 71 14
REMARK SMILES IDX 72 16 73 17 74 18 79 19 75 20 78 21 76 22 77 23 11 25 12 26
REMARK SMILES IDX 13 27 14 28 15 30 16 31 17 32 69 33 18 34 68 35 19 36 20 37
REMARK SMILES IDX 21 38 62 39 22 40 67 41 61 42 63 43 23 44 66 45 60 46 59 47
REMARK SMILES IDX 24 49 50 50 33 51 49 52 34 53 37 54 48 55 64 56 35 57 36 58
REMARK SMILES IDX 47 60 65 61 38 62 25 63 26 64 31 65 27 66 28 67 30 68 32 69
REMARK SMILES IDX 29 70 51 71 52 72 57 73 53 74 54 75 56 76 58 77 55 78 39 79
REMARK SMILES IDX 40 80 45 81 41 82 42 83 44 84 46 85 43 86
REMARK H PARENT 9 5 71 15 75 24 13 29 63 48 37 59
REMARK Flexibility Score: inf
ROOT
ATOM      1  C   UNL     1       3.788   0.186   0.676  1.00  0.00     0.118 C 
ENDROOT
BRANCH   1   2
ATOM      2  N   UNL     1       3.437  -1.083   0.072  1.00  0.00    -0.352 N 
ATOM      3  C   UNL     1       2.263  -1.532  -0.488  1.00  0.00     0.255 C 
ATOM      4  O   UNL     1       2.296  -2.636  -1.036  1.00  0.00    -0.269 OA
ATOM      5  H   UNL     1       4.169  -1.742   0.060  1.00  0.00     0.163 HD
BRANCH   3   6
ATOM      6  C   UNL     1       0.974  -0.784  -0.409  1.00  0.00     0.085 A 
ATOM      7  C   UNL     1      -2.821   1.060   0.124  1.00  0.00     0.067 C 
ATOM      8  C   UNL     1      -1.487   0.418  -0.110  1.00  0.00     0.040 A 
ATOM      9  C   UNL     1      -0.411   1.184  -0.531  1.00  0.00     0.028 A 
ATOM     10  N   UNL     1      -1.391  -0.912   0.093  1.00  0.00    -0.236 NA
ATOM     11  C   UNL     1       0.830   0.574  -0.748  1.00  0.00    -0.033 A 
ATOM     12  C   UNL     1      -0.191  -1.520  -0.075  1.00  0.00     0.139 A 
ATOM     13  C   UNL     1       1.894   1.416  -1.389  1.00  0.00     0.045 C 
BRANCH  12  14
ATOM     14  N   UNL     1      -0.133  -2.890   0.141  1.00  0.00    -0.367 N 
ATOM     15  H   UNL     1       0.750  -3.316   0.227  1.00  0.00     0.162 HD
BRANCH  14  16
ATOM     16  C   UNL     1      -1.325  -3.728   0.246  1.00  0.00     0.152 C 
BRANCH  16  17
ATOM     17  C   UNL     1      -1.485  -4.607  -1.023  1.00  0.00     0.192 C 
ATOM     18  C   UNL     1      -2.486  -5.769  -0.819  1.00  0.00     0.296 C 
ATOM     19  O   UNL     1      -0.220  -5.131  -1.498  1.00  0.00    -0.365 OA
ATOM     20  N   UNL     1      -1.963  -6.794   0.111  1.00  0.00    -0.333 N 
ATOM     21  C   UNL     1       0.321  -6.121  -0.616  1.00  0.00     0.222 C 
ATOM     22  C   UNL     1      -2.899  -7.904   0.263  1.00  0.00     0.332 C 
ATOM     23  C   UNL     1      -0.662  -7.278  -0.395  1.00  0.00     0.290 C 
ATOM     24  H   UNL     1      -1.842  -6.374   1.033  1.00  0.00     0.348 HD
ENDBRANCH  16  17
ENDBRANCH  14  16
ENDBRANCH  12  14
ENDBRANCH   3   6
ENDBRANCH   1   2
BRANCH   1  25
ATOM     25  C   UNL     1       4.836   0.106   1.776  1.00  0.00     0.042 C 
BRANCH  25  26
ATOM     26  C   UNL     1       6.137  -0.590   1.397  1.00  0.00     0.118 C 
BRANCH  26  27
ATOM     27  N   UNL     1       6.881   0.055   0.320  1.00  0.00    -0.352 N 
ATOM     28  C   UNL     1       8.023   0.823   0.310  1.00  0.00     0.251 C 
ATOM     29  H   UNL     1       6.490  -0.086  -0.572  1.00  0.00     0.163 HD
ATOM     30  O   UNL     1       8.398   1.318  -0.752  1.00  0.00    -0.269 OA
BRANCH  28  31
ATOM     31  C   UNL     1       8.783   1.113   1.549  1.00  0.00     0.039 A 
ATOM     32  C   UNL     1       9.357   2.381   1.707  1.00  0.00     0.014 A 
ATOM     33  C   UNL     1       8.958   0.160   2.548  1.00  0.00     0.014 A 
ATOM     34  C   UNL     1      10.006   2.714   2.901  1.00  0.00     0.010 A 
ATOM     35  C   UNL     1       9.486   0.530   3.781  1.00  0.00     0.010 A 
ATOM     36  C   UNL     1      10.025   1.810   3.974  1.00  0.00    -0.014 A 
BRANCH  36  37
ATOM     37  C   UNL     1      10.612   2.164   5.295  1.00  0.00     0.031 A 
ATOM     38  C   UNL     1      11.723   1.328   5.879  1.00  0.00     0.074 A 
ATOM     39  C   UNL     1      10.091   3.179   6.015  1.00  0.00     0.049 A 
ATOM     40  N   UNL     1      12.278   1.396   7.063  1.00  0.00    -0.248 NA
ATOM     41  C   UNL     1      12.250   0.243   5.035  1.00  0.00     0.031 C 
ATOM     42  C   UNL     1       8.972   4.028   5.601  1.00  0.00     0.029 A 
ATOM     43  N   UNL     1      10.427   3.660   7.256  1.00  0.00    -0.354 N 
ATOM     44  C   UNL     1      13.185   0.344   7.116  1.00  0.00     0.074 A 
ATOM     45  C   UNL     1      13.064  -0.382   5.872  1.00  0.00     0.031 C 
ATOM     46  C   UNL     1       8.737   4.945   6.553  1.00  0.00     0.029 A 
ATOM     47  C   UNL     1       9.658   4.724   7.663  1.00  0.00     0.049 A 
ATOM     48  H   UNL     1      11.151   3.279   7.803  1.00  0.00     0.167 HD
ATOM     49  C   UNL     1      14.064   0.027   8.097  1.00  0.00     0.037 A 
ATOM     50  C   UNL     1       9.688   5.440   8.803  1.00  0.00     0.037 A 
ATOM     51  C   UNL     1      14.226   0.783   9.310  1.00  0.00     0.049 A 
ATOM     52  C   UNL     1      10.699   5.095   9.860  1.00  0.00     0.074 A 
ATOM     53  C   UNL     1      15.140   0.590  10.332  1.00  0.00     0.029 A 
ATOM     54  N   UNL     1      13.461   1.885   9.660  1.00  0.00    -0.354 N 
ATOM     55  N   UNL     1      11.594   4.136   9.868  1.00  0.00    -0.248 NA
ATOM     56  C   UNL     1      10.711   5.937  11.065  1.00  0.00     0.031 C 
ATOM     57  C   UNL     1      14.907   1.557  11.315  1.00  0.00     0.029 A 
ATOM     58  C   UNL     1      13.875   2.377  10.886  1.00  0.00     0.049 A 
ATOM     59  H   UNL     1      12.732   2.262   9.117  1.00  0.00     0.167 HD
ATOM     60  C   UNL     1      12.292   4.277  11.060  1.00  0.00     0.074 A 
ATOM     61  C   UNL     1      11.727   5.422  11.743  1.00  0.00     0.031 C 
ATOM     62  C   UNL     1      13.310   3.526  11.546  1.00  0.00     0.037 A 
BRANCH  49  63
ATOM     63  C   UNL     1      14.930  -1.182   7.886  1.00  0.00     0.057 A 
ATOM     64  C   UNL     1      15.949  -1.202   6.923  1.00  0.00     0.134 A 
ATOM     65  C   UNL     1      14.758  -2.332   8.666  1.00  0.00     0.134 A 
ATOM     66  F   UNL     1      16.159  -0.139   6.133  1.00  0.00    -0.206 F 
ATOM     67  C   UNL     1      16.741  -2.334   6.721  1.00  0.00     0.040 A 
ATOM     68  C   UNL     1      15.564  -3.459   8.494  1.00  0.00     0.040 A 
ATOM     69  F   UNL     1      13.806  -2.379   9.611  1.00  0.00    -0.206 F 
ATOM     70  C   UNL     1      16.553  -3.464   7.513  1.00  0.00     0.006 A 
ENDBRANCH  49  63
BRANCH  50  71
ATOM     71  C   UNL     1       8.757   6.581   8.991  1.00  0.00     0.057 A 
ATOM     72  C   UNL     1       9.225   7.901   8.968  1.00  0.00     0.134 A 
ATOM     73  C   UNL     1       7.388   6.387   9.204  1.00  0.00     0.134 A 
ATOM     74  F   UNL     1      10.530   8.150   8.787  1.00  0.00    -0.206 F 
ATOM     75  C   UNL     1       8.370   8.985   9.171  1.00  0.00     0.040 A 
ATOM     76  C   UNL     1       6.516   7.463   9.384  1.00  0.00     0.040 A 
ATOM     77  F   UNL     1       6.875   5.148   9.227  1.00  0.00    -0.206 F 
ATOM     78  C   UNL     1       7.009   8.766   9.375  1.00  0.00     0.006 A 
ENDBRANCH  50  71
BRANCH  62  79
ATOM     79  C   UNL     1      13.904   3.943  12.858  1.00  0.00     0.057 A 
ATOM     80  C   UNL     1      13.228   3.756  14.070  1.00  0.00     0.134 A 
ATOM     81  C   UNL     1      15.185   4.508  12.911  1.00  0.00     0.134 A 
ATOM     82  F   UNL     1      11.993   3.232  14.085  1.00  0.00    -0.206 F 
ATOM     83  C   UNL     1      13.796   4.137  15.286  1.00  0.00     0.040 A 
ATOM     84  C   UNL     1      15.773   4.869  14.123  1.00  0.00     0.040 A 
ATOM     85  F   UNL     1      15.889   4.706  11.786  1.00  0.00    -0.206 F 
ATOM     86  C   UNL     1      15.075   4.689  15.315  1.00  0.00     0.006 A 
ENDBRANCH  62  79
ENDBRANCH  36  37
ENDBRANCH  28  31
ENDBRANCH  26  27
ENDBRANCH  25  26
ENDBRANCH   1  25
TORSDOF 13
