REMARK SMILES [N-]=[N+]=NC[C@H](NC=O)C(=O)NCCCNC(=O)c1ccc(-c2c3nc(c(-c4c(F)cccc4F)c4ccc([nH]4)c(-c4c(F)cccc4F)c4nc(c(-c5c(F)cccc5F)c5ccc2[nH]5)C=C4)C=C3)cc1
REMARK SMILES IDX 13 1 12 2 11 3 9 4 10 5 5 7 4 8 3 9 1 10 2 11 6 12 7 13 8 15
REMARK SMILES IDX 14 16 15 17 16 18 17 20 18 21 19 22 71 23 20 24 70 25 21 26
REMARK SMILES IDX 22 27 23 28 64 29 24 30 69 31 63 32 65 33 25 34 68 35 62 36
REMARK SMILES IDX 61 37 26 39 52 40 35 41 51 42 36 43 39 44 50 45 66 46 37 47
REMARK SMILES IDX 38 48 49 50 67 51 40 52 27 53 28 54 33 55 29 56 30 57 32 58
REMARK SMILES IDX 34 59 31 60 53 61 54 62 59 63 55 64 56 65 58 66 60 67 57 68
REMARK SMILES IDX 41 69 42 70 47 71 43 72 44 73 46 74 48 75 45 76
REMARK H PARENT 11 6 6 14 15 19 65 38 39 49
REMARK Flexibility Score: inf
ROOT
ATOM      1  C   UNL     1       4.179  -0.943  -4.674  1.00  0.00     0.042 C 
ENDROOT
BRANCH   1   2
ATOM      2  C   UNL     1       3.455  -2.071  -3.954  1.00  0.00     0.117 C 
BRANCH   2   3
ATOM      3  N   UNL     1       4.376  -2.939  -3.247  1.00  0.00    -0.354 N 
ATOM      4  C   UNL     1       4.670  -3.040  -1.922  1.00  0.00     0.242 C 
ATOM      5  O   UNL     1       5.589  -3.802  -1.607  1.00  0.00    -0.273 OA
ATOM      6  H   UNL     1       4.874  -3.563  -3.824  1.00  0.00     0.163 HD
BRANCH   4   7
ATOM      7  C   UNL     1       3.932  -2.225  -0.844  1.00  0.00     0.176 C 
BRANCH   7   8
ATOM      8  C   UNL     1       2.415  -2.500  -0.818  1.00  0.00     0.125 C 
BRANCH   8   9
ATOM      9  N   UNL     1       2.066  -3.426   0.280  1.00  0.00    -0.091 NA
ATOM     10  N   UNL     1       2.483  -5.733  -0.155  1.00  0.00    -0.003 NA
ATOM     11  N   UNL     1       2.280  -4.636   0.061  1.00  0.00     0.001 N 
ENDBRANCH   8   9
ENDBRANCH   7   8
BRANCH   7  12
ATOM     12  N   UNL     1       4.370  -0.828  -0.856  1.00  0.00    -0.347 N 
ATOM     13  C   UNL     1       3.808   0.238  -1.478  1.00  0.00     0.337 C 
ATOM     14  H   UNL     1       5.186  -0.635  -0.340  1.00  0.00     0.164 HD
ATOM     15  O   UNL     1       4.364   1.324  -1.554  1.00  0.00    -0.279 OA
ENDBRANCH   7  12
ENDBRANCH   4   7
ENDBRANCH   2   3
ENDBRANCH   1   2
BRANCH   1  16
ATOM     16  C   UNL     1       4.957  -1.412  -5.894  1.00  0.00     0.118 C 
BRANCH  16  17
ATOM     17  N   UNL     1       4.083  -1.918  -6.946  1.00  0.00    -0.352 N 
ATOM     18  C   UNL     1       3.892  -1.457  -8.225  1.00  0.00     0.251 C 
ATOM     19  H   UNL     1       3.551  -2.710  -6.703  1.00  0.00     0.163 HD
ATOM     20  O   UNL     1       2.951  -1.876  -8.891  1.00  0.00    -0.269 OA
BRANCH  18  21
ATOM     21  C   UNL     1       4.812  -0.449  -8.791  1.00  0.00     0.039 A 
ATOM     22  C   UNL     1       4.292   0.595  -9.560  1.00  0.00     0.014 A 
ATOM     23  C   UNL     1       6.188  -0.541  -8.571  1.00  0.00     0.014 A 
ATOM     24  C   UNL     1       5.149   1.581 -10.053  1.00  0.00     0.010 A 
ATOM     25  C   UNL     1       7.023   0.492  -8.976  1.00  0.00     0.010 A 
ATOM     26  C   UNL     1       6.516   1.557  -9.733  1.00  0.00    -0.014 A 
BRANCH  26  27
ATOM     27  C   UNL     1       7.448   2.612 -10.205  1.00  0.00     0.031 A 
ATOM     28  C   UNL     1       8.596   2.241 -11.105  1.00  0.00     0.074 A 
ATOM     29  C   UNL     1       7.303   3.880  -9.775  1.00  0.00     0.049 A 
ATOM     30  N   UNL     1       9.585   2.982 -11.534  1.00  0.00    -0.248 NA
ATOM     31  C   UNL     1       8.654   0.842 -11.562  1.00  0.00     0.031 C 
ATOM     32  C   UNL     1       6.249   4.359  -8.878  1.00  0.00     0.029 A 
ATOM     33  N   UNL     1       8.056   5.000 -10.027  1.00  0.00    -0.354 N 
ATOM     34  C   UNL     1      10.380   2.141 -12.302  1.00  0.00     0.074 A 
ATOM     35  C   UNL     1       9.802   0.819 -12.223  1.00  0.00     0.031 C 
ATOM     36  C   UNL     1       6.408   5.677  -8.675  1.00  0.00     0.029 A 
ATOM     37  C   UNL     1       7.602   6.127  -9.383  1.00  0.00     0.049 A 
ATOM     38  H   UNL     1       8.847   4.996 -10.613  1.00  0.00     0.167 HD
ATOM     39  C   UNL     1      11.475   2.449 -13.036  1.00  0.00     0.037 A 
ATOM     40  C   UNL     1       8.105   7.376  -9.357  1.00  0.00     0.037 A 
ATOM     41  C   UNL     1      12.041   3.768 -13.123  1.00  0.00     0.049 A 
ATOM     42  C   UNL     1       9.360   7.675 -10.135  1.00  0.00     0.074 A 
ATOM     43  C   UNL     1      13.140   4.188 -13.852  1.00  0.00     0.029 A 
ATOM     44  N   UNL     1      11.549   4.882 -12.461  1.00  0.00    -0.354 N 
ATOM     45  N   UNL     1      10.075   6.880 -10.893  1.00  0.00    -0.248 NA
ATOM     46  C   UNL     1       9.876   9.049 -10.055  1.00  0.00     0.031 C 
ATOM     47  C   UNL     1      13.340   5.547 -13.595  1.00  0.00     0.029 A 
ATOM     48  C   UNL     1      12.329   5.987 -12.755  1.00  0.00     0.049 A 
ATOM     49  H   UNL     1      10.762   4.887 -11.869  1.00  0.00     0.167 HD
ATOM     50  C   UNL     1      11.092   7.668 -11.419  1.00  0.00     0.074 A 
ATOM     51  C   UNL     1      10.896   9.004 -10.899  1.00  0.00     0.031 C 
ATOM     52  C   UNL     1      12.097   7.318 -12.257  1.00  0.00     0.037 A 
BRANCH  39  53
ATOM     53  C   UNL     1      12.121   1.342 -13.819  1.00  0.00     0.057 A 
ATOM     54  C   UNL     1      11.492   0.766 -14.931  1.00  0.00     0.134 A 
ATOM     55  C   UNL     1      13.401   0.879 -13.491  1.00  0.00     0.134 A 
ATOM     56  F   UNL     1      10.258   1.153 -15.292  1.00  0.00    -0.206 F 
ATOM     57  C   UNL     1      12.102  -0.245 -15.675  1.00  0.00     0.040 A 
ATOM     58  C   UNL     1      14.035  -0.109 -14.246  1.00  0.00     0.040 A 
ATOM     59  F   UNL     1      14.063   1.390 -12.443  1.00  0.00    -0.206 F 
ATOM     60  C   UNL     1      13.383  -0.678 -15.338  1.00  0.00     0.006 A 
ENDBRANCH  39  53
BRANCH  40  61
ATOM     61  C   UNL     1       7.431   8.450  -8.580  1.00  0.00     0.057 A 
ATOM     62  C   UNL     1       6.862   9.556  -9.223  1.00  0.00     0.134 A 
ATOM     63  C   UNL     1       7.389   8.429  -7.181  1.00  0.00     0.134 A 
ATOM     64  F   UNL     1       6.884   9.644 -10.561  1.00  0.00    -0.206 F 
ATOM     65  C   UNL     1       6.317  10.622  -8.504  1.00  0.00     0.040 A 
ATOM     66  C   UNL     1       6.816   9.472  -6.450  1.00  0.00     0.040 A 
ATOM     67  F   UNL     1       7.907   7.395  -6.501  1.00  0.00    -0.206 F 
ATOM     68  C   UNL     1       6.292  10.580  -7.112  1.00  0.00     0.006 A 
ENDBRANCH  40  61
BRANCH  52  69
ATOM     69  C   UNL     1      13.017   8.407 -12.728  1.00  0.00     0.057 A 
ATOM     70  C   UNL     1      13.949   9.018 -11.881  1.00  0.00     0.134 A 
ATOM     71  C   UNL     1      13.000   8.813 -14.070  1.00  0.00     0.134 A 
ATOM     72  F   UNL     1      14.010   8.684 -10.582  1.00  0.00    -0.206 F 
ATOM     73  C   UNL     1      14.814  10.011 -12.344  1.00  0.00     0.040 A 
ATOM     74  C   UNL     1      13.882   9.780 -14.552  1.00  0.00     0.040 A 
ATOM     75  F   UNL     1      12.139   8.261 -14.938  1.00  0.00    -0.206 F 
ATOM     76  C   UNL     1      14.788  10.387 -13.686  1.00  0.00     0.006 A 
ENDBRANCH  52  69
ENDBRANCH  26  27
ENDBRANCH  18  21
ENDBRANCH  16  17
ENDBRANCH   1  16
TORSDOF 13
