REMARK SMILES Cc1c(Br)c(C(=O)NCCCNC(=O)c2ccc(-c3c4nc(c(-c5c(F)cccc5F)c5ccc([nH]5)c(-c5c(F)cccc5F)c5nc(c(-c6c(F)cccc6F)c6ccc3[nH]6)C=C5)C=C4)cc2)nn1CC(F)(F)F
REMARK SMILES IDX 10 1 9 2 8 3 6 4 7 5 5 7 1 8 2 9 3 10 70 11 4 12 69 13 71 14
REMARK SMILES IDX 72 15 73 16 74 17 75 18 11 19 12 20 13 21 14 23 15 24 16 25
REMARK SMILES IDX 68 26 17 27 67 28 18 29 19 30 20 31 61 32 21 33 66 34 60 35
REMARK SMILES IDX 62 36 22 37 65 38 59 39 58 40 23 42 49 43 32 44 48 45 33 46
REMARK SMILES IDX 36 47 47 48 63 49 34 50 35 51 46 53 64 54 37 55 24 56 25 57
REMARK SMILES IDX 30 58 26 59 27 60 29 61 31 62 28 63 50 64 51 65 56 66 52 67
REMARK SMILES IDX 53 68 55 69 57 70 54 71 38 72 39 73 44 74 40 75 41 76 43 77
REMARK SMILES IDX 45 78 42 79
REMARK H PARENT 8 6 12 22 62 41 36 52
REMARK Flexibility Score: inf
ROOT
ATOM      1  C   UNL     1      -0.565   5.943   3.380  1.00  0.00     0.042 C 
ENDROOT
BRANCH   1   2
ATOM      2  C   UNL     1       0.319   4.951   4.144  1.00  0.00     0.118 C 
BRANCH   2   3
ATOM      3  N   UNL     1      -0.443   3.870   4.759  1.00  0.00    -0.351 N 
ATOM      4  C   UNL     1      -0.689   2.582   4.319  1.00  0.00     0.272 C 
ATOM      5  O   UNL     1      -1.301   1.844   5.093  1.00  0.00    -0.267 OA
ATOM      6  H   UNL     1      -0.847   4.093   5.628  1.00  0.00     0.163 HD
BRANCH   4   7
ATOM      7  C   UNL     1      -0.227   2.133   2.991  1.00  0.00     0.164 A 
ATOM      8  C   UNL     1       0.720  -0.125   0.190  1.00  0.00     0.067 C 
ATOM      9  C   UNL     1       0.370   0.911   1.194  1.00  0.00     0.051 A 
ATOM     10  C   UNL     1      -0.178   0.818   2.458  1.00  0.00     0.072 A 
ATOM     11  N   UNL     1       0.583   2.252   1.010  1.00  0.00    -0.259 N 
ATOM     12  Br  UNL     1      -0.703  -0.761   3.329  1.00  0.00    -0.046 Br
ATOM     13  N   UNL     1       0.233   2.994   2.065  1.00  0.00    -0.166 NA
BRANCH  11  14
ATOM     14  C   UNL     1       1.224   2.929  -0.095  1.00  0.00     0.259 C 
BRANCH  14  15
ATOM     15  C   UNL     1       0.351   4.006  -0.686  1.00  0.00     0.408 C 
ATOM     16  F   UNL     1       0.129   5.042   0.150  1.00  0.00    -0.169 F 
ATOM     17  F   UNL     1       0.958   4.523  -1.786  1.00  0.00    -0.169 F 
ATOM     18  F   UNL     1      -0.844   3.523  -1.093  1.00  0.00    -0.169 F 
ENDBRANCH  14  15
ENDBRANCH  11  14
ENDBRANCH   4   7
ENDBRANCH   2   3
ENDBRANCH   1   2
BRANCH   1  19
ATOM     19  C   UNL     1      -1.184   6.972   4.316  1.00  0.00     0.118 C 
BRANCH  19  20
ATOM     20  N   UNL     1      -0.186   7.891   4.879  1.00  0.00    -0.352 N 
ATOM     21  C   UNL     1      -0.352   8.912   5.799  1.00  0.00     0.251 C 
ATOM     22  H   UNL     1       0.735   7.763   4.555  1.00  0.00     0.163 HD
ATOM     23  O   UNL     1       0.499   9.770   5.947  1.00  0.00    -0.269 OA
BRANCH  21  24
ATOM     24  C   UNL     1      -1.592   8.948   6.596  1.00  0.00     0.039 A 
ATOM     25  C   UNL     1      -2.255  10.151   6.856  1.00  0.00     0.014 A 
ATOM     26  C   UNL     1      -2.109   7.740   7.048  1.00  0.00     0.014 A 
ATOM     27  C   UNL     1      -3.493  10.111   7.492  1.00  0.00     0.010 A 
ATOM     28  C   UNL     1      -3.399   7.687   7.499  1.00  0.00     0.010 A 
ATOM     29  C   UNL     1      -4.072   8.868   7.788  1.00  0.00    -0.014 A 
BRANCH  29  30
ATOM     30  C   UNL     1      -5.430   8.771   8.313  1.00  0.00     0.031 A 
ATOM     31  C   UNL     1      -6.473   9.443   7.489  1.00  0.00     0.074 A 
ATOM     32  C   UNL     1      -5.755   7.928   9.319  1.00  0.00     0.049 A 
ATOM     33  N   UNL     1      -7.232  10.433   7.825  1.00  0.00    -0.248 NA
ATOM     34  C   UNL     1      -6.611   9.043   6.077  1.00  0.00     0.031 C 
ATOM     35  C   UNL     1      -4.894   6.955  10.004  1.00  0.00     0.029 A 
ATOM     36  N   UNL     1      -6.976   7.667   9.858  1.00  0.00    -0.354 N 
ATOM     37  C   UNL     1      -8.088  10.647   6.747  1.00  0.00     0.074 A 
ATOM     38  C   UNL     1      -7.544   9.895   5.647  1.00  0.00     0.031 C 
ATOM     39  C   UNL     1      -5.658   6.055  10.659  1.00  0.00     0.029 A 
ATOM     40  C   UNL     1      -7.039   6.490  10.596  1.00  0.00     0.049 A 
ATOM     41  H   UNL     1      -7.751   8.262   9.737  1.00  0.00     0.167 HD
ATOM     42  C   UNL     1      -9.307  11.228   6.922  1.00  0.00     0.037 A 
ATOM     43  C   UNL     1      -8.154   5.899  11.089  1.00  0.00     0.037 A 
ATOM     44  C   UNL     1      -9.383  11.898   8.198  1.00  0.00     0.049 A 
ATOM     45  C   UNL     1      -9.223   6.926  11.116  1.00  0.00     0.074 A 
ATOM     46  C   UNL     1      -8.666  12.907   8.813  1.00  0.00     0.029 A 
ATOM     47  N   UNL     1     -10.081  11.277   9.204  1.00  0.00    -0.354 N 
ATOM     48  N   UNL     1      -9.216   7.963  11.905  1.00  0.00    -0.248 NA
ATOM     49  C   UNL     1     -10.075   7.040   9.943  1.00  0.00     0.031 C 
ATOM     50  C   UNL     1      -8.578  12.512  10.181  1.00  0.00     0.029 A 
ATOM     51  C   UNL     1      -9.306  11.332  10.334  1.00  0.00     0.049 A 
ATOM     52  H   UNL     1     -10.973  10.867   9.129  1.00  0.00     0.167 HD
ATOM     53  C   UNL     1      -9.683   9.005  11.117  1.00  0.00     0.074 A 
ATOM     54  C   UNL     1     -10.291   8.358   9.956  1.00  0.00     0.031 C 
ATOM     55  C   UNL     1      -9.274  10.290  11.334  1.00  0.00     0.037 A 
BRANCH  42  56
ATOM     56  C   UNL     1     -10.550  10.869   6.139  1.00  0.00     0.057 A 
ATOM     57  C   UNL     1     -11.728  11.613   6.346  1.00  0.00     0.134 A 
ATOM     58  C   UNL     1     -10.729   9.660   5.436  1.00  0.00     0.134 A 
ATOM     59  F   UNL     1     -11.697  12.781   7.006  1.00  0.00    -0.206 F 
ATOM     60  C   UNL     1     -12.992  11.144   5.968  1.00  0.00     0.040 A 
ATOM     61  C   UNL     1     -11.980   9.208   5.007  1.00  0.00     0.040 A 
ATOM     62  F   UNL     1      -9.729   8.800   5.214  1.00  0.00    -0.206 F 
ATOM     63  C   UNL     1     -13.123   9.931   5.305  1.00  0.00     0.006 A 
ENDBRANCH  42  56
BRANCH  43  64
ATOM     64  C   UNL     1      -8.441   4.456  11.255  1.00  0.00     0.057 A 
ATOM     65  C   UNL     1      -9.521   4.022  12.037  1.00  0.00     0.134 A 
ATOM     66  C   UNL     1      -7.851   3.485  10.426  1.00  0.00     0.134 A 
ATOM     67  F   UNL     1     -10.171   4.882  12.835  1.00  0.00    -0.206 F 
ATOM     68  C   UNL     1     -10.010   2.711  11.971  1.00  0.00     0.040 A 
ATOM     69  C   UNL     1      -8.324   2.171  10.357  1.00  0.00     0.040 A 
ATOM     70  F   UNL     1      -6.854   3.802   9.587  1.00  0.00    -0.206 F 
ATOM     71  C   UNL     1      -9.420   1.784  11.117  1.00  0.00     0.006 A 
ENDBRANCH  43  64
BRANCH  55  72
ATOM     72  C   UNL     1      -8.527  10.586  12.607  1.00  0.00     0.057 A 
ATOM     73  C   UNL     1      -7.295  10.013  12.960  1.00  0.00     0.134 A 
ATOM     74  C   UNL     1      -9.016  11.589  13.451  1.00  0.00     0.134 A 
ATOM     75  F   UNL     1      -6.688   9.123  12.167  1.00  0.00    -0.206 F 
ATOM     76  C   UNL     1      -6.614  10.379  14.126  1.00  0.00     0.040 A 
ATOM     77  C   UNL     1      -8.328  11.990  14.599  1.00  0.00     0.040 A 
ATOM     78  F   UNL     1     -10.158  12.227  13.152  1.00  0.00    -0.206 F 
ATOM     79  C   UNL     1      -7.130  11.374  14.948  1.00  0.00     0.006 A 
ENDBRANCH  55  72
ENDBRANCH  29  30
ENDBRANCH  21  24
ENDBRANCH  19  20
ENDBRANCH   1  19
TORSDOF 12
