REMARK SMILES CC[C@@H](C(=O)NCCCNC(=O)c1ccc(-c2c3nc(c(-c4c(F)cccc4F)c4ccc([nH]4)c(-c4c(F)cccc4F)c4nc(c(-c5c(F)cccc5F)c5ccc2[nH]5)C=C4)C=C3)cc1)[N@@H+](C)[C@@H](C)Cc1cccs1
REMARK SMILES IDX 7 1 6 2 4 3 5 4 3 6 2 7 1 8 67 9 68 10 69 12 70 13 71 14
REMARK SMILES IDX 72 15 73 16 76 17 74 18 75 19 8 20 9 21 10 22 11 23 12 25
REMARK SMILES IDX 13 26 14 27 66 28 15 29 65 30 16 31 17 32 18 33 59 34 19 35
REMARK SMILES IDX 64 36 58 37 60 38 20 39 63 40 57 41 56 42 21 44 47 45 30 46
REMARK SMILES IDX 46 47 31 48 34 49 45 50 61 51 32 52 33 53 44 55 62 56 35 57
REMARK SMILES IDX 22 58 23 59 28 60 24 61 25 62 27 63 29 64 26 65 48 66 49 67
REMARK SMILES IDX 54 68 50 69 51 70 53 71 55 72 52 73 36 74 37 75 42 76 38 77
REMARK SMILES IDX 39 78 41 79 43 80 40 81
REMARK H PARENT 6 5 67 11 10 24 60 43 34 54
REMARK Flexibility Score: inf
ROOT
ATOM      1  C   UNL     1       2.098   2.265   0.054  1.00  0.00     0.118 C 
ENDROOT
BRANCH   1   2
ATOM      2  N   UNL     1       1.249   2.561   1.182  1.00  0.00    -0.351 N 
ATOM      3  C   UNL     1       0.668   1.797   2.140  1.00  0.00     0.278 C 
ATOM      4  O   UNL     1       0.046   2.474   2.966  1.00  0.00    -0.268 OA
ATOM      5  H   UNL     1       1.050   3.520   1.277  1.00  0.00     0.163 HD
BRANCH   3   6
ATOM      6  C   UNL     1       0.873   0.246   2.253  1.00  0.00     0.273 C 
BRANCH   6   7
ATOM      7  C   UNL     1       0.361  -0.614   1.078  1.00  0.00     0.072 C 
ATOM      8  C   UNL     1       1.337  -0.941  -0.047  1.00  0.00     0.011 C 
ENDBRANCH   6   7
BRANCH   6   9
ATOM      9  N   UNL     1       0.370  -0.312   3.562  1.00  0.00    -0.325 N 
ATOM     10  C   UNL     1       1.078   0.259   4.714  1.00  0.00     0.333 C 
ATOM     11  H   UNL     1       0.613  -1.287   3.388  1.00  0.00     0.348 HD
BRANCH   9  12
ATOM     12  C   UNL     1      -1.081  -0.502   3.853  1.00  0.00     0.186 C 
ATOM     13  C   UNL     1      -1.945   0.769   3.815  1.00  0.00     0.075 C 
BRANCH  12  14
ATOM     14  C   UNL     1      -1.865  -1.599   3.075  1.00  0.00     0.111 C 
BRANCH  14  15
ATOM     15  C   UNL     1      -1.308  -3.001   3.080  1.00  0.00     0.010 A 
ATOM     16  C   UNL     1      -0.101  -3.501   3.531  1.00  0.00     0.015 A 
ATOM     17  S   UNL     1      -2.258  -4.245   2.362  1.00  0.00    -0.149 S 
ATOM     18  C   UNL     1       0.062  -4.887   3.239  1.00  0.00     0.012 A 
ATOM     19  C   UNL     1      -1.041  -5.415   2.610  1.00  0.00     0.065 A 
ENDBRANCH  14  15
ENDBRANCH  12  14
ENDBRANCH   9  12
ENDBRANCH   6   9
ENDBRANCH   3   6
ENDBRANCH   1   2
BRANCH   1  20
ATOM     20  C   UNL     1       1.307   2.311  -1.249  1.00  0.00     0.042 C 
BRANCH  20  21
ATOM     21  C   UNL     1       0.737   3.685  -1.582  1.00  0.00     0.118 C 
BRANCH  21  22
ATOM     22  N   UNL     1       1.763   4.646  -1.952  1.00  0.00    -0.352 N 
ATOM     23  C   UNL     1       2.048   5.213  -3.170  1.00  0.00     0.251 C 
ATOM     24  H   UNL     1       2.345   4.936  -1.213  1.00  0.00     0.163 HD
ATOM     25  O   UNL     1       3.084   5.855  -3.310  1.00  0.00    -0.269 OA
BRANCH  23  26
ATOM     26  C   UNL     1       1.129   5.043  -4.319  1.00  0.00     0.039 A 
ATOM     27  C   UNL     1       1.673   4.827  -5.588  1.00  0.00     0.014 A 
ATOM     28  C   UNL     1      -0.256   5.133  -4.164  1.00  0.00     0.014 A 
ATOM     29  C   UNL     1       0.829   4.647  -6.687  1.00  0.00     0.010 A 
ATOM     30  C   UNL     1      -1.097   4.859  -5.239  1.00  0.00     0.010 A 
ATOM     31  C   UNL     1      -0.565   4.631  -6.516  1.00  0.00    -0.014 A 
BRANCH  31  32
ATOM     32  C   UNL     1      -1.482   4.416  -7.665  1.00  0.00     0.031 A 
ATOM     33  C   UNL     1      -2.450   5.497  -8.067  1.00  0.00     0.074 A 
ATOM     34  C   UNL     1      -1.487   3.234  -8.310  1.00  0.00     0.049 A 
ATOM     35  N   UNL     1      -3.379   5.477  -8.989  1.00  0.00    -0.248 NA
ATOM     36  C   UNL     1      -2.386   6.759  -7.311  1.00  0.00     0.031 C 
ATOM     37  C   UNL     1      -0.632   2.089  -7.989  1.00  0.00     0.029 A 
ATOM     38  N   UNL     1      -2.245   2.796  -9.367  1.00  0.00    -0.354 N 
ATOM     39  C   UNL     1      -4.019   6.707  -8.908  1.00  0.00     0.074 A 
ATOM     40  C   UNL     1      -3.412   7.429  -7.812  1.00  0.00     0.031 C 
ATOM     41  C   UNL     1      -0.894   1.091  -8.848  1.00  0.00     0.029 A 
ATOM     42  C   UNL     1      -1.958   1.509  -9.755  1.00  0.00     0.049 A 
ATOM     43  H   UNL     1      -2.929   3.351  -9.806  1.00  0.00     0.167 HD
ATOM     44  C   UNL     1      -5.005   7.204  -9.692  1.00  0.00     0.037 A 
ATOM     45  C   UNL     1      -2.496   0.751 -10.729  1.00  0.00     0.037 A 
ATOM     46  C   UNL     1      -5.582   6.500 -10.807  1.00  0.00     0.049 A 
ATOM     47  C   UNL     1      -3.586   1.327 -11.591  1.00  0.00     0.074 A 
ATOM     48  C   UNL     1      -6.541   6.941 -11.702  1.00  0.00     0.029 A 
ATOM     49  N   UNL     1      -5.249   5.207 -11.179  1.00  0.00    -0.354 N 
ATOM     50  N   UNL     1      -4.138   2.515 -11.542  1.00  0.00    -0.248 NA
ATOM     51  C   UNL     1      -4.125   0.457 -12.646  1.00  0.00     0.031 C 
ATOM     52  C   UNL     1      -6.816   5.899 -12.594  1.00  0.00     0.029 A 
ATOM     53  C   UNL     1      -5.997   4.826 -12.281  1.00  0.00     0.049 A 
ATOM     54  H   UNL     1      -4.581   4.643 -10.727  1.00  0.00     0.167 HD
ATOM     55  C   UNL     1      -5.067   2.546 -12.574  1.00  0.00     0.074 A 
ATOM     56  C   UNL     1      -4.995   1.262 -13.240  1.00  0.00     0.031 C 
ATOM     57  C   UNL     1      -5.904   3.547 -12.937  1.00  0.00     0.037 A 
BRANCH  44  58
ATOM     58  C   UNL     1      -5.515   8.580  -9.374  1.00  0.00     0.057 A 
ATOM     59  C   UNL     1      -4.737   9.725  -9.596  1.00  0.00     0.134 A 
ATOM     60  C   UNL     1      -6.806   8.766  -8.864  1.00  0.00     0.134 A 
ATOM     61  F   UNL     1      -3.487   9.616 -10.070  1.00  0.00    -0.206 F 
ATOM     62  C   UNL     1      -5.214  11.002  -9.293  1.00  0.00     0.040 A 
ATOM     63  C   UNL     1      -7.304  10.040  -8.585  1.00  0.00     0.040 A 
ATOM     64  F   UNL     1      -7.606   7.714  -8.634  1.00  0.00    -0.206 F 
ATOM     65  C   UNL     1      -6.504  11.162  -8.792  1.00  0.00     0.006 A 
ENDBRANCH  44  58
BRANCH  45  66
ATOM     66  C   UNL     1      -1.993  -0.625 -10.964  1.00  0.00     0.057 A 
ATOM     67  C   UNL     1      -1.246  -0.934 -12.107  1.00  0.00     0.134 A 
ATOM     68  C   UNL     1      -2.248  -1.663 -10.060  1.00  0.00     0.134 A 
ATOM     69  F   UNL     1      -0.985   0.015 -13.018  1.00  0.00    -0.206 F 
ATOM     70  C   UNL     1      -0.787  -2.229 -12.354  1.00  0.00     0.040 A 
ATOM     71  C   UNL     1      -1.774  -2.958 -10.282  1.00  0.00     0.040 A 
ATOM     72  F   UNL     1      -2.951  -1.431  -8.942  1.00  0.00    -0.206 F 
ATOM     73  C   UNL     1      -1.047  -3.244 -11.436  1.00  0.00     0.006 A 
ENDBRANCH  45  66
BRANCH  57  74
ATOM     74  C   UNL     1      -6.783   3.308 -14.129  1.00  0.00     0.057 A 
ATOM     75  C   UNL     1      -7.891   2.454 -14.070  1.00  0.00     0.134 A 
ATOM     76  C   UNL     1      -6.541   3.975 -15.337  1.00  0.00     0.134 A 
ATOM     77  F   UNL     1      -8.168   1.776 -12.946  1.00  0.00    -0.206 F 
ATOM     78  C   UNL     1      -8.716   2.255 -15.178  1.00  0.00     0.040 A 
ATOM     79  C   UNL     1      -7.373   3.803 -16.443  1.00  0.00     0.040 A 
ATOM     80  F   UNL     1      -5.501   4.814 -15.456  1.00  0.00    -0.206 F 
ATOM     81  C   UNL     1      -8.461   2.937 -16.367  1.00  0.00     0.006 A 
ENDBRANCH  57  74
ENDBRANCH  31  32
ENDBRANCH  23  26
ENDBRANCH  21  22
ENDBRANCH  20  21
ENDBRANCH   1  20
TORSDOF 15
