REMARK SMILES Cc1cc(C)c2c(O[C@@H](C)C(=O)NCCCNC(=O)c3ccc(-c4c5nc(c(-c6c(F)cccc6F)c6ccc([nH]6)c(-c6c(F)cccc6F)c6nc(c(-c7c(F)cccc7F)c7ccc4[nH]7)C=C6)C=C5)cc3)nsc2n1
REMARK SMILES IDX 15 1 14 2 13 3 11 4 12 5 9 7 10 8 8 9 7 10 1 11 2 12 3 13
REMARK SMILES IDX 77 14 4 15 76 16 5 17 6 18 75 19 74 20 16 21 17 22 18 23
REMARK SMILES IDX 19 25 20 26 21 27 73 28 22 29 72 30 23 31 24 32 25 33 66 34
REMARK SMILES IDX 26 35 71 36 65 37 67 38 27 39 70 40 64 41 63 42 28 44 54 45
REMARK SMILES IDX 37 46 53 47 38 48 41 49 52 50 68 51 39 52 40 53 51 55 69 56
REMARK SMILES IDX 42 57 29 58 30 59 35 60 31 61 32 62 34 63 36 64 33 65 55 66
REMARK SMILES IDX 56 67 61 68 57 69 58 70 60 71 62 72 59 73 43 74 44 75 49 76
REMARK SMILES IDX 45 77 46 78 48 79 50 80 47 81
REMARK H PARENT 13 6 17 24 67 43 41 54
REMARK Flexibility Score: inf
ROOT
ATOM      1  C   UNL     1      -1.166   3.876   1.109  1.00  0.00     0.042 C 
ENDROOT
BRANCH   1   2
ATOM      2  C   UNL     1      -2.223   3.465   0.093  1.00  0.00     0.118 C 
BRANCH   2   3
ATOM      3  N   UNL     1      -3.247   4.429  -0.223  1.00  0.00    -0.353 N 
ATOM      4  C   UNL     1      -3.490   4.959  -1.462  1.00  0.00     0.260 C 
ATOM      5  O   UNL     1      -4.673   5.081  -1.797  1.00  0.00    -0.271 OA
ATOM      6  H   UNL     1      -3.821   4.733   0.517  1.00  0.00     0.163 HD
BRANCH   4   7
ATOM      7  C   UNL     1      -2.345   5.518  -2.360  1.00  0.00     0.260 C 
ATOM      8  C   UNL     1      -2.410   5.178  -3.848  1.00  0.00     0.064 C 
BRANCH   7   9
ATOM      9  O   UNL     1      -1.078   5.796  -1.849  1.00  0.00    -0.463 OA
BRANCH   9  10
ATOM     10  C   UNL     1       0.032   5.039  -1.988  1.00  0.00     0.235 A 
ATOM     11  C   UNL     1       2.190  -0.099  -1.044  1.00  0.00     0.067 C 
ATOM     12  C   UNL     1       1.585   1.172  -1.558  1.00  0.00     0.039 A 
ATOM     13  C   UNL     1       0.333   1.164  -2.151  1.00  0.00     0.027 A 
ATOM     14  N   UNL     1       2.264   2.295  -1.316  1.00  0.00    -0.240 NA
ATOM     15  C   UNL     1      -0.336   2.370  -2.481  1.00  0.00    -0.034 A 
ATOM     16  C   UNL     1       1.622   3.433  -1.627  1.00  0.00     0.147 A 
ATOM     17  C   UNL     1      -1.681   2.176  -3.145  1.00  0.00     0.045 C 
ATOM     18  C   UNL     1       0.322   3.602  -2.134  1.00  0.00     0.078 A 
ATOM     19  S   UNL     1       2.383   4.925  -1.361  1.00  0.00    -0.012 S 
ATOM     20  N   UNL     1       1.063   5.832  -1.695  1.00  0.00    -0.153 NA
ENDBRANCH   9  10
ENDBRANCH   7   9
ENDBRANCH   4   7
ENDBRANCH   2   3
ENDBRANCH   1   2
BRANCH   1  21
ATOM     21  C   UNL     1      -0.868   2.726   2.059  1.00  0.00     0.118 C 
BRANCH  21  22
ATOM     22  N   UNL     1      -0.353   1.483   1.446  1.00  0.00    -0.352 N 
ATOM     23  C   UNL     1      -0.128   0.254   2.077  1.00  0.00     0.251 C 
ATOM     24  H   UNL     1      -0.145   1.524   0.485  1.00  0.00     0.163 HD
ATOM     25  O   UNL     1       0.381  -0.715   1.554  1.00  0.00    -0.269 OA
BRANCH  23  26
ATOM     26  C   UNL     1      -0.658   0.116   3.426  1.00  0.00     0.039 A 
ATOM     27  C   UNL     1       0.126  -0.132   4.559  1.00  0.00     0.014 A 
ATOM     28  C   UNL     1      -1.984   0.489   3.497  1.00  0.00     0.014 A 
ATOM     29  C   UNL     1      -0.453   0.094   5.800  1.00  0.00     0.010 A 
ATOM     30  C   UNL     1      -2.377   1.054   4.657  1.00  0.00     0.010 A 
ATOM     31  C   UNL     1      -1.709   0.707   5.823  1.00  0.00    -0.014 A 
BRANCH  31  32
ATOM     32  C   UNL     1      -2.415   1.101   7.021  1.00  0.00     0.031 A 
ATOM     33  C   UNL     1      -1.726   2.135   7.827  1.00  0.00     0.074 A 
ATOM     34  C   UNL     1      -3.732   0.805   7.122  1.00  0.00     0.049 A 
ATOM     35  N   UNL     1      -1.227   2.007   9.009  1.00  0.00    -0.248 NA
ATOM     36  C   UNL     1      -1.402   3.421   7.182  1.00  0.00     0.031 C 
ATOM     37  C   UNL     1      -4.596   0.091   6.159  1.00  0.00     0.029 A 
ATOM     38  N   UNL     1      -4.624   1.223   8.050  1.00  0.00    -0.354 N 
ATOM     39  C   UNL     1      -0.755   3.269   9.350  1.00  0.00     0.074 A 
ATOM     40  C   UNL     1      -0.659   4.011   8.122  1.00  0.00     0.031 C 
ATOM     41  C   UNL     1      -5.893   0.344   6.428  1.00  0.00     0.029 A 
ATOM     42  C   UNL     1      -5.958   1.051   7.687  1.00  0.00     0.049 A 
ATOM     43  H   UNL     1      -4.353   1.616   8.911  1.00  0.00     0.167 HD
ATOM     44  C   UNL     1      -0.764   3.696  10.643  1.00  0.00     0.037 A 
ATOM     45  C   UNL     1      -7.026   1.500   8.388  1.00  0.00     0.037 A 
ATOM     46  C   UNL     1      -0.988   2.594  11.549  1.00  0.00     0.049 A 
ATOM     47  C   UNL     1      -6.537   1.764   9.770  1.00  0.00     0.074 A 
ATOM     48  C   UNL     1      -0.327   1.405  11.792  1.00  0.00     0.029 A 
ATOM     49  N   UNL     1      -2.265   2.417  12.032  1.00  0.00    -0.354 N 
ATOM     50  N   UNL     1      -6.089   0.829  10.568  1.00  0.00    -0.248 NA
ATOM     51  C   UNL     1      -6.062   3.109  10.059  1.00  0.00     0.031 C 
ATOM     52  C   UNL     1      -1.362   0.434  11.932  1.00  0.00     0.029 A 
ATOM     53  C   UNL     1      -2.593   1.092  11.872  1.00  0.00     0.049 A 
ATOM     54  H   UNL     1      -2.840   3.114  12.422  1.00  0.00     0.167 HD
ATOM     55  C   UNL     1      -4.974   1.385  11.185  1.00  0.00     0.074 A 
ATOM     56  C   UNL     1      -5.048   2.814  10.878  1.00  0.00     0.031 C 
ATOM     57  C   UNL     1      -3.935   0.607  11.616  1.00  0.00     0.037 A 
BRANCH  44  58
ATOM     58  C   UNL     1      -0.922   5.134  11.058  1.00  0.00     0.057 A 
ATOM     59  C   UNL     1      -0.650   5.506  12.384  1.00  0.00     0.134 A 
ATOM     60  C   UNL     1      -1.551   6.125  10.275  1.00  0.00     0.134 A 
ATOM     61  F   UNL     1      -0.093   4.637  13.241  1.00  0.00    -0.206 F 
ATOM     62  C   UNL     1      -1.001   6.761  12.898  1.00  0.00     0.040 A 
ATOM     63  C   UNL     1      -1.852   7.400  10.759  1.00  0.00     0.040 A 
ATOM     64  F   UNL     1      -1.999   5.885   9.037  1.00  0.00    -0.206 F 
ATOM     65  C   UNL     1      -1.599   7.716  12.083  1.00  0.00     0.006 A 
ENDBRANCH  44  58
BRANCH  45  66
ATOM     66  C   UNL     1      -8.300   2.035   7.857  1.00  0.00     0.057 A 
ATOM     67  C   UNL     1      -9.412   2.207   8.691  1.00  0.00     0.134 A 
ATOM     68  C   UNL     1      -8.381   2.643   6.590  1.00  0.00     0.134 A 
ATOM     69  F   UNL     1      -9.415   1.693   9.930  1.00  0.00    -0.206 F 
ATOM     70  C   UNL     1     -10.526   2.964   8.304  1.00  0.00     0.040 A 
ATOM     71  C   UNL     1      -9.490   3.397   6.188  1.00  0.00     0.040 A 
ATOM     72  F   UNL     1      -7.352   2.600   5.731  1.00  0.00    -0.206 F 
ATOM     73  C   UNL     1     -10.561   3.574   7.053  1.00  0.00     0.006 A 
ENDBRANCH  45  66
BRANCH  57  74
ATOM     74  C   UNL     1      -4.106  -0.897  11.601  1.00  0.00     0.057 A 
ATOM     75  C   UNL     1      -4.259  -1.667  10.436  1.00  0.00     0.134 A 
ATOM     76  C   UNL     1      -3.898  -1.608  12.787  1.00  0.00     0.134 A 
ATOM     77  F   UNL     1      -4.377  -1.093   9.236  1.00  0.00    -0.206 F 
ATOM     78  C   UNL     1      -4.225  -3.066  10.451  1.00  0.00     0.040 A 
ATOM     79  C   UNL     1      -3.832  -3.005  12.814  1.00  0.00     0.040 A 
ATOM     80  F   UNL     1      -3.690  -0.949  13.938  1.00  0.00    -0.206 F 
ATOM     81  C   UNL     1      -3.998  -3.740  11.644  1.00  0.00     0.006 A 
ENDBRANCH  57  74
ENDBRANCH  31  32
ENDBRANCH  23  26
ENDBRANCH  21  22
ENDBRANCH   1  21
TORSDOF 12
