REMARK SMILES Cc1oc(C[N@H+]2C[C@@H](C)[C@@H](C)C2)cc1C(=O)NCCCNC(=O)c1ccc(-c2c3nc(c(-c4c(F)cccc4F)c4ccc([nH]4)c(-c4c(F)cccc4F)c4nc(c(-c5c(F)cccc5F)c5ccc2[nH]5)C=C4)C=C3)cc1
REMARK SMILES IDX 19 1 18 2 17 3 15 4 16 5 14 7 1 8 2 9 3 10 4 11 13 12 5 13
REMARK SMILES IDX 6 14 7 15 12 16 8 18 10 19 9 20 11 21 20 22 21 23 22 24
REMARK SMILES IDX 23 26 24 27 25 28 77 29 26 30 76 31 27 32 28 33 29 34 70 35
REMARK SMILES IDX 30 36 75 37 69 38 71 39 31 40 74 41 68 42 67 43 32 45 58 46
REMARK SMILES IDX 41 47 57 48 42 49 45 50 56 51 72 52 43 53 44 54 55 56 73 57
REMARK SMILES IDX 46 58 33 59 34 60 39 61 35 62 36 63 38 64 40 65 37 66 59 67
REMARK SMILES IDX 60 68 65 69 61 70 62 71 64 72 66 73 63 74 47 75 48 76 53 77
REMARK SMILES IDX 49 78 50 79 52 80 54 81 51 82
REMARK H PARENT 17 6 6 17 21 25 71 44 45 55
REMARK Flexibility Score: inf
ROOT
ATOM      1  C   UNL     1       3.524  -2.508   0.588  1.00  0.00     0.042 C 
ENDROOT
BRANCH   1   2
ATOM      2  C   UNL     1       2.607  -2.656  -0.626  1.00  0.00     0.118 C 
BRANCH   2   3
ATOM      3  N   UNL     1       1.306  -3.130  -0.228  1.00  0.00    -0.352 N 
ATOM      4  C   UNL     1       0.114  -2.511  -0.001  1.00  0.00     0.254 C 
ATOM      5  O   UNL     1      -0.810  -3.281   0.300  1.00  0.00    -0.269 OA
ATOM      6  H   UNL     1       1.271  -4.104  -0.090  1.00  0.00     0.163 HD
BRANCH   4   7
ATOM      7  C   UNL     1      -0.149  -1.077  -0.111  1.00  0.00     0.081 A 
ATOM      8  C   UNL     1       2.033   0.512  -0.102  1.00  0.00     0.088 C 
ATOM      9  C   UNL     1       0.621   0.083  -0.161  1.00  0.00     0.114 A 
ATOM     10  O   UNL     1      -0.188   1.179  -0.224  1.00  0.00    -0.460 OA
ATOM     11  C   UNL     1      -1.471   0.780  -0.090  1.00  0.00     0.159 A 
ATOM     12  C   UNL     1      -1.512  -0.590  -0.094  1.00  0.00     0.066 A 
BRANCH  11  13
ATOM     13  C   UNL     1      -2.490   1.847   0.125  1.00  0.00     0.338 C 
BRANCH  13  14
ATOM     14  N   UNL     1      -2.338   2.591   1.385  1.00  0.00    -0.328 N 
ATOM     15  C   UNL     1      -2.280   1.756   2.585  1.00  0.00     0.266 C 
ATOM     16  C   UNL     1      -1.212   3.531   1.416  1.00  0.00     0.266 C 
ATOM     17  H   UNL     1      -3.205   3.127   1.405  1.00  0.00     0.348 HD
ATOM     18  C   UNL     1      -1.681   2.694   3.627  1.00  0.00     0.049 C 
ATOM     19  C   UNL     1      -0.615   3.460   2.832  1.00  0.00     0.049 C 
ATOM     20  C   UNL     1      -1.195   1.954   4.866  1.00  0.00     0.014 C 
ATOM     21  C   UNL     1       0.765   2.800   2.823  1.00  0.00     0.014 C 
ENDBRANCH  13  14
ENDBRANCH  11  13
ENDBRANCH   4   7
ENDBRANCH   2   3
ENDBRANCH   1   2
BRANCH   1  22
ATOM     22  C   UNL     1       4.183  -3.812   1.017  1.00  0.00     0.118 C 
BRANCH  22  23
ATOM     23  N   UNL     1       5.161  -4.256   0.032  1.00  0.00    -0.352 N 
ATOM     24  C   UNL     1       6.501  -4.484   0.167  1.00  0.00     0.251 C 
ATOM     25  H   UNL     1       4.800  -4.417  -0.870  1.00  0.00     0.163 HD
ATOM     26  O   UNL     1       7.198  -4.594  -0.849  1.00  0.00    -0.269 OA
BRANCH  24  27
ATOM     27  C   UNL     1       7.127  -4.601   1.498  1.00  0.00     0.039 A 
ATOM     28  C   UNL     1       8.416  -4.093   1.684  1.00  0.00     0.014 A 
ATOM     29  C   UNL     1       6.477  -5.259   2.547  1.00  0.00     0.014 A 
ATOM     30  C   UNL     1       9.036  -4.209   2.929  1.00  0.00     0.010 A 
ATOM     31  C   UNL     1       7.063  -5.304   3.809  1.00  0.00     0.010 A 
ATOM     32  C   UNL     1       8.353  -4.793   4.008  1.00  0.00    -0.014 A 
BRANCH  32  33
ATOM     33  C   UNL     1       8.979  -4.890   5.349  1.00  0.00     0.031 A 
ATOM     34  C   UNL     1       9.274  -6.236   5.949  1.00  0.00     0.074 A 
ATOM     35  C   UNL     1       9.226  -3.765   6.047  1.00  0.00     0.049 A 
ATOM     36  N   UNL     1       9.753  -6.527   7.132  1.00  0.00    -0.248 NA
ATOM     37  C   UNL     1       8.960  -7.413   5.123  1.00  0.00     0.031 C 
ATOM     38  C   UNL     1       8.939  -2.405   5.587  1.00  0.00     0.029 A 
ATOM     39  N   UNL     1       9.764  -3.587   7.296  1.00  0.00    -0.354 N 
ATOM     40  C   UNL     1       9.783  -7.915   7.196  1.00  0.00     0.074 A 
ATOM     41  C   UNL     1       9.224  -8.408   5.957  1.00  0.00     0.031 C 
ATOM     42  C   UNL     1       9.325  -1.532   6.531  1.00  0.00     0.029 A 
ATOM     43  C   UNL     1       9.849  -2.270   7.675  1.00  0.00     0.049 A 
ATOM     44  H   UNL     1      10.060  -4.333   7.866  1.00  0.00     0.167 HD
ATOM     45  C   UNL     1      10.256  -8.705   8.189  1.00  0.00     0.037 A 
ATOM     46  C   UNL     1      10.295  -1.721   8.820  1.00  0.00     0.037 A 
ATOM     47  C   UNL     1      10.835  -8.206   9.409  1.00  0.00     0.049 A 
ATOM     48  C   UNL     1      10.816  -2.620   9.906  1.00  0.00     0.074 A 
ATOM     49  C   UNL     1      11.397  -8.920  10.452  1.00  0.00     0.029 A 
ATOM     50  N   UNL     1      10.924  -6.864   9.748  1.00  0.00    -0.354 N 
ATOM     51  N   UNL     1      10.899  -3.928   9.927  1.00  0.00    -0.248 NA
ATOM     52  C   UNL     1      11.311  -1.966  11.125  1.00  0.00     0.031 C 
ATOM     53  C   UNL     1      11.787  -8.012  11.442  1.00  0.00     0.029 A 
ATOM     54  C   UNL     1      11.514  -6.730  10.994  1.00  0.00     0.049 A 
ATOM     55  H   UNL     1      10.614  -6.117   9.186  1.00  0.00     0.167 HD
ATOM     56  C   UNL     1      11.481  -4.253  11.146  1.00  0.00     0.074 A 
ATOM     57  C   UNL     1      11.743  -3.003  11.829  1.00  0.00     0.031 C 
ATOM     58  C   UNL     1      11.772  -5.475  11.654  1.00  0.00     0.037 A 
BRANCH  45  59
ATOM     59  C   UNL     1      10.168 -10.192   7.993  1.00  0.00     0.057 A 
ATOM     60  C   UNL     1      10.960 -10.861   7.051  1.00  0.00     0.134 A 
ATOM     61  C   UNL     1       9.303 -10.967   8.775  1.00  0.00     0.134 A 
ATOM     62  F   UNL     1      11.801 -10.177   6.260  1.00  0.00    -0.206 F 
ATOM     63  C   UNL     1      10.875 -12.244   6.874  1.00  0.00     0.040 A 
ATOM     64  C   UNL     1       9.230 -12.354   8.627  1.00  0.00     0.040 A 
ATOM     65  F   UNL     1       8.520 -10.393   9.701  1.00  0.00    -0.206 F 
ATOM     66  C   UNL     1      10.012 -12.995   7.669  1.00  0.00     0.006 A 
ENDBRANCH  45  59
BRANCH  46  67
ATOM     67  C   UNL     1      10.291  -0.246   8.987  1.00  0.00     0.057 A 
ATOM     68  C   UNL     1      11.487   0.480   9.010  1.00  0.00     0.134 A 
ATOM     69  C   UNL     1       9.098   0.472   9.127  1.00  0.00     0.134 A 
ATOM     70  F   UNL     1      12.664  -0.154   8.896  1.00  0.00    -0.206 F 
ATOM     71  C   UNL     1      11.499   1.864   9.187  1.00  0.00     0.040 A 
ATOM     72  C   UNL     1       9.094   1.859   9.279  1.00  0.00     0.040 A 
ATOM     73  F   UNL     1       7.917  -0.164   9.102  1.00  0.00    -0.206 F 
ATOM     74  C   UNL     1      10.298   2.558   9.317  1.00  0.00     0.006 A 
ENDBRANCH  46  67
BRANCH  58  75
ATOM     75  C   UNL     1      12.437  -5.516  12.998  1.00  0.00     0.057 A 
ATOM     76  C   UNL     1      11.745  -5.211  14.177  1.00  0.00     0.134 A 
ATOM     77  C   UNL     1      13.779  -5.901  13.116  1.00  0.00     0.134 A 
ATOM     78  F   UNL     1      10.462  -4.822  14.130  1.00  0.00    -0.206 F 
ATOM     79  C   UNL     1      12.371  -5.263  15.423  1.00  0.00     0.040 A 
ATOM     80  C   UNL     1      14.408  -5.984  14.358  1.00  0.00     0.040 A 
ATOM     81  F   UNL     1      14.496  -6.215  12.026  1.00  0.00    -0.206 F 
ATOM     82  C   UNL     1      13.705  -5.658  15.516  1.00  0.00     0.006 A 
ENDBRANCH  58  75
ENDBRANCH  32  33
ENDBRANCH  24  27
ENDBRANCH  22  23
ENDBRANCH   1  22
TORSDOF 12
