REMARK SMILES Cn1cc(-c2ccn(Cc3ccc(C(=O)NCCCNC(=O)c4ccc(-c5c6nc(c(-c7c(F)cccc7F)c7ccc([nH]7)c(-c7c(F)cccc7F)c7nc(c(-c8c(F)cccc8F)c8ccc5[nH]8)C=C7)C=C6)cc4)cc3)n2)cn1
REMARK SMILES IDX 17 1 16 2 14 3 15 4 13 6 10 7 11 8 78 9 12 10 77 11 9 12
REMARK SMILES IDX 8 13 5 14 6 15 79 16 7 17 4 18 1 19 2 20 3 21 81 22 80 23
REMARK SMILES IDX 18 24 19 25 20 26 21 27 22 29 23 30 24 31 76 32 25 33 75 34
REMARK SMILES IDX 26 35 27 36 28 37 69 38 29 39 74 40 68 41 70 42 30 43 73 44
REMARK SMILES IDX 67 45 66 46 31 48 57 49 40 50 56 51 41 52 44 53 55 54 71 55
REMARK SMILES IDX 42 56 43 57 54 59 72 60 45 61 32 62 33 63 38 64 34 65 35 66
REMARK SMILES IDX 37 67 39 68 36 69 58 70 59 71 64 72 60 73 61 74 63 75 65 76
REMARK SMILES IDX 62 77 46 78 47 79 52 80 48 81 49 82 51 83 53 84 50 85
REMARK H PARENT 16 5 20 28 70 47 44 58
REMARK Flexibility Score: inf
ROOT
ATOM      1  C   UNL     1       6.648   3.254   3.075  1.00  0.00     0.118 C 
ENDROOT
BRANCH   1   2
ATOM      2  N   UNL     1       8.069   2.919   3.056  1.00  0.00    -0.352 N 
ATOM      3  C   UNL     1       8.715   1.750   2.723  1.00  0.00     0.251 C 
ATOM      4  O   UNL     1       9.944   1.753   2.667  1.00  0.00    -0.269 OA
ATOM      5  H   UNL     1       8.666   3.654   3.326  1.00  0.00     0.163 HD
BRANCH   3   6
ATOM      6  C   UNL     1       7.973   0.506   2.378  1.00  0.00     0.039 A 
ATOM      7  C   UNL     1       6.542  -1.765   1.512  1.00  0.00    -0.026 A 
ATOM      8  C   UNL     1       7.819  -1.493   1.001  1.00  0.00     0.006 A 
ATOM      9  C   UNL     1       6.037  -0.942   2.522  1.00  0.00     0.006 A 
ATOM     10  C   UNL     1       8.529  -0.364   1.432  1.00  0.00     0.014 A 
ATOM     11  C   UNL     1       6.756   0.163   2.962  1.00  0.00     0.014 A 
BRANCH   7  12
ATOM     12  C   UNL     1       5.711  -2.923   1.021  1.00  0.00     0.179 C 
BRANCH  12  13
ATOM     13  N   UNL     1       4.548  -2.513   0.230  1.00  0.00    -0.268 N 
ATOM     14  C   UNL     1       2.659  -1.648  -0.195  1.00  0.00     0.095 A 
ATOM     15  C   UNL     1       2.948  -2.505  -1.275  1.00  0.00     0.050 A 
ATOM     16  N   UNL     1       3.623  -1.659   0.730  1.00  0.00    -0.172 NA
ATOM     17  C   UNL     1       4.179  -3.042  -0.979  1.00  0.00     0.110 A 
BRANCH  14  18
ATOM     18  C   UNL     1       1.449  -0.853  -0.090  1.00  0.00     0.040 A 
ATOM     19  C   UNL     1      -2.049  -0.030  -0.033  1.00  0.00     0.173 C 
ATOM     20  N   UNL     1      -0.609  -0.126  -0.023  1.00  0.00    -0.275 N 
ATOM     21  C   UNL     1       0.137  -1.263  -0.138  1.00  0.00     0.118 A 
ATOM     22  N   UNL     1       0.131   0.996   0.086  1.00  0.00    -0.181 NA
ATOM     23  C   UNL     1       1.391   0.543   0.062  1.00  0.00     0.145 A 
ENDBRANCH  14  18
ENDBRANCH  12  13
ENDBRANCH   7  12
ENDBRANCH   3   6
ENDBRANCH   1   2
BRANCH   1  24
ATOM     24  C   UNL     1       6.041   3.135   4.482  1.00  0.00     0.042 C 
BRANCH  24  25
ATOM     25  C   UNL     1       6.258   4.383   5.307  1.00  0.00     0.118 C 
BRANCH  25  26
ATOM     26  N   UNL     1       5.442   5.521   4.861  1.00  0.00    -0.352 N 
ATOM     27  C   UNL     1       5.376   6.804   5.393  1.00  0.00     0.251 C 
ATOM     28  H   UNL     1       4.864   5.351   4.081  1.00  0.00     0.163 HD
ATOM     29  O   UNL     1       4.441   7.545   5.154  1.00  0.00    -0.269 OA
BRANCH  27  30
ATOM     30  C   UNL     1       6.490   7.248   6.249  1.00  0.00     0.039 A 
ATOM     31  C   UNL     1       6.337   8.054   7.381  1.00  0.00     0.014 A 
ATOM     32  C   UNL     1       7.733   6.750   5.907  1.00  0.00     0.014 A 
ATOM     33  C   UNL     1       7.466   8.316   8.156  1.00  0.00     0.010 A 
ATOM     34  C   UNL     1       8.683   6.663   6.867  1.00  0.00     0.010 A 
ATOM     35  C   UNL     1       8.642   7.612   7.867  1.00  0.00    -0.014 A 
BRANCH  35  36
ATOM     36  C   UNL     1       9.903   7.784   8.561  1.00  0.00     0.031 A 
ATOM     37  C   UNL     1       9.884   7.334   9.969  1.00  0.00     0.074 A 
ATOM     38  C   UNL     1      11.044   8.009   7.866  1.00  0.00     0.049 A 
ATOM     39  N   UNL     1       9.986   8.059  11.030  1.00  0.00    -0.248 NA
ATOM     40  C   UNL     1       9.537   5.928  10.238  1.00  0.00     0.031 C 
ATOM     41  C   UNL     1      11.246   8.099   6.408  1.00  0.00     0.029 A 
ATOM     42  N   UNL     1      12.315   8.090   8.338  1.00  0.00    -0.354 N 
ATOM     43  C   UNL     1       9.933   7.173  12.102  1.00  0.00     0.074 A 
ATOM     44  C   UNL     1       9.433   5.936  11.568  1.00  0.00     0.031 C 
ATOM     45  C   UNL     1      12.563   7.991   6.119  1.00  0.00     0.029 A 
ATOM     46  C   UNL     1      13.306   7.995   7.362  1.00  0.00     0.049 A 
ATOM     47  H   UNL     1      12.520   8.205   9.294  1.00  0.00     0.167 HD
ATOM     48  C   UNL     1      10.547   7.463  13.283  1.00  0.00     0.037 A 
ATOM     49  C   UNL     1      14.636   7.878   7.606  1.00  0.00     0.037 A 
ATOM     50  C   UNL     1      10.917   8.859  13.330  1.00  0.00     0.049 A 
ATOM     51  C   UNL     1      14.853   8.330   9.009  1.00  0.00     0.074 A 
ATOM     52  C   UNL     1      10.216  10.048  13.276  1.00  0.00     0.029 A 
ATOM     53  N   UNL     1      12.220   9.182  13.025  1.00  0.00    -0.354 N 
ATOM     54  N   UNL     1      14.659   9.562   9.404  1.00  0.00    -0.248 NA
ATOM     55  C   UNL     1      14.758   7.318  10.052  1.00  0.00     0.031 C 
ATOM     56  C   UNL     1      11.009  10.902  12.454  1.00  0.00     0.029 A 
ATOM     57  C   UNL     1      12.185  10.223  12.131  1.00  0.00     0.049 A 
ATOM     58  H   UNL     1      13.027   8.747  13.383  1.00  0.00     0.167 HD
ATOM     59  C   UNL     1      14.015   9.448  10.630  1.00  0.00     0.074 A 
ATOM     60  C   UNL     1      14.145   8.037  10.998  1.00  0.00     0.031 C 
ATOM     61  C   UNL     1      13.171  10.421  11.090  1.00  0.00     0.037 A 
BRANCH  48  62
ATOM     62  C   UNL     1      11.152   6.447  14.224  1.00  0.00     0.057 A 
ATOM     63  C   UNL     1      11.699   6.899  15.440  1.00  0.00     0.134 A 
ATOM     64  C   UNL     1      11.476   5.117  13.889  1.00  0.00     0.134 A 
ATOM     65  F   UNL     1      11.455   8.140  15.888  1.00  0.00    -0.206 F 
ATOM     66  C   UNL     1      12.584   6.128  16.203  1.00  0.00     0.040 A 
ATOM     67  C   UNL     1      12.318   4.320  14.670  1.00  0.00     0.040 A 
ATOM     68  F   UNL     1      11.082   4.537  12.751  1.00  0.00    -0.206 F 
ATOM     69  C   UNL     1      12.908   4.837  15.810  1.00  0.00     0.006 A 
ENDBRANCH  48  62
BRANCH  49  70
ATOM     70  C   UNL     1      15.630   7.072   6.855  1.00  0.00     0.057 A 
ATOM     71  C   UNL     1      17.009   7.272   7.009  1.00  0.00     0.134 A 
ATOM     72  C   UNL     1      15.254   5.902   6.169  1.00  0.00     0.134 A 
ATOM     73  F   UNL     1      17.470   8.332   7.689  1.00  0.00    -0.206 F 
ATOM     74  C   UNL     1      17.956   6.357   6.522  1.00  0.00     0.040 A 
ATOM     75  C   UNL     1      16.187   4.984   5.675  1.00  0.00     0.040 A 
ATOM     76  F   UNL     1      13.962   5.567   6.032  1.00  0.00    -0.206 F 
ATOM     77  C   UNL     1      17.545   5.203   5.861  1.00  0.00     0.006 A 
ENDBRANCH  49  70
BRANCH  61  78
ATOM     78  C   UNL     1      13.079  11.715  10.319  1.00  0.00     0.057 A 
ATOM     79  C   UNL     1      12.594  11.818   9.005  1.00  0.00     0.134 A 
ATOM     80  C   UNL     1      13.306  12.918  10.995  1.00  0.00     0.134 A 
ATOM     81  F   UNL     1      12.250  10.732   8.307  1.00  0.00    -0.206 F 
ATOM     82  C   UNL     1      12.377  13.053   8.384  1.00  0.00     0.040 A 
ATOM     83  C   UNL     1      13.064  14.159  10.399  1.00  0.00     0.040 A 
ATOM     84  F   UNL     1      13.712  12.906  12.274  1.00  0.00    -0.206 F 
ATOM     85  C   UNL     1      12.605  14.230   9.086  1.00  0.00     0.006 A 
ENDBRANCH  61  78
ENDBRANCH  35  36
ENDBRANCH  27  30
ENDBRANCH  25  26
ENDBRANCH  24  25
ENDBRANCH   1  24
TORSDOF 13
