REMARK SMILES Cc1cc(C)c2c(C(=O)NCCCNC(=O)c3ccc(-c4c5nc(c(-c6c(F)cccc6F)c6ccc([nH]6)c(-c6c(F)cccc6F)c6nc(c(-c7c(F)cccc7F)c7ccc4[nH]7)C=C6)C=C5)cc3)cc(-c3ccco3)nc2c1
REMARK SMILES IDX 12 1 11 2 10 3 8 4 9 5 7 7 1 8 2 9 3 10 80 11 4 12 79 13
REMARK SMILES IDX 5 14 6 15 78 16 72 17 71 18 73 19 74 20 77 21 75 22 76 23
REMARK SMILES IDX 13 24 14 25 15 26 16 28 17 29 18 30 70 31 19 32 69 33 20 34
REMARK SMILES IDX 21 35 22 36 63 37 23 38 68 39 62 40 64 41 24 42 67 43 61 44
REMARK SMILES IDX 60 45 25 47 51 48 34 49 50 50 35 51 38 52 49 53 65 54 36 55
REMARK SMILES IDX 37 56 48 58 66 59 39 60 26 61 27 62 32 63 28 64 29 65 31 66
REMARK SMILES IDX 33 67 30 68 52 69 53 70 58 71 54 72 55 73 57 74 59 75 56 76
REMARK SMILES IDX 40 77 41 78 46 79 42 80 43 81 45 82 47 83 44 84
REMARK H PARENT 10 6 14 27 64 46 38 57
REMARK Flexibility Score: inf
ROOT
ATOM      1  C   UNL     1       1.597   5.488  -2.572  1.00  0.00     0.042 C 
ENDROOT
BRANCH   1   2
ATOM      2  C   UNL     1       1.167   5.119  -1.159  1.00  0.00     0.118 C 
BRANCH   2   3
ATOM      3  N   UNL     1       0.821   6.259  -0.319  1.00  0.00    -0.352 N 
ATOM      4  C   UNL     1       0.100   6.339   0.848  1.00  0.00     0.252 C 
ATOM      5  O   UNL     1       0.014   7.433   1.403  1.00  0.00    -0.269 OA
ATOM      6  H   UNL     1       1.165   7.122  -0.645  1.00  0.00     0.163 HD
BRANCH   4   7
ATOM      7  C   UNL     1      -0.670   5.191   1.389  1.00  0.00     0.051 A 
ATOM      8  C   UNL     1       0.587  -0.263   0.447  1.00  0.00     0.044 C 
ATOM      9  C   UNL     1       0.346   1.138   0.918  1.00  0.00    -0.049 A 
ATOM     10  C   UNL     1       1.395   2.031   1.104  1.00  0.00     0.007 A 
ATOM     11  C   UNL     1      -0.952   1.570   1.207  1.00  0.00     0.032 A 
ATOM     12  C   UNL     1       1.137   3.374   1.415  1.00  0.00    -0.041 A 
ATOM     13  C   UNL     1      -1.242   2.891   1.515  1.00  0.00     0.072 A 
ATOM     14  C   UNL     1       2.309   4.209   1.874  1.00  0.00     0.045 C 
ATOM     15  C   UNL     1      -0.214   3.849   1.438  1.00  0.00     0.016 A 
ATOM     16  N   UNL     1      -2.505   3.191   1.857  1.00  0.00    -0.244 NA
ATOM     17  C   UNL     1      -2.829   4.481   2.075  1.00  0.00     0.107 A 
ATOM     18  C   UNL     1      -1.978   5.513   1.764  1.00  0.00     0.046 A 
BRANCH  17  19
ATOM     19  C   UNL     1      -4.120   4.723   2.692  1.00  0.00     0.152 A 
ATOM     20  C   UNL     1      -5.203   5.531   2.404  1.00  0.00     0.052 A 
ATOM     21  O   UNL     1      -4.319   4.104   3.896  1.00  0.00    -0.463 OA
ATOM     22  C   UNL     1      -6.108   5.394   3.487  1.00  0.00     0.043 A 
ATOM     23  C   UNL     1      -5.519   4.522   4.372  1.00  0.00     0.196 A 
ENDBRANCH  17  19
ENDBRANCH   4   7
ENDBRANCH   2   3
ENDBRANCH   1   2
BRANCH   1  24
ATOM     24  C   UNL     1       2.764   6.470  -2.634  1.00  0.00     0.118 C 
BRANCH  24  25
ATOM     25  N   UNL     1       4.019   5.946  -2.110  1.00  0.00    -0.352 N 
ATOM     26  C   UNL     1       5.077   5.316  -2.727  1.00  0.00     0.251 C 
ATOM     27  H   UNL     1       4.131   6.064  -1.139  1.00  0.00     0.163 HD
ATOM     28  O   UNL     1       5.991   4.861  -2.053  1.00  0.00    -0.269 OA
BRANCH  26  29
ATOM     29  C   UNL     1       5.092   5.139  -4.196  1.00  0.00     0.039 A 
ATOM     30  C   UNL     1       5.489   3.907  -4.726  1.00  0.00     0.014 A 
ATOM     31  C   UNL     1       4.730   6.176  -5.053  1.00  0.00     0.014 A 
ATOM     32  C   UNL     1       5.419   3.687  -6.105  1.00  0.00     0.010 A 
ATOM     33  C   UNL     1       4.555   5.925  -6.408  1.00  0.00     0.010 A 
ATOM     34  C   UNL     1       4.903   4.679  -6.950  1.00  0.00    -0.014 A 
BRANCH  34  35
ATOM     35  C   UNL     1       4.750   4.472  -8.412  1.00  0.00     0.031 A 
ATOM     36  C   UNL     1       5.503   5.358  -9.367  1.00  0.00     0.074 A 
ATOM     37  C   UNL     1       3.869   3.567  -8.879  1.00  0.00     0.049 A 
ATOM     38  N   UNL     1       5.397   5.458 -10.667  1.00  0.00    -0.248 NA
ATOM     39  C   UNL     1       6.479   6.285  -8.770  1.00  0.00     0.031 C 
ATOM     40  C   UNL     1       3.046   2.676  -8.057  1.00  0.00     0.029 A 
ATOM     41  N   UNL     1       3.505   3.260 -10.166  1.00  0.00    -0.354 N 
ATOM     42  C   UNL     1       6.268   6.476 -11.036  1.00  0.00     0.074 A 
ATOM     43  C   UNL     1       6.846   7.003  -9.820  1.00  0.00     0.031 C 
ATOM     44  C   UNL     1       2.290   1.910  -8.861  1.00  0.00     0.029 A 
ATOM     45  C   UNL     1       2.543   2.282 -10.249  1.00  0.00     0.049 A 
ATOM     46  H   UNL     1       3.895   3.700 -10.955  1.00  0.00     0.167 HD
ATOM     47  C   UNL     1       6.583   6.914 -12.278  1.00  0.00     0.037 A 
ATOM     48  C   UNL     1       1.932   1.755 -11.326  1.00  0.00     0.037 A 
ATOM     49  C   UNL     1       6.037   6.362 -13.488  1.00  0.00     0.049 A 
ATOM     50  C   UNL     1       2.293   2.262 -12.695  1.00  0.00     0.074 A 
ATOM     51  C   UNL     1       6.329   6.693 -14.799  1.00  0.00     0.029 A 
ATOM     52  N   UNL     1       5.086   5.353 -13.531  1.00  0.00    -0.354 N 
ATOM     53  N   UNL     1       3.155   3.190 -13.034  1.00  0.00    -0.248 NA
ATOM     54  C   UNL     1       1.595   1.646 -13.832  1.00  0.00     0.031 C 
ATOM     55  C   UNL     1       5.533   5.902 -15.636  1.00  0.00     0.029 A 
ATOM     56  C   UNL     1       4.772   5.056 -14.846  1.00  0.00     0.049 A 
ATOM     57  H   UNL     1       4.693   4.913 -12.743  1.00  0.00     0.167 HD
ATOM     58  C   UNL     1       3.125   3.248 -14.421  1.00  0.00     0.074 A 
ATOM     59  C   UNL     1       2.168   2.254 -14.861  1.00  0.00     0.031 C 
ATOM     60  C   UNL     1       3.825   4.053 -15.259  1.00  0.00     0.037 A 
BRANCH  47  61
ATOM     61  C   UNL     1       7.573   8.037 -12.374  1.00  0.00     0.057 A 
ATOM     62  C   UNL     1       7.172   9.317 -12.776  1.00  0.00     0.134 A 
ATOM     63  C   UNL     1       8.926   7.855 -12.053  1.00  0.00     0.134 A 
ATOM     64  F   UNL     1       5.894   9.560 -13.102  1.00  0.00    -0.206 F 
ATOM     65  C   UNL     1       8.078  10.377 -12.844  1.00  0.00     0.040 A 
ATOM     66  C   UNL     1       9.835   8.914 -12.089  1.00  0.00     0.040 A 
ATOM     67  F   UNL     1       9.371   6.658 -11.643  1.00  0.00    -0.206 F 
ATOM     68  C   UNL     1       9.411  10.179 -12.489  1.00  0.00     0.006 A 
ENDBRANCH  47  61
BRANCH  48  69
ATOM     69  C   UNL     1       0.934   0.667 -11.167  1.00  0.00     0.057 A 
ATOM     70  C   UNL     1      -0.340   0.906 -10.641  1.00  0.00     0.134 A 
ATOM     71  C   UNL     1       1.230  -0.639 -11.574  1.00  0.00     0.134 A 
ATOM     72  F   UNL     1      -0.683   2.135 -10.227  1.00  0.00    -0.206 F 
ATOM     73  C   UNL     1      -1.286  -0.115 -10.527  1.00  0.00     0.040 A 
ATOM     74  C   UNL     1       0.288  -1.665 -11.487  1.00  0.00     0.040 A 
ATOM     75  F   UNL     1       2.429  -0.925 -12.105  1.00  0.00    -0.206 F 
ATOM     76  C   UNL     1      -0.975  -1.403 -10.960  1.00  0.00     0.006 A 
ENDBRANCH  48  69
BRANCH  60  77
ATOM     77  C   UNL     1       3.607   3.859 -16.729  1.00  0.00     0.057 A 
ATOM     78  C   UNL     1       4.595   3.261 -17.522  1.00  0.00     0.134 A 
ATOM     79  C   UNL     1       2.436   4.290 -17.365  1.00  0.00     0.134 A 
ATOM     80  F   UNL     1       5.741   2.832 -16.973  1.00  0.00    -0.206 F 
ATOM     81  C   UNL     1       4.426   3.101 -18.897  1.00  0.00     0.040 A 
ATOM     82  C   UNL     1       2.246   4.113 -18.736  1.00  0.00     0.040 A 
ATOM     83  F   UNL     1       1.447   4.856 -16.657  1.00  0.00    -0.206 F 
ATOM     84  C   UNL     1       3.246   3.523 -19.507  1.00  0.00     0.006 A 
ENDBRANCH  60  77
ENDBRANCH  34  35
ENDBRANCH  26  29
ENDBRANCH  24  25
ENDBRANCH   1  24
TORSDOF 11
