REMARK SMILES COc1ccc(/C=C(/Sc2nc(C)n[nH]2)C(=O)NCCCNC(=O)c2ccc(-c3c4nc(c(-c5c(F)cccc5F)c5ccc([nH]5)c(-c5c(F)cccc5F)c5nc(c(-c6c(F)cccc6F)c6ccc3[nH]6)C=C5)C=C4)cc2)cc1OC
REMARK SMILES IDX 20 1 19 2 18 3 16 4 17 5 8 7 7 8 6 9 3 10 4 11 80 12 5 13
REMARK SMILES IDX 79 14 2 15 1 16 81 17 82 18 9 19 10 20 11 21 15 22 12 23
REMARK SMILES IDX 14 24 13 26 21 27 22 28 23 29 24 31 25 32 26 33 78 34 27 35
REMARK SMILES IDX 77 36 28 37 29 38 30 39 71 40 31 41 76 42 70 43 72 44 32 45
REMARK SMILES IDX 75 46 69 47 68 48 33 50 59 51 42 52 58 53 43 54 46 55 57 56
REMARK SMILES IDX 73 57 44 58 45 59 56 61 74 62 47 63 34 64 35 65 40 66 36 67
REMARK SMILES IDX 37 68 39 69 41 70 38 71 60 72 61 73 66 74 62 75 63 76 65 77
REMARK SMILES IDX 67 78 64 79 48 80 49 81 54 82 50 83 51 84 53 85 55 86 52 87
REMARK H PARENT 18 6 15 25 22 30 72 49 46 60
REMARK Flexibility Score: inf
ROOT
ATOM      1  C   UNL     1      -1.376 -10.756   0.077  1.00  0.00     0.042 C 
ENDROOT
BRANCH   1   2
ATOM      2  C   UNL     1      -1.325  -9.792  -1.112  1.00  0.00     0.118 C 
BRANCH   2   3
ATOM      3  N   UNL     1      -1.440  -8.382  -0.762  1.00  0.00    -0.352 N 
ATOM      4  C   UNL     1      -0.551  -7.346  -0.871  1.00  0.00     0.258 C 
ATOM      5  O   UNL     1      -1.062  -6.278  -1.219  1.00  0.00    -0.269 OA
ATOM      6  H   UNL     1      -2.311  -8.130  -0.379  1.00  0.00     0.163 HD
BRANCH   4   7
ATOM      7  C   UNL     1       0.924  -7.440  -0.525  1.00  0.00     0.081 C 
ATOM      8  C   UNL     1       1.656  -6.346  -0.202  1.00  0.00     0.029 C 
BRANCH   8   9
ATOM      9  C   UNL     1       1.361  -4.901  -0.063  1.00  0.00    -0.020 A 
ATOM     10  C   UNL     1       1.103  -2.137   0.492  1.00  0.00     0.160 A 
ATOM     11  C   UNL     1       0.066  -3.028   0.791  1.00  0.00     0.051 A 
ATOM     12  C   UNL     1       2.291  -2.617  -0.066  1.00  0.00     0.161 A 
ATOM     13  C   UNL     1       0.204  -4.399   0.536  1.00  0.00     0.012 A 
ATOM     14  C   UNL     1       2.391  -3.990  -0.358  1.00  0.00     0.058 A 
BRANCH  10  15
ATOM     15  O   UNL     1       0.944  -0.838   0.891  1.00  0.00    -0.493 OA
ATOM     16  C   UNL     1       0.248  -0.065  -0.086  1.00  0.00     0.278 C 
ENDBRANCH  10  15
BRANCH  12  17
ATOM     17  O   UNL     1       3.440  -1.933  -0.358  1.00  0.00    -0.493 OA
ATOM     18  C   UNL     1       3.526  -0.554  -0.038  1.00  0.00     0.278 C 
ENDBRANCH  12  17
ENDBRANCH   8   9
BRANCH   7  19
ATOM     19  S   UNL     1       1.639  -9.019  -0.300  1.00  0.00    -0.045 SA
BRANCH  19  20
ATOM     20  C   UNL     1       3.021  -8.982  -1.327  1.00  0.00     0.188 A 
ATOM     21  N   UNL     1       3.829  -7.994  -1.623  1.00  0.00    -0.206 NA
ATOM     22  N   UNL     1       3.534 -10.149  -1.805  1.00  0.00    -0.254 N 
ATOM     23  C   UNL     1       4.861  -8.625  -2.275  1.00  0.00     0.148 A 
ATOM     24  N   UNL     1       4.711  -9.949  -2.421  1.00  0.00    -0.158 NA
ATOM     25  H   UNL     1       3.098 -11.026  -1.712  1.00  0.00     0.192 HD
ATOM     26  C   UNL     1       6.078  -7.908  -2.707  1.00  0.00     0.092 C 
ENDBRANCH  19  20
ENDBRANCH   7  19
ENDBRANCH   4   7
ENDBRANCH   2   3
ENDBRANCH   1   2
BRANCH   1  27
ATOM     27  C   UNL     1      -2.764 -10.868   0.687  1.00  0.00     0.118 C 
BRANCH  27  28
ATOM     28  N   UNL     1      -3.756 -11.467  -0.214  1.00  0.00    -0.352 N 
ATOM     29  C   UNL     1      -5.084 -11.759   0.036  1.00  0.00     0.251 C 
ATOM     30  H   UNL     1      -3.433 -11.690  -1.116  1.00  0.00     0.163 HD
ATOM     31  O   UNL     1      -5.716 -12.504  -0.710  1.00  0.00    -0.269 OA
BRANCH  29  32
ATOM     32  C   UNL     1      -5.732 -11.173   1.219  1.00  0.00     0.039 A 
ATOM     33  C   UNL     1      -6.620 -11.901   2.017  1.00  0.00     0.014 A 
ATOM     34  C   UNL     1      -5.388  -9.869   1.552  1.00  0.00     0.014 A 
ATOM     35  C   UNL     1      -7.086 -11.327   3.197  1.00  0.00     0.010 A 
ATOM     36  C   UNL     1      -5.670  -9.398   2.801  1.00  0.00     0.010 A 
ATOM     37  C   UNL     1      -6.587 -10.077   3.591  1.00  0.00    -0.014 A 
BRANCH  37  38
ATOM     38  C   UNL     1      -6.940  -9.476   4.870  1.00  0.00     0.031 A 
ATOM     39  C   UNL     1      -6.637 -10.314   6.061  1.00  0.00     0.074 A 
ATOM     40  C   UNL     1      -7.255  -8.165   4.976  1.00  0.00     0.049 A 
ATOM     41  N   UNL     1      -7.470 -10.819   6.910  1.00  0.00    -0.248 NA
ATOM     42  C   UNL     1      -5.245 -10.752   6.262  1.00  0.00     0.031 C 
ATOM     43  C   UNL     1      -7.258  -7.138   3.923  1.00  0.00     0.029 A 
ATOM     44  N   UNL     1      -7.520  -7.437   6.091  1.00  0.00    -0.354 N 
ATOM     45  C   UNL     1      -6.692 -11.454   7.876  1.00  0.00     0.074 A 
ATOM     46  C   UNL     1      -5.367 -11.551   7.324  1.00  0.00     0.031 C 
ATOM     47  C   UNL     1      -7.259  -5.910   4.484  1.00  0.00     0.029 A 
ATOM     48  C   UNL     1      -7.451  -6.061   5.912  1.00  0.00     0.049 A 
ATOM     49  H   UNL     1      -7.744  -7.851   6.956  1.00  0.00     0.167 HD
ATOM     50  C   UNL     1      -7.146 -11.606   9.152  1.00  0.00     0.037 A 
ATOM     51  C   UNL     1      -7.520  -5.114   6.878  1.00  0.00     0.037 A 
ATOM     52  C   UNL     1      -8.574 -11.408   9.219  1.00  0.00     0.049 A 
ATOM     53  C   UNL     1      -8.127  -5.752   8.072  1.00  0.00     0.074 A 
ATOM     54  C   UNL     1      -9.670 -11.997   8.618  1.00  0.00     0.029 A 
ATOM     55  N   UNL     1      -9.028 -10.211   9.719  1.00  0.00    -0.354 N 
ATOM     56  N   UNL     1      -9.364  -6.161   8.126  1.00  0.00    -0.248 NA
ATOM     57  C   UNL     1      -7.226  -6.357   9.041  1.00  0.00     0.031 C 
ATOM     58  C   UNL     1     -10.566 -10.919   8.351  1.00  0.00     0.029 A 
ATOM     59  C   UNL     1      -9.999  -9.753   8.867  1.00  0.00     0.049 A 
ATOM     60  H   UNL     1      -8.714  -9.765  10.538  1.00  0.00     0.167 HD
ATOM     61  C   UNL     1      -9.309  -7.363   8.816  1.00  0.00     0.074 A 
ATOM     62  C   UNL     1      -7.984  -7.385   9.435  1.00  0.00     0.031 C 
ATOM     63  C   UNL     1     -10.219  -8.354   8.580  1.00  0.00     0.037 A 
BRANCH  50  64
ATOM     64  C   UNL     1      -6.274 -11.525  10.388  1.00  0.00     0.057 A 
ATOM     65  C   UNL     1      -6.858 -11.769  11.647  1.00  0.00     0.134 A 
ATOM     66  C   UNL     1      -4.997 -10.928  10.434  1.00  0.00     0.134 A 
ATOM     67  F   UNL     1      -8.070 -12.336  11.746  1.00  0.00    -0.206 F 
ATOM     68  C   UNL     1      -6.266 -11.353  12.846  1.00  0.00     0.040 A 
ATOM     69  C   UNL     1      -4.374 -10.557  11.629  1.00  0.00     0.040 A 
ATOM     70  F   UNL     1      -4.322 -10.578   9.335  1.00  0.00    -0.206 F 
ATOM     71  C   UNL     1      -5.024 -10.732  12.839  1.00  0.00     0.006 A 
ENDBRANCH  50  64
BRANCH  51  72
ATOM     72  C   UNL     1      -6.843  -3.800   6.934  1.00  0.00     0.057 A 
ATOM     73  C   UNL     1      -7.269  -2.803   7.822  1.00  0.00     0.134 A 
ATOM     74  C   UNL     1      -5.597  -3.588   6.317  1.00  0.00     0.134 A 
ATOM     75  F   UNL     1      -8.426  -2.933   8.485  1.00  0.00    -0.206 F 
ATOM     76  C   UNL     1      -6.487  -1.675   8.104  1.00  0.00     0.040 A 
ATOM     77  C   UNL     1      -4.809  -2.464   6.585  1.00  0.00     0.040 A 
ATOM     78  F   UNL     1      -5.061  -4.510   5.503  1.00  0.00    -0.206 F 
ATOM     79  C   UNL     1      -5.247  -1.509   7.494  1.00  0.00     0.006 A 
ENDBRANCH  51  72
BRANCH  63  80
ATOM     80  C   UNL     1     -11.426  -8.018   7.745  1.00  0.00     0.057 A 
ATOM     81  C   UNL     1     -11.373  -7.642   6.394  1.00  0.00     0.134 A 
ATOM     82  C   UNL     1     -12.697  -8.233   8.288  1.00  0.00     0.134 A 
ATOM     83  F   UNL     1     -10.206  -7.509   5.755  1.00  0.00    -0.206 F 
ATOM     84  C   UNL     1     -12.530  -7.447   5.633  1.00  0.00     0.040 A 
ATOM     85  C   UNL     1     -13.860  -8.074   7.530  1.00  0.00     0.040 A 
ATOM     86  F   UNL     1     -12.828  -8.651   9.557  1.00  0.00    -0.206 F 
ATOM     87  C   UNL     1     -13.780  -7.670   6.200  1.00  0.00     0.006 A 
ENDBRANCH  63  80
ENDBRANCH  37  38
ENDBRANCH  29  32
ENDBRANCH  27  28
ENDBRANCH   1  27
TORSDOF 15
