REMARK SMILES CCCc1cc2c(cc1Cl)C=C(C(=O)NCCCNC(=O)c1ccc(-c3c4nc(c(-c5c(F)cccc5F)c5ccc([nH]5)c(-c5c(F)cccc5F)c5nc(c(-c6c(F)cccc6F)c6ccc3[nH]6)C=C5)C=C4)cc1)[C@@H](C(F)(F)F)O2
REMARK SMILES IDX 17 1 16 2 15 3 13 4 14 5 12 7 4 8 5 9 9 10 6 11 8 12 10 13
REMARK SMILES IDX 7 14 81 15 11 16 76 17 3 18 2 19 1 20 77 21 78 22 79 23
REMARK SMILES IDX 80 24 18 25 19 26 20 27 21 29 22 30 23 31 75 32 24 33 74 34
REMARK SMILES IDX 25 35 26 36 27 37 68 38 28 39 73 40 67 41 69 42 29 43 72 44
REMARK SMILES IDX 66 45 65 46 30 48 56 49 39 50 55 51 40 52 43 53 54 54 70 55
REMARK SMILES IDX 41 56 42 57 53 59 71 60 44 61 31 62 32 63 37 64 33 65 34 66
REMARK SMILES IDX 36 67 38 68 35 69 57 70 58 71 63 72 59 73 60 74 62 75 64 76
REMARK SMILES IDX 61 77 45 78 46 79 51 80 47 81 48 82 50 83 52 84 49 85
REMARK H PARENT 15 6 19 28 69 47 43 58
REMARK Flexibility Score: inf
ROOT
ATOM      1  C   UNL     1       0.249  -8.707   6.765  1.00  0.00     0.042 C 
ENDROOT
BRANCH   1   2
ATOM      2  C   UNL     1      -1.021  -8.055   6.244  1.00  0.00     0.118 C 
BRANCH   2   3
ATOM      3  N   UNL     1      -1.198  -6.721   6.793  1.00  0.00    -0.352 N 
ATOM      4  C   UNL     1      -1.072  -5.447   6.361  1.00  0.00     0.251 C 
ATOM      5  O   UNL     1      -1.295  -4.582   7.215  1.00  0.00    -0.270 OA
ATOM      6  H   UNL     1      -1.489  -6.755   7.733  1.00  0.00     0.163 HD
BRANCH   4   7
ATOM      7  C   UNL     1      -0.700  -5.043   4.978  1.00  0.00     0.067 C 
ATOM      8  C   UNL     1       0.286  -2.427   0.761  1.00  0.00    -0.026 A 
ATOM      9  C   UNL     1       0.613  -3.719   1.238  1.00  0.00     0.052 A 
ATOM     10  C   UNL     1      -0.439  -1.589   1.627  1.00  0.00     0.045 A 
ATOM     11  C   UNL     1       0.245  -4.139   2.513  1.00  0.00     0.128 A 
ATOM     12  C   UNL     1      -0.739  -1.996   2.939  1.00  0.00     0.032 A 
ATOM     13  Cl  UNL     1      -1.077  -0.045   1.194  1.00  0.00    -0.084 Cl
ATOM     14  C   UNL     1      -0.400  -3.270   3.384  1.00  0.00     0.019 A 
ATOM     15  O   UNL     1       0.542  -5.427   2.865  1.00  0.00    -0.475 OA
ATOM     16  C   UNL     1      -0.713  -3.719   4.734  1.00  0.00     0.025 C 
ATOM     17  C   UNL     1      -0.357  -5.994   3.866  1.00  0.00     0.314 C 
BRANCH   8  18
ATOM     18  C   UNL     1       0.712  -2.164  -0.673  1.00  0.00     0.037 C 
BRANCH  18  19
ATOM     19  C   UNL     1       0.748  -0.762  -1.282  1.00  0.00     0.001 C 
ATOM     20  C   UNL     1       1.772   0.162  -0.638  1.00  0.00     0.004 C 
ENDBRANCH  18  19
ENDBRANCH   8  18
BRANCH  17  21
ATOM     21  C   UNL     1      -1.613  -6.579   3.182  1.00  0.00     0.429 C 
ATOM     22  F   UNL     1      -1.295  -7.703   2.492  1.00  0.00    -0.167 F 
ATOM     23  F   UNL     1      -2.569  -6.935   4.075  1.00  0.00    -0.167 F 
ATOM     24  F   UNL     1      -2.195  -5.722   2.315  1.00  0.00    -0.167 F 
ENDBRANCH  17  21
ENDBRANCH   4   7
ENDBRANCH   2   3
ENDBRANCH   1   2
BRANCH   1  25
ATOM     25  C   UNL     1       0.114  -9.153   8.214  1.00  0.00     0.118 C 
BRANCH  25  26
ATOM     26  N   UNL     1      -0.847 -10.244   8.366  1.00  0.00    -0.352 N 
ATOM     27  C   UNL     1      -0.645 -11.570   8.662  1.00  0.00     0.251 C 
ATOM     28  H   UNL     1      -1.788  -9.988   8.234  1.00  0.00     0.163 HD
ATOM     29  O   UNL     1      -1.553 -12.381   8.505  1.00  0.00    -0.269 OA
BRANCH  27  30
ATOM     30  C   UNL     1       0.672 -12.019   9.153  1.00  0.00     0.039 A 
ATOM     31  C   UNL     1       1.374 -11.243  10.074  1.00  0.00     0.014 A 
ATOM     32  C   UNL     1       1.218 -13.217   8.682  1.00  0.00     0.014 A 
ATOM     33  C   UNL     1       2.696 -11.547  10.358  1.00  0.00     0.010 A 
ATOM     34  C   UNL     1       2.510 -13.585   9.067  1.00  0.00     0.010 A 
ATOM     35  C   UNL     1       3.280 -12.724   9.864  1.00  0.00    -0.014 A 
BRANCH  35  36
ATOM     36  C   UNL     1       4.698 -13.014  10.198  1.00  0.00     0.031 A 
ATOM     37  C   UNL     1       5.741 -13.105   9.117  1.00  0.00     0.074 A 
ATOM     38  C   UNL     1       5.053 -13.117  11.493  1.00  0.00     0.049 A 
ATOM     39  N   UNL     1       7.027 -13.331   9.229  1.00  0.00    -0.248 NA
ATOM     40  C   UNL     1       5.286 -12.925   7.730  1.00  0.00     0.031 C 
ATOM     41  C   UNL     1       4.133 -13.031  12.630  1.00  0.00     0.029 A 
ATOM     42  N   UNL     1       6.283 -13.280  12.076  1.00  0.00    -0.354 N 
ATOM     43  C   UNL     1       7.526 -13.346   7.932  1.00  0.00     0.074 A 
ATOM     44  C   UNL     1       6.402 -13.134   7.046  1.00  0.00     0.031 C 
ATOM     45  C   UNL     1       4.836 -13.070  13.771  1.00  0.00     0.029 A 
ATOM     46  C   UNL     1       6.243 -13.266  13.449  1.00  0.00     0.049 A 
ATOM     47  H   UNL     1       7.114 -13.395  11.561  1.00  0.00     0.167 HD
ATOM     48  C   UNL     1       8.805 -13.512   7.519  1.00  0.00     0.037 A 
ATOM     49  C   UNL     1       7.229 -13.414  14.351  1.00  0.00     0.037 A 
ATOM     50  C   UNL     1       9.924 -13.700   8.407  1.00  0.00     0.049 A 
ATOM     51  C   UNL     1       8.629 -13.642  13.864  1.00  0.00     0.074 A 
ATOM     52  C   UNL     1      11.262 -13.863   8.090  1.00  0.00     0.029 A 
ATOM     53  N   UNL     1       9.834 -13.745   9.791  1.00  0.00    -0.354 N 
ATOM     54  N   UNL     1       9.083 -13.660  12.634  1.00  0.00    -0.248 NA
ATOM     55  C   UNL     1       9.650 -13.886  14.890  1.00  0.00     0.031 C 
ATOM     56  C   UNL     1      11.975 -14.046   9.281  1.00  0.00     0.029 A 
ATOM     57  C   UNL     1      11.088 -13.955  10.341  1.00  0.00     0.049 A 
ATOM     58  H   UNL     1       9.001 -13.644  10.306  1.00  0.00     0.167 HD
ATOM     59  C   UNL     1      10.444 -13.910  12.738  1.00  0.00     0.074 A 
ATOM     60  C   UNL     1      10.745 -14.006  14.152  1.00  0.00     0.031 C 
ATOM     61  C   UNL     1      11.363 -14.054  11.752  1.00  0.00     0.037 A 
BRANCH  48  62
ATOM     62  C   UNL     1       9.058 -13.522   6.039  1.00  0.00     0.057 A 
ATOM     63  C   UNL     1       9.406 -14.711   5.384  1.00  0.00     0.134 A 
ATOM     64  C   UNL     1       8.979 -12.358   5.263  1.00  0.00     0.134 A 
ATOM     65  F   UNL     1       9.504 -15.861   6.066  1.00  0.00    -0.206 F 
ATOM     66  C   UNL     1       9.664 -14.741   4.012  1.00  0.00     0.040 A 
ATOM     67  C   UNL     1       9.212 -12.380   3.886  1.00  0.00     0.040 A 
ATOM     68  F   UNL     1       8.636 -11.189   5.825  1.00  0.00    -0.206 F 
ATOM     69  C   UNL     1       9.561 -13.575   3.258  1.00  0.00     0.006 A 
ENDBRANCH  48  62
BRANCH  49  70
ATOM     70  C   UNL     1       6.922 -13.379  15.803  1.00  0.00     0.057 A 
ATOM     71  C   UNL     1       6.172 -14.391  16.413  1.00  0.00     0.134 A 
ATOM     72  C   UNL     1       7.378 -12.334  16.614  1.00  0.00     0.134 A 
ATOM     73  F   UNL     1       5.702 -15.417  15.688  1.00  0.00    -0.206 F 
ATOM     74  C   UNL     1       5.875 -14.361  17.776  1.00  0.00     0.040 A 
ATOM     75  C   UNL     1       7.113 -12.306  17.984  1.00  0.00     0.040 A 
ATOM     76  F   UNL     1       8.116 -11.345  16.090  1.00  0.00    -0.206 F 
ATOM     77  C   UNL     1       6.354 -13.319  18.567  1.00  0.00     0.006 A 
ENDBRANCH  49  70
BRANCH  61  78
ATOM     78  C   UNL     1      12.775 -14.311  12.183  1.00  0.00     0.057 A 
ATOM     79  C   UNL     1      13.750 -13.312  12.069  1.00  0.00     0.134 A 
ATOM     80  C   UNL     1      13.170 -15.547  12.712  1.00  0.00     0.134 A 
ATOM     81  F   UNL     1      13.437 -12.109  11.566  1.00  0.00    -0.206 F 
ATOM     82  C   UNL     1      15.067 -13.532  12.471  1.00  0.00     0.040 A 
ATOM     83  C   UNL     1      14.479 -15.770  13.141  1.00  0.00     0.040 A 
ATOM     84  F   UNL     1      12.278 -16.538  12.863  1.00  0.00    -0.206 F 
ATOM     85  C   UNL     1      15.432 -14.762  13.016  1.00  0.00     0.006 A 
ENDBRANCH  61  78
ENDBRANCH  35  36
ENDBRANCH  27  30
ENDBRANCH  25  26
ENDBRANCH   1  25
TORSDOF 13
