REMARK SMILES O=C(NCCCNC(=O)c1nnn(-c2cccc(Br)c2)c1[C@@H]1COc2ccccc2O1)c1ccc(-c2c3nc(c(-c4c(F)cccc4F)c4ccc([nH]4)c(-c4c(F)cccc4F)c4nc(c(-c5c(F)cccc5F)c5ccc2[nH]5)C=C4)C=C3)cc1
REMARK SMILES IDX 4 1 3 2 1 3 2 4 32 6 33 7 85 8 34 9 84 10 35 11 36 12 37 13
REMARK SMILES IDX 78 14 38 15 83 16 77 17 79 18 39 19 82 20 76 21 75 22 40 24
REMARK SMILES IDX 66 25 49 26 65 27 50 28 53 29 64 30 80 31 51 32 52 33 63 35
REMARK SMILES IDX 81 36 54 37 41 38 42 39 47 40 43 41 44 42 46 43 48 44 45 45
REMARK SMILES IDX 67 46 68 47 73 48 69 49 70 50 72 51 74 52 71 53 55 54 56 55
REMARK SMILES IDX 61 56 57 57 58 58 60 59 62 60 59 61 5 62 6 63 7 64 8 65 9 67
REMARK SMILES IDX 10 68 11 69 21 70 12 71 13 72 22 73 23 74 31 75 24 76 30 77
REMARK SMILES IDX 25 78 29 79 26 80 28 81 27 82 14 83 15 84 20 85 16 86 18 87
REMARK SMILES IDX 17 88 19 89
REMARK H PARENT 3 5 79 23 53 34 7 66
REMARK Flexibility Score: inf
ROOT
ATOM      1  C   UNL     1       5.282   0.396   0.397  1.00  0.00     0.118 C 
ENDROOT
BRANCH   1   2
ATOM      2  N   UNL     1       3.867   0.183   0.625  1.00  0.00    -0.352 N 
ATOM      3  O   UNL     1       1.808  -0.487   0.160  1.00  0.00    -0.269 OA
ATOM      4  C   UNL     1       2.753   0.232  -0.172  1.00  0.00     0.251 C 
ATOM      5  H   UNL     1       3.659  -0.047   1.560  1.00  0.00     0.163 HD
BRANCH   4   6
ATOM      6  C   UNL     1       2.575   1.161  -1.318  1.00  0.00     0.039 A 
ATOM      7  C   UNL     1       3.596   1.904  -1.901  1.00  0.00     0.014 A 
ATOM      8  C   UNL     1       1.257   1.335  -1.794  1.00  0.00     0.014 A 
ATOM      9  C   UNL     1       3.304   2.831  -2.895  1.00  0.00     0.010 A 
ATOM     10  C   UNL     1       0.960   2.254  -2.802  1.00  0.00     0.010 A 
ATOM     11  C   UNL     1       1.990   3.010  -3.347  1.00  0.00    -0.014 A 
BRANCH  11  12
ATOM     12  C   UNL     1       1.825   3.852  -4.529  1.00  0.00     0.031 A 
ATOM     13  C   UNL     1       2.511   3.335  -5.746  1.00  0.00     0.074 A 
ATOM     14  C   UNL     1       1.085   4.970  -4.635  1.00  0.00     0.049 A 
ATOM     15  N   UNL     1       3.523   3.848  -6.367  1.00  0.00    -0.248 NA
ATOM     16  C   UNL     1       2.068   2.040  -6.279  1.00  0.00     0.031 C 
ATOM     17  C   UNL     1       0.080   5.498  -3.717  1.00  0.00     0.029 A 
ATOM     18  N   UNL     1       1.054   5.849  -5.681  1.00  0.00    -0.354 N 
ATOM     19  C   UNL     1       3.753   3.029  -7.470  1.00  0.00     0.074 A 
ATOM     20  C   UNL     1       2.906   1.875  -7.303  1.00  0.00     0.031 C 
ATOM     21  C   UNL     1      -0.592   6.501  -4.332  1.00  0.00     0.029 A 
ATOM     22  C   UNL     1       0.020   6.767  -5.626  1.00  0.00     0.049 A 
ATOM     23  H   UNL     1       1.713   5.830  -6.413  1.00  0.00     0.167 HD
ATOM     24  C   UNL     1       4.497   3.445  -8.531  1.00  0.00     0.037 A 
ATOM     25  C   UNL     1      -0.333   7.643  -6.599  1.00  0.00     0.037 A 
ATOM     26  C   UNL     1       5.335   4.565  -8.189  1.00  0.00     0.049 A 
ATOM     27  C   UNL     1       0.819   7.814  -7.517  1.00  0.00     0.074 A 
ATOM     28  C   UNL     1       6.323   4.796  -7.249  1.00  0.00     0.029 A 
ATOM     29  N   UNL     1       5.004   5.804  -8.677  1.00  0.00    -0.354 N 
ATOM     30  N   UNL     1       1.906   8.471  -7.230  1.00  0.00    -0.248 NA
ATOM     31  C   UNL     1       0.910   6.938  -8.676  1.00  0.00     0.031 C 
ATOM     32  C   UNL     1       6.165   6.164  -6.874  1.00  0.00     0.029 A 
ATOM     33  C   UNL     1       5.112   6.678  -7.629  1.00  0.00     0.049 A 
ATOM     34  H   UNL     1       4.741   6.021  -9.601  1.00  0.00     0.167 HD
ATOM     35  C   UNL     1       2.917   7.784  -7.884  1.00  0.00     0.074 A 
ATOM     36  C   UNL     1       2.233   6.933  -8.851  1.00  0.00     0.031 C 
ATOM     37  C   UNL     1       4.191   7.763  -7.395  1.00  0.00     0.037 A 
BRANCH  24  38
ATOM     38  C   UNL     1       4.221   3.058  -9.964  1.00  0.00     0.057 A 
ATOM     39  C   UNL     1       5.126   3.447 -10.971  1.00  0.00     0.134 A 
ATOM     40  C   UNL     1       2.975   2.594 -10.430  1.00  0.00     0.134 A 
ATOM     41  F   UNL     1       6.345   3.915 -10.659  1.00  0.00    -0.206 F 
ATOM     42  C   UNL     1       4.782   3.459 -12.328  1.00  0.00     0.040 A 
ATOM     43  C   UNL     1       2.641   2.551 -11.787  1.00  0.00     0.040 A 
ATOM     44  F   UNL     1       1.981   2.253  -9.601  1.00  0.00    -0.206 F 
ATOM     45  C   UNL     1       3.531   3.020 -12.739  1.00  0.00     0.006 A 
ENDBRANCH  24  38
BRANCH  25  46
ATOM     46  C   UNL     1      -1.666   8.193  -6.924  1.00  0.00     0.057 A 
ATOM     47  C   UNL     1      -1.807   9.332  -7.731  1.00  0.00     0.134 A 
ATOM     48  C   UNL     1      -2.838   7.458  -6.682  1.00  0.00     0.134 A 
ATOM     49  F   UNL     1      -0.741  10.077  -8.054  1.00  0.00    -0.206 F 
ATOM     50  C   UNL     1      -3.038   9.703  -8.286  1.00  0.00     0.040 A 
ATOM     51  C   UNL     1      -4.075   7.823  -7.222  1.00  0.00     0.040 A 
ATOM     52  F   UNL     1      -2.806   6.310  -5.989  1.00  0.00    -0.206 F 
ATOM     53  C   UNL     1      -4.176   8.941  -8.040  1.00  0.00     0.006 A 
ENDBRANCH  25  46
BRANCH  37  54
ATOM     54  C   UNL     1       4.560   8.758  -6.333  1.00  0.00     0.057 A 
ATOM     55  C   UNL     1       3.936   8.841  -5.080  1.00  0.00     0.134 A 
ATOM     56  C   UNL     1       5.675   9.580  -6.543  1.00  0.00     0.134 A 
ATOM     57  F   UNL     1       2.934   8.015  -4.745  1.00  0.00    -0.206 F 
ATOM     58  C   UNL     1       4.365   9.747  -4.106  1.00  0.00     0.040 A 
ATOM     59  C   UNL     1       6.136  10.461  -5.564  1.00  0.00     0.040 A 
ATOM     60  F   UNL     1       6.360   9.511  -7.696  1.00  0.00    -0.206 F 
ATOM     61  C   UNL     1       5.471  10.558  -4.345  1.00  0.00     0.006 A 
ENDBRANCH  37  54
ENDBRANCH  11  12
ENDBRANCH   4   6
ENDBRANCH   1   2
BRANCH   1  62
ATOM     62  C   UNL     1       5.854   1.744   0.836  1.00  0.00     0.042 C 
BRANCH  62  63
ATOM     63  C   UNL     1       5.575   2.175   2.273  1.00  0.00     0.118 C 
BRANCH  63  64
ATOM     64  N   UNL     1       6.025   1.237   3.285  1.00  0.00    -0.351 N 
ATOM     65  C   UNL     1       6.299   1.515   4.608  1.00  0.00     0.273 C 
ATOM     66  H   UNL     1       6.146   0.303   2.998  1.00  0.00     0.163 HD
ATOM     67  O   UNL     1       6.633   0.603   5.365  1.00  0.00    -0.267 OA
BRANCH  65  68
ATOM     68  C   UNL     1       6.255   2.904   5.026  1.00  0.00     0.178 A 
ATOM     69  N   UNL     1       7.388   3.661   4.915  1.00  0.00    -0.124 NA
ATOM     70  C   UNL     1       5.192   3.697   5.464  1.00  0.00     0.122 A 
ATOM     71  N   UNL     1       7.074   4.909   5.187  1.00  0.00    -0.061 NA
ATOM     72  N   UNL     1       5.765   4.968   5.526  1.00  0.00    -0.213 N 
BRANCH  70  73
ATOM     73  C   UNL     1       3.738   3.408   5.718  1.00  0.00     0.262 C 
ATOM     74  C   UNL     1       3.455   2.727   7.058  1.00  0.00     0.281 C 
ATOM     75  O   UNL     1       3.169   2.692   4.612  1.00  0.00    -0.477 OA
ATOM     76  O   UNL     1       3.922   1.377   7.081  1.00  0.00    -0.485 OA
ATOM     77  C   UNL     1       3.054   1.342   4.813  1.00  0.00     0.162 A 
ATOM     78  C   UNL     1       3.494   0.699   5.971  1.00  0.00     0.161 A 
ATOM     79  C   UNL     1       2.564   0.595   3.745  1.00  0.00     0.050 A 
ATOM     80  C   UNL     1       3.583  -0.690   6.001  1.00  0.00     0.050 A 
ATOM     81  C   UNL     1       2.617  -0.799   3.790  1.00  0.00     0.004 A 
ATOM     82  C   UNL     1       3.163  -1.439   4.902  1.00  0.00     0.004 A 
ENDBRANCH  70  73
BRANCH  72  83
ATOM     83  C   UNL     1       5.184   6.246   5.734  1.00  0.00     0.068 A 
ATOM     84  C   UNL     1       4.149   6.467   6.647  1.00  0.00     0.028 A 
ATOM     85  C   UNL     1       5.667   7.314   4.957  1.00  0.00     0.044 A 
ATOM     86  C   UNL     1       3.554   7.729   6.728  1.00  0.00     0.003 A 
ATOM     87  C   UNL     1       5.052   8.560   5.031  1.00  0.00     0.020 A 
ATOM     88  C   UNL     1       3.990   8.770   5.907  1.00  0.00     0.016 A 
ATOM     89  Br  UNL     1       5.638   9.960   3.905  1.00  0.00    -0.051 Br
ENDBRANCH  72  83
ENDBRANCH  65  68
ENDBRANCH  63  64
ENDBRANCH  62  63
ENDBRANCH   1  62
TORSDOF 12
