REMARK SMILES Cc1sc(NC(=O)[C@@H]2[C@@H](C(=O)NCCCNC(=O)c3ccc(-c4c5nc(c(-c6c(F)cccc6F)c6ccc([nH]6)c(-c6c(F)cccc6F)c6nc(c(-c7c(F)cccc7F)c7ccc4[nH]7)C=C6)C=C5)cc3)[C@@H]3C=C[C@H]2C3)c(C#N)c1C
REMARK SMILES IDX 13 1 12 2 10 3 11 4 9 6 8 7 76 8 73 9 75 10 77 11 74 12 6 13
REMARK SMILES IDX 5 14 7 16 4 17 1 18 2 19 3 20 81 21 78 22 82 23 79 24 80 25
REMARK SMILES IDX 14 26 15 27 16 28 17 29 18 31 19 32 20 33 72 34 21 35 71 36
REMARK SMILES IDX 22 37 23 38 24 39 65 40 25 41 70 42 64 43 66 44 26 45 69 46
REMARK SMILES IDX 63 47 62 48 27 50 53 51 36 52 52 53 37 54 40 55 51 56 67 57
REMARK SMILES IDX 38 58 39 59 50 61 68 62 41 63 28 64 29 65 34 66 30 67 31 68
REMARK SMILES IDX 33 69 35 70 32 71 54 72 55 73 60 74 56 75 57 76 59 77 61 78
REMARK SMILES IDX 58 79 42 80 43 81 48 82 44 83 45 84 47 85 49 86 46 87
REMARK H PARENT 12 5 5 15 16 30 66 49 40 60
REMARK Flexibility Score: inf
ROOT
ATOM      1  C   UNL     1       3.615  -2.464  -3.549  1.00  0.00     0.117 C 
ENDROOT
BRANCH   1   2
ATOM      2  N   UNL     1       3.934  -2.398  -2.130  1.00  0.00    -0.356 N 
ATOM      3  C   UNL     1       3.827  -3.409  -1.211  1.00  0.00     0.224 C 
ATOM      4  O   UNL     1       4.388  -3.285  -0.124  1.00  0.00    -0.275 OA
ATOM      5  H   UNL     1       4.261  -1.533  -1.794  1.00  0.00     0.163 HD
BRANCH   3   6
ATOM      6  C   UNL     1       3.014  -4.635  -1.607  1.00  0.00     0.098 C 
ATOM      7  C   UNL     1       2.752  -5.664  -0.451  1.00  0.00     0.099 C 
ATOM      8  C   UNL     1       3.496  -6.928  -1.027  1.00  0.00     0.025 C 
ATOM      9  C   UNL     1       3.910  -5.427  -2.603  1.00  0.00     0.025 C 
ATOM     10  C   UNL     1       2.807  -7.387  -2.308  1.00  0.00    -0.027 C 
ATOM     11  C   UNL     1       4.731  -6.304  -1.661  1.00  0.00     0.017 C 
ATOM     12  C   UNL     1       3.041  -6.464  -3.249  1.00  0.00    -0.027 C 
BRANCH   7  13
ATOM     13  C   UNL     1       1.312  -6.069  -0.089  1.00  0.00     0.229 C 
ATOM     14  N   UNL     1       0.260  -5.271   0.220  1.00  0.00    -0.316 N 
ATOM     15  H   UNL     1      -0.568  -5.789   0.343  1.00  0.00     0.170 HD
ATOM     16  O   UNL     1       1.033  -7.277   0.005  1.00  0.00    -0.274 OA
BRANCH  14  17
ATOM     17  C   UNL     1       0.052  -3.922   0.405  1.00  0.00     0.113 A 
ATOM     18  C   UNL     1       0.895  -0.129   0.152  1.00  0.00     0.057 C 
ATOM     19  C   UNL     1       0.300  -1.475   0.402  1.00  0.00     0.008 A 
ATOM     20  S   UNL     1       1.321  -2.830   0.517  1.00  0.00    -0.122 S 
ATOM     21  C   UNL     1      -1.023  -1.833   0.599  1.00  0.00    -0.017 A 
ATOM     22  C   UNL     1      -1.155  -3.274   0.614  1.00  0.00     0.090 A 
ATOM     23  C   UNL     1      -2.166  -0.877   0.733  1.00  0.00     0.047 C 
BRANCH  22  24
ATOM     24  C   UNL     1      -2.402  -3.962   0.765  1.00  0.00     0.103 C 
ATOM     25  N   UNL     1      -3.415  -4.523   0.892  1.00  0.00    -0.192 NA
ENDBRANCH  22  24
ENDBRANCH  14  17
ENDBRANCH   7  13
ENDBRANCH   3   6
ENDBRANCH   1   2
BRANCH   1  26
ATOM     26  C   UNL     1       2.763  -1.322  -4.068  1.00  0.00     0.042 C 
BRANCH  26  27
ATOM     27  C   UNL     1       3.458   0.011  -3.951  1.00  0.00     0.118 C 
BRANCH  27  28
ATOM     28  N   UNL     1       4.695   0.137  -4.741  1.00  0.00    -0.352 N 
ATOM     29  C   UNL     1       5.395   1.299  -5.048  1.00  0.00     0.251 C 
ATOM     30  H   UNL     1       5.072  -0.702  -5.093  1.00  0.00     0.163 HD
ATOM     31  O   UNL     1       6.267   1.328  -5.904  1.00  0.00    -0.269 OA
BRANCH  29  32
ATOM     32  C   UNL     1       5.096   2.489  -4.244  1.00  0.00     0.039 A 
ATOM     33  C   UNL     1       5.069   3.824  -4.662  1.00  0.00     0.014 A 
ATOM     34  C   UNL     1       4.845   2.222  -2.922  1.00  0.00     0.014 A 
ATOM     35  C   UNL     1       4.744   4.793  -3.701  1.00  0.00     0.010 A 
ATOM     36  C   UNL     1       3.916   3.012  -2.361  1.00  0.00     0.010 A 
ATOM     37  C   UNL     1       4.268   4.330  -2.477  1.00  0.00    -0.014 A 
BRANCH  37  38
ATOM     38  C   UNL     1       3.868   5.055  -1.295  1.00  0.00     0.031 A 
ATOM     39  C   UNL     1       2.574   5.756  -1.480  1.00  0.00     0.074 A 
ATOM     40  C   UNL     1       4.405   4.705  -0.098  1.00  0.00     0.049 A 
ATOM     41  N   UNL     1       2.404   7.014  -1.721  1.00  0.00    -0.248 NA
ATOM     42  C   UNL     1       1.353   4.952  -1.714  1.00  0.00     0.031 C 
ATOM     43  C   UNL     1       5.449   3.708   0.204  1.00  0.00     0.029 A 
ATOM     44  N   UNL     1       4.059   5.138   1.145  1.00  0.00    -0.354 N 
ATOM     45  C   UNL     1       1.027   7.175  -1.824  1.00  0.00     0.074 A 
ATOM     46  C   UNL     1       0.509   5.883  -2.163  1.00  0.00     0.031 C 
ATOM     47  C   UNL     1       5.502   3.473   1.537  1.00  0.00     0.029 A 
ATOM     48  C   UNL     1       4.614   4.404   2.201  1.00  0.00     0.049 A 
ATOM     49  H   UNL     1       3.464   5.909   1.290  1.00  0.00     0.167 HD
ATOM     50  C   UNL     1       0.407   8.237  -1.236  1.00  0.00     0.037 A 
ATOM     51  C   UNL     1       4.319   4.582   3.517  1.00  0.00     0.037 A 
ATOM     52  C   UNL     1       1.394   9.205  -0.809  1.00  0.00     0.049 A 
ATOM     53  C   UNL     1       3.689   5.927   3.629  1.00  0.00     0.074 A 
ATOM     54  C   UNL     1       2.362   9.955  -1.447  1.00  0.00     0.029 A 
ATOM     55  N   UNL     1       1.763   9.156   0.516  1.00  0.00    -0.354 N 
ATOM     56  N   UNL     1       4.331   7.035   3.367  1.00  0.00    -0.248 NA
ATOM     57  C   UNL     1       2.243   5.990   3.468  1.00  0.00     0.031 C 
ATOM     58  C   UNL     1       3.492   9.916  -0.575  1.00  0.00     0.029 A 
ATOM     59  C   UNL     1       3.128   9.248   0.596  1.00  0.00     0.049 A 
ATOM     60  H   UNL     1       1.148   9.070   1.280  1.00  0.00     0.167 HD
ATOM     61  C   UNL     1       3.448   7.788   2.602  1.00  0.00     0.074 A 
ATOM     62  C   UNL     1       2.158   7.107   2.736  1.00  0.00     0.031 C 
ATOM     63  C   UNL     1       3.908   8.686   1.678  1.00  0.00     0.037 A 
BRANCH  50  64
ATOM     64  C   UNL     1      -0.983   8.215  -0.632  1.00  0.00     0.057 A 
ATOM     65  C   UNL     1      -1.504   9.425  -0.137  1.00  0.00     0.134 A 
ATOM     66  C   UNL     1      -1.704   7.063  -0.253  1.00  0.00     0.134 A 
ATOM     67  F   UNL     1      -0.928  10.597  -0.441  1.00  0.00    -0.206 F 
ATOM     68  C   UNL     1      -2.582   9.473   0.755  1.00  0.00     0.040 A 
ATOM     69  C   UNL     1      -2.810   7.105   0.601  1.00  0.00     0.040 A 
ATOM     70  F   UNL     1      -1.345   5.824  -0.600  1.00  0.00    -0.206 F 
ATOM     71  C   UNL     1      -3.229   8.307   1.141  1.00  0.00     0.006 A 
ENDBRANCH  50  64
BRANCH  51  72
ATOM     72  C   UNL     1       4.212   3.564   4.591  1.00  0.00     0.057 A 
ATOM     73  C   UNL     1       4.271   3.903   5.951  1.00  0.00     0.134 A 
ATOM     74  C   UNL     1       3.760   2.264   4.303  1.00  0.00     0.134 A 
ATOM     75  F   UNL     1       4.634   5.138   6.328  1.00  0.00    -0.206 F 
ATOM     76  C   UNL     1       3.901   3.003   6.964  1.00  0.00     0.040 A 
ATOM     77  C   UNL     1       3.387   1.357   5.302  1.00  0.00     0.040 A 
ATOM     78  F   UNL     1       3.577   1.868   3.034  1.00  0.00    -0.206 F 
ATOM     79  C   UNL     1       3.448   1.727   6.640  1.00  0.00     0.006 A 
ENDBRANCH  51  72
BRANCH  63  80
ATOM     80  C   UNL     1       5.388   8.981   1.667  1.00  0.00     0.057 A 
ATOM     81  C   UNL     1       6.386   8.068   1.284  1.00  0.00     0.134 A 
ATOM     82  C   UNL     1       5.806  10.291   1.908  1.00  0.00     0.134 A 
ATOM     83  F   UNL     1       6.080   6.816   0.934  1.00  0.00    -0.206 F 
ATOM     84  C   UNL     1       7.734   8.431   1.186  1.00  0.00     0.040 A 
ATOM     85  C   UNL     1       7.144  10.676   1.787  1.00  0.00     0.040 A 
ATOM     86  F   UNL     1       4.905  11.236   2.217  1.00  0.00    -0.206 F 
ATOM     87  C   UNL     1       8.116   9.743   1.436  1.00  0.00     0.006 A 
ENDBRANCH  63  80
ENDBRANCH  37  38
ENDBRANCH  29  32
ENDBRANCH  27  28
ENDBRANCH  26  27
ENDBRANCH   1  26
TORSDOF 13
