REMARK SMILES C[C@@H]1C[N@@H+]([C@@H]2CC[C@]([NH2+]C3CC3)(C(=O)NCCCNC(=O)c3ccc(-c4c5nc(c(-c6c(F)cccc6F)c6ccc([nH]6)c(-c6c(F)cccc6F)c6nc(c(-c7c(F)cccc7F)c7ccc4[nH]7)C=C6)C=C5)cc3)C2)CC(C)(C)O1
REMARK SMILES IDX 17 1 16 2 15 3 13 4 14 5 8 7 5 8 6 9 76 10 7 11 4 12 1 13
REMARK SMILES IDX 2 14 3 15 81 16 78 17 77 18 79 20 80 21 9 22 10 25 11 26
REMARK SMILES IDX 12 27 18 28 19 29 20 30 21 32 22 33 23 34 75 35 24 36 74 37
REMARK SMILES IDX 25 38 26 39 27 40 68 41 28 42 73 43 67 44 69 45 29 46 72 47
REMARK SMILES IDX 66 48 65 49 30 51 56 52 39 53 55 54 40 55 43 56 54 57 70 58
REMARK SMILES IDX 41 59 42 60 53 62 71 63 44 64 31 65 32 66 37 67 33 68 34 69
REMARK SMILES IDX 36 70 38 71 35 72 57 73 58 74 63 75 59 76 60 77 62 78 64 79
REMARK SMILES IDX 61 80 45 81 46 82 51 83 47 84 48 85 50 86 52 87 49 88
REMARK H PARENT 15 6 4 19 9 23 9 24 19 31 69 50 43 61
REMARK Flexibility Score: inf
ROOT
ATOM      1  C   UNL     1      -3.734  -1.977   1.148  1.00  0.00     0.042 C 
ENDROOT
BRANCH   1   2
ATOM      2  C   UNL     1      -4.513  -1.685  -0.138  1.00  0.00     0.118 C 
BRANCH   2   3
ATOM      3  N   UNL     1      -5.582  -0.732   0.094  1.00  0.00    -0.351 N 
ATOM      4  C   UNL     1      -5.703   0.607  -0.100  1.00  0.00     0.281 C 
ATOM      5  O   UNL     1      -6.796   1.084   0.245  1.00  0.00    -0.268 OA
ATOM      6  H   UNL     1      -6.393  -1.143   0.472  1.00  0.00     0.163 HD
BRANCH   4   7
ATOM      7  C   UNL     1      -4.654   1.529  -0.823  1.00  0.00     0.181 C 
ATOM      8  C   UNL     1      -2.334   2.307  -0.682  1.00  0.00     0.191 C 
ATOM      9  C   UNL     1      -3.143   3.195   0.260  1.00  0.00     0.072 C 
ATOM     10  C   UNL     1      -3.199   1.052  -0.786  1.00  0.00     0.144 C 
ATOM     11  C   UNL     1      -4.614   2.880  -0.043  1.00  0.00     0.085 C 
BRANCH   8  12
ATOM     12  N   UNL     1      -0.928   2.028  -0.357  1.00  0.00    -0.328 N 
ATOM     13  C   UNL     1       1.234  -0.205   0.355  1.00  0.00     0.045 C 
ATOM     14  C   UNL     1       0.811   1.035   1.141  1.00  0.00     0.171 C 
ATOM     15  C   UNL     1      -0.678   1.394   0.951  1.00  0.00     0.294 C 
ATOM     16  O   UNL     1       1.683   2.151   0.912  1.00  0.00    -0.361 OA
ATOM     17  C   UNL     1       1.415   2.939  -0.264  1.00  0.00     0.112 C 
ATOM     18  C   UNL     1      -0.098   3.249  -0.424  1.00  0.00     0.297 C 
ATOM     19  H   UNL     1      -0.667   1.351  -1.073  1.00  0.00     0.348 HD
ATOM     20  C   UNL     1       1.997   2.273  -1.519  1.00  0.00     0.048 C 
ATOM     21  C   UNL     1       2.168   4.259  -0.038  1.00  0.00     0.048 C 
ENDBRANCH   8  12
BRANCH   7  22
ATOM     22  N   UNL     1      -5.201   1.698  -2.198  1.00  0.00    -0.331 N 
ATOM     23  H   UNL     1      -6.154   2.051  -2.106  1.00  0.00     0.347 HD
ATOM     24  H   UNL     1      -5.114   0.776  -2.626  1.00  0.00     0.347 HD
BRANCH  22  25
ATOM     25  C   UNL     1      -4.487   2.598  -3.108  1.00  0.00     0.183 C 
ATOM     26  C   UNL     1      -3.617   2.002  -4.178  1.00  0.00     0.071 C 
ATOM     27  C   UNL     1      -4.915   2.656  -4.548  1.00  0.00     0.071 C 
ENDBRANCH  22  25
ENDBRANCH   7  22
ENDBRANCH   4   7
ENDBRANCH   2   3
ENDBRANCH   1   2
BRANCH   1  28
ATOM     28  C   UNL     1      -4.493  -2.858   2.140  1.00  0.00     0.118 C 
BRANCH  28  29
ATOM     29  N   UNL     1      -4.676  -4.215   1.647  1.00  0.00    -0.352 N 
ATOM     30  C   UNL     1      -4.364  -5.420   2.224  1.00  0.00     0.251 C 
ATOM     31  H   UNL     1      -5.090  -4.278   0.756  1.00  0.00     0.163 HD
ATOM     32  O   UNL     1      -4.429  -6.445   1.552  1.00  0.00    -0.269 OA
BRANCH  30  33
ATOM     33  C   UNL     1      -3.939  -5.499   3.639  1.00  0.00     0.039 A 
ATOM     34  C   UNL     1      -2.905  -6.377   3.979  1.00  0.00     0.014 A 
ATOM     35  C   UNL     1      -4.581  -4.758   4.635  1.00  0.00     0.014 A 
ATOM     36  C   UNL     1      -2.475  -6.469   5.305  1.00  0.00     0.010 A 
ATOM     37  C   UNL     1      -4.110  -4.803   5.946  1.00  0.00     0.010 A 
ATOM     38  C   UNL     1      -3.053  -5.659   6.294  1.00  0.00    -0.014 A 
BRANCH  38  39
ATOM     39  C   UNL     1      -2.560  -5.684   7.695  1.00  0.00     0.031 A 
ATOM     40  C   UNL     1      -3.454  -6.154   8.808  1.00  0.00     0.074 A 
ATOM     41  C   UNL     1      -1.328  -5.215   7.973  1.00  0.00     0.049 A 
ATOM     42  N   UNL     1      -3.233  -6.165  10.098  1.00  0.00    -0.248 NA
ATOM     43  C   UNL     1      -4.782  -6.657   8.422  1.00  0.00     0.031 C 
ATOM     44  C   UNL     1      -0.379  -4.694   6.987  1.00  0.00     0.029 A 
ATOM     45  N   UNL     1      -0.667  -5.086   9.169  1.00  0.00    -0.354 N 
ATOM     46  C   UNL     1      -4.397  -6.655  10.678  1.00  0.00     0.074 A 
ATOM     47  C   UNL     1      -5.337  -6.888   9.603  1.00  0.00     0.031 C 
ATOM     48  C   UNL     1       0.745  -4.317   7.615  1.00  0.00     0.029 A 
ATOM     49  C   UNL     1       0.584  -4.533   9.049  1.00  0.00     0.049 A 
ATOM     50  H   UNL     1      -1.054  -5.364  10.030  1.00  0.00     0.167 HD
ATOM     51  C   UNL     1      -4.652  -6.905  11.985  1.00  0.00     0.037 A 
ATOM     52  C   UNL     1       1.496  -4.224   9.991  1.00  0.00     0.037 A 
ATOM     53  C   UNL     1      -3.705  -6.695  13.049  1.00  0.00     0.049 A 
ATOM     54  C   UNL     1       1.188  -4.508  11.434  1.00  0.00     0.074 A 
ATOM     55  C   UNL     1      -3.849  -6.970  14.398  1.00  0.00     0.029 A 
ATOM     56  N   UNL     1      -2.438  -6.157  12.884  1.00  0.00    -0.354 N 
ATOM     57  N   UNL     1       0.106  -5.027  11.961  1.00  0.00    -0.248 NA
ATOM     58  C   UNL     1       2.231  -4.170  12.413  1.00  0.00     0.031 C 
ATOM     59  C   UNL     1      -2.684  -6.561  15.055  1.00  0.00     0.029 A 
ATOM     60  C   UNL     1      -1.796  -6.075  14.109  1.00  0.00     0.049 A 
ATOM     61  H   UNL     1      -2.051  -5.874  12.024  1.00  0.00     0.167 HD
ATOM     62  C   UNL     1       0.349  -5.109  13.326  1.00  0.00     0.074 A 
ATOM     63  C   UNL     1       1.685  -4.593  13.545  1.00  0.00     0.031 C 
ATOM     64  C   UNL     1      -0.460  -5.573  14.309  1.00  0.00     0.037 A 
BRANCH  51  65
ATOM     65  C   UNL     1      -6.010  -7.438  12.337  1.00  0.00     0.057 A 
ATOM     66  C   UNL     1      -6.403  -8.740  12.001  1.00  0.00     0.134 A 
ATOM     67  C   UNL     1      -6.924  -6.653  13.053  1.00  0.00     0.134 A 
ATOM     68  F   UNL     1      -5.580  -9.541  11.307  1.00  0.00    -0.206 F 
ATOM     69  C   UNL     1      -7.664  -9.234  12.341  1.00  0.00     0.040 A 
ATOM     70  C   UNL     1      -8.177  -7.145  13.422  1.00  0.00     0.040 A 
ATOM     71  F   UNL     1      -6.610  -5.399  13.413  1.00  0.00    -0.206 F 
ATOM     72  C   UNL     1      -8.553  -8.437  13.060  1.00  0.00     0.006 A 
ENDBRANCH  51  65
BRANCH  52  73
ATOM     73  C   UNL     1       2.798  -3.631   9.595  1.00  0.00     0.057 A 
ATOM     74  C   UNL     1       3.984  -4.367   9.694  1.00  0.00     0.134 A 
ATOM     75  C   UNL     1       2.890  -2.320   9.113  1.00  0.00     0.134 A 
ATOM     76  F   UNL     1       3.962  -5.622  10.166  1.00  0.00    -0.206 F 
ATOM     77  C   UNL     1       5.218  -3.816   9.345  1.00  0.00     0.040 A 
ATOM     78  C   UNL     1       4.114  -1.764   8.737  1.00  0.00     0.040 A 
ATOM     79  F   UNL     1       1.788  -1.566   8.986  1.00  0.00    -0.206 F 
ATOM     80  C   UNL     1       5.284  -2.511   8.860  1.00  0.00     0.006 A 
ENDBRANCH  52  73
BRANCH  64  81
ATOM     81  C   UNL     1       0.091  -5.590  15.704  1.00  0.00     0.057 A 
ATOM     82  C   UNL     1       0.255  -4.416  16.450  1.00  0.00     0.134 A 
ATOM     83  C   UNL     1       0.417  -6.803  16.324  1.00  0.00     0.134 A 
ATOM     84  F   UNL     1      -0.026  -3.221  15.909  1.00  0.00    -0.206 F 
ATOM     85  C   UNL     1       0.743  -4.447  17.758  1.00  0.00     0.040 A 
ATOM     86  C   UNL     1       0.881  -6.849  17.639  1.00  0.00     0.040 A 
ATOM     87  F   UNL     1       0.275  -7.964  15.666  1.00  0.00    -0.206 F 
ATOM     88  C   UNL     1       1.050  -5.668  18.358  1.00  0.00     0.006 A 
ENDBRANCH  64  81
ENDBRANCH  38  39
ENDBRANCH  30  33
ENDBRANCH  28  29
ENDBRANCH   1  28
TORSDOF 13
