REMARK SMILES O=C(NCCCNC(=O)c1cc(NC(=O)c2cc([N+](=O)[O-])ccc2N2CCCC2)ccc1Cl)c1ccc(-c2c3nc(c(-c4c(F)cccc4F)c4ccc([nH]4)c(-c4c(F)cccc4F)c4nc(c(-c5c(F)cccc5F)c5ccc2[nH]5)C=C4)C=C3)cc1
REMARK SMILES IDX 5 1 4 2 3 3 1 4 2 5 34 7 35 8 87 9 36 10 86 11 37 12 38 13
REMARK SMILES IDX 39 14 80 15 40 16 85 17 79 18 81 19 41 20 84 21 78 22 77 23
REMARK SMILES IDX 42 25 68 26 51 27 67 28 52 29 55 30 66 31 82 32 53 33 54 34
REMARK SMILES IDX 65 36 83 37 56 38 43 39 44 40 49 41 45 42 46 43 48 44 50 45
REMARK SMILES IDX 47 46 69 47 70 48 75 49 71 50 72 51 74 52 76 53 73 54 57 55
REMARK SMILES IDX 58 56 63 57 59 58 60 59 62 60 64 61 61 62 6 63 7 64 8 65
REMARK SMILES IDX 9 67 10 68 11 69 32 70 12 71 31 72 33 73 30 74 13 75 14 76
REMARK SMILES IDX 15 78 16 79 17 80 24 81 18 82 23 83 22 84 25 85 26 86 29 87
REMARK SMILES IDX 27 88 28 89 19 90 20 91 21 92
REMARK H PARENT 3 6 81 24 55 35 7 66 13 77
REMARK Flexibility Score: inf
ROOT
ATOM      1  C   UNL     1       4.839  -2.557  -0.475  1.00  0.00     0.042 C 
ENDROOT
BRANCH   1   2
ATOM      2  C   UNL     1       4.475  -1.182  -1.016  1.00  0.00     0.118 C 
BRANCH   2   3
ATOM      3  N   UNL     1       3.068  -0.850  -0.869  1.00  0.00    -0.352 N 
ATOM      4  O   UNL     1       1.192   0.058  -0.043  1.00  0.00    -0.269 OA
ATOM      5  C   UNL     1       2.419   0.058  -0.064  1.00  0.00     0.251 C 
ATOM      6  H   UNL     1       2.469  -1.371  -1.451  1.00  0.00     0.163 HD
BRANCH   5   7
ATOM      7  C   UNL     1       3.158   1.006   0.809  1.00  0.00     0.039 A 
ATOM      8  C   UNL     1       4.333   1.636   0.402  1.00  0.00     0.014 A 
ATOM      9  C   UNL     1       2.623   1.312   2.067  1.00  0.00     0.014 A 
ATOM     10  C   UNL     1       5.062   2.408   1.305  1.00  0.00     0.010 A 
ATOM     11  C   UNL     1       3.304   2.171   2.938  1.00  0.00     0.010 A 
ATOM     12  C   UNL     1       4.559   2.686   2.587  1.00  0.00    -0.014 A 
BRANCH  12  13
ATOM     13  C   UNL     1       5.358   3.524   3.525  1.00  0.00     0.031 A 
ATOM     14  C   UNL     1       5.871   2.962   4.825  1.00  0.00     0.074 A 
ATOM     15  C   UNL     1       5.663   4.791   3.183  1.00  0.00     0.049 A 
ATOM     16  N   UNL     1       6.637   3.530   5.725  1.00  0.00    -0.248 NA
ATOM     17  C   UNL     1       5.468   1.590   5.169  1.00  0.00     0.031 C 
ATOM     18  C   UNL     1       5.212   5.469   1.965  1.00  0.00     0.029 A 
ATOM     19  N   UNL     1       6.445   5.728   3.812  1.00  0.00    -0.354 N 
ATOM     20  C   UNL     1       6.786   2.598   6.746  1.00  0.00     0.074 A 
ATOM     21  C   UNL     1       6.009   1.437   6.369  1.00  0.00     0.031 C 
ATOM     22  C   UNL     1       5.770   6.687   1.907  1.00  0.00     0.029 A 
ATOM     23  C   UNL     1       6.577   6.898   3.104  1.00  0.00     0.049 A 
ATOM     24  H   UNL     1       6.870   5.576   4.687  1.00  0.00     0.167 HD
ATOM     25  C   UNL     1       7.511   2.694   7.887  1.00  0.00     0.037 A 
ATOM     26  C   UNL     1       7.269   8.018   3.383  1.00  0.00     0.037 A 
ATOM     27  C   UNL     1       8.309   3.836   8.254  1.00  0.00     0.049 A 
ATOM     28  C   UNL     1       8.069   8.096   4.651  1.00  0.00     0.074 A 
ATOM     29  C   UNL     1       9.114   4.004   9.368  1.00  0.00     0.029 A 
ATOM     30  N   UNL     1       8.399   5.007   7.518  1.00  0.00    -0.354 N 
ATOM     31  N   UNL     1       8.237   7.186   5.579  1.00  0.00    -0.248 NA
ATOM     32  C   UNL     1       8.777   9.357   4.909  1.00  0.00     0.031 C 
ATOM     33  C   UNL     1       9.663   5.290   9.325  1.00  0.00     0.029 A 
ATOM     34  C   UNL     1       9.234   5.907   8.161  1.00  0.00     0.049 A 
ATOM     35  H   UNL     1       7.939   5.175   6.663  1.00  0.00     0.167 HD
ATOM     36  C   UNL     1       9.089   7.754   6.517  1.00  0.00     0.074 A 
ATOM     37  C   UNL     1       9.414   9.082   6.038  1.00  0.00     0.031 C 
ATOM     38  C   UNL     1       9.559   7.222   7.671  1.00  0.00     0.037 A 
BRANCH  25  39
ATOM     39  C   UNL     1       7.469   1.531   8.836  1.00  0.00     0.057 A 
ATOM     40  C   UNL     1       8.122   0.323   8.560  1.00  0.00     0.134 A 
ATOM     41  C   UNL     1       6.802   1.638  10.064  1.00  0.00     0.134 A 
ATOM     42  F   UNL     1       8.769   0.151   7.397  1.00  0.00    -0.206 F 
ATOM     43  C   UNL     1       8.096  -0.744   9.461  1.00  0.00     0.040 A 
ATOM     44  C   UNL     1       6.788   0.587  10.982  1.00  0.00     0.040 A 
ATOM     45  F   UNL     1       6.162   2.770  10.395  1.00  0.00    -0.206 F 
ATOM     46  C   UNL     1       7.433  -0.611  10.679  1.00  0.00     0.006 A 
ENDBRANCH  25  39
BRANCH  26  47
ATOM     47  C   UNL     1       7.253   9.154   2.428  1.00  0.00     0.057 A 
ATOM     48  C   UNL     1       8.392   9.489   1.687  1.00  0.00     0.134 A 
ATOM     49  C   UNL     1       6.104   9.929   2.234  1.00  0.00     0.134 A 
ATOM     50  F   UNL     1       9.529   8.794   1.844  1.00  0.00    -0.206 F 
ATOM     51  C   UNL     1       8.394  10.564   0.797  1.00  0.00     0.040 A 
ATOM     52  C   UNL     1       6.083  10.990   1.328  1.00  0.00     0.040 A 
ATOM     53  F   UNL     1       4.979   9.653   2.910  1.00  0.00    -0.206 F 
ATOM     54  C   UNL     1       7.234  11.314   0.612  1.00  0.00     0.006 A 
ENDBRANCH  26  47
BRANCH  38  55
ATOM     55  C   UNL     1      10.507   8.063   8.474  1.00  0.00     0.057 A 
ATOM     56  C   UNL     1      10.075   9.181   9.197  1.00  0.00     0.134 A 
ATOM     57  C   UNL     1      11.868   7.737   8.535  1.00  0.00     0.134 A 
ATOM     58  F   UNL     1       8.787   9.554   9.168  1.00  0.00    -0.206 F 
ATOM     59  C   UNL     1      10.969   9.962   9.933  1.00  0.00     0.040 A 
ATOM     60  C   UNL     1      12.766   8.496   9.287  1.00  0.00     0.040 A 
ATOM     61  F   UNL     1      12.345   6.673   7.871  1.00  0.00    -0.206 F 
ATOM     62  C   UNL     1      12.318   9.617   9.982  1.00  0.00     0.006 A 
ENDBRANCH  38  55
ENDBRANCH  12  13
ENDBRANCH   5   7
ENDBRANCH   2   3
ENDBRANCH   1   2
BRANCH   1  63
ATOM     63  C   UNL     1       4.253  -3.750  -1.222  1.00  0.00     0.118 C 
BRANCH  63  64
ATOM     64  N   UNL     1       4.577  -3.784  -2.641  1.00  0.00    -0.352 N 
ATOM     65  C   UNL     1       5.089  -4.792  -3.425  1.00  0.00     0.252 C 
ATOM     66  H   UNL     1       4.399  -2.943  -3.121  1.00  0.00     0.163 HD
ATOM     67  O   UNL     1       5.261  -4.590  -4.625  1.00  0.00    -0.269 OA
BRANCH  65  68
ATOM     68  C   UNL     1       5.558  -6.066  -2.844  1.00  0.00     0.060 A 
ATOM     69  C   UNL     1       6.912  -6.376  -3.072  1.00  0.00     0.041 A 
ATOM     70  C   UNL     1       4.758  -6.949  -2.122  1.00  0.00     0.053 A 
ATOM     71  C   UNL     1       7.519  -7.466  -2.454  1.00  0.00     0.042 A 
ATOM     72  C   UNL     1       5.345  -8.072  -1.535  1.00  0.00     0.023 A 
ATOM     73  Cl  UNL     1       3.050  -6.761  -1.967  1.00  0.00    -0.083 Cl
ATOM     74  C   UNL     1       6.715  -8.319  -1.689  1.00  0.00     0.028 A 
BRANCH  71  75
ATOM     75  N   UNL     1       8.890  -7.782  -2.530  1.00  0.00    -0.322 N 
ATOM     76  C   UNL     1      10.000  -7.093  -2.974  1.00  0.00     0.258 C 
ATOM     77  H   UNL     1       9.099  -8.685  -2.198  1.00  0.00     0.170 HD
ATOM     78  O   UNL     1      11.086  -7.672  -3.029  1.00  0.00    -0.269 OA
BRANCH  76  79
ATOM     79  C   UNL     1       9.954  -5.676  -3.385  1.00  0.00     0.070 A 
ATOM     80  C   UNL     1      10.270  -5.440  -4.734  1.00  0.00     0.101 A 
ATOM     81  C   UNL     1       9.535  -4.639  -2.518  1.00  0.00     0.050 A 
ATOM     82  C   UNL     1      10.085  -4.165  -5.266  1.00  0.00     0.270 A 
ATOM     83  C   UNL     1       9.322  -3.379  -3.108  1.00  0.00     0.034 A 
ATOM     84  C   UNL     1       9.585  -3.137  -4.463  1.00  0.00     0.088 A 
BRANCH  81  85
ATOM     85  N   UNL     1       9.280  -4.825  -1.184  1.00  0.00    -0.371 N 
ATOM     86  C   UNL     1      10.185  -5.466  -0.244  1.00  0.00     0.116 C 
ATOM     87  C   UNL     1       8.134  -4.271  -0.488  1.00  0.00     0.116 C 
ATOM     88  C   UNL     1       9.223  -6.051   0.780  1.00  0.00     0.023 C 
ATOM     89  C   UNL     1       8.041  -5.084   0.805  1.00  0.00     0.023 C 
ENDBRANCH  81  85
BRANCH  82  90
ATOM     90  N   UNL     1      10.392  -3.911  -6.678  1.00  0.00     0.062 N 
ATOM     91  O   UNL     1      10.861  -4.845  -7.343  1.00  0.00    -0.258 OA
ATOM     92  O   UNL     1      10.169  -2.775  -7.120  1.00  0.00    -0.258 OA
ENDBRANCH  82  90
ENDBRANCH  76  79
ENDBRANCH  71  75
ENDBRANCH  65  68
ENDBRANCH  63  64
ENDBRANCH   1  63
TORSDOF 14
