REMARK SMILES CC[NH+]1CCN(c2ccc(NC(=O)C3CCCC3)c(C(=O)NCCCNC(=O)c3ccc(-c4c5nc(c(-c6c(F)cccc6F)c6ccc([nH]6)c(-c6c(F)cccc6F)c6nc(c(-c7c(F)cccc7F)c7ccc4[nH]7)C=C6)C=C5)cc3)c2)CC1
REMARK SMILES IDX 24 1 23 2 22 3 20 4 21 5 19 7 7 8 8 9 83 10 9 11 10 12 6 13
REMARK SMILES IDX 3 14 4 15 85 16 5 18 84 19 2 20 1 21 11 22 12 23 13 25 14 26
REMARK SMILES IDX 15 27 18 28 16 29 17 30 25 31 26 32 27 33 28 35 29 36 30 37
REMARK SMILES IDX 82 38 31 39 81 40 32 41 33 42 34 43 75 44 35 45 80 46 74 47
REMARK SMILES IDX 76 48 36 49 79 50 73 51 72 52 37 54 63 55 46 56 62 57 47 58
REMARK SMILES IDX 50 59 61 60 77 61 48 62 49 63 60 65 78 66 51 67 38 68 39 69
REMARK SMILES IDX 44 70 40 71 41 72 43 73 45 74 42 75 64 76 65 77 70 78 66 79
REMARK SMILES IDX 67 80 69 81 71 82 68 83 52 84 53 85 58 86 54 87 55 88 57 89
REMARK SMILES IDX 59 90 56 91
REMARK H PARENT 22 6 3 17 11 24 26 34 76 53 50 64
REMARK Flexibility Score: inf
ROOT
ATOM      1  C   UNL     1       6.077  -4.338  -2.783  1.00  0.00     0.042 C 
ENDROOT
BRANCH   1   2
ATOM      2  C   UNL     1       5.268  -3.894  -3.990  1.00  0.00     0.118 C 
BRANCH   2   3
ATOM      3  N   UNL     1       5.391  -4.748  -5.169  1.00  0.00    -0.352 N 
ATOM      4  C   UNL     1       4.471  -5.435  -5.941  1.00  0.00     0.253 C 
ATOM      5  O   UNL     1       4.905  -6.087  -6.891  1.00  0.00    -0.269 OA
ATOM      6  H   UNL     1       6.319  -4.858  -5.477  1.00  0.00     0.163 HD
BRANCH   4   7
ATOM      7  C   UNL     1       3.012  -5.490  -5.620  1.00  0.00     0.065 A 
ATOM      8  C   UNL     1       1.171  -4.499  -4.326  1.00  0.00     0.038 A 
ATOM      9  C   UNL     1       0.496  -5.706  -4.485  1.00  0.00     0.028 A 
ATOM     10  C   UNL     1       2.399  -4.399  -4.982  1.00  0.00     0.042 A 
ATOM     11  C   UNL     1       1.004  -6.737  -5.285  1.00  0.00     0.029 A 
ATOM     12  C   UNL     1       2.233  -6.625  -5.929  1.00  0.00     0.054 A 
BRANCH   8  13
ATOM     13  N   UNL     1       0.659  -3.485  -3.540  1.00  0.00    -0.360 N 
ATOM     14  N   UNL     1       1.333  -1.930  -1.112  1.00  0.00    -0.332 N 
ATOM     15  C   UNL     1       0.866  -3.334  -1.063  1.00  0.00     0.283 C 
ATOM     16  C   UNL     1       1.962  -1.681  -2.433  1.00  0.00     0.283 C 
ATOM     17  H   UNL     1       2.022  -1.790  -0.373  1.00  0.00     0.348 HD
ATOM     18  C   UNL     1      -0.005  -3.800  -2.258  1.00  0.00     0.178 C 
ATOM     19  C   UNL     1       1.092  -2.083  -3.651  1.00  0.00     0.178 C 
BRANCH  14  20
ATOM     20  C   UNL     1       0.255  -0.971  -0.839  1.00  0.00     0.258 C 
ATOM     21  C   UNL     1       0.761   0.083   0.137  1.00  0.00     0.071 C 
ENDBRANCH  14  20
ENDBRANCH   8  13
BRANCH  12  22
ATOM     22  N   UNL     1       2.701  -7.568  -6.879  1.00  0.00    -0.325 N 
ATOM     23  C   UNL     1       2.093  -8.512  -7.669  1.00  0.00     0.227 C 
ATOM     24  H   UNL     1       3.678  -7.540  -6.999  1.00  0.00     0.169 HD
ATOM     25  O   UNL     1       2.807  -9.209  -8.396  1.00  0.00    -0.274 OA
BRANCH  23  26
ATOM     26  C   UNL     1       0.582  -8.680  -7.688  1.00  0.00     0.079 C 
ATOM     27  C   UNL     1      -0.160  -7.487  -8.292  1.00  0.00     0.013 C 
ATOM     28  C   UNL     1       0.048  -9.811  -8.570  1.00  0.00     0.013 C 
ATOM     29  C   UNL     1      -1.585  -8.002  -8.450  1.00  0.00     0.001 C 
ATOM     30  C   UNL     1      -1.452  -9.515  -8.638  1.00  0.00     0.001 C 
ENDBRANCH  23  26
ENDBRANCH  12  22
ENDBRANCH   4   7
ENDBRANCH   2   3
ENDBRANCH   1   2
BRANCH   1  31
ATOM     31  C   UNL     1       7.585  -4.244  -2.938  1.00  0.00     0.118 C 
BRANCH  31  32
ATOM     32  N   UNL     1       8.055  -2.886  -3.174  1.00  0.00    -0.352 N 
ATOM     33  C   UNL     1       8.734  -1.992  -2.381  1.00  0.00     0.251 C 
ATOM     34  H   UNL     1       7.848  -2.543  -4.073  1.00  0.00     0.163 HD
ATOM     35  O   UNL     1       8.856  -0.834  -2.773  1.00  0.00    -0.269 OA
BRANCH  33  36
ATOM     36  C   UNL     1       9.303  -2.376  -1.066  1.00  0.00     0.039 A 
ATOM     37  C   UNL     1       9.346  -1.414  -0.049  1.00  0.00     0.014 A 
ATOM     38  C   UNL     1       9.856  -3.635  -0.832  1.00  0.00     0.014 A 
ATOM     39  C   UNL     1       9.879  -1.735   1.204  1.00  0.00     0.010 A 
ATOM     40  C   UNL     1      10.288  -3.989   0.446  1.00  0.00     0.010 A 
ATOM     41  C   UNL     1      10.321  -3.039   1.475  1.00  0.00    -0.014 A 
BRANCH  41  42
ATOM     42  C   UNL     1      10.841  -3.418   2.816  1.00  0.00     0.031 A 
ATOM     43  C   UNL     1      12.259  -3.903   2.975  1.00  0.00     0.074 A 
ATOM     44  C   UNL     1      10.021  -3.380   3.885  1.00  0.00     0.049 A 
ATOM     45  N   UNL     1      12.874  -4.325   4.051  1.00  0.00    -0.248 NA
ATOM     46  C   UNL     1      13.086  -3.951   1.758  1.00  0.00     0.031 C 
ATOM     47  C   UNL     1       8.611  -2.988   3.857  1.00  0.00     0.029 A 
ATOM     48  N   UNL     1      10.255  -3.681   5.203  1.00  0.00    -0.354 N 
ATOM     49  C   UNL     1      14.145  -4.706   3.638  1.00  0.00     0.074 A 
ATOM     50  C   UNL     1      14.195  -4.521   2.204  1.00  0.00     0.031 C 
ATOM     51  C   UNL     1       8.115  -3.039   5.104  1.00  0.00     0.029 A 
ATOM     52  C   UNL     1       9.159  -3.500   6.012  1.00  0.00     0.049 A 
ATOM     53  H   UNL     1      11.126  -3.996   5.538  1.00  0.00     0.167 HD
ATOM     54  C   UNL     1      15.187  -5.143   4.385  1.00  0.00     0.037 A 
ATOM     55  C   UNL     1       9.013  -3.684   7.338  1.00  0.00     0.037 A 
ATOM     56  C   UNL     1      15.148  -5.292   5.816  1.00  0.00     0.049 A 
ATOM     57  C   UNL     1      10.190  -4.147   8.149  1.00  0.00     0.074 A 
ATOM     58  C   UNL     1      16.169  -5.665   6.673  1.00  0.00     0.029 A 
ATOM     59  N   UNL     1      14.028  -5.070   6.602  1.00  0.00    -0.354 N 
ATOM     60  N   UNL     1      11.406  -4.436   7.753  1.00  0.00    -0.248 NA
ATOM     61  C   UNL     1       9.977  -4.300   9.595  1.00  0.00     0.031 C 
ATOM     62  C   UNL     1      15.656  -5.705   7.974  1.00  0.00     0.029 A 
ATOM     63  C   UNL     1      14.328  -5.313   7.932  1.00  0.00     0.049 A 
ATOM     64  H   UNL     1      13.149  -4.782   6.264  1.00  0.00     0.167 HD
ATOM     65  C   UNL     1      12.109  -4.778   8.900  1.00  0.00     0.074 A 
ATOM     66  C   UNL     1      11.188  -4.644  10.010  1.00  0.00     0.031 C 
ATOM     67  C   UNL     1      13.401  -5.169   9.025  1.00  0.00     0.037 A 
BRANCH  54  68
ATOM     68  C   UNL     1      16.462  -5.480   3.666  1.00  0.00     0.057 A 
ATOM     69  C   UNL     1      17.267  -4.489   3.087  1.00  0.00     0.134 A 
ATOM     70  C   UNL     1      16.907  -6.804   3.578  1.00  0.00     0.134 A 
ATOM     71  F   UNL     1      16.893  -3.201   3.126  1.00  0.00    -0.206 F 
ATOM     72  C   UNL     1      18.452  -4.806   2.421  1.00  0.00     0.040 A 
ATOM     73  C   UNL     1      18.105  -7.131   2.938  1.00  0.00     0.040 A 
ATOM     74  F   UNL     1      16.190  -7.803   4.115  1.00  0.00    -0.206 F 
ATOM     75  C   UNL     1      18.877  -6.131   2.351  1.00  0.00     0.006 A 
ENDBRANCH  54  68
BRANCH  55  76
ATOM     76  C   UNL     1       7.711  -3.392   7.990  1.00  0.00     0.057 A 
ATOM     77  C   UNL     1       7.562  -2.288   8.838  1.00  0.00     0.134 A 
ATOM     78  C   UNL     1       6.591  -4.206   7.788  1.00  0.00     0.134 A 
ATOM     79  F   UNL     1       8.605  -1.482   9.084  1.00  0.00    -0.206 F 
ATOM     80  C   UNL     1       6.353  -2.015   9.479  1.00  0.00     0.040 A 
ATOM     81  C   UNL     1       5.368  -3.931   8.402  1.00  0.00     0.040 A 
ATOM     82  F   UNL     1       6.665  -5.274   6.980  1.00  0.00    -0.206 F 
ATOM     83  C   UNL     1       5.249  -2.836   9.257  1.00  0.00     0.006 A 
ENDBRANCH  55  76
BRANCH  67  84
ATOM     84  C   UNL     1      13.900  -5.447  10.412  1.00  0.00     0.057 A 
ATOM     85  C   UNL     1      13.504  -6.585  11.126  1.00  0.00     0.134 A 
ATOM     86  C   UNL     1      14.807  -4.577  11.030  1.00  0.00     0.134 A 
ATOM     87  F   UNL     1      12.627  -7.450  10.595  1.00  0.00    -0.206 F 
ATOM     88  C   UNL     1      13.972  -6.834  12.417  1.00  0.00     0.040 A 
ATOM     89  C   UNL     1      15.303  -4.830  12.309  1.00  0.00     0.040 A 
ATOM     90  F   UNL     1      15.233  -3.474  10.397  1.00  0.00    -0.206 F 
ATOM     91  C   UNL     1      14.879  -5.957  13.010  1.00  0.00     0.006 A 
ENDBRANCH  67  84
ENDBRANCH  41  42
ENDBRANCH  33  36
ENDBRANCH  31  32
ENDBRANCH   1  31
TORSDOF 14
