REMARK SMILES O=C(CNC(=O)[C@@H](CC1=c2ccccc2=NC1)N1C(=O)N=C2C=CC=C[C@H]2C1=O)NCCCNC(=O)c1ccc(-c2c3nc(c(-c4c(F)cccc4F)c4ccc([nH]4)c(-c4c(F)cccc4F)c4nc(c(-c5c(F)cccc5F)c5ccc2[nH]5)C=C4)C=C3)cc1
REMARK SMILES IDX 31 1 30 2 1 3 2 4 3 6 4 7 5 8 6 10 7 11 8 12 9 13 10 14
REMARK SMILES IDX 17 15 11 16 15 17 16 18 12 19 14 20 13 21 18 22 19 23 28 24
REMARK SMILES IDX 21 25 20 26 27 27 29 28 22 29 26 30 23 31 25 32 24 33 32 34
REMARK SMILES IDX 33 35 34 36 35 37 36 39 37 40 38 41 90 42 39 43 89 44 40 45
REMARK SMILES IDX 41 46 42 47 83 48 43 49 88 50 82 51 84 52 44 53 87 54 81 55
REMARK SMILES IDX 80 56 45 58 71 59 54 60 70 61 55 62 58 63 69 64 85 65 56 66
REMARK SMILES IDX 57 67 68 69 86 70 59 71 46 72 47 73 52 74 48 75 49 76 51 77
REMARK SMILES IDX 53 78 50 79 72 80 73 81 78 82 74 83 75 84 77 85 79 86 76 87
REMARK SMILES IDX 60 88 61 89 66 90 62 91 63 92 65 93 67 94 64 95
REMARK H PARENT 30 5 4 9 34 38 84 57 58 68
REMARK Flexibility Score: inf
ROOT
ATOM      1  C   UNL     1       1.831  -0.898  -2.716  1.00  0.00     0.117 C 
ENDROOT
BRANCH   1   2
ATOM      2  N   UNL     1       2.386  -0.516  -1.209  1.00  0.00    -0.355 N 
ATOM      3  O   UNL     1       0.798  -0.481   1.293  1.00  0.00    -0.273 OA
ATOM      4  C   UNL     1       1.916  -0.370   0.687  1.00  0.00     0.239 C 
ATOM      5  H   UNL     1       3.332  -0.259  -1.299  1.00  0.00     0.163 HD
BRANCH   4   6
ATOM      6  C   UNL     1       2.968   0.157   2.044  1.00  0.00     0.216 C 
BRANCH   6   7
ATOM      7  N   UNL     1       4.221  -0.464   2.460  1.00  0.00    -0.345 N 
ATOM      8  C   UNL     1       5.517  -0.200   2.172  1.00  0.00     0.244 C 
ATOM      9  H   UNL     1       4.100  -1.225   3.072  1.00  0.00     0.164 HD
ATOM     10  O   UNL     1       6.282  -1.153   2.375  1.00  0.00    -0.273 OA
BRANCH   8  11
ATOM     11  C   UNL     1       6.101   1.177   1.797  1.00  0.00     0.188 C 
BRANCH  11  12
ATOM     12  C   UNL     1       5.566   2.027   0.619  1.00  0.00     0.069 C 
BRANCH  12  13
ATOM     13  C   UNL     1       4.228   1.750   0.009  1.00  0.00    -0.037 C 
ATOM     14  C   UNL     1       3.620   0.582  -0.156  1.00  0.00     0.001 A 
ATOM     15  C   UNL     1       3.316   2.940  -0.369  1.00  0.00     0.174 C 
ATOM     16  C   UNL     1       3.766  -1.306   0.052  1.00  0.00     0.010 A 
ATOM     17  C   UNL     1       1.861   1.259  -0.611  1.00  0.00     0.065 A 
ATOM     18  N   UNL     1       1.887   2.546  -0.704  1.00  0.00    -0.280 NA
ATOM     19  C   UNL     1       2.500  -2.274  -0.130  1.00  0.00     0.001 A 
ATOM     20  C   UNL     1       0.441  -0.071  -0.825  1.00  0.00     0.028 A 
ATOM     21  C   UNL     1       0.772  -1.657  -0.599  1.00  0.00     0.002 A 
ENDBRANCH  12  13
ENDBRANCH  11  12
BRANCH  11  22
ATOM     22  N   UNL     1       6.392   1.786   3.119  1.00  0.00    -0.249 N 
ATOM     23  C   UNL     1       7.532   1.281   3.747  1.00  0.00     0.351 C 
ATOM     24  C   UNL     1       5.615   2.770   3.697  1.00  0.00     0.244 C 
ATOM     25  N   UNL     1       7.652   1.362   5.096  1.00  0.00    -0.197 NA
ATOM     26  O   UNL     1       8.460   0.809   3.095  1.00  0.00    -0.246 OA
ATOM     27  C   UNL     1       5.826   3.026   5.191  1.00  0.00     0.151 C 
ATOM     28  O   UNL     1       4.769   3.407   3.066  1.00  0.00    -0.273 OA
ATOM     29  C   UNL     1       6.941   2.196   5.769  1.00  0.00     0.062 C 
ATOM     30  C   UNL     1       6.072   4.462   5.607  1.00  0.00    -0.007 C 
ATOM     31  C   UNL     1       7.343   2.429   7.174  1.00  0.00     0.025 C 
ATOM     32  C   UNL     1       6.777   4.756   6.717  1.00  0.00    -0.003 C 
ATOM     33  C   UNL     1       7.311   3.710   7.565  1.00  0.00     0.002 C 
ENDBRANCH  11  22
ENDBRANCH   8  11
ENDBRANCH   6   7
ENDBRANCH   4   6
ENDBRANCH   1   2
BRANCH   1  34
ATOM     34  C   UNL     1       2.378   0.083  -3.755  1.00  0.00     0.042 C 
BRANCH  34  35
ATOM     35  C   UNL     1       3.897   0.160  -3.860  1.00  0.00     0.118 C 
BRANCH  35  36
ATOM     36  N   UNL     1       4.524  -1.088  -4.279  1.00  0.00    -0.352 N 
ATOM     37  C   UNL     1       5.206  -1.372  -5.442  1.00  0.00     0.251 C 
ATOM     38  H   UNL     1       4.449  -1.834  -3.640  1.00  0.00     0.163 HD
ATOM     39  O   UNL     1       5.566  -2.516  -5.691  1.00  0.00    -0.269 OA
BRANCH  37  40
ATOM     40  C   UNL     1       5.452  -0.285  -6.410  1.00  0.00     0.039 A 
ATOM     41  C   UNL     1       5.996   0.926  -5.981  1.00  0.00     0.014 A 
ATOM     42  C   UNL     1       5.043  -0.450  -7.734  1.00  0.00     0.014 A 
ATOM     43  C   UNL     1       5.925   2.036  -6.813  1.00  0.00     0.010 A 
ATOM     44  C   UNL     1       5.067   0.645  -8.600  1.00  0.00     0.010 A 
ATOM     45  C   UNL     1       5.444   1.913  -8.126  1.00  0.00    -0.014 A 
BRANCH  45  46
ATOM     46  C   UNL     1       5.302   3.123  -8.977  1.00  0.00     0.031 A 
ATOM     47  C   UNL     1       3.945   3.566  -9.460  1.00  0.00     0.074 A 
ATOM     48  C   UNL     1       6.393   3.852  -9.278  1.00  0.00     0.049 A 
ATOM     49  N   UNL     1       3.633   4.560 -10.253  1.00  0.00    -0.248 NA
ATOM     50  C   UNL     1       2.786   2.787  -8.995  1.00  0.00     0.031 C 
ATOM     51  C   UNL     1       7.758   3.549  -8.844  1.00  0.00     0.029 A 
ATOM     52  N   UNL     1       6.524   5.003 -10.011  1.00  0.00    -0.354 N 
ATOM     53  C   UNL     1       2.251   4.513 -10.400  1.00  0.00     0.074 A 
ATOM     54  C   UNL     1       1.786   3.375  -9.637  1.00  0.00     0.031 C 
ATOM     55  C   UNL     1       8.583   4.509  -9.288  1.00  0.00     0.029 A 
ATOM     56  C   UNL     1       7.819   5.450 -10.098  1.00  0.00     0.049 A 
ATOM     57  H   UNL     1       5.764   5.464 -10.433  1.00  0.00     0.167 HD
ATOM     58  C   UNL     1       1.443   5.348 -11.098  1.00  0.00     0.037 A 
ATOM     59  C   UNL     1       8.341   6.482 -10.785  1.00  0.00     0.037 A 
ATOM     60  C   UNL     1       1.907   6.492 -11.842  1.00  0.00     0.049 A 
ATOM     61  C   UNL     1       7.434   7.339 -11.619  1.00  0.00     0.074 A 
ATOM     62  C   UNL     1       1.165   7.414 -12.562  1.00  0.00     0.029 A 
ATOM     63  N   UNL     1       3.236   6.867 -11.964  1.00  0.00    -0.354 N 
ATOM     64  N   UNL     1       6.131   7.282 -11.750  1.00  0.00    -0.248 NA
ATOM     65  C   UNL     1       8.076   8.393 -12.415  1.00  0.00     0.031 C 
ATOM     66  C   UNL     1       2.051   8.318 -13.159  1.00  0.00     0.029 A 
ATOM     67  C   UNL     1       3.340   7.988 -12.774  1.00  0.00     0.049 A 
ATOM     68  H   UNL     1       3.994   6.406 -11.539  1.00  0.00     0.167 HD
ATOM     69  C   UNL     1       5.796   8.297 -12.636  1.00  0.00     0.074 A 
ATOM     70  C   UNL     1       7.029   8.972 -12.986  1.00  0.00     0.031 C 
ATOM     71  C   UNL     1       4.577   8.637 -13.124  1.00  0.00     0.037 A 
BRANCH  58  72
ATOM     72  C   UNL     1      -0.028   5.041 -11.110  1.00  0.00     0.057 A 
ATOM     73  C   UNL     1      -0.651   4.582 -12.278  1.00  0.00     0.134 A 
ATOM     74  C   UNL     1      -0.835   5.224  -9.979  1.00  0.00     0.134 A 
ATOM     75  F   UNL     1       0.061   4.391 -13.399  1.00  0.00    -0.206 F 
ATOM     76  C   UNL     1      -2.021   4.316 -12.321  1.00  0.00     0.040 A 
ATOM     77  C   UNL     1      -2.202   4.937 -10.003  1.00  0.00     0.040 A 
ATOM     78  F   UNL     1      -0.301   5.649  -8.824  1.00  0.00    -0.206 F 
ATOM     79  C   UNL     1      -2.799   4.487 -11.178  1.00  0.00     0.006 A 
ENDBRANCH  58  72
BRANCH  59  80
ATOM     80  C   UNL     1       9.803   6.737 -10.748  1.00  0.00     0.057 A 
ATOM     81  C   UNL     1      10.712   5.850 -11.336  1.00  0.00     0.134 A 
ATOM     82  C   UNL     1      10.321   7.884 -10.139  1.00  0.00     0.134 A 
ATOM     83  F   UNL     1      10.278   4.730 -11.933  1.00  0.00    -0.206 F 
ATOM     84  C   UNL     1      12.086   6.088 -11.312  1.00  0.00     0.040 A 
ATOM     85  C   UNL     1      11.691   8.151 -10.132  1.00  0.00     0.040 A 
ATOM     86  F   UNL     1       9.497   8.781  -9.577  1.00  0.00    -0.206 F 
ATOM     87  C   UNL     1      12.578   7.248 -10.716  1.00  0.00     0.006 A 
ENDBRANCH  59  80
BRANCH  71  88
ATOM     88  C   UNL     1       4.532   9.793 -14.079  1.00  0.00     0.057 A 
ATOM     89  C   UNL     1       3.990  11.024 -13.689  1.00  0.00     0.134 A 
ATOM     90  C   UNL     1       5.026   9.687 -15.385  1.00  0.00     0.134 A 
ATOM     91  F   UNL     1       3.495  11.191 -12.453  1.00  0.00    -0.206 F 
ATOM     92  C   UNL     1       3.946  12.110 -14.564  1.00  0.00     0.040 A 
ATOM     93  C   UNL     1       5.012  10.774 -16.261  1.00  0.00     0.040 A 
ATOM     94  F   UNL     1       5.575   8.540 -15.813  1.00  0.00    -0.206 F 
ATOM     95  C   UNL     1       4.465  11.989 -15.851  1.00  0.00     0.006 A 
ENDBRANCH  71  88
ENDBRANCH  45  46
ENDBRANCH  37  40
ENDBRANCH  35  36
ENDBRANCH  34  35
ENDBRANCH   1  34
TORSDOF 15
