REMARK SMILES CCCc1cc2c(cc1Cl)C=C(C(=O)NCCCNC(=O)c1ccc(-c3c4nc(c(-c5c(F)cccc5F)c5ccc([nH]5)c(-c5c(F)cccc5F)c5nc(c(-c6c(F)cccc6F)c6ccc3[nH]6)C=C5)C=C4)cc1)[C@@H](C(F)(F)F)O2
REMARK SMILES IDX 17 1 16 2 15 3 13 4 14 5 12 7 4 8 5 9 9 10 6 11 8 12 10 13
REMARK SMILES IDX 7 14 81 15 11 16 76 17 3 18 2 19 1 20 77 21 78 22 79 23
REMARK SMILES IDX 80 24 18 25 19 26 20 27 21 29 22 30 23 31 75 32 24 33 74 34
REMARK SMILES IDX 25 35 26 36 27 37 68 38 28 39 73 40 67 41 69 42 29 43 72 44
REMARK SMILES IDX 66 45 65 46 30 48 56 49 39 50 55 51 40 52 43 53 54 54 70 55
REMARK SMILES IDX 41 56 42 57 53 59 71 60 44 61 31 62 32 63 37 64 33 65 34 66
REMARK SMILES IDX 36 67 38 68 35 69 57 70 58 71 63 72 59 73 60 74 62 75 64 76
REMARK SMILES IDX 61 77 45 78 46 79 51 80 47 81 48 82 50 83 52 84 49 85
REMARK H PARENT 15 6 19 28 69 47 43 58
REMARK Flexibility Score: inf
ROOT
ATOM      1  C   UNL     1      -1.440  -4.696   9.659  1.00  0.00     0.042 C 
ENDROOT
BRANCH   1   2
ATOM      2  C   UNL     1      -2.416  -3.915   8.796  1.00  0.00     0.118 C 
BRANCH   2   3
ATOM      3  N   UNL     1      -2.117  -2.492   8.786  1.00  0.00    -0.352 N 
ATOM      4  C   UNL     1      -1.628  -1.590   7.907  1.00  0.00     0.251 C 
ATOM      5  O   UNL     1      -1.525  -0.438   8.342  1.00  0.00    -0.270 OA
ATOM      6  H   UNL     1      -2.327  -2.074   9.652  1.00  0.00     0.163 HD
BRANCH   4   7
ATOM      7  C   UNL     1      -1.212  -1.893   6.505  1.00  0.00     0.067 C 
ATOM      8  C   UNL     1       0.952  -1.584   1.936  1.00  0.00    -0.026 A 
ATOM      9  C   UNL     1       0.206  -2.563   2.616  1.00  0.00     0.052 A 
ATOM     10  C   UNL     1       1.223  -0.380   2.605  1.00  0.00     0.045 A 
ATOM     11  C   UNL     1      -0.253  -2.345   3.915  1.00  0.00     0.128 A 
ATOM     12  C   UNL     1       0.714  -0.145   3.889  1.00  0.00     0.032 A 
ATOM     13  Cl  UNL     1       2.248   0.840   1.940  1.00  0.00    -0.084 Cl
ATOM     14  C   UNL     1      -0.023  -1.130   4.549  1.00  0.00     0.019 A 
ATOM     15  O   UNL     1      -0.871  -3.398   4.517  1.00  0.00    -0.475 OA
ATOM     16  C   UNL     1      -0.497  -0.925   5.907  1.00  0.00     0.025 C 
ATOM     17  C   UNL     1      -1.555  -3.164   5.777  1.00  0.00     0.314 C 
BRANCH   8  18
ATOM     18  C   UNL     1       1.441  -1.903   0.540  1.00  0.00     0.037 C 
BRANCH  18  19
ATOM     19  C   UNL     1       0.513  -1.434  -0.587  1.00  0.00     0.001 C 
ATOM     20  C   UNL     1       0.617   0.051  -0.899  1.00  0.00     0.004 C 
ENDBRANCH  18  19
ENDBRANCH   8  18
BRANCH  17  21
ATOM     21  C   UNL     1      -3.063  -3.339   5.517  1.00  0.00     0.429 C 
ATOM     22  F   UNL     1      -3.349  -4.650   5.306  1.00  0.00    -0.167 F 
ATOM     23  F   UNL     1      -3.834  -2.946   6.556  1.00  0.00    -0.167 F 
ATOM     24  F   UNL     1      -3.484  -2.652   4.432  1.00  0.00    -0.167 F 
ENDBRANCH  17  21
ENDBRANCH   4   7
ENDBRANCH   2   3
ENDBRANCH   1   2
BRANCH   1  25
ATOM     25  C   UNL     1      -1.684  -4.486  11.146  1.00  0.00     0.118 C 
BRANCH  25  26
ATOM     26  N   UNL     1      -2.980  -5.009  11.575  1.00  0.00    -0.352 N 
ATOM     27  C   UNL     1      -3.296  -6.124  12.313  1.00  0.00     0.251 C 
ATOM     28  H   UNL     1      -3.755  -4.474  11.286  1.00  0.00     0.163 HD
ATOM     29  O   UNL     1      -4.457  -6.521  12.355  1.00  0.00    -0.269 OA
BRANCH  27  30
ATOM     30  C   UNL     1      -2.239  -6.852  13.042  1.00  0.00     0.039 A 
ATOM     31  C   UNL     1      -1.224  -6.148  13.686  1.00  0.00     0.014 A 
ATOM     32  C   UNL     1      -2.259  -8.249  13.087  1.00  0.00     0.014 A 
ATOM     33  C   UNL     1      -0.122  -6.829  14.176  1.00  0.00     0.010 A 
ATOM     34  C   UNL     1      -1.207  -8.937  13.701  1.00  0.00     0.010 A 
ATOM     35  C   UNL     1      -0.102  -8.232  14.203  1.00  0.00    -0.014 A 
BRANCH  35  36
ATOM     36  C   UNL     1       1.088  -8.918  14.768  1.00  0.00     0.031 A 
ATOM     37  C   UNL     1       1.933  -9.828  13.917  1.00  0.00     0.074 A 
ATOM     38  C   UNL     1       1.453  -8.646  16.037  1.00  0.00     0.049 A 
ATOM     39  N   UNL     1       3.016 -10.490  14.242  1.00  0.00    -0.248 NA
ATOM     40  C   UNL     1       1.509 -10.027  12.522  1.00  0.00     0.031 C 
ATOM     41  C   UNL     1       0.719  -7.771  16.957  1.00  0.00     0.029 A 
ATOM     42  N   UNL     1       2.545  -9.043  16.762  1.00  0.00    -0.354 N 
ATOM     43  C   UNL     1       3.393 -11.188  13.102  1.00  0.00     0.074 A 
ATOM     44  C   UNL     1       2.404 -10.902  12.086  1.00  0.00     0.031 C 
ATOM     45  C   UNL     1       1.412  -7.649  18.098  1.00  0.00     0.029 A 
ATOM     46  C   UNL     1       2.593  -8.499  18.023  1.00  0.00     0.049 A 
ATOM     47  H   UNL     1       3.229  -9.660  16.415  1.00  0.00     0.167 HD
ATOM     48  C   UNL     1       4.475 -11.982  12.914  1.00  0.00     0.037 A 
ATOM     49  C   UNL     1       3.475  -8.683  19.021  1.00  0.00     0.037 A 
ATOM     50  C   UNL     1       5.463 -12.258  13.926  1.00  0.00     0.049 A 
ATOM     51  C   UNL     1       4.631  -9.614  18.800  1.00  0.00     0.074 A 
ATOM     52  C   UNL     1       6.587 -13.062  13.842  1.00  0.00     0.029 A 
ATOM     53  N   UNL     1       5.446 -11.730  15.209  1.00  0.00    -0.354 N 
ATOM     54  N   UNL     1       4.966 -10.276  17.719  1.00  0.00    -0.248 NA
ATOM     55  C   UNL     1       5.527  -9.831  19.943  1.00  0.00     0.031 C 
ATOM     56  C   UNL     1       7.231 -13.047  15.084  1.00  0.00     0.029 A 
ATOM     57  C   UNL     1       6.533 -12.200  15.929  1.00  0.00     0.049 A 
ATOM     58  H   UNL     1       4.762 -11.113  15.557  1.00  0.00     0.167 HD
ATOM     59  C   UNL     1       6.115 -10.980  18.048  1.00  0.00     0.074 A 
ATOM     60  C   UNL     1       6.438 -10.636  19.418  1.00  0.00     0.031 C 
ATOM     61  C   UNL     1       6.833 -11.845  17.291  1.00  0.00     0.037 A 
BRANCH  48  62
ATOM     62  C   UNL     1       4.643 -12.618  11.563  1.00  0.00     0.057 A 
ATOM     63  C   UNL     1       4.466 -13.997  11.392  1.00  0.00     0.134 A 
ATOM     64  C   UNL     1       5.015 -11.871  10.438  1.00  0.00     0.134 A 
ATOM     65  F   UNL     1       4.114 -14.773  12.428  1.00  0.00    -0.206 F 
ATOM     66  C   UNL     1       4.657 -14.610  10.152  1.00  0.00     0.040 A 
ATOM     67  C   UNL     1       5.186 -12.469   9.187  1.00  0.00     0.040 A 
ATOM     68  F   UNL     1       5.185 -10.543  10.529  1.00  0.00    -0.206 F 
ATOM     69  C   UNL     1       5.013 -13.844   9.044  1.00  0.00     0.006 A 
ENDBRANCH  48  62
BRANCH  49  70
ATOM     70  C   UNL     1       3.278  -8.012  20.330  1.00  0.00     0.057 A 
ATOM     71  C   UNL     1       2.201  -8.345  21.161  1.00  0.00     0.134 A 
ATOM     72  C   UNL     1       4.178  -7.048  20.798  1.00  0.00     0.134 A 
ATOM     73  F   UNL     1       1.299  -9.257  20.768  1.00  0.00    -0.206 F 
ATOM     74  C   UNL     1       2.023  -7.744  22.407  1.00  0.00     0.040 A 
ATOM     75  C   UNL     1       4.031  -6.462  22.056  1.00  0.00     0.040 A 
ATOM     76  F   UNL     1       5.239  -6.698  20.056  1.00  0.00    -0.206 F 
ATOM     77  C   UNL     1       2.948  -6.808  22.863  1.00  0.00     0.006 A 
ENDBRANCH  49  70
BRANCH  61  78
ATOM     78  C   UNL     1       8.047 -12.449  17.933  1.00  0.00     0.057 A 
ATOM     79  C   UNL     1       9.332 -12.056  17.541  1.00  0.00     0.134 A 
ATOM     80  C   UNL     1       7.943 -13.411  18.947  1.00  0.00     0.134 A 
ATOM     81  F   UNL     1       9.500 -11.143  16.573  1.00  0.00    -0.206 F 
ATOM     82  C   UNL     1      10.472 -12.593  18.140  1.00  0.00     0.040 A 
ATOM     83  C   UNL     1       9.075 -13.934  19.572  1.00  0.00     0.040 A 
ATOM     84  F   UNL     1       6.739 -13.815  19.380  1.00  0.00    -0.206 F 
ATOM     85  C   UNL     1      10.345 -13.527  19.166  1.00  0.00     0.006 A 
ENDBRANCH  61  78
ENDBRANCH  35  36
ENDBRANCH  27  30
ENDBRANCH  25  26
ENDBRANCH   1  25
TORSDOF 13
