REMARK SMILES O=C(NCCCNC(=O)c1ccccc1C(=O)c1cccc(S(=O)(=O)N2CCOCC2)c1)c1ccc(-c2c3nc(c(-c4c(F)cccc4F)c4ccc([nH]4)c(-c4c(F)cccc4F)c4nc(c(-c5c(F)cccc5F)c5ccc2[nH]5)C=C4)C=C3)cc1
REMARK SMILES IDX 6 1 5 2 4 3 3 4 1 5 2 6 33 8 34 9 86 10 35 11 85 12 36 13
REMARK SMILES IDX 37 14 38 15 79 16 39 17 84 18 78 19 80 20 40 21 83 22 77 23
REMARK SMILES IDX 76 24 41 26 67 27 50 28 66 29 51 30 54 31 65 32 81 33 52 34
REMARK SMILES IDX 53 35 64 37 82 38 55 39 42 40 43 41 48 42 44 43 45 44 47 45
REMARK SMILES IDX 49 46 46 47 68 48 69 49 74 50 70 51 71 52 73 53 75 54 72 55
REMARK SMILES IDX 56 56 57 57 62 58 58 59 59 60 61 61 63 62 60 63 7 64 8 65
REMARK SMILES IDX 9 67 10 68 11 69 15 70 12 71 14 72 13 73 16 74 17 75 18 76
REMARK SMILES IDX 19 77 32 78 20 79 22 80 21 81 23 82 24 83 25 84 26 85 27 86
REMARK SMILES IDX 31 87 28 88 30 89 29 90
REMARK H PARENT 3 7 80 25 54 36 7 66
REMARK Flexibility Score: inf
ROOT
ATOM      1  C   UNL     1       5.653   1.864   2.814  1.00  0.00     0.118 C 
ENDROOT
BRANCH   1   2
ATOM      2  C   UNL     1       5.733   1.940   1.302  1.00  0.00     0.042 C 
BRANCH   2   3
ATOM      3  C   UNL     1       4.921   0.886   0.564  1.00  0.00     0.118 C 
BRANCH   3   4
ATOM      4  N   UNL     1       3.481   0.930   0.782  1.00  0.00    -0.352 N 
ATOM      5  O   UNL     1       1.299   0.618   0.215  1.00  0.00    -0.269 OA
ATOM      6  C   UNL     1       2.480   0.586  -0.105  1.00  0.00     0.251 C 
ATOM      7  H   UNL     1       3.186   1.243   1.667  1.00  0.00     0.163 HD
BRANCH   6   8
ATOM      8  C   UNL     1       2.877   0.270  -1.491  1.00  0.00     0.039 A 
ATOM      9  C   UNL     1       3.868  -0.682  -1.727  1.00  0.00     0.014 A 
ATOM     10  C   UNL     1       2.422   1.106  -2.513  1.00  0.00     0.014 A 
ATOM     11  C   UNL     1       4.579  -0.624  -2.917  1.00  0.00     0.010 A 
ATOM     12  C   UNL     1       3.070   1.085  -3.746  1.00  0.00     0.010 A 
ATOM     13  C   UNL     1       4.205   0.280  -3.927  1.00  0.00    -0.014 A 
BRANCH  13  14
ATOM     14  C   UNL     1       5.027   0.393  -5.156  1.00  0.00     0.031 A 
ATOM     15  C   UNL     1       5.726   1.682  -5.503  1.00  0.00     0.074 A 
ATOM     16  C   UNL     1       5.160  -0.688  -5.945  1.00  0.00     0.049 A 
ATOM     17  N   UNL     1       6.418   1.982  -6.573  1.00  0.00    -0.248 NA
ATOM     18  C   UNL     1       5.626   2.782  -4.531  1.00  0.00     0.031 C 
ATOM     19  C   UNL     1       4.538  -1.990  -5.698  1.00  0.00     0.029 A 
ATOM     20  N   UNL     1       5.863  -0.867  -7.106  1.00  0.00    -0.354 N 
ATOM     21  C   UNL     1       6.797   3.311  -6.425  1.00  0.00     0.074 A 
ATOM     22  C   UNL     1       6.255   3.765  -5.162  1.00  0.00     0.031 C 
ATOM     23  C   UNL     1       4.913  -2.845  -6.659  1.00  0.00     0.029 A 
ATOM     24  C   UNL     1       5.737  -2.131  -7.626  1.00  0.00     0.049 A 
ATOM     25  H   UNL     1       6.404  -0.160  -7.526  1.00  0.00     0.167 HD
ATOM     26  C   UNL     1       7.528   4.079  -7.269  1.00  0.00     0.037 A 
ATOM     27  C   UNL     1       6.203  -2.651  -8.774  1.00  0.00     0.037 A 
ATOM     28  C   UNL     1       8.094   3.603  -8.506  1.00  0.00     0.049 A 
ATOM     29  C   UNL     1       7.010  -1.782  -9.688  1.00  0.00     0.074 A 
ATOM     30  C   UNL     1       8.884   4.286  -9.415  1.00  0.00     0.029 A 
ATOM     31  N   UNL     1       7.935   2.317  -9.002  1.00  0.00    -0.354 N 
ATOM     32  N   UNL     1       7.352  -0.525  -9.539  1.00  0.00    -0.248 NA
ATOM     33  C   UNL     1       7.487  -2.398 -10.932  1.00  0.00     0.031 C 
ATOM     34  C   UNL     1       9.173   3.423 -10.479  1.00  0.00     0.029 A 
ATOM     35  C   UNL     1       8.596   2.192 -10.213  1.00  0.00     0.049 A 
ATOM     36  H   UNL     1       7.426   1.600  -8.560  1.00  0.00     0.167 HD
ATOM     37  C   UNL     1       8.086  -0.197 -10.669  1.00  0.00     0.074 A 
ATOM     38  C   UNL     1       8.159  -1.396 -11.482  1.00  0.00     0.031 C 
ATOM     39  C   UNL     1       8.643   0.991 -11.007  1.00  0.00     0.037 A 
BRANCH  26  40
ATOM     40  C   UNL     1       7.738   5.521  -6.904  1.00  0.00     0.057 A 
ATOM     41  C   UNL     1       8.616   5.913  -5.886  1.00  0.00     0.134 A 
ATOM     42  C   UNL     1       7.087   6.536  -7.618  1.00  0.00     0.134 A 
ATOM     43  F   UNL     1       9.262   4.993  -5.154  1.00  0.00    -0.206 F 
ATOM     44  C   UNL     1       8.826   7.260  -5.580  1.00  0.00     0.040 A 
ATOM     45  C   UNL     1       7.304   7.886  -7.337  1.00  0.00     0.040 A 
ATOM     46  F   UNL     1       6.237   6.232  -8.611  1.00  0.00    -0.206 F 
ATOM     47  C   UNL     1       8.175   8.252  -6.312  1.00  0.00     0.006 A 
ENDBRANCH  26  40
BRANCH  27  48
ATOM     48  C   UNL     1       5.884  -4.058  -9.111  1.00  0.00     0.057 A 
ATOM     49  C   UNL     1       6.859  -5.056  -9.040  1.00  0.00     0.134 A 
ATOM     50  C   UNL     1       4.579  -4.445  -9.442  1.00  0.00     0.134 A 
ATOM     51  F   UNL     1       8.127  -4.742  -8.739  1.00  0.00    -0.206 F 
ATOM     52  C   UNL     1       6.548  -6.394  -9.285  1.00  0.00     0.040 A 
ATOM     53  C   UNL     1       4.249  -5.781  -9.665  1.00  0.00     0.040 A 
ATOM     54  F   UNL     1       3.599  -3.532  -9.511  1.00  0.00    -0.206 F 
ATOM     55  C   UNL     1       5.237  -6.761  -9.588  1.00  0.00     0.006 A 
ENDBRANCH  27  48
BRANCH  39  56
ATOM     56  C   UNL     1       9.384   1.036 -12.307  1.00  0.00     0.057 A 
ATOM     57  C   UNL     1       8.708   1.075 -13.533  1.00  0.00     0.134 A 
ATOM     58  C   UNL     1      10.784   1.052 -12.332  1.00  0.00     0.134 A 
ATOM     59  F   UNL     1       7.368   1.046 -13.571  1.00  0.00    -0.206 F 
ATOM     60  C   UNL     1       9.402   1.105 -14.743  1.00  0.00     0.040 A 
ATOM     61  C   UNL     1      11.487   1.102 -13.536  1.00  0.00     0.040 A 
ATOM     62  F   UNL     1      11.486   1.021 -11.190  1.00  0.00    -0.206 F 
ATOM     63  C   UNL     1      10.795   1.122 -14.746  1.00  0.00     0.006 A 
ENDBRANCH  39  56
ENDBRANCH  13  14
ENDBRANCH   6   8
ENDBRANCH   3   4
ENDBRANCH   2   3
ENDBRANCH   1   2
BRANCH   1  64
ATOM     64  N   UNL     1       6.051   0.576   3.350  1.00  0.00    -0.352 N 
ATOM     65  C   UNL     1       6.271   0.242   4.656  1.00  0.00     0.252 C 
ATOM     66  H   UNL     1       6.178  -0.146   2.692  1.00  0.00     0.163 HD
ATOM     67  O   UNL     1       6.671  -0.875   4.969  1.00  0.00    -0.269 OA
BRANCH  65  68
ATOM     68  C   UNL     1       6.065   1.234   5.719  1.00  0.00     0.050 A 
ATOM     69  C   UNL     1       7.221   1.554   6.454  1.00  0.00     0.014 A 
ATOM     70  C   UNL     1       4.834   1.825   6.033  1.00  0.00     0.035 A 
ATOM     71  C   UNL     1       7.172   2.506   7.468  1.00  0.00     0.001 A 
ATOM     72  C   UNL     1       4.810   2.797   7.050  1.00  0.00     0.013 A 
ATOM     73  C   UNL     1       5.967   3.136   7.759  1.00  0.00     0.001 A 
BRANCH  70  74
ATOM     74  C   UNL     1       3.541   1.594   5.329  1.00  0.00     0.193 C 
ATOM     75  O   UNL     1       2.829   2.582   5.139  1.00  0.00    -0.289 OA
BRANCH  74  76
ATOM     76  C   UNL     1       3.046   0.282   4.827  1.00  0.00     0.024 A 
ATOM     77  C   UNL     1       2.026   0.274   3.864  1.00  0.00     0.012 A 
ATOM     78  C   UNL     1       3.515  -0.934   5.311  1.00  0.00     0.034 A 
ATOM     79  C   UNL     1       1.529  -0.929   3.353  1.00  0.00     0.002 A 
ATOM     80  C   UNL     1       2.986  -2.137   4.835  1.00  0.00     0.083 A 
ATOM     81  C   UNL     1       2.004  -2.142   3.844  1.00  0.00     0.022 A 
BRANCH  80  82
ATOM     82  S   UNL     1       3.457  -3.672   5.605  1.00  0.00     0.243 S 
ATOM     83  O   UNL     1       2.284  -4.520   5.584  1.00  0.00    -0.207 OA
ATOM     84  O   UNL     1       4.705  -4.082   5.002  1.00  0.00    -0.207 OA
BRANCH  82  85
ATOM     85  N   UNL     1       3.714  -3.229   7.198  1.00  0.00    -0.193 NA
ATOM     86  C   UNL     1       2.598  -2.857   8.085  1.00  0.00     0.131 C 
ATOM     87  C   UNL     1       5.061  -3.140   7.794  1.00  0.00     0.131 C 
ATOM     88  C   UNL     1       2.900  -1.521   8.771  1.00  0.00     0.177 C 
ATOM     89  C   UNL     1       5.240  -1.825   8.568  1.00  0.00     0.177 C 
ATOM     90  O   UNL     1       4.153  -1.565   9.468  1.00  0.00    -0.379 OA
ENDBRANCH  82  85
ENDBRANCH  80  82
ENDBRANCH  74  76
ENDBRANCH  70  74
ENDBRANCH  65  68
ENDBRANCH   1  64
TORSDOF 14
