REMARK SMILES O=C(CC1(NC(=O)c2ccccc2[N+](=O)[O-])CCC1)NCCCNC(=O)c1ccc(-c2c3nc(c(-c4c(F)cccc4F)c4ccc([nH]4)c(-c4c(F)cccc4F)c4nc(c(-c5c(F)cccc5F)c5ccc2[nH]5)C=C4)C=C3)cc1
REMARK SMILES IDX 21 1 20 2 1 3 2 4 3 6 4 7 17 8 19 9 18 10 5 11 6 12 7 14
REMARK SMILES IDX 8 15 9 16 13 17 10 18 12 19 11 20 14 21 15 22 16 23 22 24
REMARK SMILES IDX 23 25 24 26 25 27 26 29 27 30 28 31 80 32 29 33 79 34 30 35
REMARK SMILES IDX 31 36 32 37 73 38 33 39 78 40 72 41 74 42 34 43 77 44 71 45
REMARK SMILES IDX 70 46 35 48 61 49 44 50 60 51 45 52 48 53 59 54 75 55 46 56
REMARK SMILES IDX 47 57 58 59 76 60 49 61 36 62 37 63 42 64 38 65 39 66 41 67
REMARK SMILES IDX 43 68 40 69 62 70 63 71 68 72 64 73 65 74 67 75 69 76 66 77
REMARK SMILES IDX 50 78 51 79 56 80 52 81 53 82 55 83 57 84 54 85
REMARK H PARENT 20 5 5 13 24 28 74 47 48 58
REMARK Flexibility Score: inf
ROOT
ATOM      1  C   UNL     1       2.191   1.494   2.011  1.00  0.00     0.117 C 
ENDROOT
BRANCH   1   2
ATOM      2  N   UNL     1       3.098   0.779   1.138  1.00  0.00    -0.356 N 
ATOM      3  O   UNL     1       1.870  -1.134   1.054  1.00  0.00    -0.275 OA
ATOM      4  C   UNL     1       2.803  -0.458   0.633  1.00  0.00     0.222 C 
ATOM      5  H   UNL     1       3.957   1.197   0.900  1.00  0.00     0.163 HD
BRANCH   4   6
ATOM      6  C   UNL     1       3.767  -0.982  -0.405  1.00  0.00     0.128 C 
BRANCH   6   7
ATOM      7  C   UNL     1       4.026  -0.117  -1.655  1.00  0.00     0.049 C 
ATOM      8  C   UNL     1       3.826   1.444  -1.764  1.00  0.00     0.029 C 
ATOM      9  C   UNL     1       5.573   0.177  -1.681  1.00  0.00     0.029 C 
ATOM     10  C   UNL     1       5.311   1.621  -2.098  1.00  0.00     0.005 C 
BRANCH   7  11
ATOM     11  N   UNL     1       3.618  -0.746  -2.954  1.00  0.00    -0.346 N 
ATOM     12  C   UNL     1       2.517  -1.443  -3.392  1.00  0.00     0.258 C 
ATOM     13  H   UNL     1       4.297  -0.634  -3.658  1.00  0.00     0.164 HD
ATOM     14  O   UNL     1       2.437  -1.763  -4.576  1.00  0.00    -0.269 OA
BRANCH  12  15
ATOM     15  C   UNL     1       1.494  -1.946  -2.470  1.00  0.00     0.117 A 
ATOM     16  C   UNL     1       1.473  -3.340  -2.297  1.00  0.00     0.021 A 
ATOM     17  C   UNL     1       0.572  -1.158  -1.783  1.00  0.00     0.282 A 
ATOM     18  C   UNL     1       0.601  -3.923  -1.378  1.00  0.00     0.001 A 
ATOM     19  C   UNL     1      -0.308  -1.742  -0.857  1.00  0.00     0.086 A 
ATOM     20  C   UNL     1      -0.273  -3.123  -0.643  1.00  0.00     0.007 A 
BRANCH  17  21
ATOM     21  N   UNL     1       0.501   0.276  -1.999  1.00  0.00     0.063 N 
ATOM     22  O   UNL     1       0.319   0.997  -1.008  1.00  0.00    -0.258 OA
ATOM     23  O   UNL     1       0.614   0.692  -3.158  1.00  0.00    -0.258 OA
ENDBRANCH  17  21
ENDBRANCH  12  15
ENDBRANCH   7  11
ENDBRANCH   6   7
ENDBRANCH   4   6
ENDBRANCH   1   2
BRANCH   1  24
ATOM     24  C   UNL     1       2.390   1.129   3.473  1.00  0.00     0.042 C 
BRANCH  24  25
ATOM     25  C   UNL     1       3.840   1.207   3.929  1.00  0.00     0.118 C 
BRANCH  25  26
ATOM     26  N   UNL     1       4.424   2.532   3.772  1.00  0.00    -0.352 N 
ATOM     27  C   UNL     1       5.225   3.234   4.638  1.00  0.00     0.251 C 
ATOM     28  H   UNL     1       4.215   2.988   2.925  1.00  0.00     0.163 HD
ATOM     29  O   UNL     1       5.527   4.394   4.391  1.00  0.00    -0.269 OA
BRANCH  27  30
ATOM     30  C   UNL     1       5.690   2.594   5.887  1.00  0.00     0.039 A 
ATOM     31  C   UNL     1       5.623   3.326   7.074  1.00  0.00     0.014 A 
ATOM     32  C   UNL     1       6.176   1.284   5.893  1.00  0.00     0.014 A 
ATOM     33  C   UNL     1       5.997   2.723   8.274  1.00  0.00     0.010 A 
ATOM     34  C   UNL     1       6.461   0.656   7.101  1.00  0.00     0.010 A 
ATOM     35  C   UNL     1       6.388   1.373   8.303  1.00  0.00    -0.014 A 
BRANCH  35  36
ATOM     36  C   UNL     1       6.724   0.715   9.591  1.00  0.00     0.031 A 
ATOM     37  C   UNL     1       8.114   0.200   9.846  1.00  0.00     0.074 A 
ATOM     38  C   UNL     1       5.765   0.567  10.525  1.00  0.00     0.049 A 
ATOM     39  N   UNL     1       8.601  -0.359  10.925  1.00  0.00    -0.248 NA
ATOM     40  C   UNL     1       9.076   0.300   8.738  1.00  0.00     0.031 C 
ATOM     41  C   UNL     1       4.363   0.963  10.369  1.00  0.00     0.029 A 
ATOM     42  N   UNL     1       5.824   0.052  11.795  1.00  0.00    -0.354 N 
ATOM     43  C   UNL     1       9.920  -0.676  10.624  1.00  0.00     0.074 A 
ATOM     44  C   UNL     1      10.137  -0.313   9.241  1.00  0.00     0.031 C 
ATOM     45  C   UNL     1       3.708   0.721  11.515  1.00  0.00     0.029 A 
ATOM     46  C   UNL     1       4.631   0.123  12.473  1.00  0.00     0.049 A 
ATOM     47  H   UNL     1       6.643  -0.332  12.184  1.00  0.00     0.167 HD
ATOM     48  C   UNL     1      10.873  -1.193  11.435  1.00  0.00     0.037 A 
ATOM     49  C   UNL     1       4.320  -0.244  13.731  1.00  0.00     0.037 A 
ATOM     50  C   UNL     1      10.655  -1.541  12.815  1.00  0.00     0.049 A 
ATOM     51  C   UNL     1       5.399  -0.810  14.613  1.00  0.00     0.074 A 
ATOM     52  C   UNL     1      11.567  -2.023  13.738  1.00  0.00     0.029 A 
ATOM     53  N   UNL     1       9.435  -1.450  13.469  1.00  0.00    -0.354 N 
ATOM     54  N   UNL     1       6.663  -1.025  14.341  1.00  0.00    -0.248 NA
ATOM     55  C   UNL     1       5.008  -1.170  15.982  1.00  0.00     0.031 C 
ATOM     56  C   UNL     1      10.887  -2.273  14.935  1.00  0.00     0.029 A 
ATOM     57  C   UNL     1       9.565  -1.888  14.777  1.00  0.00     0.049 A 
ATOM     58  H   UNL     1       8.600  -1.122  13.063  1.00  0.00     0.167 HD
ATOM     59  C   UNL     1       7.225  -1.518  15.512  1.00  0.00     0.074 A 
ATOM     60  C   UNL     1       6.167  -1.546  16.501  1.00  0.00     0.031 C 
ATOM     61  C   UNL     1       8.501  -1.913  15.749  1.00  0.00     0.037 A 
BRANCH  48  62
ATOM     62  C   UNL     1      12.240  -1.409  10.848  1.00  0.00     0.057 A 
ATOM     63  C   UNL     1      13.067  -0.337  10.483  1.00  0.00     0.134 A 
ATOM     64  C   UNL     1      12.749  -2.702  10.672  1.00  0.00     0.134 A 
ATOM     65  F   UNL     1      12.638   0.928  10.612  1.00  0.00    -0.206 F 
ATOM     66  C   UNL     1      14.336  -0.543   9.939  1.00  0.00     0.040 A 
ATOM     67  C   UNL     1      14.029  -2.920  10.159  1.00  0.00     0.040 A 
ATOM     68  F   UNL     1      12.015  -3.775  11.004  1.00  0.00    -0.206 F 
ATOM     69  C   UNL     1      14.824  -1.839   9.783  1.00  0.00     0.006 A 
ENDBRANCH  48  62
BRANCH  49  70
ATOM     70  C   UNL     1       2.939  -0.053  14.244  1.00  0.00     0.057 A 
ATOM     71  C   UNL     1       2.661   0.886  15.245  1.00  0.00     0.134 A 
ATOM     72  C   UNL     1       1.868  -0.811  13.757  1.00  0.00     0.134 A 
ATOM     73  F   UNL     1       3.647   1.632  15.764  1.00  0.00    -0.206 F 
ATOM     74  C   UNL     1       1.374   1.046  15.762  1.00  0.00     0.040 A 
ATOM     75  C   UNL     1       0.571  -0.641  14.244  1.00  0.00     0.040 A 
ATOM     76  F   UNL     1       2.065  -1.719  12.790  1.00  0.00    -0.206 F 
ATOM     77  C   UNL     1       0.323   0.283  15.257  1.00  0.00     0.006 A 
ENDBRANCH  49  70
BRANCH  61  78
ATOM     78  C   UNL     1       8.824  -2.373  17.142  1.00  0.00     0.057 A 
ATOM     79  C   UNL     1       8.318  -3.570  17.666  1.00  0.00     0.134 A 
ATOM     80  C   UNL     1       9.659  -1.609  17.968  1.00  0.00     0.134 A 
ATOM     81  F   UNL     1       7.504  -4.344  16.932  1.00  0.00    -0.206 F 
ATOM     82  C   UNL     1       8.597  -3.969  18.974  1.00  0.00     0.040 A 
ATOM     83  C   UNL     1       9.972  -2.015  19.266  1.00  0.00     0.040 A 
ATOM     84  F   UNL     1      10.189  -0.459  17.526  1.00  0.00    -0.206 F 
ATOM     85  C   UNL     1       9.430  -3.192  19.776  1.00  0.00     0.006 A 
ENDBRANCH  61  78
ENDBRANCH  35  36
ENDBRANCH  27  30
ENDBRANCH  25  26
ENDBRANCH  24  25
ENDBRANCH   1  24
TORSDOF 14
