REMARK SMILES CCN(Cc1ccccn1)C(=O)N1CCC[C@H](C(=O)NCCCNC(=O)c2ccc(-c3c4nc(c(-c5c(F)cccc5F)c5ccc([nH]5)c(-c5c(F)cccc5F)c5nc(c(-c6c(F)cccc6F)c6ccc3[nH]6)C=C5)C=C4)cc2)C1
REMARK SMILES IDX 21 1 20 2 18 3 19 4 17 6 13 7 14 8 81 9 15 10 16 11 11 12
REMARK SMILES IDX 12 13 3 14 2 15 1 16 4 17 5 18 6 19 10 20 7 21 9 22 8 23
REMARK SMILES IDX 22 24 23 25 24 26 25 27 26 29 27 30 28 31 80 32 29 33 79 34
REMARK SMILES IDX 30 35 31 36 32 37 73 38 33 39 78 40 72 41 74 42 34 43 77 44
REMARK SMILES IDX 71 45 70 46 35 48 61 49 44 50 60 51 45 52 48 53 59 54 75 55
REMARK SMILES IDX 46 56 47 57 58 59 76 60 49 61 36 62 37 63 42 64 38 65 39 66
REMARK SMILES IDX 41 67 43 68 40 69 62 70 63 71 68 72 64 73 65 74 67 75 69 76
REMARK SMILES IDX 66 77 50 78 51 79 56 80 52 81 53 82 55 83 57 84 54 85
REMARK H PARENT 20 5 24 28 74 47 48 58
REMARK Flexibility Score: inf
ROOT
ATOM      1  C   UNL     1       4.864   3.632  -0.500  1.00  0.00     0.117 C 
ENDROOT
BRANCH   1   2
ATOM      2  N   UNL     1       4.718   5.065  -0.439  1.00  0.00    -0.356 N 
ATOM      3  C   UNL     1       4.136   5.921  -1.318  1.00  0.00     0.224 C 
ATOM      4  O   UNL     1       3.974   7.081  -0.914  1.00  0.00    -0.275 OA
ATOM      5  H   UNL     1       5.100   5.489   0.363  1.00  0.00     0.163 HD
BRANCH   3   6
ATOM      6  C   UNL     1       3.703   5.556  -2.752  1.00  0.00     0.098 C 
ATOM      7  N   UNL     1       2.713   3.237  -2.961  1.00  0.00    -0.324 N 
ATOM      8  C   UNL     1       3.704   2.850  -3.968  1.00  0.00     0.121 C 
ATOM      9  C   UNL     1       2.468   4.668  -2.880  1.00  0.00     0.134 C 
ATOM     10  C   UNL     1       4.996   3.679  -3.940  1.00  0.00     0.022 C 
ATOM     11  C   UNL     1       4.813   5.177  -3.721  1.00  0.00     0.017 C 
BRANCH   7  12
ATOM     12  C   UNL     1       2.289   2.299  -2.022  1.00  0.00     0.320 C 
ATOM     13  O   UNL     1       2.992   1.306  -1.809  1.00  0.00    -0.248 OA
BRANCH  12  14
ATOM     14  N   UNL     1       1.123   2.504  -1.302  1.00  0.00    -0.319 N 
BRANCH  14  15
ATOM     15  C   UNL     1       0.950   1.803  -0.021  1.00  0.00     0.118 C 
ATOM     16  C   UNL     1       0.941   0.280  -0.118  1.00  0.00     0.027 C 
ENDBRANCH  14  15
BRANCH  14  17
ATOM     17  C   UNL     1      -0.071   3.208  -1.798  1.00  0.00     0.177 C 
BRANCH  17  18
ATOM     18  C   UNL     1      -0.290   4.628  -1.270  1.00  0.00     0.060 A 
ATOM     19  C   UNL     1      -1.103   5.482  -2.018  1.00  0.00     0.026 A 
ATOM     20  N   UNL     1       0.492   5.088  -0.254  1.00  0.00    -0.259 NA
ATOM     21  C   UNL     1      -1.001   6.856  -1.817  1.00  0.00     0.004 A 
ATOM     22  C   UNL     1       0.592   6.430  -0.102  1.00  0.00     0.111 A 
ATOM     23  C   UNL     1      -0.107   7.343  -0.872  1.00  0.00     0.020 A 
ENDBRANCH  17  18
ENDBRANCH  14  17
ENDBRANCH  12  14
ENDBRANCH   7  12
ENDBRANCH   3   6
ENDBRANCH   1   2
BRANCH   1  24
ATOM     24  C   UNL     1       6.296   3.160  -0.646  1.00  0.00     0.042 C 
BRANCH  24  25
ATOM     25  C   UNL     1       6.937   2.793   0.673  1.00  0.00     0.118 C 
BRANCH  25  26
ATOM     26  N   UNL     1       6.361   1.586   1.264  1.00  0.00    -0.352 N 
ATOM     27  C   UNL     1       6.934   0.375   1.565  1.00  0.00     0.251 C 
ATOM     28  H   UNL     1       5.403   1.653   1.482  1.00  0.00     0.163 HD
ATOM     29  O   UNL     1       6.232  -0.563   1.939  1.00  0.00    -0.269 OA
BRANCH  27  30
ATOM     30  C   UNL     1       8.390   0.181   1.413  1.00  0.00     0.039 A 
ATOM     31  C   UNL     1       8.868  -1.030   0.904  1.00  0.00     0.014 A 
ATOM     32  C   UNL     1       9.286   1.193   1.756  1.00  0.00     0.014 A 
ATOM     33  C   UNL     1      10.235  -1.189   0.668  1.00  0.00     0.010 A 
ATOM     34  C   UNL     1      10.620   1.086   1.394  1.00  0.00     0.010 A 
ATOM     35  C   UNL     1      11.116  -0.115   0.869  1.00  0.00    -0.014 A 
BRANCH  35  36
ATOM     36  C   UNL     1      12.566  -0.228   0.577  1.00  0.00     0.031 A 
ATOM     37  C   UNL     1      13.568  -0.006   1.678  1.00  0.00     0.074 A 
ATOM     38  C   UNL     1      12.980  -0.452  -0.685  1.00  0.00     0.049 A 
ATOM     39  N   UNL     1      14.874   0.026   1.615  1.00  0.00    -0.248 NA
ATOM     40  C   UNL     1      13.028   0.257   3.023  1.00  0.00     0.031 C 
ATOM     41  C   UNL     1      12.107  -0.621  -1.848  1.00  0.00     0.029 A 
ATOM     42  N   UNL     1      14.246  -0.568  -1.201  1.00  0.00    -0.354 N 
ATOM     43  C   UNL     1      15.304   0.336   2.900  1.00  0.00     0.074 A 
ATOM     44  C   UNL     1      14.123   0.557   3.702  1.00  0.00     0.031 C 
ATOM     45  C   UNL     1      12.860  -0.854  -2.934  1.00  0.00     0.029 A 
ATOM     46  C   UNL     1      14.268  -0.806  -2.554  1.00  0.00     0.049 A 
ATOM     47  H   UNL     1      15.060  -0.487  -0.655  1.00  0.00     0.167 HD
ATOM     48  C   UNL     1      16.569   0.397   3.378  1.00  0.00     0.037 A 
ATOM     49  C   UNL     1      15.309  -0.964  -3.393  1.00  0.00     0.037 A 
ATOM     50  C   UNL     1      17.738   0.143   2.580  1.00  0.00     0.049 A 
ATOM     51  C   UNL     1      16.705  -0.897  -2.841  1.00  0.00     0.074 A 
ATOM     52  C   UNL     1      19.063   0.111   2.976  1.00  0.00     0.029 A 
ATOM     53  N   UNL     1      17.719  -0.119   1.217  1.00  0.00    -0.354 N 
ATOM     54  N   UNL     1      17.098  -0.678  -1.609  1.00  0.00    -0.248 NA
ATOM     55  C   UNL     1      17.804  -1.106  -3.794  1.00  0.00     0.031 C 
ATOM     56  C   UNL     1      19.849  -0.118   1.842  1.00  0.00     0.029 A 
ATOM     57  C   UNL     1      19.012  -0.288   0.751  1.00  0.00     0.049 A 
ATOM     58  H   UNL     1      16.907  -0.177   0.664  1.00  0.00     0.167 HD
ATOM     59  C   UNL     1      18.485  -0.749  -1.632  1.00  0.00     0.074 A 
ATOM     60  C   UNL     1      18.863  -1.047  -2.999  1.00  0.00     0.031 C 
ATOM     61  C   UNL     1      19.366  -0.585  -0.615  1.00  0.00     0.037 A 
BRANCH  48  62
ATOM     62  C   UNL     1      16.742   0.751   4.829  1.00  0.00     0.057 A 
ATOM     63  C   UNL     1      16.320  -0.103   5.858  1.00  0.00     0.134 A 
ATOM     64  C   UNL     1      17.339   1.962   5.203  1.00  0.00     0.134 A 
ATOM     65  F   UNL     1      15.728  -1.272   5.573  1.00  0.00    -0.206 F 
ATOM     66  C   UNL     1      16.448   0.252   7.203  1.00  0.00     0.040 A 
ATOM     67  C   UNL     1      17.503   2.312   6.544  1.00  0.00     0.040 A 
ATOM     68  F   UNL     1      17.772   2.825   4.272  1.00  0.00    -0.206 F 
ATOM     69  C   UNL     1      17.046   1.461   7.548  1.00  0.00     0.006 A 
ENDBRANCH  48  62
BRANCH  49  70
ATOM     70  C   UNL     1      15.064  -1.232  -4.833  1.00  0.00     0.057 A 
ATOM     71  C   UNL     1      15.339  -2.486  -5.391  1.00  0.00     0.134 A 
ATOM     72  C   UNL     1      14.535  -0.252  -5.682  1.00  0.00     0.134 A 
ATOM     73  F   UNL     1      15.861  -3.462  -4.633  1.00  0.00    -0.206 F 
ATOM     74  C   UNL     1      15.112  -2.752  -6.743  1.00  0.00     0.040 A 
ATOM     75  C   UNL     1      14.278  -0.512  -7.029  1.00  0.00     0.040 A 
ATOM     76  F   UNL     1      14.240   0.967  -5.208  1.00  0.00    -0.206 F 
ATOM     77  C   UNL     1      14.573  -1.764  -7.564  1.00  0.00     0.006 A 
ENDBRANCH  49  70
BRANCH  61  78
ATOM     78  C   UNL     1      20.823  -0.754  -0.934  1.00  0.00     0.057 A 
ATOM     79  C   UNL     1      21.530   0.186  -1.694  1.00  0.00     0.134 A 
ATOM     80  C   UNL     1      21.536  -1.853  -0.436  1.00  0.00     0.134 A 
ATOM     81  F   UNL     1      20.903   1.255  -2.209  1.00  0.00    -0.206 F 
ATOM     82  C   UNL     1      22.890   0.028  -1.967  1.00  0.00     0.040 A 
ATOM     83  C   UNL     1      22.902  -2.005  -0.677  1.00  0.00     0.040 A 
ATOM     84  F   UNL     1      20.921  -2.785   0.307  1.00  0.00    -0.206 F 
ATOM     85  C   UNL     1      23.581  -1.067  -1.450  1.00  0.00     0.006 A 
ENDBRANCH  61  78
ENDBRANCH  35  36
ENDBRANCH  27  30
ENDBRANCH  25  26
ENDBRANCH  24  25
ENDBRANCH   1  24
TORSDOF 15
