REMARK SMILES CC(C)C[C@H](C(=O)NCCCNC(=O)c1ccc(-c2c3nc(c(-c4c(F)cccc4F)c4ccc([nH]4)c(-c4c(F)cccc4F)c4nc(c(-c5c(F)cccc5F)c5ccc2[nH]5)C=C4)C=C3)cc1)[C@@H]1CCO[C@]2(CCOC2)C1
REMARK SMILES IDX 10 1 9 2 8 3 6 4 7 5 5 7 4 8 2 9 1 10 3 11 69 12 70 13 78 14
REMARK SMILES IDX 71 15 73 16 72 17 74 18 77 19 75 20 76 21 11 22 12 23 13 24
REMARK SMILES IDX 14 26 15 27 16 28 68 29 17 30 67 31 18 32 19 33 20 34 61 35
REMARK SMILES IDX 21 36 66 37 60 38 62 39 22 40 65 41 59 42 58 43 23 45 49 46
REMARK SMILES IDX 32 47 48 48 33 49 36 50 47 51 63 52 34 53 35 54 46 56 64 57
REMARK SMILES IDX 37 58 24 59 25 60 30 61 26 62 27 63 29 64 31 65 28 66 50 67
REMARK SMILES IDX 51 68 56 69 52 70 53 71 55 72 57 73 54 74 38 75 39 76 44 77
REMARK SMILES IDX 40 78 41 79 43 80 45 81 42 82
REMARK H PARENT 8 6 12 25 62 44 36 55
REMARK Flexibility Score: inf
ROOT
ATOM      1  C   UNL     1      -3.609  -1.934  -0.781  1.00  0.00     0.042 C 
ENDROOT
BRANCH   1   2
ATOM      2  C   UNL     1      -2.171  -1.493  -0.485  1.00  0.00     0.117 C 
BRANCH   2   3
ATOM      3  N   UNL     1      -1.594  -0.723  -1.583  1.00  0.00    -0.356 N 
ATOM      4  C   UNL     1      -1.391   0.623  -1.747  1.00  0.00     0.223 C 
ATOM      5  O   UNL     1      -0.999   0.999  -2.853  1.00  0.00    -0.275 OA
ATOM      6  H   UNL     1      -1.296  -1.271  -2.345  1.00  0.00     0.163 HD
BRANCH   4   7
ATOM      7  C   UNL     1      -1.637   1.612  -0.577  1.00  0.00     0.082 C 
BRANCH   7   8
ATOM      8  C   UNL     1      -0.697   2.868  -0.747  1.00  0.00     0.016 C 
BRANCH   8   9
ATOM      9  C   UNL     1      -1.148   4.248  -1.287  1.00  0.00    -0.017 C 
ATOM     10  C   UNL     1      -1.444   5.260  -0.177  1.00  0.00     0.007 C 
ATOM     11  C   UNL     1      -0.018   4.896  -2.107  1.00  0.00     0.007 C 
ENDBRANCH   8   9
ENDBRANCH   7   8
BRANCH   7  12
ATOM     12  C   UNL     1      -3.163   1.659  -0.256  1.00  0.00     0.007 C 
ATOM     13  C   UNL     1      -4.062   2.674  -0.922  1.00  0.00     0.033 C 
ATOM     14  C   UNL     1      -3.557   1.517   1.220  1.00  0.00     0.042 C 
ATOM     15  C   UNL     1      -4.495   3.850  -0.062  1.00  0.00     0.161 C 
ATOM     16  C   UNL     1      -3.515   2.831   1.990  1.00  0.00     0.094 C 
ATOM     17  O   UNL     1      -4.060   3.940   1.288  1.00  0.00    -0.372 OA
ATOM     18  C   UNL     1      -2.104   3.138   2.495  1.00  0.00     0.066 C 
ATOM     19  C   UNL     1      -4.234   2.710   3.337  1.00  0.00     0.195 C 
ATOM     20  C   UNL     1      -2.015   2.532   3.882  1.00  0.00     0.163 C 
ATOM     21  O   UNL     1      -3.319   2.065   4.229  1.00  0.00    -0.378 OA
ENDBRANCH   7  12
ENDBRANCH   4   7
ENDBRANCH   2   3
ENDBRANCH   1   2
BRANCH   1  22
ATOM     22  C   UNL     1      -3.721  -3.002  -1.862  1.00  0.00     0.118 C 
BRANCH  22  23
ATOM     23  N   UNL     1      -3.385  -4.326  -1.365  1.00  0.00    -0.352 N 
ATOM     24  C   UNL     1      -4.155  -5.460  -1.315  1.00  0.00     0.251 C 
ATOM     25  H   UNL     1      -2.471  -4.423  -1.012  1.00  0.00     0.163 HD
ATOM     26  O   UNL     1      -3.761  -6.433  -0.664  1.00  0.00    -0.269 OA
BRANCH  24  27
ATOM     27  C   UNL     1      -5.460  -5.529  -2.011  1.00  0.00     0.039 A 
ATOM     28  C   UNL     1      -6.533  -6.160  -1.375  1.00  0.00     0.014 A 
ATOM     29  C   UNL     1      -5.627  -5.004  -3.296  1.00  0.00     0.014 A 
ATOM     30  C   UNL     1      -7.783  -6.212  -1.999  1.00  0.00     0.010 A 
ATOM     31  C   UNL     1      -6.892  -4.984  -3.882  1.00  0.00     0.010 A 
ATOM     32  C   UNL     1      -7.983  -5.593  -3.243  1.00  0.00    -0.014 A 
BRANCH  32  33
ATOM     33  C   UNL     1      -9.319  -5.576  -3.894  1.00  0.00     0.031 A 
ATOM     34  C   UNL     1      -9.526  -6.255  -5.221  1.00  0.00     0.074 A 
ATOM     35  C   UNL     1     -10.332  -4.893  -3.324  1.00  0.00     0.049 A 
ATOM     36  N   UNL     1     -10.591  -6.281  -5.981  1.00  0.00    -0.248 NA
ATOM     37  C   UNL     1      -8.374  -6.980  -5.781  1.00  0.00     0.031 C 
ATOM     38  C   UNL     1     -10.251  -4.157  -2.061  1.00  0.00     0.029 A 
ATOM     39  N   UNL     1     -11.625  -4.694  -3.740  1.00  0.00    -0.354 N 
ATOM     40  C   UNL     1     -10.233  -7.004  -7.112  1.00  0.00     0.074 A 
ATOM     41  C   UNL     1      -8.838  -7.358  -6.963  1.00  0.00     0.031 C 
ATOM     42  C   UNL     1     -11.446  -3.604  -1.796  1.00  0.00     0.029 A 
ATOM     43  C   UNL     1     -12.364  -3.908  -2.889  1.00  0.00     0.049 A 
ATOM     44  H   UNL     1     -11.989  -5.078  -4.571  1.00  0.00     0.167 HD
ATOM     45  C   UNL     1     -11.001  -7.360  -8.170  1.00  0.00     0.037 A 
ATOM     46  C   UNL     1     -13.634  -3.468  -2.985  1.00  0.00     0.037 A 
ATOM     47  C   UNL     1     -12.396  -7.030  -8.303  1.00  0.00     0.049 A 
ATOM     48  C   UNL     1     -14.461  -3.863  -4.178  1.00  0.00     0.074 A 
ATOM     49  C   UNL     1     -13.278  -7.404  -9.302  1.00  0.00     0.029 A 
ATOM     50  N   UNL     1     -13.111  -6.242  -7.413  1.00  0.00    -0.354 N 
ATOM     51  N   UNL     1     -14.130  -4.612  -5.202  1.00  0.00    -0.248 NA
ATOM     52  C   UNL     1     -15.839  -3.355  -4.227  1.00  0.00     0.031 C 
ATOM     53  C   UNL     1     -14.512  -6.799  -9.045  1.00  0.00     0.029 A 
ATOM     54  C   UNL     1     -14.415  -6.093  -7.857  1.00  0.00     0.049 A 
ATOM     55  H   UNL     1     -12.746  -5.847  -6.589  1.00  0.00     0.167 HD
ATOM     56  C   UNL     1     -15.264  -4.688  -6.000  1.00  0.00     0.074 A 
ATOM     57  C   UNL     1     -16.296  -3.922  -5.334  1.00  0.00     0.031 C 
ATOM     58  C   UNL     1     -15.435  -5.335  -7.179  1.00  0.00     0.037 A 
BRANCH  45  59
ATOM     59  C   UNL     1     -10.351  -8.147  -9.271  1.00  0.00     0.057 A 
ATOM     60  C   UNL     1      -9.950  -9.478  -9.095  1.00  0.00     0.134 A 
ATOM     61  C   UNL     1     -10.163  -7.580 -10.539  1.00  0.00     0.134 A 
ATOM     62  F   UNL     1     -10.091 -10.079  -7.904  1.00  0.00    -0.206 F 
ATOM     63  C   UNL     1      -9.362 -10.207 -10.130  1.00  0.00     0.040 A 
ATOM     64  C   UNL     1      -9.604  -8.309 -11.590  1.00  0.00     0.040 A 
ATOM     65  F   UNL     1     -10.532  -6.313 -10.780  1.00  0.00    -0.206 F 
ATOM     66  C   UNL     1      -9.195  -9.625 -11.385  1.00  0.00     0.006 A 
ENDBRANCH  45  59
BRANCH  46  67
ATOM     67  C   UNL     1     -14.209  -2.609  -1.917  1.00  0.00     0.057 A 
ATOM     68  C   UNL     1     -15.226  -3.081  -1.079  1.00  0.00     0.134 A 
ATOM     69  C   UNL     1     -13.771  -1.294  -1.721  1.00  0.00     0.134 A 
ATOM     70  F   UNL     1     -15.702  -4.326  -1.230  1.00  0.00    -0.206 F 
ATOM     71  C   UNL     1     -15.803  -2.270  -0.100  1.00  0.00     0.040 A 
ATOM     72  C   UNL     1     -14.319  -0.481  -0.727  1.00  0.00     0.040 A 
ATOM     73  F   UNL     1     -12.794  -0.783  -2.485  1.00  0.00    -0.206 F 
ATOM     74  C   UNL     1     -15.346  -0.967   0.081  1.00  0.00     0.006 A 
ENDBRANCH  46  67
BRANCH  58  75
ATOM     75  C   UNL     1     -16.796  -5.273  -7.809  1.00  0.00     0.057 A 
ATOM     76  C   UNL     1     -17.287  -4.103  -8.401  1.00  0.00     0.134 A 
ATOM     77  C   UNL     1     -17.606  -6.415  -7.864  1.00  0.00     0.134 A 
ATOM     78  F   UNL     1     -16.566  -2.971  -8.370  1.00  0.00    -0.206 F 
ATOM     79  C   UNL     1     -18.543  -4.065  -9.008  1.00  0.00     0.040 A 
ATOM     80  C   UNL     1     -18.852  -6.397  -8.493  1.00  0.00     0.040 A 
ATOM     81  F   UNL     1     -17.193  -7.571  -7.324  1.00  0.00    -0.206 F 
ATOM     82  C   UNL     1     -19.325  -5.217  -9.063  1.00  0.00     0.006 A 
ENDBRANCH  58  75
ENDBRANCH  32  33
ENDBRANCH  24  27
ENDBRANCH  22  23
ENDBRANCH   1  22
TORSDOF 13
