REMARK SMILES CCOc1cnc(C(=O)c2[nH]c3cc(Cl)ccc3c2CC(=O)NCCCNC(=O)c2ccc(-c3c4nc(c(-c5c(F)cccc5F)c5ccc([nH]5)c(-c5c(F)cccc5F)c5nc(c(-c6c(F)cccc6F)c6ccc3[nH]6)C=C5)C=C4)cc2)cc1CC
REMARK SMILES IDX 21 1 22 2 23 3 20 5 19 6 10 7 11 8 12 9 18 11 13 12 17 13
REMARK SMILES IDX 14 14 16 15 15 16 8 17 9 18 7 19 4 20 5 21 85 22 6 23 84 24
REMARK SMILES IDX 3 25 2 26 1 27 86 28 87 29 24 30 25 31 26 32 27 33 28 34
REMARK SMILES IDX 29 36 30 37 31 38 83 39 32 40 82 41 33 42 34 43 35 44 76 45
REMARK SMILES IDX 36 46 81 47 75 48 77 49 37 50 80 51 74 52 73 53 38 55 64 56
REMARK SMILES IDX 47 57 63 58 48 59 51 60 62 61 78 62 49 63 50 64 61 66 79 67
REMARK SMILES IDX 52 68 39 69 40 70 45 71 41 72 42 73 44 74 46 75 43 76 65 77
REMARK SMILES IDX 66 78 71 79 67 80 68 81 70 82 72 83 69 84 53 85 54 86 59 87
REMARK SMILES IDX 55 88 56 89 58 90 60 91 57 92
REMARK H PARENT 23 4 11 10 27 35 77 54 51 65
REMARK Flexibility Score: inf
ROOT
ATOM      1  C   UNL     1       9.501  -3.718   1.265  1.00  0.00     0.224 C 
ATOM      2  O   UNL     1       9.036  -4.846   1.085  1.00  0.00    -0.275 OA
ATOM      3  N   UNL     1      10.583  -3.603   2.091  1.00  0.00    -0.356 N 
ATOM      4  H   UNL     1      10.803  -4.411   2.610  1.00  0.00     0.163 HD
ENDROOT
BRANCH   1   5
ATOM      5  C   UNL     1       8.966  -2.517   0.498  1.00  0.00     0.138 C 
BRANCH   5   6
ATOM      6  C   UNL     1       8.479  -1.388   1.362  1.00  0.00    -0.002 A 
ATOM      7  C   UNL     1       7.393  -1.401   2.231  1.00  0.00     0.093 A 
ATOM      8  N   UNL     1       7.410  -0.210   2.921  1.00  0.00    -0.351 N 
ATOM      9  C   UNL     1       8.303   0.662   2.351  1.00  0.00     0.048 A 
ATOM     10  H   UNL     1       6.858  -0.011   3.712  1.00  0.00     0.167 HD
ATOM     11  C   UNL     1       8.989  -0.045   1.365  1.00  0.00     0.004 A 
ATOM     12  C   UNL     1       8.556   2.009   2.639  1.00  0.00     0.047 A 
ATOM     13  C   UNL     1       9.980   0.633   0.623  1.00  0.00     0.012 A 
ATOM     14  C   UNL     1       9.538   2.654   1.883  1.00  0.00     0.043 A 
ATOM     15  C   UNL     1      10.243   1.983   0.888  1.00  0.00     0.021 A 
ATOM     16  Cl  UNL     1       9.877   4.315   2.188  1.00  0.00    -0.084 Cl
BRANCH   7  17
ATOM     17  C   UNL     1       6.405  -2.447   2.460  1.00  0.00     0.227 C 
ATOM     18  O   UNL     1       6.726  -3.535   2.922  1.00  0.00    -0.285 OA
BRANCH  17  19
ATOM     19  C   UNL     1       4.959  -2.135   2.128  1.00  0.00     0.113 A 
ATOM     20  C   UNL     1       2.297  -1.604   1.673  1.00  0.00     0.140 A 
ATOM     21  C   UNL     1       2.757  -2.840   2.116  1.00  0.00     0.158 A 
ATOM     22  C   UNL     1       3.217  -0.573   1.492  1.00  0.00    -0.002 A 
ATOM     23  N   UNL     1       4.058  -3.122   2.362  1.00  0.00    -0.249 NA
ATOM     24  C   UNL     1       4.574  -0.878   1.655  1.00  0.00     0.040 A 
BRANCH  20  25
ATOM     25  O   UNL     1       0.961  -1.383   1.508  1.00  0.00    -0.492 OA
BRANCH  25  26
ATOM     26  C   UNL     1       0.492  -1.857   0.237  1.00  0.00     0.226 C 
ATOM     27  C   UNL     1       0.150  -0.671  -0.651  1.00  0.00     0.049 C 
ENDBRANCH  25  26
ENDBRANCH  20  25
BRANCH  22  28
ATOM     28  C   UNL     1       2.803   0.836   1.138  1.00  0.00     0.036 C 
ATOM     29  C   UNL     1       3.357   1.878   2.106  1.00  0.00     0.009 C 
ENDBRANCH  22  28
ENDBRANCH  17  19
ENDBRANCH   7  17
ENDBRANCH   5   6
ENDBRANCH   1   5
BRANCH   3  30
ATOM     30  C   UNL     1      11.454  -2.468   2.316  1.00  0.00     0.117 C 
BRANCH  30  31
ATOM     31  C   UNL     1      11.188  -1.751   3.637  1.00  0.00     0.042 C 
BRANCH  31  32
ATOM     32  C   UNL     1      11.508  -2.567   4.887  1.00  0.00     0.118 C 
BRANCH  32  33
ATOM     33  N   UNL     1      12.919  -2.900   4.997  1.00  0.00    -0.352 N 
ATOM     34  C   UNL     1      13.831  -2.666   5.994  1.00  0.00     0.251 C 
ATOM     35  H   UNL     1      13.285  -3.378   4.218  1.00  0.00     0.163 HD
ATOM     36  O   UNL     1      15.017  -2.905   5.775  1.00  0.00    -0.269 OA
BRANCH  34  37
ATOM     37  C   UNL     1      13.435  -2.126   7.318  1.00  0.00     0.039 A 
ATOM     38  C   UNL     1      14.328  -1.265   7.969  1.00  0.00     0.014 A 
ATOM     39  C   UNL     1      12.258  -2.510   7.966  1.00  0.00     0.014 A 
ATOM     40  C   UNL     1      14.028  -0.765   9.239  1.00  0.00     0.010 A 
ATOM     41  C   UNL     1      11.928  -1.961   9.208  1.00  0.00     0.010 A 
ATOM     42  C   UNL     1      12.814  -1.093   9.862  1.00  0.00    -0.014 A 
BRANCH  42  43
ATOM     43  C   UNL     1      12.478  -0.538  11.199  1.00  0.00     0.031 A 
ATOM     44  C   UNL     1      12.388  -1.436  12.402  1.00  0.00     0.074 A 
ATOM     45  C   UNL     1      12.223   0.778  11.327  1.00  0.00     0.049 A 
ATOM     46  N   UNL     1      12.108  -1.128  13.644  1.00  0.00    -0.248 NA
ATOM     47  C   UNL     1      12.623  -2.870  12.179  1.00  0.00     0.031 C 
ATOM     48  C   UNL     1      12.232   1.752  10.234  1.00  0.00     0.029 A 
ATOM     49  N   UNL     1      11.909   1.525  12.435  1.00  0.00    -0.354 N 
ATOM     50  C   UNL     1      12.113  -2.328  14.344  1.00  0.00     0.074 A 
ATOM     51  C   UNL     1      12.388  -3.374  13.382  1.00  0.00     0.031 C 
ATOM     52  C   UNL     1      11.967   2.971  10.730  1.00  0.00     0.029 A 
ATOM     53  C   UNL     1      11.747   2.862  12.169  1.00  0.00     0.049 A 
ATOM     54  H   UNL     1      11.808   1.138  13.335  1.00  0.00     0.167 HD
ATOM     55  C   UNL     1      11.922  -2.539  15.668  1.00  0.00     0.037 A 
ATOM     56  C   UNL     1      11.463   3.888  12.994  1.00  0.00     0.037 A 
ATOM     57  C   UNL     1      11.687  -1.499  16.635  1.00  0.00     0.049 A 
ATOM     58  C   UNL     1      11.290   3.631  14.463  1.00  0.00     0.074 A 
ATOM     59  C   UNL     1      11.554  -1.610  18.009  1.00  0.00     0.029 A 
ATOM     60  N   UNL     1      11.551  -0.154  16.328  1.00  0.00    -0.354 N 
ATOM     61  N   UNL     1      11.365   2.500  15.119  1.00  0.00    -0.248 NA
ATOM     62  C   UNL     1      11.001   4.799  15.308  1.00  0.00     0.031 C 
ATOM     63  C   UNL     1      11.309  -0.335  18.531  1.00  0.00     0.029 A 
ATOM     64  C   UNL     1      11.322   0.574  17.485  1.00  0.00     0.049 A 
ATOM     65  H   UNL     1      11.609   0.227  15.423  1.00  0.00     0.167 HD
ATOM     66  C   UNL     1      11.161   2.821  16.455  1.00  0.00     0.074 A 
ATOM     67  C   UNL     1      10.968   4.255  16.517  1.00  0.00     0.031 C 
ATOM     68  C   UNL     1      11.139   2.001  17.533  1.00  0.00     0.037 A 
BRANCH  55  69
ATOM     69  C   UNL     1      11.965  -3.958  16.152  1.00  0.00     0.057 A 
ATOM     70  C   UNL     1      13.168  -4.669  16.248  1.00  0.00     0.134 A 
ATOM     71  C   UNL     1      10.793  -4.611  16.556  1.00  0.00     0.134 A 
ATOM     72  F   UNL     1      14.323  -4.104  15.866  1.00  0.00    -0.206 F 
ATOM     73  C   UNL     1      13.202  -5.988  16.704  1.00  0.00     0.040 A 
ATOM     74  C   UNL     1      10.817  -5.922  17.035  1.00  0.00     0.040 A 
ATOM     75  F   UNL     1       9.609  -3.984  16.495  1.00  0.00    -0.206 F 
ATOM     76  C   UNL     1      12.024  -6.616  17.105  1.00  0.00     0.006 A 
ENDBRANCH  55  69
BRANCH  56  77
ATOM     77  C   UNL     1      11.373   5.265  12.454  1.00  0.00     0.057 A 
ATOM     78  C   UNL     1      12.387   6.197  12.697  1.00  0.00     0.134 A 
ATOM     79  C   UNL     1      10.278   5.682  11.688  1.00  0.00     0.134 A 
ATOM     80  F   UNL     1      13.451   5.858  13.440  1.00  0.00    -0.206 F 
ATOM     81  C   UNL     1      12.312   7.502  12.210  1.00  0.00     0.040 A 
ATOM     82  C   UNL     1      10.198   6.979  11.178  1.00  0.00     0.040 A 
ATOM     83  F   UNL     1       9.278   4.832  11.417  1.00  0.00    -0.206 F 
ATOM     84  C   UNL     1      11.216   7.894  11.444  1.00  0.00     0.006 A 
ENDBRANCH  56  77
BRANCH  68  85
ATOM     85  C   UNL     1      10.929   2.642  18.871  1.00  0.00     0.057 A 
ATOM     86  C   UNL     1       9.672   3.110  19.275  1.00  0.00     0.134 A 
ATOM     87  C   UNL     1      11.992   2.775  19.772  1.00  0.00     0.134 A 
ATOM     88  F   UNL     1       8.618   3.024  18.450  1.00  0.00    -0.206 F 
ATOM     89  C   UNL     1       9.486   3.710  20.521  1.00  0.00     0.040 A 
ATOM     90  C   UNL     1      11.814   3.355  21.029  1.00  0.00     0.040 A 
ATOM     91  F   UNL     1      13.219   2.342  19.447  1.00  0.00    -0.206 F 
ATOM     92  C   UNL     1      10.558   3.830  21.403  1.00  0.00     0.006 A 
ENDBRANCH  68  85
ENDBRANCH  42  43
ENDBRANCH  34  37
ENDBRANCH  32  33
ENDBRANCH  31  32
ENDBRANCH  30  31
ENDBRANCH   3  30
TORSDOF 16
