REMARK SMILES O=C(COc1ccc(/C=C/C(=O)c2ccc(F)cc2F)cc1[N+](=O)[O-])NCCCNC(=O)c1ccc(-c2c3nc(c(-c4c(F)cccc4F)c4ccc([nH]4)c(-c4c(F)cccc4F)c4nc(c(-c5c(F)cccc5F)c5ccc2[nH]5)C=C4)C=C3)cc1
REMARK SMILES IDX 1 1 2 2 26 3 3 5 4 6 5 7 6 8 22 9 7 10 21 11 8 12 23 13
REMARK SMILES IDX 24 14 25 15 9 16 10 17 11 18 12 19 13 20 14 21 19 22 15 23
REMARK SMILES IDX 18 24 20 25 16 26 17 27 27 28 28 29 29 30 30 31 31 32 32 34
REMARK SMILES IDX 33 35 34 36 86 37 35 38 85 39 36 40 37 41 38 42 79 43 39 44
REMARK SMILES IDX 84 45 78 46 80 47 40 48 83 49 77 50 76 51 41 53 67 54 50 55
REMARK SMILES IDX 66 56 51 57 54 58 65 59 81 60 52 61 53 62 64 64 82 65 55 66
REMARK SMILES IDX 42 67 43 68 48 69 44 70 45 71 47 72 49 73 46 74 68 75 69 76
REMARK SMILES IDX 74 77 70 78 71 79 73 80 75 81 72 82 56 83 57 84 62 85 58 86
REMARK SMILES IDX 59 87 61 88 63 89 60 90
REMARK H PARENT 26 4 30 33 80 52 54 63
REMARK Flexibility Score: inf
ROOT
ATOM      1  O   UNL     1       1.077   0.749   0.519  1.00  0.00    -0.271 OA
ATOM      2  C   UNL     1       2.183   0.364   0.153  1.00  0.00     0.257 C 
ATOM      3  N   UNL     1       2.737   0.667  -1.073  1.00  0.00    -0.353 N 
ATOM      4  H   UNL     1       3.698   0.502  -1.208  1.00  0.00     0.163 HD
ENDROOT
BRANCH   2   5
ATOM      5  C   UNL     1       3.079  -0.507   1.044  1.00  0.00     0.329 C 
BRANCH   5   6
ATOM      6  O   UNL     1       3.825  -1.486   0.308  1.00  0.00    -0.477 OA
BRANCH   6   7
ATOM      7  C   UNL     1       3.180  -2.692   0.234  1.00  0.00     0.197 A 
ATOM      8  C   UNL     1       3.415  -3.640   1.235  1.00  0.00     0.054 A 
ATOM      9  C   UNL     1       2.374  -3.056  -0.845  1.00  0.00     0.311 A 
ATOM     10  C   UNL     1       2.809  -4.908   1.171  1.00  0.00     0.012 A 
ATOM     11  C   UNL     1       1.728  -4.293  -0.895  1.00  0.00     0.098 A 
ATOM     12  C   UNL     1       1.952  -5.232   0.112  1.00  0.00    -0.018 A 
BRANCH   9  13
ATOM     13  N   UNL     1       2.235  -2.210  -2.008  1.00  0.00     0.066 N 
ATOM     14  O   UNL     1       1.084  -1.993  -2.410  1.00  0.00    -0.258 OA
ATOM     15  O   UNL     1       3.274  -1.790  -2.540  1.00  0.00    -0.258 OA
ENDBRANCH   9  13
BRANCH  12  16
ATOM     16  C   UNL     1       1.269  -6.516  -0.041  1.00  0.00     0.012 C 
ATOM     17  C   UNL     1       1.900  -7.698  -0.044  1.00  0.00     0.053 C 
BRANCH  17  18
ATOM     18  C   UNL     1       1.191  -8.951  -0.417  1.00  0.00     0.188 C 
ATOM     19  O   UNL     1       1.448 -10.000   0.162  1.00  0.00    -0.289 OA
BRANCH  18  20
ATOM     20  C   UNL     1       0.170  -8.925  -1.492  1.00  0.00     0.058 A 
ATOM     21  C   UNL     1      -1.011  -9.658  -1.317  1.00  0.00     0.018 A 
ATOM     22  C   UNL     1       0.367  -8.210  -2.678  1.00  0.00     0.137 A 
ATOM     23  C   UNL     1      -1.996  -9.632  -2.308  1.00  0.00     0.040 A 
ATOM     24  C   UNL     1      -0.611  -8.184  -3.667  1.00  0.00     0.079 A 
ATOM     25  F   UNL     1       1.505  -7.535  -2.897  1.00  0.00    -0.206 F 
ATOM     26  C   UNL     1      -1.788  -8.893  -3.469  1.00  0.00     0.126 A 
ATOM     27  F   UNL     1      -2.738  -8.868  -4.413  1.00  0.00    -0.207 F 
ENDBRANCH  18  20
ENDBRANCH  17  18
ENDBRANCH  12  16
ENDBRANCH   6   7
ENDBRANCH   5   6
ENDBRANCH   2   5
BRANCH   3  28
ATOM     28  C   UNL     1       1.966   1.216  -2.175  1.00  0.00     0.117 C 
BRANCH  28  29
ATOM     29  C   UNL     1       2.520   2.514  -2.730  1.00  0.00     0.042 C 
BRANCH  29  30
ATOM     30  C   UNL     1       3.995   2.485  -3.111  1.00  0.00     0.118 C 
BRANCH  30  31
ATOM     31  N   UNL     1       4.341   1.539  -4.165  1.00  0.00    -0.352 N 
ATOM     32  C   UNL     1       5.037   1.738  -5.340  1.00  0.00     0.251 C 
ATOM     33  H   UNL     1       4.031   0.617  -4.016  1.00  0.00     0.163 HD
ATOM     34  O   UNL     1       5.195   0.815  -6.128  1.00  0.00    -0.269 OA
BRANCH  32  35
ATOM     35  C   UNL     1       5.553   3.085  -5.684  1.00  0.00     0.039 A 
ATOM     36  C   UNL     1       5.345   3.574  -6.978  1.00  0.00     0.014 A 
ATOM     37  C   UNL     1       6.207   3.878  -4.740  1.00  0.00     0.014 A 
ATOM     38  C   UNL     1       5.691   4.893  -7.289  1.00  0.00     0.010 A 
ATOM     39  C   UNL     1       6.466   5.216  -5.022  1.00  0.00     0.010 A 
ATOM     40  C   UNL     1       6.199   5.744  -6.295  1.00  0.00    -0.014 A 
BRANCH  40  41
ATOM     41  C   UNL     1       6.444   7.188  -6.549  1.00  0.00     0.031 A 
ATOM     42  C   UNL     1       7.828   7.757  -6.397  1.00  0.00     0.074 A 
ATOM     43  C   UNL     1       5.409   8.010  -6.816  1.00  0.00     0.049 A 
ATOM     44  N   UNL     1       8.218   9.006  -6.426  1.00  0.00    -0.248 NA
ATOM     45  C   UNL     1       8.912   6.795  -6.143  1.00  0.00     0.031 C 
ATOM     46  C   UNL     1       4.008   7.600  -6.941  1.00  0.00     0.029 A 
ATOM     47  N   UNL     1       5.374   9.369  -7.011  1.00  0.00    -0.354 N 
ATOM     48  C   UNL     1       9.581   8.982  -6.162  1.00  0.00     0.074 A 
ATOM     49  C   UNL     1       9.943   7.599  -5.935  1.00  0.00     0.031 C 
ATOM     50  C   UNL     1       3.256   8.680  -7.210  1.00  0.00     0.029 A 
ATOM     51  C   UNL     1       4.111   9.862  -7.236  1.00  0.00     0.049 A 
ATOM     52  H   UNL     1       6.178   9.937  -6.992  1.00  0.00     0.167 HD
ATOM     53  C   UNL     1      10.458  10.014  -6.130  1.00  0.00     0.037 A 
ATOM     54  C   UNL     1       3.687  11.125  -7.429  1.00  0.00     0.037 A 
ATOM     55  C   UNL     1      10.111  11.383  -6.402  1.00  0.00     0.049 A 
ATOM     56  C   UNL     1       4.682  12.251  -7.414  1.00  0.00     0.074 A 
ATOM     57  C   UNL     1      10.942  12.488  -6.462  1.00  0.00     0.029 A 
ATOM     58  N   UNL     1       8.827  11.834  -6.669  1.00  0.00    -0.354 N 
ATOM     59  N   UNL     1       5.976  12.206  -7.211  1.00  0.00    -0.248 NA
ATOM     60  C   UNL     1       4.158  13.603  -7.656  1.00  0.00     0.031 C 
ATOM     61  C   UNL     1      10.157  13.613  -6.739  1.00  0.00     0.029 A 
ATOM     62  C   UNL     1       8.842  13.202  -6.884  1.00  0.00     0.049 A 
ATOM     63  H   UNL     1       8.024  11.265  -6.700  1.00  0.00     0.167 HD
ATOM     64  C   UNL     1       6.424  13.515  -7.326  1.00  0.00     0.074 A 
ATOM     65  C   UNL     1       5.266  14.330  -7.627  1.00  0.00     0.031 C 
ATOM     66  C   UNL     1       7.683  13.997  -7.195  1.00  0.00     0.037 A 
BRANCH  53  67
ATOM     67  C   UNL     1      11.884   9.695  -5.795  1.00  0.00     0.057 A 
ATOM     68  C   UNL     1      12.720   9.023  -6.697  1.00  0.00     0.134 A 
ATOM     69  C   UNL     1      12.436  10.084  -4.568  1.00  0.00     0.134 A 
ATOM     70  F   UNL     1      12.248   8.611  -7.884  1.00  0.00    -0.206 F 
ATOM     71  C   UNL     1      14.046   8.725  -6.379  1.00  0.00     0.040 A 
ATOM     72  C   UNL     1      13.768   9.813  -4.250  1.00  0.00     0.040 A 
ATOM     73  F   UNL     1      11.692  10.735  -3.662  1.00  0.00    -0.206 F 
ATOM     74  C   UNL     1      14.575   9.126  -5.154  1.00  0.00     0.006 A 
ENDBRANCH  53  67
BRANCH  54  75
ATOM     75  C   UNL     1       2.249  11.396  -7.677  1.00  0.00     0.057 A 
ATOM     76  C   UNL     1       1.798  11.766  -8.949  1.00  0.00     0.134 A 
ATOM     77  C   UNL     1       1.297  11.303  -6.655  1.00  0.00     0.134 A 
ATOM     78  F   UNL     1       2.668  11.892  -9.962  1.00  0.00    -0.206 F 
ATOM     79  C   UNL     1       0.454  12.050  -9.195  1.00  0.00     0.040 A 
ATOM     80  C   UNL     1      -0.054  11.564  -6.891  1.00  0.00     0.040 A 
ATOM     81  F   UNL     1       1.666  10.949  -5.416  1.00  0.00    -0.206 F 
ATOM     82  C   UNL     1      -0.477  11.945  -8.164  1.00  0.00     0.006 A 
ENDBRANCH  54  75
BRANCH  66  83
ATOM     83  C   UNL     1       7.880  15.467  -7.411  1.00  0.00     0.057 A 
ATOM     84  C   UNL     1       7.489  16.412  -6.455  1.00  0.00     0.134 A 
ATOM     85  C   UNL     1       8.504  15.938  -8.573  1.00  0.00     0.134 A 
ATOM     86  F   UNL     1       6.874  16.025  -5.328  1.00  0.00    -0.206 F 
ATOM     87  C   UNL     1       7.698  17.778  -6.655  1.00  0.00     0.040 A 
ATOM     88  C   UNL     1       8.737  17.299  -8.774  1.00  0.00     0.040 A 
ATOM     89  F   UNL     1       8.908  15.082  -9.524  1.00  0.00    -0.206 F 
ATOM     90  C   UNL     1       8.330  18.223  -7.815  1.00  0.00     0.006 A 
ENDBRANCH  66  83
ENDBRANCH  40  41
ENDBRANCH  32  35
ENDBRANCH  30  31
ENDBRANCH  29  30
ENDBRANCH  28  29
ENDBRANCH   3  28
TORSDOF 16
