REMARK SMILES Cc1nc(/C=C/C(=O)N2CCC[C@@H]2C(=O)NCCCNC(=O)c2ccc(-c3c4nc(c(-c5c(F)cccc5F)c5ccc([nH]5)c(-c5c(F)cccc5F)c5nc(c(-c6c(F)cccc6F)c6ccc3[nH]6)C=C5)C=C4)cc2)cs1
REMARK SMILES IDX 17 1 16 2 14 3 15 4 13 6 9 7 10 8 11 9 12 10 7 11 8 12 6 13
REMARK SMILES IDX 5 14 4 15 1 16 2 17 3 18 78 19 77 20 18 21 19 22 20 23 21 24
REMARK SMILES IDX 22 26 23 27 24 28 76 29 25 30 75 31 26 32 27 33 28 34 69 35
REMARK SMILES IDX 29 36 74 37 68 38 70 39 30 40 73 41 67 42 66 43 31 45 57 46
REMARK SMILES IDX 40 47 56 48 41 49 44 50 55 51 71 52 42 53 43 54 54 56 72 57
REMARK SMILES IDX 45 58 32 59 33 60 38 61 34 62 35 63 37 64 39 65 36 66 58 67
REMARK SMILES IDX 59 68 64 69 60 70 61 71 63 72 65 73 62 74 46 75 47 76 52 77
REMARK SMILES IDX 48 78 49 79 51 80 53 81 50 82
REMARK H PARENT 16 5 20 25 70 44 44 55
REMARK Flexibility Score: inf
ROOT
ATOM      1  C   UNL     1       2.273  -4.738   2.515  1.00  0.00     0.117 C 
ENDROOT
BRANCH   1   2
ATOM      2  N   UNL     1       3.568  -5.325   2.770  1.00  0.00    -0.354 N 
ATOM      3  C   UNL     1       4.469  -5.886   1.915  1.00  0.00     0.242 C 
ATOM      4  O   UNL     1       5.407  -6.502   2.436  1.00  0.00    -0.273 OA
ATOM      5  H   UNL     1       3.846  -5.317   3.715  1.00  0.00     0.163 HD
BRANCH   3   6
ATOM      6  C   UNL     1       4.245  -5.958   0.386  1.00  0.00     0.174 C 
ATOM      7  N   UNL     1       3.602  -4.813  -0.261  1.00  0.00    -0.327 N 
ATOM      8  C   UNL     1       2.626  -5.266  -1.239  1.00  0.00     0.121 C 
ATOM      9  C   UNL     1       2.127  -6.577  -0.665  1.00  0.00     0.024 C 
ATOM     10  C   UNL     1       3.354  -7.163   0.033  1.00  0.00     0.037 C 
BRANCH   7  11
ATOM     11  C   UNL     1       4.175  -3.569  -0.172  1.00  0.00     0.247 C 
ATOM     12  O   UNL     1       5.314  -3.394   0.258  1.00  0.00    -0.270 OA
BRANCH  11  13
ATOM     13  C   UNL     1       3.367  -2.360  -0.487  1.00  0.00     0.073 C 
ATOM     14  C   UNL     1       2.070  -2.252  -0.162  1.00  0.00     0.035 C 
BRANCH  14  15
ATOM     15  C   UNL     1       1.252  -1.089  -0.196  1.00  0.00     0.074 A 
ATOM     16  C   UNL     1      -2.209   0.024  -0.007  1.00  0.00     0.079 C 
ATOM     17  C   UNL     1      -0.731  -0.134  -0.088  1.00  0.00     0.090 A 
ATOM     18  N   UNL     1      -0.109  -1.293  -0.118  1.00  0.00    -0.242 NA
ATOM     19  S   UNL     1       0.286   1.252  -0.143  1.00  0.00    -0.127 S 
ATOM     20  C   UNL     1       1.662   0.226  -0.210  1.00  0.00     0.095 A 
ENDBRANCH  14  15
ENDBRANCH  11  13
ENDBRANCH   7  11
ENDBRANCH   3   6
ENDBRANCH   1   2
BRANCH   1  21
ATOM     21  C   UNL     1       1.141  -5.557   3.111  1.00  0.00     0.042 C 
BRANCH  21  22
ATOM     22  C   UNL     1       1.060  -5.455   4.622  1.00  0.00     0.118 C 
BRANCH  22  23
ATOM     23  N   UNL     1       0.688  -4.116   5.066  1.00  0.00    -0.352 N 
ATOM     24  C   UNL     1      -0.383  -3.702   5.811  1.00  0.00     0.251 C 
ATOM     25  H   UNL     1       1.302  -3.399   4.787  1.00  0.00     0.163 HD
ATOM     26  O   UNL     1      -0.626  -2.499   5.912  1.00  0.00    -0.269 OA
BRANCH  24  27
ATOM     27  C   UNL     1      -1.255  -4.683   6.489  1.00  0.00     0.039 A 
ATOM     28  C   UNL     1      -2.631  -4.438   6.547  1.00  0.00     0.014 A 
ATOM     29  C   UNL     1      -0.722  -5.819   7.105  1.00  0.00     0.014 A 
ATOM     30  C   UNL     1      -3.471  -5.350   7.188  1.00  0.00     0.010 A 
ATOM     31  C   UNL     1      -1.569  -6.772   7.658  1.00  0.00     0.010 A 
ATOM     32  C   UNL     1      -2.948  -6.533   7.732  1.00  0.00    -0.014 A 
BRANCH  32  33
ATOM     33  C   UNL     1      -3.813  -7.507   8.440  1.00  0.00     0.031 A 
ATOM     34  C   UNL     1      -3.594  -7.769   9.905  1.00  0.00     0.074 A 
ATOM     35  C   UNL     1      -4.748  -8.195   7.759  1.00  0.00     0.049 A 
ATOM     36  N   UNL     1      -4.184  -8.633  10.690  1.00  0.00    -0.248 NA
ATOM     37  C   UNL     1      -2.545  -6.976  10.569  1.00  0.00     0.031 C 
ATOM     38  C   UNL     1      -5.022  -8.066   6.327  1.00  0.00     0.029 A 
ATOM     39  N   UNL     1      -5.636  -9.150   8.184  1.00  0.00    -0.354 N 
ATOM     40  C   UNL     1      -3.561  -8.507  11.926  1.00  0.00     0.074 A 
ATOM     41  C   UNL     1      -2.512  -7.524  11.774  1.00  0.00     0.031 C 
ATOM     42  C   UNL     1      -6.027  -8.893   5.997  1.00  0.00     0.029 A 
ATOM     43  C   UNL     1      -6.446  -9.631   7.185  1.00  0.00     0.049 A 
ATOM     44  H   UNL     1      -5.689  -9.460   9.117  1.00  0.00     0.167 HD
ATOM     45  C   UNL     1      -3.853  -9.134  13.090  1.00  0.00     0.037 A 
ATOM     46  C   UNL     1      -7.417 -10.562   7.226  1.00  0.00     0.037 A 
ATOM     47  C   UNL     1      -4.925 -10.080  13.247  1.00  0.00     0.049 A 
ATOM     48  C   UNL     1      -7.748 -11.218   8.537  1.00  0.00     0.074 A 
ATOM     49  C   UNL     1      -5.343 -10.730  14.395  1.00  0.00     0.029 A 
ATOM     50  N   UNL     1      -5.755 -10.505  12.220  1.00  0.00    -0.354 N 
ATOM     51  N   UNL     1      -7.190 -11.047   9.711  1.00  0.00    -0.248 NA
ATOM     52  C   UNL     1      -8.854 -12.185   8.531  1.00  0.00     0.031 C 
ATOM     53  C   UNL     1      -6.408 -11.572  14.056  1.00  0.00     0.029 A 
ATOM     54  C   UNL     1      -6.680 -11.414  12.706  1.00  0.00     0.049 A 
ATOM     55  H   UNL     1      -5.696 -10.205  11.285  1.00  0.00     0.167 HD
ATOM     56  C   UNL     1      -7.897 -11.858  10.590  1.00  0.00     0.074 A 
ATOM     57  C   UNL     1      -8.930 -12.513   9.814  1.00  0.00     0.031 C 
ATOM     58  C   UNL     1      -7.711 -12.041  11.920  1.00  0.00     0.037 A 
BRANCH  45  59
ATOM     59  C   UNL     1      -3.001  -8.805  14.281  1.00  0.00     0.057 A 
ATOM     60  C   UNL     1      -3.058  -7.553  14.909  1.00  0.00     0.134 A 
ATOM     61  C   UNL     1      -2.118  -9.753  14.812  1.00  0.00     0.134 A 
ATOM     62  F   UNL     1      -3.872  -6.595  14.441  1.00  0.00    -0.206 F 
ATOM     63  C   UNL     1      -2.244  -7.245  16.001  1.00  0.00     0.040 A 
ATOM     64  C   UNL     1      -1.319  -9.466  15.921  1.00  0.00     0.040 A 
ATOM     65  F   UNL     1      -2.015 -10.973  14.263  1.00  0.00    -0.206 F 
ATOM     66  C   UNL     1      -1.375  -8.206  16.513  1.00  0.00     0.006 A 
ENDBRANCH  45  59
BRANCH  46  67
ATOM     67  C   UNL     1      -8.177 -10.893   5.995  1.00  0.00     0.057 A 
ATOM     68  C   UNL     1      -9.508 -10.488   5.841  1.00  0.00     0.134 A 
ATOM     69  C   UNL     1      -7.596 -11.616   4.947  1.00  0.00     0.134 A 
ATOM     70  F   UNL     1     -10.122  -9.805   6.818  1.00  0.00    -0.206 F 
ATOM     71  C   UNL     1     -10.241 -10.805   4.697  1.00  0.00     0.040 A 
ATOM     72  C   UNL     1      -8.310 -11.921   3.788  1.00  0.00     0.040 A 
ATOM     73  F   UNL     1      -6.321 -12.024   5.031  1.00  0.00    -0.206 F 
ATOM     74  C   UNL     1      -9.639 -11.520   3.663  1.00  0.00     0.006 A 
ENDBRANCH  46  67
BRANCH  58  75
ATOM     75  C   UNL     1      -8.675 -12.946  12.627  1.00  0.00     0.057 A 
ATOM     76  C   UNL     1      -8.642 -14.336  12.467  1.00  0.00     0.134 A 
ATOM     77  C   UNL     1      -9.628 -12.416  13.507  1.00  0.00     0.134 A 
ATOM     78  F   UNL     1      -7.761 -14.904  11.629  1.00  0.00    -0.206 F 
ATOM     79  C   UNL     1      -9.541 -15.167  13.138  1.00  0.00     0.040 A 
ATOM     80  C   UNL     1     -10.514 -13.238  14.202  1.00  0.00     0.040 A 
ATOM     81  F   UNL     1      -9.705 -11.092  13.711  1.00  0.00    -0.206 F 
ATOM     82  C   UNL     1     -10.476 -14.618  14.013  1.00  0.00     0.006 A 
ENDBRANCH  58  75
ENDBRANCH  32  33
ENDBRANCH  24  27
ENDBRANCH  22  23
ENDBRANCH  21  22
ENDBRANCH   1  21
TORSDOF 13
