REMARK SMILES CC[C@H](c1ccccc1)[C@@H](C)OC(=O)c1ccccc1C(=O)NCCCNC(=O)c1ccc(-c2c3nc(c(-c4c(F)cccc4F)c4ccc([nH]4)c(-c4c(F)cccc4F)c4nc(c(-c5c(F)cccc5F)c5ccc2[nH]5)C=C4)C=C3)cc1
REMARK SMILES IDX 21 1 22 2 23 3 20 5 15 6 16 7 17 8 19 9 18 10 13 11 14 12
REMARK SMILES IDX 12 13 10 14 11 15 3 16 2 17 1 18 4 19 5 20 9 21 6 22 8 23
REMARK SMILES IDX 7 24 24 25 25 26 26 27 27 28 28 29 29 31 30 32 31 33 83 34
REMARK SMILES IDX 32 35 82 36 33 37 34 38 35 39 76 40 36 41 81 42 75 43 77 44
REMARK SMILES IDX 37 45 80 46 74 47 73 48 38 50 64 51 47 52 63 53 48 54 51 55
REMARK SMILES IDX 62 56 78 57 49 58 50 59 61 61 79 62 52 63 39 64 40 65 45 66
REMARK SMILES IDX 41 67 42 68 44 69 46 70 43 71 65 72 66 73 71 74 67 75 68 76
REMARK SMILES IDX 70 77 72 78 69 79 53 80 54 81 59 82 55 83 56 84 58 85 60 86
REMARK SMILES IDX 57 87
REMARK H PARENT 23 4 27 30 77 49 51 60
REMARK Flexibility Score: inf
ROOT
ATOM      1  C   UNL     1       1.233   0.235   7.768  1.00  0.00     0.252 C 
ATOM      2  O   UNL     1       1.467  -0.569   8.664  1.00  0.00    -0.269 OA
ATOM      3  N   UNL     1      -0.066   0.503   7.395  1.00  0.00    -0.352 N 
ATOM      4  H   UNL     1      -0.607   1.099   7.961  1.00  0.00     0.163 HD
ENDROOT
BRANCH   1   5
ATOM      5  C   UNL     1       2.289   1.170   7.341  1.00  0.00     0.054 A 
ATOM      6  C   UNL     1       2.964   1.117   6.119  1.00  0.00     0.072 A 
ATOM      7  C   UNL     1       4.061   1.965   5.892  1.00  0.00     0.016 A 
ATOM      8  C   UNL     1       4.486   2.851   6.886  1.00  0.00     0.001 A 
ATOM      9  C   UNL     1       2.729   2.060   8.336  1.00  0.00     0.015 A 
ATOM     10  C   UNL     1       3.824   2.894   8.111  1.00  0.00     0.001 A 
BRANCH   6  11
ATOM     11  C   UNL     1       2.737   0.049   5.143  1.00  0.00     0.339 C 
ATOM     12  O   UNL     1       3.299  -1.031   5.254  1.00  0.00    -0.246 OA
BRANCH  11  13
ATOM     13  O   UNL     1       1.914   0.479   4.166  1.00  0.00    -0.458 OA
BRANCH  13  14
ATOM     14  C   UNL     1       1.432  -0.355   3.049  1.00  0.00     0.181 C 
ATOM     15  C   UNL     1       2.019  -1.767   2.999  1.00  0.00     0.053 C 
BRANCH  14  16
ATOM     16  C   UNL     1       1.581   0.478   1.724  1.00  0.00     0.060 C 
BRANCH  16  17
ATOM     17  C   UNL     1       0.907   1.878   1.879  1.00  0.00     0.009 C 
ATOM     18  C   UNL     1      -0.575   1.875   2.267  1.00  0.00     0.005 C 
ENDBRANCH  16  17
BRANCH  16  19
ATOM     19  C   UNL     1       1.206  -0.248   0.419  1.00  0.00    -0.041 A 
ATOM     20  C   UNL     1       0.099   0.095  -0.373  1.00  0.00     0.004 A 
ATOM     21  C   UNL     1       2.030  -1.284  -0.063  1.00  0.00     0.004 A 
ATOM     22  C   UNL     1      -0.202  -0.595  -1.555  1.00  0.00     0.000 A 
ATOM     23  C   UNL     1       1.713  -1.999  -1.223  1.00  0.00     0.000 A 
ATOM     24  C   UNL     1       0.594  -1.655  -1.969  1.00  0.00     0.000 A 
ENDBRANCH  16  19
ENDBRANCH  14  16
ENDBRANCH  13  14
ENDBRANCH  11  13
ENDBRANCH   6  11
ENDBRANCH   1   5
BRANCH   3  25
ATOM     25  C   UNL     1      -0.669  -0.064   6.194  1.00  0.00     0.118 C 
BRANCH  25  26
ATOM     26  C   UNL     1      -0.347  -1.548   6.068  1.00  0.00     0.042 C 
BRANCH  26  27
ATOM     27  C   UNL     1      -1.174  -2.407   5.117  1.00  0.00     0.118 C 
BRANCH  27  28
ATOM     28  N   UNL     1      -1.820  -1.748   4.003  1.00  0.00    -0.352 N 
ATOM     29  C   UNL     1      -2.096  -2.189   2.728  1.00  0.00     0.251 C 
ATOM     30  H   UNL     1      -2.112  -0.827   4.188  1.00  0.00     0.163 HD
ATOM     31  O   UNL     1      -2.757  -1.444   2.003  1.00  0.00    -0.269 OA
BRANCH  29  32
ATOM     32  C   UNL     1      -1.597  -3.482   2.174  1.00  0.00     0.039 A 
ATOM     33  C   UNL     1      -1.370  -3.544   0.790  1.00  0.00     0.014 A 
ATOM     34  C   UNL     1      -1.373  -4.633   2.932  1.00  0.00     0.014 A 
ATOM     35  C   UNL     1      -0.860  -4.703   0.191  1.00  0.00     0.010 A 
ATOM     36  C   UNL     1      -0.800  -5.770   2.350  1.00  0.00     0.010 A 
ATOM     37  C   UNL     1      -0.537  -5.816   0.975  1.00  0.00    -0.014 A 
BRANCH  37  38
ATOM     38  C   UNL     1       0.050  -7.043   0.380  1.00  0.00     0.031 A 
ATOM     39  C   UNL     1      -0.751  -8.313   0.330  1.00  0.00     0.074 A 
ATOM     40  C   UNL     1       1.323  -7.039  -0.059  1.00  0.00     0.049 A 
ATOM     41  N   UNL     1      -0.378  -9.517  -0.025  1.00  0.00    -0.248 NA
ATOM     42  C   UNL     1      -2.158  -8.218   0.752  1.00  0.00     0.031 C 
ATOM     43  C   UNL     1       2.215  -5.880  -0.058  1.00  0.00     0.029 A 
ATOM     44  N   UNL     1       2.093  -8.052  -0.577  1.00  0.00    -0.354 N 
ATOM     45  C   UNL     1      -1.492 -10.326   0.153  1.00  0.00     0.074 A 
ATOM     46  C   UNL     1      -2.550  -9.481   0.664  1.00  0.00     0.031 C 
ATOM     47  C   UNL     1       3.408  -6.244  -0.559  1.00  0.00     0.029 A 
ATOM     48  C   UNL     1       3.378  -7.669  -0.876  1.00  0.00     0.049 A 
ATOM     49  H   UNL     1       1.756  -8.966  -0.720  1.00  0.00     0.167 HD
ATOM     50  C   UNL     1      -1.623 -11.652  -0.091  1.00  0.00     0.037 A 
ATOM     51  C   UNL     1       4.420  -8.392  -1.330  1.00  0.00     0.037 A 
ATOM     52  C   UNL     1      -0.581 -12.494  -0.615  1.00  0.00     0.049 A 
ATOM     53  C   UNL     1       4.256  -9.868  -1.566  1.00  0.00     0.074 A 
ATOM     54  C   UNL     1      -0.635 -13.841  -0.927  1.00  0.00     0.029 A 
ATOM     55  N   UNL     1       0.707 -12.068  -0.901  1.00  0.00    -0.354 N 
ATOM     56  N   UNL     1       3.191 -10.616  -1.413  1.00  0.00    -0.248 NA
ATOM     57  C   UNL     1       5.446 -10.602  -2.022  1.00  0.00     0.031 C 
ATOM     58  C   UNL     1       0.631 -14.239  -1.373  1.00  0.00     0.029 A 
ATOM     59  C   UNL     1       1.463 -13.131  -1.366  1.00  0.00     0.049 A 
ATOM     60  H   UNL     1       1.035 -11.146  -0.791  1.00  0.00     0.167 HD
ATOM     61  C   UNL     1       3.580 -11.904  -1.759  1.00  0.00     0.074 A 
ATOM     62  C   UNL     1       4.972 -11.834  -2.150  1.00  0.00     0.031 C 
ATOM     63  C   UNL     1       2.849 -13.045  -1.746  1.00  0.00     0.037 A 
BRANCH  50  64
ATOM     64  C   UNL     1      -2.947 -12.276   0.227  1.00  0.00     0.057 A 
ATOM     65  C   UNL     1      -4.067 -12.084  -0.591  1.00  0.00     0.134 A 
ATOM     66  C   UNL     1      -3.098 -13.092   1.355  1.00  0.00     0.134 A 
ATOM     67  F   UNL     1      -3.989 -11.302  -1.677  1.00  0.00    -0.206 F 
ATOM     68  C   UNL     1      -5.299 -12.665  -0.285  1.00  0.00     0.040 A 
ATOM     69  C   UNL     1      -4.319 -13.693   1.661  1.00  0.00     0.040 A 
ATOM     70  F   UNL     1      -2.062 -13.316   2.177  1.00  0.00    -0.206 F 
ATOM     71  C   UNL     1      -5.426 -13.476   0.842  1.00  0.00     0.006 A 
ENDBRANCH  50  64
BRANCH  51  72
ATOM     72  C   UNL     1       5.726  -7.735  -1.581  1.00  0.00     0.057 A 
ATOM     73  C   UNL     1       6.188  -7.529  -2.885  1.00  0.00     0.134 A 
ATOM     74  C   UNL     1       6.550  -7.320  -0.528  1.00  0.00     0.134 A 
ATOM     75  F   UNL     1       5.452  -7.931  -3.932  1.00  0.00    -0.206 F 
ATOM     76  C   UNL     1       7.429  -6.943  -3.136  1.00  0.00     0.040 A 
ATOM     77  C   UNL     1       7.785  -6.714  -0.765  1.00  0.00     0.040 A 
ATOM     78  F   UNL     1       6.163  -7.493   0.744  1.00  0.00    -0.206 F 
ATOM     79  C   UNL     1       8.230  -6.529  -2.072  1.00  0.00     0.006 A 
ENDBRANCH  51  72
BRANCH  63  80
ATOM     80  C   UNL     1       3.541 -14.305  -2.170  1.00  0.00     0.057 A 
ATOM     81  C   UNL     1       4.436 -14.968  -1.322  1.00  0.00     0.134 A 
ATOM     82  C   UNL     1       3.283 -14.879  -3.420  1.00  0.00     0.134 A 
ATOM     83  F   UNL     1       4.735 -14.459  -0.117  1.00  0.00    -0.206 F 
ATOM     84  C   UNL     1       5.062 -16.154  -1.709  1.00  0.00     0.040 A 
ATOM     85  C   UNL     1       3.889 -16.074  -3.811  1.00  0.00     0.040 A 
ATOM     86  F   UNL     1       2.432 -14.294  -4.276  1.00  0.00    -0.206 F 
ATOM     87  C   UNL     1       4.784 -16.714  -2.955  1.00  0.00     0.006 A 
ENDBRANCH  63  80
ENDBRANCH  37  38
ENDBRANCH  29  32
ENDBRANCH  27  28
ENDBRANCH  26  27
ENDBRANCH  25  26
ENDBRANCH   3  25
TORSDOF 16
