REMARK SMILES Cc1cc(C)c(S(=O)(=O)Nc2ccc(N3CCN(c4ccccn4)CC3)c(C(=O)NCCCNC(=O)c3ccc(-c4c5nc(c(-c6c(F)cccc6F)c6ccc([nH]6)c(-c6c(F)cccc6F)c6nc(c(-c7c(F)cccc7F)c7ccc4[nH]7)C=C6)C=C5)cc3)c2)c(C)c1
REMARK SMILES IDX 31 1 30 2 28 3 29 4 27 6 11 7 12 8 91 9 13 10 14 11 10 12
REMARK SMILES IDX 7 14 8 15 9 16 6 17 1 18 2 19 3 20 94 21 4 22 92 23 5 24
REMARK SMILES IDX 93 25 15 26 16 27 26 28 17 29 25 30 18 31 19 32 20 33 24 34
REMARK SMILES IDX 21 35 23 36 22 37 32 38 33 39 34 40 35 41 36 43 37 44 38 45
REMARK SMILES IDX 90 46 39 47 89 48 40 49 41 50 42 51 83 52 43 53 88 54 82 55
REMARK SMILES IDX 84 56 44 57 87 58 81 59 80 60 45 62 71 63 54 64 70 65 55 66
REMARK SMILES IDX 58 67 69 68 85 69 56 70 57 71 68 73 86 74 59 75 46 76 47 77
REMARK SMILES IDX 52 78 48 79 49 80 51 81 53 82 50 83 72 84 73 85 78 86 74 87
REMARK SMILES IDX 75 88 77 89 79 90 76 91 60 92 61 93 66 94 62 95 63 96 65 97
REMARK SMILES IDX 67 98 64 99
REMARK H PARENT 30 5 10 13 34 42 84 61 58 72
REMARK Flexibility Score: inf
ROOT
ATOM      1  C   UNL     1       0.951  -1.103   2.599  1.00  0.00     0.118 C 
ENDROOT
BRANCH   1   2
ATOM      2  N   UNL     1       2.107  -1.929   2.867  1.00  0.00    -0.352 N 
ATOM      3  C   UNL     1       2.432  -3.214   2.514  1.00  0.00     0.253 C 
ATOM      4  O   UNL     1       3.357  -3.713   3.154  1.00  0.00    -0.269 OA
ATOM      5  H   UNL     1       2.796  -1.481   3.409  1.00  0.00     0.163 HD
BRANCH   3   6
ATOM      6  C   UNL     1       1.730  -3.971   1.423  1.00  0.00     0.065 A 
ATOM      7  C   UNL     1      -0.268  -4.347   0.104  1.00  0.00     0.050 A 
ATOM      8  C   UNL     1       0.403  -5.285  -0.671  1.00  0.00     0.029 A 
ATOM      9  C   UNL     1       0.341  -3.848   1.248  1.00  0.00     0.042 A 
ATOM     10  C   UNL     1       1.764  -5.484  -0.472  1.00  0.00     0.029 A 
ATOM     11  C   UNL     1       2.473  -4.741   0.488  1.00  0.00     0.050 A 
BRANCH   7  12
ATOM     12  N   UNL     1      -1.493  -3.858  -0.421  1.00  0.00    -0.280 N 
ATOM     13  H   UNL     1      -1.993  -4.466  -1.012  1.00  0.00     0.180 HD
BRANCH  12  14
ATOM     14  S   UNL     1      -2.175  -2.356  -0.143  1.00  0.00     0.262 S 
ATOM     15  O   UNL     1      -2.443  -2.291   1.281  1.00  0.00    -0.201 OA
ATOM     16  O   UNL     1      -3.251  -2.260  -1.109  1.00  0.00    -0.201 OA
BRANCH  14  17
ATOM     17  C   UNL     1      -1.057  -0.981  -0.508  1.00  0.00     0.093 A 
ATOM     18  C   UNL     1       1.875   2.190  -0.099  1.00  0.00     0.044 C 
ATOM     19  C   UNL     1       0.843   1.119  -0.293  1.00  0.00    -0.051 A 
ATOM     20  C   UNL     1      -0.469   1.314   0.124  1.00  0.00     0.008 A 
ATOM     21  C   UNL     1       1.150  -0.065  -0.963  1.00  0.00     0.008 A 
ATOM     22  C   UNL     1      -1.428   0.285   0.027  1.00  0.00    -0.030 A 
ATOM     23  C   UNL     1       0.202  -1.104  -1.127  1.00  0.00    -0.030 A 
ATOM     24  C   UNL     1      -2.836   0.671   0.413  1.00  0.00     0.046 C 
ATOM     25  C   UNL     1       0.649  -2.228  -2.010  1.00  0.00     0.046 C 
ENDBRANCH  14  17
ENDBRANCH  12  14
ENDBRANCH   7  12
BRANCH  11  26
ATOM     26  N   UNL     1       3.852  -4.675   0.379  1.00  0.00    -0.367 N 
ATOM     27  C   UNL     1       4.474  -4.422  -0.939  1.00  0.00     0.138 C 
ATOM     28  C   UNL     1       4.699  -5.429   1.317  1.00  0.00     0.138 C 
ATOM     29  C   UNL     1       5.864  -3.755  -0.787  1.00  0.00     0.139 C 
ATOM     30  C   UNL     1       6.036  -4.679   1.501  1.00  0.00     0.139 C 
ATOM     31  N   UNL     1       6.675  -4.505   0.181  1.00  0.00    -0.353 N 
BRANCH  31  32
ATOM     32  C   UNL     1       8.050  -4.378   0.125  1.00  0.00     0.128 A 
ATOM     33  C   UNL     1       8.853  -5.380   0.674  1.00  0.00     0.047 A 
ATOM     34  N   UNL     1       8.599  -3.323  -0.513  1.00  0.00    -0.239 NA
ATOM     35  C   UNL     1      10.239  -5.292   0.589  1.00  0.00     0.005 A 
ATOM     36  C   UNL     1       9.949  -3.244  -0.566  1.00  0.00     0.113 A 
ATOM     37  C   UNL     1      10.803  -4.195  -0.037  1.00  0.00     0.020 A 
ENDBRANCH  31  32
ENDBRANCH  11  26
ENDBRANCH   3   6
ENDBRANCH   1   2
BRANCH   1  38
ATOM     38  C   UNL     1      -0.083  -1.256   3.711  1.00  0.00     0.042 C 
BRANCH  38  39
ATOM     39  C   UNL     1       0.374  -0.621   5.015  1.00  0.00     0.118 C 
BRANCH  39  40
ATOM     40  N   UNL     1       0.380   0.832   4.934  1.00  0.00    -0.352 N 
ATOM     41  C   UNL     1      -0.224   1.746   5.756  1.00  0.00     0.251 C 
ATOM     42  H   UNL     1       0.890   1.210   4.182  1.00  0.00     0.163 HD
ATOM     43  O   UNL     1      -0.297   2.922   5.411  1.00  0.00    -0.269 OA
BRANCH  41  44
ATOM     44  C   UNL     1      -0.793   1.317   7.050  1.00  0.00     0.039 A 
ATOM     45  C   UNL     1      -2.009   1.866   7.464  1.00  0.00     0.014 A 
ATOM     46  C   UNL     1      -0.120   0.405   7.869  1.00  0.00     0.014 A 
ATOM     47  C   UNL     1      -2.563   1.480   8.684  1.00  0.00     0.010 A 
ATOM     48  C   UNL     1      -0.714  -0.043   9.045  1.00  0.00     0.010 A 
ATOM     49  C   UNL     1      -1.927   0.511   9.477  1.00  0.00    -0.014 A 
BRANCH  49  50
ATOM     50  C   UNL     1      -2.493   0.102  10.785  1.00  0.00     0.031 A 
ATOM     51  C   UNL     1      -1.737   0.393  12.052  1.00  0.00     0.074 A 
ATOM     52  C   UNL     1      -3.658  -0.571  10.829  1.00  0.00     0.049 A 
ATOM     53  N   UNL     1      -2.040   0.081  13.287  1.00  0.00    -0.248 NA
ATOM     54  C   UNL     1      -0.454   1.099  11.911  1.00  0.00     0.031 C 
ATOM     55  C   UNL     1      -4.454  -0.965   9.665  1.00  0.00     0.029 A 
ATOM     56  N   UNL     1      -4.373  -1.047  11.898  1.00  0.00    -0.354 N 
ATOM     57  C   UNL     1      -0.976   0.528  14.060  1.00  0.00     0.074 A 
ATOM     58  C   UNL     1       0.003   1.085  13.154  1.00  0.00     0.031 C 
ATOM     59  C   UNL     1      -5.561  -1.599  10.085  1.00  0.00     0.029 A 
ATOM     60  C   UNL     1      -5.539  -1.679  11.542  1.00  0.00     0.049 A 
ATOM     61  H   UNL     1      -4.078  -0.945  12.832  1.00  0.00     0.167 HD
ATOM     62  C   UNL     1      -0.838   0.500  15.407  1.00  0.00     0.037 A 
ATOM     63  C   UNL     1      -6.485  -2.253  12.308  1.00  0.00     0.037 A 
ATOM     64  C   UNL     1      -1.834  -0.013  16.308  1.00  0.00     0.049 A 
ATOM     65  C   UNL     1      -6.332  -2.229  13.803  1.00  0.00     0.074 A 
ATOM     66  C   UNL     1      -1.825  -0.021  17.692  1.00  0.00     0.029 A 
ATOM     67  N   UNL     1      -3.023  -0.606  15.911  1.00  0.00    -0.354 N 
ATOM     68  N   UNL     1      -5.355  -1.739  14.526  1.00  0.00    -0.248 NA
ATOM     69  C   UNL     1      -7.421  -2.826  14.588  1.00  0.00     0.031 C 
ATOM     70  C   UNL     1      -2.997  -0.645  18.132  1.00  0.00     0.029 A 
ATOM     71  C   UNL     1      -3.752  -0.993  17.023  1.00  0.00     0.049 A 
ATOM     72  H   UNL     1      -3.307  -0.733  14.977  1.00  0.00     0.167 HD
ATOM     73  C   UNL     1      -5.720  -1.946  15.849  1.00  0.00     0.074 A 
ATOM     74  C   UNL     1      -7.016  -2.594  15.829  1.00  0.00     0.031 C 
ATOM     75  C   UNL     1      -5.043  -1.630  16.980  1.00  0.00     0.037 A 
BRANCH  62  76
ATOM     76  C   UNL     1       0.435   1.050  15.980  1.00  0.00     0.057 A 
ATOM     77  C   UNL     1       0.718   2.422  15.969  1.00  0.00     0.134 A 
ATOM     78  C   UNL     1       1.383   0.200  16.563  1.00  0.00     0.134 A 
ATOM     79  F   UNL     1      -0.142   3.289  15.412  1.00  0.00    -0.206 F 
ATOM     80  C   UNL     1       1.911   2.927  16.488  1.00  0.00     0.040 A 
ATOM     81  C   UNL     1       2.568   0.696  17.110  1.00  0.00     0.040 A 
ATOM     82  F   UNL     1       1.173  -1.124  16.612  1.00  0.00    -0.206 F 
ATOM     83  C   UNL     1       2.838   2.062  17.067  1.00  0.00     0.006 A 
ENDBRANCH  62  76
BRANCH  63  84
ATOM     84  C   UNL     1      -7.681  -2.858  11.674  1.00  0.00     0.057 A 
ATOM     85  C   UNL     1      -8.932  -2.237  11.758  1.00  0.00     0.134 A 
ATOM     86  C   UNL     1      -7.603  -4.062  10.965  1.00  0.00     0.134 A 
ATOM     87  F   UNL     1      -9.071  -1.089  12.439  1.00  0.00    -0.206 F 
ATOM     88  C   UNL     1     -10.068  -2.798  11.173  1.00  0.00     0.040 A 
ATOM     89  C   UNL     1      -8.726  -4.624  10.357  1.00  0.00     0.040 A 
ATOM     90  F   UNL     1      -6.430  -4.701  10.843  1.00  0.00    -0.206 F 
ATOM     91  C   UNL     1      -9.965  -3.994  10.465  1.00  0.00     0.006 A 
ENDBRANCH  63  84
BRANCH  75  92
ATOM     92  C   UNL     1      -5.707  -1.953  18.285  1.00  0.00     0.057 A 
ATOM     93  C   UNL     1      -5.798  -3.267  18.760  1.00  0.00     0.134 A 
ATOM     94  C   UNL     1      -6.229  -0.933  19.090  1.00  0.00     0.134 A 
ATOM     95  F   UNL     1      -5.327  -4.288  18.029  1.00  0.00    -0.206 F 
ATOM     96  C   UNL     1      -6.407  -3.558  19.982  1.00  0.00     0.040 A 
ATOM     97  C   UNL     1      -6.819  -1.209  20.323  1.00  0.00     0.040 A 
ATOM     98  F   UNL     1      -6.166   0.347  18.694  1.00  0.00    -0.206 F 
ATOM     99  C   UNL     1      -6.914  -2.526  20.770  1.00  0.00     0.006 A 
ENDBRANCH  75  92
ENDBRANCH  49  50
ENDBRANCH  41  44
ENDBRANCH  39  40
ENDBRANCH  38  39
ENDBRANCH   1  38
TORSDOF 15
