REMARK SMILES O=C(NCCCNC(=O)[C@H]1CC=CC[C@@H]1C(=O)NC1CCCCC1)c1ccc(-c2c3nc(c(-c4c(F)cccc4F)c4ccc([nH]4)c(-c4c(F)cccc4F)c4nc(c(-c5c(F)cccc5F)c5ccc2[nH]5)C=C4)C=C3)cc1
REMARK SMILES IDX 5 1 4 2 3 3 1 4 2 5 25 7 26 8 78 9 27 10 77 11 28 12 29 13
REMARK SMILES IDX 30 14 71 15 31 16 76 17 70 18 72 19 32 20 75 21 69 22 68 23
REMARK SMILES IDX 33 25 59 26 42 27 58 28 43 29 46 30 57 31 73 32 44 33 45 34
REMARK SMILES IDX 56 36 74 37 47 38 34 39 35 40 40 41 36 42 37 43 39 44 41 45
REMARK SMILES IDX 38 46 60 47 61 48 66 49 62 50 63 51 65 52 67 53 64 54 48 55
REMARK SMILES IDX 49 56 54 57 50 58 51 59 53 60 55 61 52 62 6 63 7 64 8 65
REMARK SMILES IDX 9 67 10 68 11 69 15 70 12 71 14 72 13 73 16 74 17 75 18 76
REMARK SMILES IDX 19 78 20 79 24 80 21 81 23 82 22 83
REMARK H PARENT 3 6 72 24 46 35 7 66 18 77
REMARK Flexibility Score: inf
ROOT
ATOM      1  C   UNL     1       4.435  -2.493   0.094  1.00  0.00     0.042 C 
ENDROOT
BRANCH   1   2
ATOM      2  C   UNL     1       4.237  -1.065  -0.398  1.00  0.00     0.118 C 
BRANCH   2   3
ATOM      3  N   UNL     1       2.838  -0.727  -0.598  1.00  0.00    -0.352 N 
ATOM      4  O   UNL     1       0.917   0.387  -0.198  1.00  0.00    -0.269 OA
ATOM      5  C   UNL     1       2.126   0.328  -0.071  1.00  0.00     0.251 C 
ATOM      6  H   UNL     1       2.333  -1.331  -1.189  1.00  0.00     0.163 HD
BRANCH   5   7
ATOM      7  C   UNL     1       2.855   1.371   0.687  1.00  0.00     0.039 A 
ATOM      8  C   UNL     1       4.048   1.902   0.193  1.00  0.00     0.014 A 
ATOM      9  C   UNL     1       2.355   1.786   1.923  1.00  0.00     0.014 A 
ATOM     10  C   UNL     1       4.826   2.714   1.007  1.00  0.00     0.010 A 
ATOM     11  C   UNL     1       3.091   2.688   2.696  1.00  0.00     0.010 A 
ATOM     12  C   UNL     1       4.352   3.127   2.263  1.00  0.00    -0.014 A 
BRANCH  12  13
ATOM     13  C   UNL     1       5.182   4.046   3.084  1.00  0.00     0.031 A 
ATOM     14  C   UNL     1       5.712   3.628   4.428  1.00  0.00     0.074 A 
ATOM     15  C   UNL     1       5.485   5.261   2.586  1.00  0.00     0.049 A 
ATOM     16  N   UNL     1       6.471   4.299   5.259  1.00  0.00    -0.248 NA
ATOM     17  C   UNL     1       5.335   2.291   4.911  1.00  0.00     0.031 C 
ATOM     18  C   UNL     1       5.022   5.782   1.297  1.00  0.00     0.029 A 
ATOM     19  N   UNL     1       6.269   6.267   3.087  1.00  0.00    -0.354 N 
ATOM     20  C   UNL     1       6.639   3.480   6.370  1.00  0.00     0.074 A 
ATOM     21  C   UNL     1       5.882   2.273   6.118  1.00  0.00     0.031 C 
ATOM     22  C   UNL     1       5.577   6.982   1.083  1.00  0.00     0.029 A 
ATOM     23  C   UNL     1       6.378   7.346   2.245  1.00  0.00     0.049 A 
ATOM     24  H   UNL     1       6.711   6.220   3.966  1.00  0.00     0.167 HD
ATOM     25  C   UNL     1       7.364   3.713   7.491  1.00  0.00     0.037 A 
ATOM     26  C   UNL     1       7.041   8.507   2.394  1.00  0.00     0.037 A 
ATOM     27  C   UNL     1       8.134   4.909   7.724  1.00  0.00     0.049 A 
ATOM     28  C   UNL     1       7.823   8.742   3.652  1.00  0.00     0.074 A 
ATOM     29  C   UNL     1       8.935   5.222   8.810  1.00  0.00     0.029 A 
ATOM     30  N   UNL     1       8.198   5.992   6.859  1.00  0.00    -0.354 N 
ATOM     31  N   UNL     1       8.000   7.945   4.677  1.00  0.00    -0.248 NA
ATOM     32  C   UNL     1       8.496  10.041   3.774  1.00  0.00     0.031 C 
ATOM     33  C   UNL     1       9.442   6.513   8.624  1.00  0.00     0.029 A 
ATOM     34  C   UNL     1       9.005   6.982   7.396  1.00  0.00     0.049 A 
ATOM     35  H   UNL     1       7.737   6.048   5.991  1.00  0.00     0.167 HD
ATOM     36  C   UNL     1       8.831   8.631   5.552  1.00  0.00     0.074 A 
ATOM     37  C   UNL     1       9.131   9.905   4.929  1.00  0.00     0.031 C 
ATOM     38  C   UNL     1       9.304   8.241   6.761  1.00  0.00     0.037 A 
BRANCH  25  39
ATOM     39  C   UNL     1       7.338   2.665   8.568  1.00  0.00     0.057 A 
ATOM     40  C   UNL     1       7.973   1.425   8.418  1.00  0.00     0.134 A 
ATOM     41  C   UNL     1       6.697   2.916   9.789  1.00  0.00     0.134 A 
ATOM     42  F   UNL     1       8.597   1.114   7.272  1.00  0.00    -0.206 F 
ATOM     43  C   UNL     1       7.948   0.464   9.432  1.00  0.00     0.040 A 
ATOM     44  C   UNL     1       6.689   1.974  10.819  1.00  0.00     0.040 A 
ATOM     45  F   UNL     1       6.076   4.085  10.005  1.00  0.00    -0.206 F 
ATOM     46  C   UNL     1       7.310   0.740  10.639  1.00  0.00     0.006 A 
ENDBRANCH  25  39
BRANCH  26  47
ATOM     47  C   UNL     1       7.000   9.525   1.316  1.00  0.00     0.057 A 
ATOM     48  C   UNL     1       8.141   9.826   0.564  1.00  0.00     0.134 A 
ATOM     49  C   UNL     1       5.823  10.217   1.008  1.00  0.00     0.134 A 
ATOM     50  F   UNL     1       9.303   9.207   0.822  1.00  0.00    -0.206 F 
ATOM     51  C   UNL     1       8.118  10.791  -0.444  1.00  0.00     0.040 A 
ATOM     52  C   UNL     1       5.778  11.163  -0.017  1.00  0.00     0.040 A 
ATOM     53  F   UNL     1       4.693   9.967   1.685  1.00  0.00    -0.206 F 
ATOM     54  C   UNL     1       6.931  11.458  -0.741  1.00  0.00     0.006 A 
ENDBRANCH  26  47
BRANCH  38  55
ATOM     55  C   UNL     1      10.240   9.182   7.461  1.00  0.00     0.057 A 
ATOM     56  C   UNL     1       9.802  10.388   8.022  1.00  0.00     0.134 A 
ATOM     57  C   UNL     1      11.599   8.867   7.585  1.00  0.00     0.134 A 
ATOM     58  F   UNL     1       8.515  10.757   7.924  1.00  0.00    -0.206 F 
ATOM     59  C   UNL     1      10.688  11.263   8.653  1.00  0.00     0.040 A 
ATOM     60  C   UNL     1      12.489   9.719   8.240  1.00  0.00     0.040 A 
ATOM     61  F   UNL     1      12.083   7.723   7.078  1.00  0.00    -0.206 F 
ATOM     62  C   UNL     1      12.036  10.925   8.768  1.00  0.00     0.006 A 
ENDBRANCH  38  55
ENDBRANCH  12  13
ENDBRANCH   5   7
ENDBRANCH   2   3
ENDBRANCH   1   2
BRANCH   1  63
ATOM     63  C   UNL     1       4.133  -3.540  -0.973  1.00  0.00     0.117 C 
BRANCH  63  64
ATOM     64  N   UNL     1       4.916  -3.266  -2.163  1.00  0.00    -0.356 N 
ATOM     65  C   UNL     1       6.210  -3.581  -2.456  1.00  0.00     0.224 C 
ATOM     66  H   UNL     1       4.438  -2.776  -2.871  1.00  0.00     0.163 HD
ATOM     67  O   UNL     1       6.760  -2.913  -3.331  1.00  0.00    -0.275 OA
BRANCH  65  68
ATOM     68  C   UNL     1       6.828  -4.839  -1.860  1.00  0.00     0.095 C 
ATOM     69  C   UNL     1       8.035  -5.311  -2.688  1.00  0.00     0.041 C 
ATOM     70  C   UNL     1       7.122  -4.951  -0.386  1.00  0.00     0.095 C 
ATOM     71  C   UNL     1       9.316  -4.676  -2.239  1.00  0.00    -0.030 C 
ATOM     72  C   UNL     1       8.361  -4.117   0.001  1.00  0.00     0.041 C 
ATOM     73  C   UNL     1       9.454  -4.119  -1.028  1.00  0.00    -0.030 C 
BRANCH  70  74
ATOM     74  C   UNL     1       7.169  -6.403   0.131  1.00  0.00     0.224 C 
ATOM     75  O   UNL     1       7.711  -6.620   1.227  1.00  0.00    -0.275 OA
ATOM     76  N   UNL     1       6.481  -7.477  -0.356  1.00  0.00    -0.353 N 
ATOM     77  H   UNL     1       6.058  -7.962   0.389  1.00  0.00     0.163 HD
BRANCH  76  78
ATOM     78  C   UNL     1       6.155  -8.166  -1.658  1.00  0.00     0.082 C 
ATOM     79  C   UNL     1       5.559  -9.546  -1.282  1.00  0.00     0.025 C 
ATOM     80  C   UNL     1       5.202  -7.476  -2.658  1.00  0.00     0.025 C 
ATOM     81  C   UNL     1       5.122 -10.387  -2.477  1.00  0.00     0.002 C 
ATOM     82  C   UNL     1       4.704  -8.343  -3.810  1.00  0.00     0.002 C 
ATOM     83  C   UNL     1       4.110  -9.647  -3.336  1.00  0.00     0.000 C 
ENDBRANCH  76  78
ENDBRANCH  70  74
ENDBRANCH  65  68
ENDBRANCH  63  64
ENDBRANCH   1  63
TORSDOF 12
