REMARK SMILES O=C(NCCCNC(=O)[C@@H]1CS[C@H](c2cccc([N+](=O)[O-])c2)[NH2+]1)c1ccc(-c2c3nc(c(-c4c(F)cccc4F)c4ccc([nH]4)c(-c4c(F)cccc4F)c4nc(c(-c5c(F)cccc5F)c5ccc2[nH]5)C=C4)C=C3)cc1
REMARK SMILES IDX 5 1 4 2 3 3 1 4 2 5 24 7 25 8 77 9 26 10 76 11 27 12 28 13
REMARK SMILES IDX 29 14 70 15 30 16 75 17 69 18 71 19 31 20 74 21 68 22 67 23
REMARK SMILES IDX 32 25 58 26 41 27 57 28 42 29 45 30 56 31 72 32 43 33 44 34
REMARK SMILES IDX 55 36 73 37 46 38 33 39 34 40 39 41 35 42 36 43 38 44 40 45
REMARK SMILES IDX 37 46 59 47 60 48 65 49 61 50 62 51 64 52 66 53 63 54 47 55
REMARK SMILES IDX 48 56 53 57 49 58 50 59 52 60 54 61 51 62 6 63 7 64 8 65
REMARK SMILES IDX 9 67 10 68 11 69 23 70 12 71 13 72 14 75 15 76 22 77 16 78
REMARK SMILES IDX 18 79 17 80 19 81 20 82 21 83
REMARK H PARENT 3 6 71 24 45 35 7 66 23 73 23 74
REMARK Flexibility Score: inf
ROOT
ATOM      1  C   UNL     1       3.383   3.431   1.595  1.00  0.00     0.042 C 
ENDROOT
BRANCH   1   2
ATOM      2  C   UNL     1       3.528   3.412   0.076  1.00  0.00     0.118 C 
BRANCH   2   3
ATOM      3  N   UNL     1       3.382   2.072  -0.474  1.00  0.00    -0.352 N 
ATOM      4  O   UNL     1       2.318   0.308  -1.377  1.00  0.00    -0.269 OA
ATOM      5  C   UNL     1       2.367   1.528  -1.216  1.00  0.00     0.251 C 
ATOM      6  H   UNL     1       4.131   1.461  -0.284  1.00  0.00     0.163 HD
BRANCH   5   7
ATOM      7  C   UNL     1       1.334   2.389  -1.825  1.00  0.00     0.039 A 
ATOM      8  C   UNL     1       1.682   3.592  -2.446  1.00  0.00     0.014 A 
ATOM      9  C   UNL     1       0.007   1.950  -1.848  1.00  0.00     0.014 A 
ATOM     10  C   UNL     1       0.695   4.404  -2.992  1.00  0.00     0.010 A 
ATOM     11  C   UNL     1      -0.973   2.726  -2.473  1.00  0.00     0.010 A 
ATOM     12  C   UNL     1      -0.636   3.962  -3.044  1.00  0.00    -0.014 A 
BRANCH  12  13
ATOM     13  C   UNL     1      -1.632   4.742  -3.818  1.00  0.00     0.031 A 
ATOM     14  C   UNL     1      -2.808   5.389  -3.149  1.00  0.00     0.074 A 
ATOM     15  C   UNL     1      -1.464   4.840  -5.152  1.00  0.00     0.049 A 
ATOM     16  N   UNL     1      -3.787   6.069  -3.690  1.00  0.00    -0.248 NA
ATOM     17  C   UNL     1      -2.908   5.252  -1.687  1.00  0.00     0.031 C 
ATOM     18  C   UNL     1      -0.366   4.230  -5.909  1.00  0.00     0.029 A 
ATOM     19  N   UNL     1      -2.209   5.479  -6.109  1.00  0.00    -0.354 N 
ATOM     20  C   UNL     1      -4.629   6.423  -2.644  1.00  0.00     0.074 A 
ATOM     21  C   UNL     1      -4.054   5.873  -1.435  1.00  0.00     0.031 C 
ATOM     22  C   UNL     1      -0.500   4.538  -7.207  1.00  0.00     0.029 A 
ATOM     23  C   UNL     1      -1.725   5.308  -7.383  1.00  0.00     0.049 A 
ATOM     24  H   UNL     1      -3.013   6.008  -5.903  1.00  0.00     0.167 HD
ATOM     25  C   UNL     1      -5.775   7.142  -2.698  1.00  0.00     0.037 A 
ATOM     26  C   UNL     1      -2.230   5.691  -8.570  1.00  0.00     0.037 A 
ATOM     27  C   UNL     1      -6.323   7.703  -3.906  1.00  0.00     0.049 A 
ATOM     28  C   UNL     1      -3.522   6.454  -8.595  1.00  0.00     0.074 A 
ATOM     29  C   UNL     1      -7.431   8.521  -4.049  1.00  0.00     0.029 A 
ATOM     30  N   UNL     1      -5.816   7.490  -5.179  1.00  0.00    -0.354 N 
ATOM     31  N   UNL     1      -4.264   6.851  -7.590  1.00  0.00    -0.248 NA
ATOM     32  C   UNL     1      -4.053   6.814  -9.916  1.00  0.00     0.031 C 
ATOM     33  C   UNL     1      -7.630   8.752  -5.413  1.00  0.00     0.029 A 
ATOM     34  C   UNL     1      -6.618   8.121  -6.117  1.00  0.00     0.049 A 
ATOM     35  H   UNL     1      -5.008   6.969  -5.386  1.00  0.00     0.167 HD
ATOM     36  C   UNL     1      -5.344   7.513  -8.155  1.00  0.00     0.074 A 
ATOM     37  C   UNL     1      -5.146   7.489  -9.589  1.00  0.00     0.031 C 
ATOM     38  C   UNL     1      -6.409   8.081  -7.541  1.00  0.00     0.037 A 
BRANCH  25  39
ATOM     39  C   UNL     1      -6.538   7.359  -1.424  1.00  0.00     0.057 A 
ATOM     40  C   UNL     1      -6.107   8.259  -0.443  1.00  0.00     0.134 A 
ATOM     41  C   UNL     1      -7.774   6.729  -1.226  1.00  0.00     0.134 A 
ATOM     42  F   UNL     1      -4.930   8.890  -0.569  1.00  0.00    -0.206 F 
ATOM     43  C   UNL     1      -6.877   8.523   0.692  1.00  0.00     0.040 A 
ATOM     44  C   UNL     1      -8.562   6.999  -0.106  1.00  0.00     0.040 A 
ATOM     45  F   UNL     1      -8.249   5.860  -2.132  1.00  0.00    -0.206 F 
ATOM     46  C   UNL     1      -8.113   7.899   0.858  1.00  0.00     0.006 A 
ENDBRANCH  25  39
BRANCH  26  47
ATOM     47  C   UNL     1      -1.540   5.314  -9.829  1.00  0.00     0.057 A 
ATOM     48  C   UNL     1      -0.950   6.278 -10.653  1.00  0.00     0.134 A 
ATOM     49  C   UNL     1      -1.467   3.978 -10.243  1.00  0.00     0.134 A 
ATOM     50  F   UNL     1      -1.002   7.575 -10.319  1.00  0.00    -0.206 F 
ATOM     51  C   UNL     1      -0.331   5.930 -11.855  1.00  0.00     0.040 A 
ATOM     52  C   UNL     1      -0.825   3.612 -11.426  1.00  0.00     0.040 A 
ATOM     53  F   UNL     1      -2.006   3.005  -9.494  1.00  0.00    -0.206 F 
ATOM     54  C   UNL     1      -0.263   4.592 -12.241  1.00  0.00     0.006 A 
ENDBRANCH  26  47
BRANCH  38  55
ATOM     55  C   UNL     1      -7.437   8.727  -8.420  1.00  0.00     0.057 A 
ATOM     56  C   UNL     1      -8.324   7.965  -9.191  1.00  0.00     0.134 A 
ATOM     57  C   UNL     1      -7.569  10.120  -8.464  1.00  0.00     0.134 A 
ATOM     58  F   UNL     1      -8.236   6.626  -9.205  1.00  0.00    -0.206 F 
ATOM     59  C   UNL     1      -9.297   8.568  -9.989  1.00  0.00     0.040 A 
ATOM     60  C   UNL     1      -8.556  10.733  -9.237  1.00  0.00     0.040 A 
ATOM     61  F   UNL     1      -6.755  10.906  -7.744  1.00  0.00    -0.206 F 
ATOM     62  C   UNL     1      -9.420   9.956 -10.006  1.00  0.00     0.006 A 
ENDBRANCH  38  55
ENDBRANCH  12  13
ENDBRANCH   5   7
ENDBRANCH   2   3
ENDBRANCH   1   2
BRANCH   1  63
ATOM     63  C   UNL     1       4.465   2.635   2.317  1.00  0.00     0.118 C 
BRANCH  63  64
ATOM     64  N   UNL     1       5.781   3.184   2.063  1.00  0.00    -0.351 N 
ATOM     65  C   UNL     1       6.491   4.126   2.745  1.00  0.00     0.279 C 
ATOM     66  H   UNL     1       6.236   2.817   1.270  1.00  0.00     0.163 HD
ATOM     67  O   UNL     1       7.492   4.569   2.180  1.00  0.00    -0.268 OA
BRANCH  65  68
ATOM     68  C   UNL     1       6.002   4.617   4.120  1.00  0.00     0.283 C 
ATOM     69  C   UNL     1       5.292   5.958   3.956  1.00  0.00     0.151 C 
ATOM     70  N   UNL     1       7.133   4.681   5.098  1.00  0.00    -0.321 N 
ATOM     71  S   UNL     1       5.781   6.885   5.416  1.00  0.00    -0.088 SA
ATOM     72  C   UNL     1       7.407   6.082   5.453  1.00  0.00     0.274 C 
ATOM     73  H   UNL     1       7.967   4.269   4.678  1.00  0.00     0.348 HD
ATOM     74  H   UNL     1       6.880   4.164   5.940  1.00  0.00     0.348 HD
BRANCH  72  75
ATOM     75  C   UNL     1       8.455   6.745   4.563  1.00  0.00     0.027 A 
ATOM     76  C   UNL     1       8.564   8.146   4.469  1.00  0.00     0.011 A 
ATOM     77  C   UNL     1       9.387   5.971   3.846  1.00  0.00     0.096 A 
ATOM     78  C   UNL     1       9.496   8.749   3.618  1.00  0.00     0.008 A 
ATOM     79  C   UNL     1      10.294   6.574   2.966  1.00  0.00     0.269 A 
ATOM     80  C   UNL     1      10.351   7.965   2.846  1.00  0.00     0.085 A 
BRANCH  79  81
ATOM     81  N   UNL     1      11.174   5.735   2.144  1.00  0.00     0.062 N 
ATOM     82  O   UNL     1      11.773   6.281   1.205  1.00  0.00    -0.258 OA
ATOM     83  O   UNL     1      11.287   4.538   2.446  1.00  0.00    -0.258 OA
ENDBRANCH  79  81
ENDBRANCH  72  75
ENDBRANCH  65  68
ENDBRANCH  63  64
ENDBRANCH   1  63
TORSDOF 12
