REMARK SMILES O=C(COCC(=O)/[NH+]=C1\S[C@@H]2CS(=O)(=O)C[C@H]2N1c1ccc(Cl)cc1)NCCCNC(=O)c1ccc(-c2c3nc(c(-c4c(F)cccc4F)c4ccc([nH]4)c(-c4c(F)cccc4F)c4nc(c(-c5c(F)cccc5F)c5ccc2[nH]5)C=C4)C=C3)cc1
REMARK SMILES IDX 27 1 26 2 2 3 1 4 3 6 4 7 5 8 6 9 7 10 8 11 9 12 10 14 18 15
REMARK SMILES IDX 11 16 17 17 12 18 16 19 13 20 14 21 15 22 19 23 20 24 25 25
REMARK SMILES IDX 21 26 24 27 22 28 23 29 28 30 29 31 30 32 31 33 32 35 33 36
REMARK SMILES IDX 34 37 86 38 35 39 85 40 36 41 37 42 38 43 79 44 39 45 84 46
REMARK SMILES IDX 78 47 80 48 40 49 83 50 77 51 76 52 41 54 67 55 50 56 66 57
REMARK SMILES IDX 51 58 54 59 65 60 81 61 52 62 53 63 64 65 82 66 55 67 42 68
REMARK SMILES IDX 43 69 48 70 44 71 45 72 47 73 49 74 46 75 68 76 69 77 74 78
REMARK SMILES IDX 70 79 71 80 73 81 75 82 72 83 56 84 57 85 62 86 58 87 59 88
REMARK SMILES IDX 61 89 63 90 60 91
REMARK H PARENT 26 5 8 13 30 34 80 53 54 64
REMARK Flexibility Score: inf
ROOT
ATOM      1  C   UNL     1       3.909  -4.164   2.359  1.00  0.00     0.117 C 
ENDROOT
BRANCH   1   2
ATOM      2  N   UNL     1       2.488  -4.155   2.061  1.00  0.00    -0.354 N 
ATOM      3  C   UNL     1       1.844  -3.560   1.013  1.00  0.00     0.246 C 
ATOM      4  O   UNL     1       0.626  -3.695   0.905  1.00  0.00    -0.272 OA
ATOM      5  H   UNL     1       1.915  -4.641   2.697  1.00  0.00     0.163 HD
BRANCH   3   6
ATOM      6  C   UNL     1       2.653  -2.727   0.016  1.00  0.00     0.260 C 
BRANCH   6   7
ATOM      7  O   UNL     1       3.332  -1.642   0.631  1.00  0.00    -0.359 OA
BRANCH   7   8
ATOM      8  C   UNL     1       2.450  -0.595   1.018  1.00  0.00     0.288 C 
BRANCH   8   9
ATOM      9  C   UNL     1       2.165   0.525  -0.004  1.00  0.00     0.333 C 
ATOM     10  O   UNL     1       1.201   1.269   0.170  1.00  0.00    -0.244 OA
ATOM     11  N   UNL     1       2.961   0.645  -1.117  1.00  0.00    -0.202 N 
ATOM     12  C   UNL     1       4.234   0.846  -1.046  1.00  0.00     0.319 C 
ATOM     13  H   UNL     1       2.544   0.575  -2.006  1.00  0.00     0.316 HD
ATOM     14  S   UNL     1       5.202   0.852   0.467  1.00  0.00    -0.029 SA
ATOM     15  N   UNL     1       5.104   1.049  -2.129  1.00  0.00    -0.217 N 
ATOM     16  C   UNL     1       6.643   0.347  -0.495  1.00  0.00     0.120 C 
ATOM     17  C   UNL     1       6.494   1.281  -1.701  1.00  0.00     0.212 C 
ATOM     18  C   UNL     1       8.032   0.505   0.062  1.00  0.00     0.156 C 
ATOM     19  C   UNL     1       7.660   0.922  -2.589  1.00  0.00     0.188 C 
ATOM     20  S   UNL     1       9.012   0.784  -1.415  1.00  0.00     0.155 S 
ATOM     21  O   UNL     1       9.755  -0.422  -1.719  1.00  0.00    -0.229 OA
ATOM     22  O   UNL     1       9.646   2.077  -1.291  1.00  0.00    -0.229 OA
BRANCH  15  23
ATOM     23  C   UNL     1       4.678   1.500  -3.388  1.00  0.00     0.128 A 
ATOM     24  C   UNL     1       5.202   0.955  -4.571  1.00  0.00     0.053 A 
ATOM     25  C   UNL     1       3.684   2.486  -3.518  1.00  0.00     0.053 A 
ATOM     26  C   UNL     1       4.773   1.389  -5.831  1.00  0.00     0.025 A 
ATOM     27  C   UNL     1       3.247   2.923  -4.775  1.00  0.00     0.025 A 
ATOM     28  C   UNL     1       3.797   2.374  -5.928  1.00  0.00     0.041 A 
ATOM     29  Cl  UNL     1       3.261   2.899  -7.474  1.00  0.00    -0.084 Cl
ENDBRANCH  15  23
ENDBRANCH   8   9
ENDBRANCH   7   8
ENDBRANCH   6   7
ENDBRANCH   3   6
ENDBRANCH   1   2
BRANCH   1  30
ATOM     30  C   UNL     1       4.267  -3.323   3.581  1.00  0.00     0.042 C 
BRANCH  30  31
ATOM     31  C   UNL     1       3.591  -3.758   4.879  1.00  0.00     0.118 C 
BRANCH  31  32
ATOM     32  N   UNL     1       3.863  -5.145   5.225  1.00  0.00    -0.352 N 
ATOM     33  C   UNL     1       4.367  -5.708   6.369  1.00  0.00     0.251 C 
ATOM     34  H   UNL     1       3.647  -5.792   4.515  1.00  0.00     0.163 HD
ATOM     35  O   UNL     1       4.664  -6.900   6.361  1.00  0.00    -0.269 OA
BRANCH  33  36
ATOM     36  C   UNL     1       4.572  -4.913   7.602  1.00  0.00     0.039 A 
ATOM     37  C   UNL     1       5.670  -5.222   8.412  1.00  0.00     0.014 A 
ATOM     38  C   UNL     1       3.674  -3.923   8.007  1.00  0.00     0.014 A 
ATOM     39  C   UNL     1       5.886  -4.517   9.598  1.00  0.00     0.010 A 
ATOM     40  C   UNL     1       3.938  -3.161   9.146  1.00  0.00     0.010 A 
ATOM     41  C   UNL     1       5.037  -3.460   9.963  1.00  0.00    -0.014 A 
BRANCH  41  42
ATOM     42  C   UNL     1       5.288  -2.683  11.206  1.00  0.00     0.031 A 
ATOM     43  C   UNL     1       4.289  -2.692  12.333  1.00  0.00     0.074 A 
ATOM     44  C   UNL     1       6.411  -1.947  11.312  1.00  0.00     0.049 A 
ATOM     45  N   UNL     1       4.346  -2.087  13.493  1.00  0.00    -0.248 NA
ATOM     46  C   UNL     1       3.054  -3.463  12.121  1.00  0.00     0.031 C 
ATOM     47  C   UNL     1       7.435  -1.812  10.274  1.00  0.00     0.029 A 
ATOM     48  N   UNL     1       6.884  -1.177  12.346  1.00  0.00    -0.354 N 
ATOM     49  C   UNL     1       3.157  -2.397  14.142  1.00  0.00     0.074 A 
ATOM     50  C   UNL     1       2.371  -3.191  13.223  1.00  0.00     0.031 C 
ATOM     51  C   UNL     1       8.430  -1.038  10.736  1.00  0.00     0.029 A 
ATOM     52  C   UNL     1       8.099  -0.592  12.085  1.00  0.00     0.049 A 
ATOM     53  H   UNL     1       6.397  -1.055  13.193  1.00  0.00     0.167 HD
ATOM     54  C   UNL     1       2.764  -2.073  15.398  1.00  0.00     0.037 A 
ATOM     55  C   UNL     1       8.863   0.213  12.847  1.00  0.00     0.037 A 
ATOM     56  C   UNL     1       3.552  -1.292  16.316  1.00  0.00     0.049 A 
ATOM     57  C   UNL     1       8.402   0.564  14.235  1.00  0.00     0.074 A 
ATOM     58  C   UNL     1       3.266  -0.953  17.628  1.00  0.00     0.029 A 
ATOM     59  N   UNL     1       4.780  -0.719  16.016  1.00  0.00    -0.354 N 
ATOM     60  N   UNL     1       7.310   0.200  14.862  1.00  0.00    -0.248 NA
ATOM     61  C   UNL     1       9.290   1.426  15.026  1.00  0.00     0.031 C 
ATOM     62  C   UNL     1       4.292  -0.129  18.102  1.00  0.00     0.029 A 
ATOM     63  C   UNL     1       5.251  -0.008  17.109  1.00  0.00     0.049 A 
ATOM     64  H   UNL     1       5.247  -0.804  15.154  1.00  0.00     0.167 HD
ATOM     65  C   UNL     1       7.394   0.763  16.130  1.00  0.00     0.074 A 
ATOM     66  C   UNL     1       8.655   1.472  16.187  1.00  0.00     0.031 C 
ATOM     67  C   UNL     1       6.507   0.698  17.155  1.00  0.00     0.037 A 
BRANCH  54  68
ATOM     68  C   UNL     1       1.415  -2.561  15.850  1.00  0.00     0.057 A 
ATOM     69  C   UNL     1       1.153  -3.921  16.068  1.00  0.00     0.134 A 
ATOM     70  C   UNL     1       0.374  -1.659  16.100  1.00  0.00     0.134 A 
ATOM     71  F   UNL     1       2.100  -4.843  15.838  1.00  0.00    -0.206 F 
ATOM     72  C   UNL     1      -0.104  -4.367  16.485  1.00  0.00     0.040 A 
ATOM     73  C   UNL     1      -0.876  -2.089  16.548  1.00  0.00     0.040 A 
ATOM     74  F   UNL     1       0.555  -0.341  15.921  1.00  0.00    -0.206 F 
ATOM     75  C   UNL     1      -1.121  -3.448  16.733  1.00  0.00     0.006 A 
ENDBRANCH  54  68
BRANCH  55  76
ATOM     76  C   UNL     1      10.157   0.725  12.325  1.00  0.00     0.057 A 
ATOM     77  C   UNL     1      11.376   0.302  12.869  1.00  0.00     0.134 A 
ATOM     78  C   UNL     1      10.206   1.656  11.281  1.00  0.00     0.134 A 
ATOM     79  F   UNL     1      11.395  -0.576  13.883  1.00  0.00    -0.206 F 
ATOM     80  C   UNL     1      12.595   0.806  12.413  1.00  0.00     0.040 A 
ATOM     81  C   UNL     1      11.419   2.146  10.795  1.00  0.00     0.040 A 
ATOM     82  F   UNL     1       9.075   2.094  10.710  1.00  0.00    -0.206 F 
ATOM     83  C   UNL     1      12.618   1.728  11.368  1.00  0.00     0.006 A 
ENDBRANCH  55  76
BRANCH  67  84
ATOM     84  C   UNL     1       6.893   1.382  18.437  1.00  0.00     0.057 A 
ATOM     85  C   UNL     1       6.980   2.776  18.542  1.00  0.00     0.134 A 
ATOM     86  C   UNL     1       7.180   0.631  19.585  1.00  0.00     0.134 A 
ATOM     87  F   UNL     1       6.730   3.556  17.479  1.00  0.00    -0.206 F 
ATOM     88  C   UNL     1       7.381   3.396  19.728  1.00  0.00     0.040 A 
ATOM     89  C   UNL     1       7.546   1.240  20.785  1.00  0.00     0.040 A 
ATOM     90  F   UNL     1       7.104  -0.709  19.560  1.00  0.00    -0.206 F 
ATOM     91  C   UNL     1       7.660   2.627  20.855  1.00  0.00     0.006 A 
ENDBRANCH  67  84
ENDBRANCH  41  42
ENDBRANCH  33  36
ENDBRANCH  31  32
ENDBRANCH  30  31
ENDBRANCH   1  30
TORSDOF 14
