REMARK SMILES COc1cc(NC(=O)C2CCN(S(=O)(=O)c3cccs3)CC2)c(Cl)cc1C(=O)NCCCNC(=O)c1ccc(-c2c3nc(c(-c4c(F)cccc4F)c4ccc([nH]4)c(-c4c(F)cccc4F)c4nc(c(-c5c(F)cccc5F)c5ccc2[nH]5)C=C4)C=C3)cc1
REMARK SMILES IDX 30 1 29 2 27 3 28 4 26 6 3 7 4 8 5 9 25 10 23 11 24 12 2 13
REMARK SMILES IDX 1 14 6 15 7 16 8 18 9 19 10 20 22 21 11 22 21 23 12 24 13 25
REMARK SMILES IDX 14 26 15 27 16 28 17 29 20 30 18 31 19 32 31 33 32 34 33 35
REMARK SMILES IDX 34 36 35 38 36 39 37 40 89 41 38 42 88 43 39 44 40 45 41 46
REMARK SMILES IDX 82 47 42 48 87 49 81 50 83 51 43 52 86 53 80 54 79 55 44 57
REMARK SMILES IDX 70 58 53 59 69 60 54 61 57 62 68 63 84 64 55 65 56 66 67 68
REMARK SMILES IDX 85 69 58 70 45 71 46 72 51 73 47 74 48 75 50 76 52 77 49 78
REMARK SMILES IDX 71 79 72 80 77 81 73 82 74 83 76 84 78 85 75 86 59 87 60 88
REMARK SMILES IDX 65 89 61 90 62 91 64 92 66 93 63 94
REMARK H PARENT 29 5 6 17 33 37 83 56 57 67
REMARK Flexibility Score: inf
ROOT
ATOM      1  C   UNL     1      -1.213   0.941   1.874  1.00  0.00     0.118 C 
ENDROOT
BRANCH   1   2
ATOM      2  N   UNL     1      -1.918  -0.227   2.375  1.00  0.00    -0.352 N 
ATOM      3  C   UNL     1      -1.519  -1.516   2.623  1.00  0.00     0.255 C 
ATOM      4  O   UNL     1      -2.353  -2.290   3.094  1.00  0.00    -0.269 OA
ATOM      5  H   UNL     1      -2.868  -0.060   2.576  1.00  0.00     0.163 HD
BRANCH   3   6
ATOM      6  C   UNL     1      -0.120  -2.002   2.480  1.00  0.00     0.083 A 
ATOM      7  C   UNL     1       0.710  -1.821   1.364  1.00  0.00     0.133 A 
ATOM      8  C   UNL     1       2.016  -2.329   1.397  1.00  0.00     0.075 A 
ATOM      9  C   UNL     1       2.545  -2.890   2.559  1.00  0.00     0.063 A 
ATOM     10  C   UNL     1       0.353  -2.769   3.565  1.00  0.00     0.040 A 
ATOM     11  C   UNL     1       1.675  -3.215   3.603  1.00  0.00     0.065 A 
ATOM     12  Cl  UNL     1       2.231  -4.051   5.007  1.00  0.00    -0.082 Cl
BRANCH   7  13
ATOM     13  O   UNL     1       0.229  -1.176   0.262  1.00  0.00    -0.496 OA
ATOM     14  C   UNL     1       1.189  -0.579  -0.615  1.00  0.00     0.278 C 
ENDBRANCH   7  13
BRANCH   9  15
ATOM     15  N   UNL     1       3.936  -3.029   2.736  1.00  0.00    -0.324 N 
ATOM     16  C   UNL     1       4.959  -2.179   2.385  1.00  0.00     0.227 C 
ATOM     17  H   UNL     1       4.219  -3.862   3.178  1.00  0.00     0.169 HD
ATOM     18  O   UNL     1       6.110  -2.533   2.650  1.00  0.00    -0.274 OA
BRANCH  16  19
ATOM     19  C   UNL     1       4.686  -0.806   1.736  1.00  0.00     0.081 C 
ATOM     20  C   UNL     1       5.976   0.003   1.486  1.00  0.00     0.030 C 
ATOM     21  C   UNL     1       3.724   0.078   2.537  1.00  0.00     0.030 C 
ATOM     22  C   UNL     1       6.553   0.660   2.747  1.00  0.00     0.103 C 
ATOM     23  C   UNL     1       4.360   0.560   3.825  1.00  0.00     0.103 C 
ATOM     24  N   UNL     1       5.497   1.431   3.478  1.00  0.00    -0.197 NA
BRANCH  24  25
ATOM     25  S   UNL     1       6.139   2.304   4.819  1.00  0.00     0.252 S 
ATOM     26  O   UNL     1       6.627   1.323   5.765  1.00  0.00    -0.206 OA
ATOM     27  O   UNL     1       6.997   3.346   4.298  1.00  0.00    -0.206 OA
BRANCH  25  28
ATOM     28  C   UNL     1       4.779   3.090   5.682  1.00  0.00     0.135 A 
ATOM     29  C   UNL     1       3.830   2.562   6.544  1.00  0.00     0.033 A 
ATOM     30  S   UNL     1       4.543   4.766   5.456  1.00  0.00    -0.131 S 
ATOM     31  C   UNL     1       2.895   3.533   6.996  1.00  0.00     0.013 A 
ATOM     32  C   UNL     1       3.185   4.785   6.503  1.00  0.00     0.066 A 
ENDBRANCH  25  28
ENDBRANCH  24  25
ENDBRANCH  16  19
ENDBRANCH   9  15
ENDBRANCH   3   6
ENDBRANCH   1   2
BRANCH   1  33
ATOM     33  C   UNL     1      -1.543   1.206   0.405  1.00  0.00     0.042 C 
BRANCH  33  34
ATOM     34  C   UNL     1      -2.942   1.746   0.147  1.00  0.00     0.118 C 
BRANCH  34  35
ATOM     35  N   UNL     1      -3.019   3.189   0.306  1.00  0.00    -0.352 N 
ATOM     36  C   UNL     1      -3.123   4.188  -0.633  1.00  0.00     0.251 C 
ATOM     37  H   UNL     1      -2.993   3.502   1.239  1.00  0.00     0.163 HD
ATOM     38  O   UNL     1      -2.954   5.353  -0.282  1.00  0.00    -0.269 OA
BRANCH  36  39
ATOM     39  C   UNL     1      -3.415   3.894  -2.060  1.00  0.00     0.039 A 
ATOM     40  C   UNL     1      -2.803   4.678  -3.046  1.00  0.00     0.014 A 
ATOM     41  C   UNL     1      -4.328   2.909  -2.441  1.00  0.00     0.014 A 
ATOM     42  C   UNL     1      -3.059   4.435  -4.401  1.00  0.00     0.010 A 
ATOM     43  C   UNL     1      -4.516   2.610  -3.791  1.00  0.00     0.010 A 
ATOM     44  C   UNL     1      -3.893   3.376  -4.787  1.00  0.00    -0.014 A 
BRANCH  44  45
ATOM     45  C   UNL     1      -4.157   3.063  -6.218  1.00  0.00     0.031 A 
ATOM     46  C   UNL     1      -5.558   3.158  -6.764  1.00  0.00     0.074 A 
ATOM     47  C   UNL     1      -3.159   2.618  -7.007  1.00  0.00     0.049 A 
ATOM     48  N   UNL     1      -6.017   2.800  -7.936  1.00  0.00    -0.248 NA
ATOM     49  C   UNL     1      -6.583   3.702  -5.859  1.00  0.00     0.031 C 
ATOM     50  C   UNL     1      -1.764   2.453  -6.597  1.00  0.00     0.029 A 
ATOM     51  N   UNL     1      -3.171   2.203  -8.316  1.00  0.00    -0.354 N 
ATOM     52  C   UNL     1      -7.384   3.049  -7.899  1.00  0.00     0.074 A 
ATOM     53  C   UNL     1      -7.687   3.547  -6.575  1.00  0.00     0.031 C 
ATOM     54  C   UNL     1      -1.053   1.983  -7.635  1.00  0.00     0.029 A 
ATOM     55  C   UNL     1      -1.948   1.771  -8.769  1.00  0.00     0.049 A 
ATOM     56  H   UNL     1      -3.980   2.214  -8.877  1.00  0.00     0.167 HD
ATOM     57  C   UNL     1      -8.302   2.895  -8.884  1.00  0.00     0.037 A 
ATOM     58  C   UNL     1      -1.589   1.247  -9.957  1.00  0.00     0.037 A 
ATOM     59  C   UNL     1      -7.994   2.433 -10.212  1.00  0.00     0.049 A 
ATOM     60  C   UNL     1      -2.627   1.074 -11.031  1.00  0.00     0.074 A 
ATOM     61  C   UNL     1      -8.842   2.303 -11.297  1.00  0.00     0.029 A 
ATOM     62  N   UNL     1      -6.737   2.028 -10.635  1.00  0.00    -0.354 N 
ATOM     63  N   UNL     1      -3.906   1.362 -10.997  1.00  0.00    -0.248 NA
ATOM     64  C   UNL     1      -2.174   0.505 -12.309  1.00  0.00     0.031 C 
ATOM     65  C   UNL     1      -8.108   1.779 -12.366  1.00  0.00     0.029 A 
ATOM     66  C   UNL     1      -6.792   1.628 -11.959  1.00  0.00     0.049 A 
ATOM     67  H   UNL     1      -5.926   2.025 -10.076  1.00  0.00     0.167 HD
ATOM     68  C   UNL     1      -4.402   1.038 -12.254  1.00  0.00     0.074 A 
ATOM     69  C   UNL     1      -3.286   0.539 -13.030  1.00  0.00     0.031 C 
ATOM     70  C   UNL     1      -5.669   1.148 -12.723  1.00  0.00     0.037 A 
BRANCH  57  71
ATOM     71  C   UNL     1      -9.729   3.231  -8.562  1.00  0.00     0.057 A 
ATOM     72  C   UNL     1     -10.152   4.552  -8.366  1.00  0.00     0.134 A 
ATOM     73  C   UNL     1     -10.701   2.225  -8.485  1.00  0.00     0.134 A 
ATOM     74  F   UNL     1      -9.270   5.562  -8.415  1.00  0.00    -0.206 F 
ATOM     75  C   UNL     1     -11.483   4.858  -8.076  1.00  0.00     0.040 A 
ATOM     76  C   UNL     1     -12.040   2.521  -8.224  1.00  0.00     0.040 A 
ATOM     77  F   UNL     1     -10.367   0.939  -8.672  1.00  0.00    -0.206 F 
ATOM     78  C   UNL     1     -12.433   3.841  -8.011  1.00  0.00     0.006 A 
ENDBRANCH  57  71
BRANCH  58  79
ATOM     79  C   UNL     1      -0.177   0.856 -10.200  1.00  0.00     0.057 A 
ATOM     80  C   UNL     1       0.630   1.585 -11.082  1.00  0.00     0.134 A 
ATOM     81  C   UNL     1       0.398  -0.250  -9.564  1.00  0.00     0.134 A 
ATOM     82  F   UNL     1       0.129   2.644 -11.735  1.00  0.00    -0.206 F 
ATOM     83  C   UNL     1       1.953   1.219 -11.335  1.00  0.00     0.040 A 
ATOM     84  C   UNL     1       1.727  -0.614  -9.790  1.00  0.00     0.040 A 
ATOM     85  F   UNL     1      -0.319  -0.986  -8.702  1.00  0.00    -0.206 F 
ATOM     86  C   UNL     1       2.506   0.118 -10.684  1.00  0.00     0.006 A 
ENDBRANCH  58  79
BRANCH  70  87
ATOM     87  C   UNL     1      -5.913   0.762 -14.151  1.00  0.00     0.057 A 
ATOM     88  C   UNL     1      -5.941  -0.576 -14.561  1.00  0.00     0.134 A 
ATOM     89  C   UNL     1      -6.186   1.742 -15.115  1.00  0.00     0.134 A 
ATOM     90  F   UNL     1      -5.675  -1.560 -13.689  1.00  0.00    -0.206 F 
ATOM     91  C   UNL     1      -6.219  -0.926 -15.884  1.00  0.00     0.040 A 
ATOM     92  C   UNL     1      -6.489   1.403 -16.434  1.00  0.00     0.040 A 
ATOM     93  F   UNL     1      -6.183   3.042 -14.784  1.00  0.00    -0.206 F 
ATOM     94  C   UNL     1      -6.503   0.065 -16.822  1.00  0.00     0.006 A 
ENDBRANCH  70  87
ENDBRANCH  44  45
ENDBRANCH  36  39
ENDBRANCH  34  35
ENDBRANCH  33  34
ENDBRANCH   1  33
TORSDOF 15
