REMARK SMILES C=C(C)COc1cc2oc(=O)c(CC(=O)N3CCC[C@H](C(=O)NCCCNC(=O)c4ccc(-c5c6nc(c(-c7c(F)cccc7F)c7ccc([nH]7)c(-c7c(F)cccc7F)c7nc(c(-c8c(F)cccc8F)c8ccc5[nH]8)C=C7)C=C6)cc4)C3)c(C)c2cc1Cl
REMARK SMILES IDX 21 1 22 2 23 3 20 5 16 6 17 7 84 8 18 9 19 10 14 11 15 12
REMARK SMILES IDX 13 13 12 14 6 15 7 16 89 17 8 18 88 19 90 20 9 21 87 22
REMARK SMILES IDX 10 23 85 24 11 25 86 26 5 27 4 28 2 29 1 30 3 31 24 32 25 33
REMARK SMILES IDX 26 34 27 35 28 36 29 38 30 39 31 40 83 41 32 42 82 43 33 44
REMARK SMILES IDX 34 45 35 46 76 47 36 48 81 49 75 50 77 51 37 52 80 53 74 54
REMARK SMILES IDX 73 55 38 57 64 58 47 59 63 60 48 61 51 62 62 63 78 64 49 65
REMARK SMILES IDX 50 66 61 68 79 69 52 70 39 71 40 72 45 73 41 74 42 75 44 76
REMARK SMILES IDX 46 77 43 78 65 79 66 80 71 81 67 82 68 83 70 84 72 85 69 86
REMARK SMILES IDX 53 87 54 88 59 89 55 90 56 91 58 92 60 93 57 94
REMARK H PARENT 23 4 27 37 77 56 51 67
REMARK Flexibility Score: inf
ROOT
ATOM      1  C   UNL     1      -4.445  -1.821  -6.653  1.00  0.00     0.224 C 
ATOM      2  O   UNL     1      -4.588  -2.514  -5.637  1.00  0.00    -0.275 OA
ATOM      3  N   UNL     1      -5.120  -0.645  -6.662  1.00  0.00    -0.356 N 
ATOM      4  H   UNL     1      -5.713  -0.518  -5.886  1.00  0.00     0.163 HD
ENDROOT
BRANCH   1   5
ATOM      5  C   UNL     1      -3.575  -2.352  -7.801  1.00  0.00     0.098 C 
ATOM      6  N   UNL     1      -2.577  -0.684  -9.428  1.00  0.00    -0.342 N 
ATOM      7  C   UNL     1      -3.260  -1.335 -10.542  1.00  0.00     0.119 C 
ATOM      8  C   UNL     1      -2.386  -1.477  -8.214  1.00  0.00     0.133 C 
ATOM      9  C   UNL     1      -4.564  -2.000 -10.134  1.00  0.00     0.022 C 
ATOM     10  C   UNL     1      -4.379  -2.944  -8.957  1.00  0.00     0.017 C 
BRANCH   6  11
ATOM     11  C   UNL     1      -2.174   0.632  -9.601  1.00  0.00     0.227 C 
ATOM     12  O   UNL     1      -2.865   1.409 -10.271  1.00  0.00    -0.275 OA
BRANCH  11  13
ATOM     13  C   UNL     1      -0.792   1.111  -9.137  1.00  0.00     0.143 C 
BRANCH  13  14
ATOM     14  C   UNL     1      -0.243   0.685  -7.805  1.00  0.00     0.051 A 
ATOM     15  C   UNL     1       1.350  -0.290  -3.105  1.00  0.00     0.142 A 
ATOM     16  C   UNL     1       1.534  -0.899  -4.344  1.00  0.00     0.096 A 
ATOM     17  C   UNL     1       0.602   0.887  -3.017  1.00  0.00     0.083 A 
ATOM     18  C   UNL     1       0.916  -0.349  -5.469  1.00  0.00     0.142 A 
ATOM     19  C   UNL     1      -0.046   1.393  -4.150  1.00  0.00     0.036 A 
ATOM     20  Cl  UNL     1       0.470   1.794  -1.556  1.00  0.00    -0.080 Cl
ATOM     21  O   UNL     1       1.191  -0.970  -6.695  1.00  0.00    -0.422 OA
ATOM     22  C   UNL     1       0.096   0.775  -5.398  1.00  0.00     0.023 A 
ATOM     23  C   UNL     1       0.728  -0.444  -7.888  1.00  0.00     0.340 A 
ATOM     24  C   UNL     1      -0.559   1.263  -6.625  1.00  0.00    -0.029 A 
ATOM     25  O   UNL     1       1.051  -0.943  -8.960  1.00  0.00    -0.246 OA
ATOM     26  C   UNL     1      -1.586   2.359  -6.477  1.00  0.00     0.046 C 
BRANCH  15  27
ATOM     27  O   UNL     1       1.998  -0.818  -2.019  1.00  0.00    -0.488 OA
BRANCH  27  28
ATOM     28  C   UNL     1       1.223  -1.850  -1.385  1.00  0.00     0.260 C 
BRANCH  28  29
ATOM     29  C   UNL     1       0.501  -1.297  -0.179  1.00  0.00    -0.043 C 
ATOM     30  C   UNL     1       1.159  -0.702   0.831  1.00  0.00     0.011 C 
ATOM     31  C   UNL     1      -0.997  -1.393  -0.194  1.00  0.00     0.042 C 
ENDBRANCH  28  29
ENDBRANCH  27  28
ENDBRANCH  15  27
ENDBRANCH  13  14
ENDBRANCH  11  13
ENDBRANCH   6  11
ENDBRANCH   1   5
BRANCH   3  32
ATOM     32  C   UNL     1      -5.133   0.457  -7.599  1.00  0.00     0.117 C 
BRANCH  32  33
ATOM     33  C   UNL     1      -6.437   0.570  -8.371  1.00  0.00     0.042 C 
BRANCH  33  34
ATOM     34  C   UNL     1      -7.464   1.455  -7.687  1.00  0.00     0.118 C 
BRANCH  34  35
ATOM     35  N   UNL     1      -7.124   2.874  -7.750  1.00  0.00    -0.352 N 
ATOM     36  C   UNL     1      -7.730   3.925  -8.404  1.00  0.00     0.251 C 
ATOM     37  H   UNL     1      -6.322   3.123  -7.235  1.00  0.00     0.163 HD
ATOM     38  O   UNL     1      -7.180   5.018  -8.432  1.00  0.00    -0.269 OA
BRANCH  36  39
ATOM     39  C   UNL     1      -9.023   3.733  -9.101  1.00  0.00     0.039 A 
ATOM     40  C   UNL     1     -10.024   2.937  -8.550  1.00  0.00     0.014 A 
ATOM     41  C   UNL     1      -9.236   4.356 -10.335  1.00  0.00     0.014 A 
ATOM     42  C   UNL     1     -11.121   2.577  -9.320  1.00  0.00     0.010 A 
ATOM     43  C   UNL     1     -10.405   4.093 -11.058  1.00  0.00     0.010 A 
ATOM     44  C   UNL     1     -11.331   3.151 -10.584  1.00  0.00    -0.014 A 
BRANCH  44  45
ATOM     45  C   UNL     1     -12.516   2.737 -11.383  1.00  0.00     0.031 A 
ATOM     46  C   UNL     1     -12.348   2.085 -12.732  1.00  0.00     0.074 A 
ATOM     47  C   UNL     1     -13.749   2.884 -10.859  1.00  0.00     0.049 A 
ATOM     48  N   UNL     1     -13.267   1.675 -13.571  1.00  0.00    -0.248 NA
ATOM     49  C   UNL     1     -10.972   1.869 -13.205  1.00  0.00     0.031 C 
ATOM     50  C   UNL     1     -14.047   3.481  -9.554  1.00  0.00     0.029 A 
ATOM     51  N   UNL     1     -14.979   2.515 -11.339  1.00  0.00    -0.354 N 
ATOM     52  C   UNL     1     -12.584   1.182 -14.677  1.00  0.00     0.074 A 
ATOM     53  C   UNL     1     -11.173   1.365 -14.415  1.00  0.00     0.031 C 
ATOM     54  C   UNL     1     -15.361   3.377  -9.310  1.00  0.00     0.029 A 
ATOM     55  C   UNL     1     -16.010   2.785 -10.472  1.00  0.00     0.049 A 
ATOM     56  H   UNL     1     -15.111   2.098 -12.221  1.00  0.00     0.167 HD
ATOM     57  C   UNL     1     -13.086   0.620 -15.803  1.00  0.00     0.037 A 
ATOM     58  C   UNL     1     -17.336   2.602 -10.606  1.00  0.00     0.037 A 
ATOM     59  C   UNL     1     -14.489   0.412 -16.051  1.00  0.00     0.049 A 
ATOM     60  C   UNL     1     -17.866   2.023 -11.884  1.00  0.00     0.074 A 
ATOM     61  C   UNL     1     -15.097  -0.154 -17.159  1.00  0.00     0.029 A 
ATOM     62  N   UNL     1     -15.505   0.756 -15.172  1.00  0.00    -0.354 N 
ATOM     63  N   UNL     1     -17.206   1.583 -12.928  1.00  0.00    -0.248 NA
ATOM     64  C   UNL     1     -19.326   1.933 -12.010  1.00  0.00     0.031 C 
ATOM     65  C   UNL     1     -16.483  -0.122 -16.964  1.00  0.00     0.029 A 
ATOM     66  C   UNL     1     -16.735   0.427 -15.718  1.00  0.00     0.049 A 
ATOM     67  H   UNL     1     -15.371   1.172 -14.289  1.00  0.00     0.167 HD
ATOM     68  C   UNL     1     -18.170   1.155 -13.830  1.00  0.00     0.074 A 
ATOM     69  C   UNL     1     -19.457   1.364 -13.200  1.00  0.00     0.031 C 
ATOM     70  C   UNL     1     -18.005   0.643 -15.074  1.00  0.00     0.037 A 
BRANCH  57  71
ATOM     71  C   UNL     1     -12.109   0.204 -16.865  1.00  0.00     0.057 A 
ATOM     72  C   UNL     1     -12.016   0.917 -18.068  1.00  0.00     0.134 A 
ATOM     73  C   UNL     1     -11.286  -0.920 -16.717  1.00  0.00     0.134 A 
ATOM     74  F   UNL     1     -12.781   1.999 -18.279  1.00  0.00    -0.206 F 
ATOM     75  C   UNL     1     -11.142   0.526 -19.084  1.00  0.00     0.040 A 
ATOM     76  C   UNL     1     -10.391  -1.307 -17.717  1.00  0.00     0.040 A 
ATOM     77  F   UNL     1     -11.315  -1.639 -15.585  1.00  0.00    -0.206 F 
ATOM     78  C   UNL     1     -10.322  -0.586 -18.907  1.00  0.00     0.006 A 
ENDBRANCH  57  71
BRANCH  58  79
ATOM     79  C   UNL     1     -18.259   3.001  -9.514  1.00  0.00     0.057 A 
ATOM     80  C   UNL     1     -18.454   4.347  -9.180  1.00  0.00     0.134 A 
ATOM     81  C   UNL     1     -18.979   2.045  -8.789  1.00  0.00     0.134 A 
ATOM     82  F   UNL     1     -17.790   5.311  -9.834  1.00  0.00    -0.206 F 
ATOM     83  C   UNL     1     -19.324   4.728  -8.158  1.00  0.00     0.040 A 
ATOM     84  C   UNL     1     -19.875   2.414  -7.784  1.00  0.00     0.040 A 
ATOM     85  F   UNL     1     -18.850   0.742  -9.076  1.00  0.00    -0.206 F 
ATOM     86  C   UNL     1     -20.044   3.760  -7.462  1.00  0.00     0.006 A 
ENDBRANCH  58  79
BRANCH  70  87
ATOM     87  C   UNL     1     -19.249   0.252 -15.812  1.00  0.00     0.057 A 
ATOM     88  C   UNL     1     -19.584  -1.096 -15.983  1.00  0.00     0.134 A 
ATOM     89  C   UNL     1     -20.114   1.211 -16.355  1.00  0.00     0.134 A 
ATOM     90  F   UNL     1     -18.795  -2.062 -15.490  1.00  0.00    -0.206 F 
ATOM     91  C   UNL     1     -20.738  -1.478 -16.667  1.00  0.00     0.040 A 
ATOM     92  C   UNL     1     -21.283   0.842 -17.020  1.00  0.00     0.040 A 
ATOM     93  F   UNL     1     -19.857   2.520 -16.207  1.00  0.00    -0.206 F 
ATOM     94  C   UNL     1     -21.595  -0.507 -17.182  1.00  0.00     0.006 A 
ENDBRANCH  70  87
ENDBRANCH  44  45
ENDBRANCH  36  39
ENDBRANCH  34  35
ENDBRANCH  33  34
ENDBRANCH  32  33
ENDBRANCH   3  32
TORSDOF 16
