REMARK SMILES CC[NH+](CC)C[C@H](C)NC(=O)N[C@H]1C=C[C@@H](C(=O)NCCCNC(=O)c2ccc(-c3c4nc(c(-c5c(F)cccc5F)c5ccc([nH]5)c(-c5c(F)cccc5F)c5nc(c(-c6c(F)cccc6F)c6ccc3[nH]6)C=C5)C=C4)cc2)C1
REMARK SMILES IDX 17 1 18 2 19 3 16 5 13 6 14 7 80 8 15 9 12 10 9 11 10 12
REMARK SMILES IDX 11 14 7 16 8 17 6 18 3 19 2 21 1 22 4 23 5 24 20 25 21 26
REMARK SMILES IDX 22 27 23 28 24 29 25 31 26 32 27 33 79 34 28 35 78 36 29 37
REMARK SMILES IDX 30 38 31 39 72 40 32 41 77 42 71 43 73 44 33 45 76 46 70 47
REMARK SMILES IDX 69 48 34 50 60 51 43 52 59 53 44 54 47 55 58 56 74 57 45 58
REMARK SMILES IDX 46 59 57 61 75 62 48 63 35 64 36 65 41 66 37 67 38 68 40 69
REMARK SMILES IDX 42 70 39 71 61 72 62 73 67 74 63 75 64 76 66 77 68 78 65 79
REMARK SMILES IDX 49 80 50 81 55 82 51 83 52 84 54 85 56 86 53 87
REMARK H PARENT 19 4 9 13 12 15 3 20 23 30 73 49 47 60
REMARK Flexibility Score: inf
ROOT
ATOM      1  C   UNL     1       1.219   0.499   8.479  1.00  0.00     0.227 C 
ATOM      2  O   UNL     1       0.348   1.272   8.890  1.00  0.00    -0.274 OA
ATOM      3  N   UNL     1       2.382   0.442   9.186  1.00  0.00    -0.356 N 
ATOM      4  H   UNL     1       2.420   1.053   9.957  1.00  0.00     0.163 HD
ENDROOT
BRANCH   1   5
ATOM      5  C   UNL     1       0.981  -0.323   7.209  1.00  0.00     0.103 C 
ATOM      6  C   UNL     1       2.508  -1.141   5.478  1.00  0.00     0.107 C 
ATOM      7  C   UNL     1       2.192  -2.199   6.481  1.00  0.00    -0.006 C 
ATOM      8  C   UNL     1       1.854   0.127   6.034  1.00  0.00     0.047 C 
ATOM      9  C   UNL     1       1.299  -1.776   7.382  1.00  0.00    -0.016 C 
BRANCH   6  10
ATOM     10  N   UNL     1       3.924  -0.954   5.313  1.00  0.00    -0.332 N 
ATOM     11  N   UNL     1       4.170  -0.243   3.067  1.00  0.00    -0.330 N 
ATOM     12  C   UNL     1       4.657  -0.501   4.286  1.00  0.00     0.315 C 
ATOM     13  H   UNL     1       4.848   0.153   2.472  1.00  0.00     0.165 HD
ATOM     14  O   UNL     1       5.863  -0.319   4.477  1.00  0.00    -0.249 OA
ATOM     15  H   UNL     1       4.455  -1.206   6.103  1.00  0.00     0.165 HD
BRANCH  11  16
ATOM     16  C   UNL     1       2.881  -0.406   2.402  1.00  0.00     0.135 C 
ATOM     17  C   UNL     1       2.549   0.868   1.616  1.00  0.00     0.037 C 
BRANCH  16  18
ATOM     18  C   UNL     1       2.737  -1.681   1.506  1.00  0.00     0.287 C 
BRANCH  18  19
ATOM     19  N   UNL     1       3.617  -2.842   1.619  1.00  0.00    -0.334 N 
ATOM     20  H   UNL     1       3.282  -3.272   0.756  1.00  0.00     0.348 HD
BRANCH  19  21
ATOM     21  C   UNL     1       5.021  -2.714   1.261  1.00  0.00     0.258 C 
ATOM     22  C   UNL     1       5.254  -2.012  -0.072  1.00  0.00     0.071 C 
ENDBRANCH  19  21
BRANCH  19  23
ATOM     23  C   UNL     1       3.276  -3.887   2.576  1.00  0.00     0.258 C 
ATOM     24  C   UNL     1       4.187  -4.038   3.787  1.00  0.00     0.071 C 
ENDBRANCH  19  23
ENDBRANCH  18  19
ENDBRANCH  16  18
ENDBRANCH  11  16
ENDBRANCH   6  10
ENDBRANCH   1   5
BRANCH   3  25
ATOM     25  C   UNL     1       3.576  -0.363   9.001  1.00  0.00     0.117 C 
BRANCH  25  26
ATOM     26  C   UNL     1       4.798   0.472   8.669  1.00  0.00     0.042 C 
BRANCH  26  27
ATOM     27  C   UNL     1       5.276   1.302   9.845  1.00  0.00     0.118 C 
BRANCH  27  28
ATOM     28  N   UNL     1       5.681   0.474  10.975  1.00  0.00    -0.352 N 
ATOM     29  C   UNL     1       6.890   0.402  11.620  1.00  0.00     0.251 C 
ATOM     30  H   UNL     1       4.983  -0.123  11.329  1.00  0.00     0.163 HD
ATOM     31  O   UNL     1       7.113  -0.506  12.410  1.00  0.00    -0.269 OA
BRANCH  29  32
ATOM     32  C   UNL     1       7.920   1.423  11.347  1.00  0.00     0.039 A 
ATOM     33  C   UNL     1       9.255   1.032  11.230  1.00  0.00     0.014 A 
ATOM     34  C   UNL     1       7.561   2.765  11.205  1.00  0.00     0.014 A 
ATOM     35  C   UNL     1      10.223   1.984  10.911  1.00  0.00     0.010 A 
ATOM     36  C   UNL     1       8.503   3.688  10.780  1.00  0.00     0.010 A 
ATOM     37  C   UNL     1       9.847   3.312  10.650  1.00  0.00    -0.014 A 
BRANCH  37  38
ATOM     38  C   UNL     1      10.842   4.342  10.273  1.00  0.00     0.031 A 
ATOM     39  C   UNL     1      11.045   5.539  11.158  1.00  0.00     0.074 A 
ATOM     40  C   UNL     1      11.497   4.240   9.102  1.00  0.00     0.049 A 
ATOM     41  N   UNL     1      11.799   6.591  10.968  1.00  0.00    -0.248 NA
ATOM     42  C   UNL     1      10.267   5.576  12.407  1.00  0.00     0.031 C 
ATOM     43  C   UNL     1      11.348   3.148   8.139  1.00  0.00     0.029 A 
ATOM     44  N   UNL     1      12.415   5.075   8.521  1.00  0.00    -0.354 N 
ATOM     45  C   UNL     1      11.566   7.421  12.058  1.00  0.00     0.074 A 
ATOM     46  C   UNL     1      10.553   6.783  12.868  1.00  0.00     0.031 C 
ATOM     47  C   UNL     1      12.175   3.361   7.104  1.00  0.00     0.029 A 
ATOM     48  C   UNL     1      12.876   4.624   7.309  1.00  0.00     0.049 A 
ATOM     49  H   UNL     1      12.716   5.917   8.933  1.00  0.00     0.167 HD
ATOM     50  C   UNL     1      12.161   8.596  12.369  1.00  0.00     0.037 A 
ATOM     51  C   UNL     1      13.763   5.173   6.458  1.00  0.00     0.037 A 
ATOM     52  C   UNL     1      13.184   9.212  11.566  1.00  0.00     0.049 A 
ATOM     53  C   UNL     1      14.399   6.487   6.813  1.00  0.00     0.074 A 
ATOM     54  C   UNL     1      13.902  10.366  11.821  1.00  0.00     0.029 A 
ATOM     55  N   UNL     1      13.628   8.724  10.345  1.00  0.00    -0.354 N 
ATOM     56  N   UNL     1      14.227   7.229   7.881  1.00  0.00    -0.248 NA
ATOM     57  C   UNL     1      15.356   7.039   5.845  1.00  0.00     0.031 C 
ATOM     58  C   UNL     1      14.740  10.608  10.726  1.00  0.00     0.029 A 
ATOM     59  C   UNL     1      14.589   9.571   9.818  1.00  0.00     0.049 A 
ATOM     60  H   UNL     1      13.307   7.898   9.917  1.00  0.00     0.167 HD
ATOM     61  C   UNL     1      15.076   8.318   7.730  1.00  0.00     0.074 A 
ATOM     62  C   UNL     1      15.768   8.133   6.470  1.00  0.00     0.031 C 
ATOM     63  C   UNL     1      15.271   9.370   8.563  1.00  0.00     0.037 A 
BRANCH  50  64
ATOM     64  C   UNL     1      11.703   9.287  13.623  1.00  0.00     0.057 A 
ATOM     65  C   UNL     1      11.932   8.747  14.897  1.00  0.00     0.134 A 
ATOM     66  C   UNL     1      11.011  10.502  13.555  1.00  0.00     0.134 A 
ATOM     67  F   UNL     1      12.577   7.578  15.035  1.00  0.00    -0.206 F 
ATOM     68  C   UNL     1      11.448   9.365  16.052  1.00  0.00     0.040 A 
ATOM     69  C   UNL     1      10.553  11.148  14.705  1.00  0.00     0.040 A 
ATOM     70  F   UNL     1      10.763  11.081  12.371  1.00  0.00    -0.206 F 
ATOM     71  C   UNL     1      10.759  10.572  15.957  1.00  0.00     0.006 A 
ENDBRANCH  50  64
BRANCH  51  72
ATOM     72  C   UNL     1      14.134   4.453   5.215  1.00  0.00     0.057 A 
ATOM     73  C   UNL     1      15.399   3.869   5.077  1.00  0.00     0.134 A 
ATOM     74  C   UNL     1      13.236   4.308   4.151  1.00  0.00     0.134 A 
ATOM     75  F   UNL     1      16.307   3.988   6.057  1.00  0.00    -0.206 F 
ATOM     76  C   UNL     1      15.762   3.176   3.922  1.00  0.00     0.040 A 
ATOM     77  C   UNL     1      13.578   3.596   3.000  1.00  0.00     0.040 A 
ATOM     78  F   UNL     1      12.006   4.837   4.225  1.00  0.00    -0.206 F 
ATOM     79  C   UNL     1      14.847   3.032   2.882  1.00  0.00     0.006 A 
ENDBRANCH  51  72
BRANCH  63  80
ATOM     80  C   UNL     1      16.302  10.384   8.161  1.00  0.00     0.057 A 
ATOM     81  C   UNL     1      16.095  11.276   7.101  1.00  0.00     0.134 A 
ATOM     82  C   UNL     1      17.501  10.498   8.876  1.00  0.00     0.134 A 
ATOM     83  F   UNL     1      14.974  11.212   6.367  1.00  0.00    -0.206 F 
ATOM     84  C   UNL     1      17.053  12.229   6.753  1.00  0.00     0.040 A 
ATOM     85  C   UNL     1      18.453  11.466   8.558  1.00  0.00     0.040 A 
ATOM     86  F   UNL     1      17.759   9.681   9.909  1.00  0.00    -0.206 F 
ATOM     87  C   UNL     1      18.233  12.332   7.489  1.00  0.00     0.006 A 
ENDBRANCH  63  80
ENDBRANCH  37  38
ENDBRANCH  29  32
ENDBRANCH  27  28
ENDBRANCH  26  27
ENDBRANCH  25  26
ENDBRANCH   3  25
TORSDOF 16
