REMARK SMILES CCCCCCNC(=O)Oc1cccc(-c2ccc(CC(=O)NCCCNC(=O)c3ccc(-c4c5nc(c(-c6c(F)cccc6F)c6ccc([nH]6)c(-c6c(F)cccc6F)c6nc(c(-c7c(F)cccc7F)c7ccc4[nH]7)C=C6)C=C5)cc3)cc2F)c1
REMARK SMILES IDX 16 1 17 2 18 3 19 4 84 5 85 6 86 7 15 8 11 9 12 10 87 11
REMARK SMILES IDX 13 12 14 13 10 14 8 15 7 16 9 18 6 19 5 20 4 21 3 22 2 23
REMARK SMILES IDX 1 24 20 25 21 26 22 27 23 28 24 30 25 31 26 32 27 33 28 34
REMARK SMILES IDX 29 36 30 37 31 38 83 39 32 40 82 41 33 42 34 43 35 44 76 45
REMARK SMILES IDX 36 46 81 47 75 48 77 49 37 50 80 51 74 52 73 53 38 55 64 56
REMARK SMILES IDX 47 57 63 58 48 59 51 60 62 61 78 62 49 63 50 64 61 66 79 67
REMARK SMILES IDX 52 68 39 69 40 70 45 71 41 72 42 73 44 74 46 75 43 76 65 77
REMARK SMILES IDX 66 78 71 79 67 80 68 81 70 82 72 83 69 84 53 85 54 86 59 87
REMARK SMILES IDX 55 88 56 89 58 90 60 91 57 92
REMARK H PARENT 7 17 23 29 27 35 77 54 51 65
REMARK Flexibility Score: inf
ROOT
ATOM      1  C   UNL     1      -4.934   7.359  -6.729  1.00  0.00     0.018 A 
ATOM      2  C   UNL     1      -4.963   8.667  -7.241  1.00  0.00     0.012 A 
ATOM      3  C   UNL     1      -4.821   8.909  -8.613  1.00  0.00     0.005 A 
ATOM      4  C   UNL     1      -4.651   7.847  -9.511  1.00  0.00    -0.036 A 
ATOM      5  C   UNL     1      -4.588   6.545  -9.005  1.00  0.00     0.044 A 
ATOM      6  C   UNL     1      -4.739   6.312  -7.640  1.00  0.00     0.131 A 
ATOM      7  F   UNL     1      -4.713   5.039  -7.216  1.00  0.00    -0.206 F 
ENDROOT
BRANCH   1   8
ATOM      8  C   UNL     1      -5.081   7.102  -5.288  1.00  0.00    -0.012 A 
ATOM      9  C   UNL     1      -4.266   6.094  -3.235  1.00  0.00     0.133 A 
ATOM     10  C   UNL     1      -5.364   6.576  -2.529  1.00  0.00     0.047 A 
ATOM     11  C   UNL     1      -4.129   6.332  -4.602  1.00  0.00     0.056 A 
ATOM     12  C   UNL     1      -6.319   7.340  -3.195  1.00  0.00     0.004 A 
ATOM     13  C   UNL     1      -6.176   7.605  -4.562  1.00  0.00     0.009 A 
BRANCH   9  14
ATOM     14  O   UNL     1      -3.363   5.271  -2.543  1.00  0.00    -0.410 OA
BRANCH  14  15
ATOM     15  C   UNL     1      -2.015   5.582  -2.632  1.00  0.00     0.412 C 
ATOM     16  N   UNL     1      -1.206   4.676  -2.006  1.00  0.00    -0.321 N 
ATOM     17  H   UNL     1      -0.239   4.854  -2.042  1.00  0.00     0.167 HD
ATOM     18  O   UNL     1      -1.533   6.563  -3.195  1.00  0.00    -0.224 OA
BRANCH  16  19
ATOM     19  C   UNL     1      -1.620   3.483  -1.296  1.00  0.00     0.119 C 
BRANCH  19  20
ATOM     20  C   UNL     1      -1.001   2.219  -1.891  1.00  0.00     0.021 C 
BRANCH  20  21
ATOM     21  C   UNL     1       0.529   2.148  -1.813  1.00  0.00     0.002 C 
BRANCH  21  22
ATOM     22  C   UNL     1       1.127   2.241  -0.405  1.00  0.00    -0.000 C 
BRANCH  22  23
ATOM     23  C   UNL     1       0.651   1.173   0.583  1.00  0.00    -0.003 C 
ATOM     24  C   UNL     1       1.025  -0.241   0.168  1.00  0.00     0.004 C 
ENDBRANCH  22  23
ENDBRANCH  21  22
ENDBRANCH  20  21
ENDBRANCH  19  20
ENDBRANCH  16  19
ENDBRANCH  14  15
ENDBRANCH   9  14
ENDBRANCH   1   8
BRANCH   4  25
ATOM     25  C   UNL     1      -4.534   8.094 -10.994  1.00  0.00     0.135 C 
BRANCH  25  26
ATOM     26  C   UNL     1      -5.718   8.838 -11.588  1.00  0.00     0.224 C 
ATOM     27  O   UNL     1      -5.618  10.007 -11.966  1.00  0.00    -0.275 OA
ATOM     28  N   UNL     1      -6.920   8.208 -11.737  1.00  0.00    -0.356 N 
ATOM     29  H   UNL     1      -7.616   8.730 -12.197  1.00  0.00     0.163 HD
BRANCH  28  30
ATOM     30  C   UNL     1      -7.317   6.878 -11.313  1.00  0.00     0.117 C 
BRANCH  30  31
ATOM     31  C   UNL     1      -8.144   6.902 -10.028  1.00  0.00     0.042 C 
BRANCH  31  32
ATOM     32  C   UNL     1      -9.512   7.565 -10.172  1.00  0.00     0.118 C 
BRANCH  32  33
ATOM     33  N   UNL     1     -10.386   6.854 -11.093  1.00  0.00    -0.352 N 
ATOM     34  C   UNL     1     -11.655   6.362 -10.923  1.00  0.00     0.251 C 
ATOM     35  H   UNL     1     -10.003   6.701 -11.987  1.00  0.00     0.163 HD
ATOM     36  O   UNL     1     -12.138   5.640 -11.792  1.00  0.00    -0.269 OA
BRANCH  34  37
ATOM     37  C   UNL     1     -12.446   6.671  -9.710  1.00  0.00     0.039 A 
ATOM     38  C   UNL     1     -13.243   5.660  -9.161  1.00  0.00     0.014 A 
ATOM     39  C   UNL     1     -12.462   7.949  -9.146  1.00  0.00     0.014 A 
ATOM     40  C   UNL     1     -14.011   5.915  -8.022  1.00  0.00     0.010 A 
ATOM     41  C   UNL     1     -13.179   8.185  -7.972  1.00  0.00     0.010 A 
ATOM     42  C   UNL     1     -13.963   7.172  -7.400  1.00  0.00    -0.014 A 
BRANCH  42  43
ATOM     43  C   UNL     1     -14.727   7.437  -6.154  1.00  0.00     0.031 A 
ATOM     44  C   UNL     1     -15.857   8.429  -6.148  1.00  0.00     0.074 A 
ATOM     45  C   UNL     1     -14.378   6.809  -5.014  1.00  0.00     0.049 A 
ATOM     46  N   UNL     1     -16.602   8.828  -5.147  1.00  0.00    -0.248 NA
ATOM     47  C   UNL     1     -16.181   9.073  -7.431  1.00  0.00     0.031 C 
ATOM     48  C   UNL     1     -13.282   5.847  -4.878  1.00  0.00     0.029 A 
ATOM     49  N   UNL     1     -14.906   6.890  -3.750  1.00  0.00    -0.354 N 
ATOM     50  C   UNL     1     -17.477   9.769  -5.677  1.00  0.00     0.074 A 
ATOM     51  C   UNL     1     -17.137   9.920  -7.075  1.00  0.00     0.031 C 
ATOM     52  C   UNL     1     -13.236   5.409  -3.610  1.00  0.00     0.029 A 
ATOM     53  C   UNL     1     -14.273   6.083  -2.835  1.00  0.00     0.049 A 
ATOM     54  H   UNL     1     -15.667   7.471  -3.520  1.00  0.00     0.167 HD
ATOM     55  C   UNL     1     -18.486  10.430  -5.061  1.00  0.00     0.037 A 
ATOM     56  C   UNL     1     -14.501   5.909  -1.520  1.00  0.00     0.037 A 
ATOM     57  C   UNL     1     -18.837  10.269  -3.674  1.00  0.00     0.049 A 
ATOM     58  C   UNL     1     -15.614   6.672  -0.857  1.00  0.00     0.074 A 
ATOM     59  C   UNL     1     -19.861  10.876  -2.966  1.00  0.00     0.029 A 
ATOM     60  N   UNL     1     -18.176   9.437  -2.784  1.00  0.00    -0.354 N 
ATOM     61  N   UNL     1     -16.459   7.526  -1.382  1.00  0.00    -0.248 NA
ATOM     62  C   UNL     1     -15.808   6.442   0.582  1.00  0.00     0.031 C 
ATOM     63  C   UNL     1     -19.801  10.434  -1.641  1.00  0.00     0.029 A 
ATOM     64  C   UNL     1     -18.764   9.522  -1.532  1.00  0.00     0.049 A 
ATOM     65  H   UNL     1     -17.404   8.870  -3.008  1.00  0.00     0.167 HD
ATOM     66  C   UNL     1     -17.303   7.909  -0.348  1.00  0.00     0.074 A 
ATOM     67  C   UNL     1     -16.876   7.186   0.832  1.00  0.00     0.031 C 
ATOM     68  C   UNL     1     -18.338   8.783  -0.372  1.00  0.00     0.037 A 
BRANCH  55  69
ATOM     69  C   UNL     1     -19.297  11.382  -5.891  1.00  0.00     0.057 A 
ATOM     70  C   UNL     1     -20.200  10.923  -6.860  1.00  0.00     0.134 A 
ATOM     71  C   UNL     1     -19.210  12.765  -5.692  1.00  0.00     0.134 A 
ATOM     72  F   UNL     1     -20.323   9.610  -7.107  1.00  0.00    -0.206 F 
ATOM     73  C   UNL     1     -20.972  11.807  -7.615  1.00  0.00     0.040 A 
ATOM     74  C   UNL     1     -19.995  13.658  -6.424  1.00  0.00     0.040 A 
ATOM     75  F   UNL     1     -18.371  13.271  -4.776  1.00  0.00    -0.206 F 
ATOM     76  C   UNL     1     -20.875  13.180  -7.393  1.00  0.00     0.006 A 
ENDBRANCH  55  69
BRANCH  56  77
ATOM     77  C   UNL     1     -13.675   4.955  -0.737  1.00  0.00     0.057 A 
ATOM     78  C   UNL     1     -14.223   3.763  -0.249  1.00  0.00     0.134 A 
ATOM     79  C   UNL     1     -12.335   5.222  -0.433  1.00  0.00     0.134 A 
ATOM     80  F   UNL     1     -15.508   3.463  -0.491  1.00  0.00    -0.206 F 
ATOM     81  C   UNL     1     -13.477   2.882   0.534  1.00  0.00     0.040 A 
ATOM     82  C   UNL     1     -11.570   4.338   0.328  1.00  0.00     0.040 A 
ATOM     83  F   UNL     1     -11.750   6.345  -0.876  1.00  0.00    -0.206 F 
ATOM     84  C   UNL     1     -12.144   3.168   0.822  1.00  0.00     0.006 A 
ENDBRANCH  56  77
BRANCH  68  85
ATOM     85  C   UNL     1     -19.106   8.968   0.902  1.00  0.00     0.057 A 
ATOM     86  C   UNL     1     -18.578   9.677   1.988  1.00  0.00     0.134 A 
ATOM     87  C   UNL     1     -20.402   8.452   1.034  1.00  0.00     0.134 A 
ATOM     88  F   UNL     1     -17.337  10.184   1.930  1.00  0.00    -0.206 F 
ATOM     89  C   UNL     1     -19.301   9.844   3.170  1.00  0.00     0.040 A 
ATOM     90  C   UNL     1     -21.144   8.633   2.201  1.00  0.00     0.040 A 
ATOM     91  F   UNL     1     -20.969   7.769   0.028  1.00  0.00    -0.206 F 
ATOM     92  C   UNL     1     -20.591   9.326   3.276  1.00  0.00     0.006 A 
ENDBRANCH  68  85
ENDBRANCH  42  43
ENDBRANCH  34  37
ENDBRANCH  32  33
ENDBRANCH  31  32
ENDBRANCH  30  31
ENDBRANCH  28  30
ENDBRANCH  25  26
ENDBRANCH   4  25
TORSDOF 19
