REMARK SMILES O=C(NCCCNC(=O)c1ccccc1-c1ccc(/C=C2/SC(=S)N(Cc3ccccc3)C2=O)o1)c1ccc(-c2c3nc(c(-c4c(F)cccc4F)c4ccc([nH]4)c(-c4c(F)cccc4F)c4nc(c(-c5c(F)cccc5F)c5ccc2[nH]5)C=C4)C=C3)cc1
REMARK SMILES IDX 6 1 5 2 4 3 3 4 1 5 2 6 36 8 37 9 89 10 38 11 88 12 39 13
REMARK SMILES IDX 40 14 41 15 82 16 42 17 87 18 81 19 83 20 43 21 86 22 80 23
REMARK SMILES IDX 79 24 44 26 70 27 53 28 69 29 54 30 57 31 68 32 84 33 55 34
REMARK SMILES IDX 56 35 67 37 85 38 58 39 45 40 46 41 51 42 47 43 48 44 50 45
REMARK SMILES IDX 52 46 49 47 71 48 72 49 77 50 73 51 74 52 76 53 78 54 75 55
REMARK SMILES IDX 59 56 60 57 65 58 61 59 62 60 64 61 66 62 63 63 7 64 8 65
REMARK SMILES IDX 9 67 10 68 11 69 15 70 12 71 14 72 13 73 16 74 17 75 35 76
REMARK SMILES IDX 18 77 19 78 20 79 21 80 22 81 33 82 23 83 25 84 34 85 24 86
REMARK SMILES IDX 26 87 27 88 28 89 32 90 29 91 31 92 30 93
REMARK H PARENT 3 7 83 25 57 36 7 66
REMARK Flexibility Score: inf
ROOT
ATOM      1  C   UNL     1       5.096  -1.354   3.127  1.00  0.00     0.118 C 
ENDROOT
BRANCH   1   2
ATOM      2  C   UNL     1       5.441  -0.480   1.940  1.00  0.00     0.042 C 
BRANCH   2   3
ATOM      3  C   UNL     1       4.780  -0.931   0.645  1.00  0.00     0.118 C 
BRANCH   3   4
ATOM      4  N   UNL     1       3.320  -0.872   0.676  1.00  0.00    -0.352 N 
ATOM      5  O   UNL     1       1.249  -0.052   0.342  1.00  0.00    -0.269 OA
ATOM      6  C   UNL     1       2.440  -0.022   0.048  1.00  0.00     0.251 C 
ATOM      7  H   UNL     1       2.895  -1.556   1.242  1.00  0.00     0.163 HD
BRANCH   6   8
ATOM      8  C   UNL     1       2.933   0.959  -0.944  1.00  0.00     0.039 A 
ATOM      9  C   UNL     1       3.916   0.610  -1.869  1.00  0.00     0.014 A 
ATOM     10  C   UNL     1       2.412   2.255  -0.937  1.00  0.00     0.014 A 
ATOM     11  C   UNL     1       4.534   1.595  -2.627  1.00  0.00     0.010 A 
ATOM     12  C   UNL     1       2.949   3.220  -1.792  1.00  0.00     0.010 A 
ATOM     13  C   UNL     1       4.048   2.909  -2.608  1.00  0.00    -0.014 A 
BRANCH  13  14
ATOM     14  C   UNL     1       4.663   3.937  -3.483  1.00  0.00     0.031 A 
ATOM     15  C   UNL     1       5.298   5.165  -2.897  1.00  0.00     0.074 A 
ATOM     16  C   UNL     1       4.629   3.761  -4.817  1.00  0.00     0.049 A 
ATOM     17  N   UNL     1       5.786   6.214  -3.510  1.00  0.00    -0.248 NA
ATOM     18  C   UNL     1       5.388   5.230  -1.431  1.00  0.00     0.031 C 
ATOM     19  C   UNL     1       4.050   2.602  -5.500  1.00  0.00     0.029 A 
ATOM     20  N   UNL     1       5.079   4.558  -5.838  1.00  0.00    -0.354 N 
ATOM     21  C   UNL     1       6.208   7.078  -2.507  1.00  0.00     0.074 A 
ATOM     22  C   UNL     1       5.901   6.438  -1.245  1.00  0.00     0.031 C 
ATOM     23  C   UNL     1       4.190   2.756  -6.823  1.00  0.00     0.029 A 
ATOM     24  C   UNL     1       4.793   4.057  -7.083  1.00  0.00     0.049 A 
ATOM     25  H   UNL     1       5.559   5.405  -5.692  1.00  0.00     0.167 HD
ATOM     26  C   UNL     1       6.796   8.293  -2.632  1.00  0.00     0.037 A 
ATOM     27  C   UNL     1       4.951   4.601  -8.303  1.00  0.00     0.037 A 
ATOM     28  C   UNL     1       7.101   8.912  -3.897  1.00  0.00     0.049 A 
ATOM     29  C   UNL     1       5.557   5.966  -8.419  1.00  0.00     0.074 A 
ATOM     30  C   UNL     1       7.729  10.122  -4.135  1.00  0.00     0.029 A 
ATOM     31  N   UNL     1       6.788   8.373  -5.137  1.00  0.00    -0.354 N 
ATOM     32  N   UNL     1       5.972   6.765  -7.466  1.00  0.00    -0.248 NA
ATOM     33  C   UNL     1       5.717   6.508  -9.774  1.00  0.00     0.031 C 
ATOM     34  C   UNL     1       7.741  10.343  -5.516  1.00  0.00     0.029 A 
ATOM     35  C   UNL     1       7.182   9.241  -6.144  1.00  0.00     0.049 A 
ATOM     36  H   UNL     1       6.351   7.503  -5.281  1.00  0.00     0.167 HD
ATOM     37  C   UNL     1       6.468   7.893  -8.104  1.00  0.00     0.074 A 
ATOM     38  C   UNL     1       6.301   7.673  -9.527  1.00  0.00     0.031 C 
ATOM     39  C   UNL     1       7.018   9.004  -7.557  1.00  0.00     0.037 A 
BRANCH  26  40
ATOM     40  C   UNL     1       7.103   9.048  -1.369  1.00  0.00     0.057 A 
ATOM     41  C   UNL     1       8.090   8.630  -0.466  1.00  0.00     0.134 A 
ATOM     42  C   UNL     1       6.401  10.220  -1.055  1.00  0.00     0.134 A 
ATOM     43  F   UNL     1       8.795   7.513  -0.698  1.00  0.00    -0.206 F 
ATOM     44  C   UNL     1       8.339   9.327   0.719  1.00  0.00     0.040 A 
ATOM     45  C   UNL     1       6.662  10.941   0.111  1.00  0.00     0.040 A 
ATOM     46  F   UNL     1       5.449  10.686  -1.878  1.00  0.00    -0.206 F 
ATOM     47  C   UNL     1       7.626  10.488   1.009  1.00  0.00     0.006 A 
ENDBRANCH  26  40
BRANCH  27  48
ATOM     48  C   UNL     1       4.496   3.842  -9.493  1.00  0.00     0.057 A 
ATOM     49  C   UNL     1       5.411   3.268 -10.380  1.00  0.00     0.134 A 
ATOM     50  C   UNL     1       3.134   3.616  -9.732  1.00  0.00     0.134 A 
ATOM     51  F   UNL     1       6.728   3.458 -10.208  1.00  0.00    -0.206 F 
ATOM     52  C   UNL     1       4.990   2.494 -11.462  1.00  0.00     0.040 A 
ATOM     53  C   UNL     1       2.699   2.823 -10.793  1.00  0.00     0.040 A 
ATOM     54  F   UNL     1       2.208   4.127  -8.906  1.00  0.00    -0.206 F 
ATOM     55  C   UNL     1       3.630   2.261 -11.665  1.00  0.00     0.006 A 
ENDBRANCH  27  48
BRANCH  39  56
ATOM     56  C   UNL     1       7.532  10.054  -8.497  1.00  0.00     0.057 A 
ATOM     57  C   UNL     1       6.673  10.901  -9.207  1.00  0.00     0.134 A 
ATOM     58  C   UNL     1       8.910  10.265  -8.633  1.00  0.00     0.134 A 
ATOM     59  F   UNL     1       5.343  10.741  -9.133  1.00  0.00    -0.206 F 
ATOM     60  C   UNL     1       7.169  11.919 -10.025  1.00  0.00     0.040 A 
ATOM     61  C   UNL     1       9.416  11.295  -9.426  1.00  0.00     0.040 A 
ATOM     62  F   UNL     1       9.786   9.490  -7.975  1.00  0.00    -0.206 F 
ATOM     63  C   UNL     1       8.544  12.125 -10.126  1.00  0.00     0.006 A 
ENDBRANCH  39  56
ENDBRANCH  13  14
ENDBRANCH   6   8
ENDBRANCH   3   4
ENDBRANCH   2   3
ENDBRANCH   1   2
BRANCH   1  64
ATOM     64  N   UNL     1       5.495  -2.742   2.988  1.00  0.00    -0.352 N 
ATOM     65  C   UNL     1       5.849  -3.634   3.969  1.00  0.00     0.252 C 
ATOM     66  H   UNL     1       5.516  -3.090   2.067  1.00  0.00     0.163 HD
ATOM     67  O   UNL     1       6.093  -4.800   3.669  1.00  0.00    -0.269 OA
BRANCH  65  68
ATOM     68  C   UNL     1       6.007  -3.198   5.374  1.00  0.00     0.050 A 
ATOM     69  C   UNL     1       7.282  -3.388   5.930  1.00  0.00     0.014 A 
ATOM     70  C   UNL     1       4.969  -2.640   6.143  1.00  0.00     0.030 A 
ATOM     71  C   UNL     1       7.543  -2.984   7.237  1.00  0.00     0.001 A 
ATOM     72  C   UNL     1       5.255  -2.224   7.452  1.00  0.00     0.013 A 
ATOM     73  C   UNL     1       6.532  -2.394   7.994  1.00  0.00     0.001 A 
BRANCH  70  74
ATOM     74  C   UNL     1       3.623  -2.475   5.623  1.00  0.00     0.135 A 
ATOM     75  C   UNL     1       2.725  -3.319   5.012  1.00  0.00     0.051 A 
ATOM     76  O   UNL     1       3.159  -1.192   5.591  1.00  0.00    -0.457 OA
ATOM     77  C   UNL     1       1.680  -2.494   4.539  1.00  0.00     0.051 A 
ATOM     78  C   UNL     1       1.966  -1.183   4.912  1.00  0.00     0.128 A 
BRANCH  78  79
ATOM     79  C   UNL     1       1.219  -0.010   4.620  1.00  0.00     0.068 C 
ATOM     80  C   UNL     1       0.015   0.179   5.171  1.00  0.00     0.084 C 
ATOM     81  S   UNL     1      -1.176   1.277   4.601  1.00  0.00    -0.054 SA
ATOM     82  C   UNL     1      -0.576  -0.666   6.232  1.00  0.00     0.266 C 
ATOM     83  C   UNL     1      -2.483   0.316   5.316  1.00  0.00     0.148 C 
ATOM     84  N   UNL     1      -1.947  -0.678   6.104  1.00  0.00    -0.288 N 
ATOM     85  O   UNL     1       0.070  -1.226   7.109  1.00  0.00    -0.268 OA
ATOM     86  S   UNL     1      -4.089   0.652   5.026  1.00  0.00    -0.052 S 
BRANCH  84  87
ATOM     87  C   UNL     1      -2.692  -1.687   6.852  1.00  0.00     0.163 C 
BRANCH  87  88
ATOM     88  C   UNL     1      -2.720  -3.032   6.145  1.00  0.00    -0.028 A 
ATOM     89  C   UNL     1      -3.933  -3.578   5.703  1.00  0.00     0.005 A 
ATOM     90  C   UNL     1      -1.546  -3.783   5.954  1.00  0.00     0.005 A 
ATOM     91  C   UNL     1      -3.966  -4.835   5.090  1.00  0.00     0.000 A 
ATOM     92  C   UNL     1      -1.577  -5.026   5.320  1.00  0.00     0.000 A 
ATOM     93  C   UNL     1      -2.790  -5.555   4.894  1.00  0.00     0.000 A 
ENDBRANCH  87  88
ENDBRANCH  84  87
ENDBRANCH  78  79
ENDBRANCH  70  74
ENDBRANCH  65  68
ENDBRANCH   1  64
TORSDOF 14
