REMARK SMILES CCN(CC(C)(C)O)C(=O)[C@H]1CC=CC[C@H]1C(=O)NCCCNC(=O)c1ccc(-c2c3nc(c(-c4c(F)cccc4F)c4ccc([nH]4)c(-c4c(F)cccc4F)c4nc(c(-c5c(F)cccc5F)c5ccc2[nH]5)C=C4)C=C3)cc1
REMARK SMILES IDX 17 1 18 2 19 3 16 5 11 6 12 7 13 8 15 9 14 10 9 11 10 12
REMARK SMILES IDX 3 13 2 14 1 15 4 16 5 17 6 18 7 19 8 20 20 22 21 23 22 24
REMARK SMILES IDX 23 25 24 26 25 28 26 29 27 30 79 31 28 32 78 33 29 34 30 35
REMARK SMILES IDX 31 36 72 37 32 38 77 39 71 40 73 41 33 42 76 43 70 44 69 45
REMARK SMILES IDX 34 47 60 48 43 49 59 50 44 51 47 52 58 53 74 54 45 55 46 56
REMARK SMILES IDX 57 58 75 59 48 60 35 61 36 62 41 63 37 64 38 65 40 66 42 67
REMARK SMILES IDX 39 68 61 69 62 70 67 71 63 72 64 73 66 74 68 75 65 76 49 77
REMARK SMILES IDX 50 78 55 79 51 80 52 81 54 82 56 83 53 84
REMARK H PARENT 19 4 8 21 23 27 73 46 47 57
REMARK Flexibility Score: inf
ROOT
ATOM      1  C   UNL     1       4.006  -0.195  -4.967  1.00  0.00     0.224 C 
ATOM      2  O   UNL     1       5.018  -0.044  -5.676  1.00  0.00    -0.275 OA
ATOM      3  N   UNL     1       3.475   0.975  -4.569  1.00  0.00    -0.356 N 
ATOM      4  H   UNL     1       3.901   1.747  -5.007  1.00  0.00     0.163 HD
ENDROOT
BRANCH   1   5
ATOM      5  C   UNL     1       3.467  -1.631  -4.814  1.00  0.00     0.095 C 
ATOM      6  C   UNL     1       2.814  -2.292  -3.560  1.00  0.00     0.095 C 
ATOM      7  C   UNL     1       2.356  -3.748  -3.771  1.00  0.00     0.041 C 
ATOM      8  C   UNL     1       1.926  -4.109  -5.158  1.00  0.00    -0.030 C 
ATOM      9  C   UNL     1       2.899  -2.045  -6.194  1.00  0.00     0.041 C 
ATOM     10  C   UNL     1       2.179  -3.360  -6.237  1.00  0.00    -0.030 C 
BRANCH   6  11
ATOM     11  C   UNL     1       2.109  -1.492  -2.444  1.00  0.00     0.226 C 
ATOM     12  O   UNL     1       2.889  -0.949  -1.645  1.00  0.00    -0.275 OA
BRANCH  11  13
ATOM     13  N   UNL     1       0.737  -1.334  -2.263  1.00  0.00    -0.340 N 
BRANCH  13  14
ATOM     14  C   UNL     1       0.258  -0.375  -1.230  1.00  0.00     0.116 C 
ATOM     15  C   UNL     1       0.837  -0.496   0.179  1.00  0.00     0.027 C 
ENDBRANCH  13  14
BRANCH  13  16
ATOM     16  C   UNL     1      -0.359  -1.946  -3.042  1.00  0.00     0.154 C 
BRANCH  16  17
ATOM     17  C   UNL     1      -0.999  -1.091  -4.181  1.00  0.00     0.077 C 
ATOM     18  C   UNL     1      -0.032  -0.875  -5.326  1.00  0.00     0.043 C 
ATOM     19  C   UNL     1      -2.226  -1.832  -4.729  1.00  0.00     0.043 C 
BRANCH  17  20
ATOM     20  O   UNL     1      -1.424   0.183  -3.701  1.00  0.00    -0.389 OA
ATOM     21  H   UNL     1      -0.661   0.668  -3.350  1.00  0.00     0.211 HD
ENDBRANCH  17  20
ENDBRANCH  16  17
ENDBRANCH  13  16
ENDBRANCH  11  13
ENDBRANCH   6  11
ENDBRANCH   1   5
BRANCH   3  22
ATOM     22  C   UNL     1       2.430   1.374  -3.653  1.00  0.00     0.117 C 
BRANCH  22  23
ATOM     23  C   UNL     1       3.004   1.787  -2.301  1.00  0.00     0.042 C 
BRANCH  23  24
ATOM     24  C   UNL     1       3.366   3.257  -2.205  1.00  0.00     0.118 C 
BRANCH  24  25
ATOM     25  N   UNL     1       2.193   4.125  -2.190  1.00  0.00    -0.352 N 
ATOM     26  C   UNL     1       1.496   4.741  -1.178  1.00  0.00     0.251 C 
ATOM     27  H   UNL     1       1.827   4.306  -3.086  1.00  0.00     0.163 HD
ATOM     28  O   UNL     1       0.415   5.257  -1.449  1.00  0.00    -0.269 OA
BRANCH  26  29
ATOM     29  C   UNL     1       1.988   4.790   0.223  1.00  0.00     0.039 A 
ATOM     30  C   UNL     1       1.052   4.875   1.263  1.00  0.00     0.014 A 
ATOM     31  C   UNL     1       3.343   4.822   0.538  1.00  0.00     0.014 A 
ATOM     32  C   UNL     1       1.478   4.926   2.596  1.00  0.00     0.010 A 
ATOM     33  C   UNL     1       3.763   4.732   1.862  1.00  0.00     0.010 A 
ATOM     34  C   UNL     1       2.839   4.810   2.911  1.00  0.00    -0.014 A 
BRANCH  34  35
ATOM     35  C   UNL     1       3.331   4.803   4.316  1.00  0.00     0.031 A 
ATOM     36  C   UNL     1       4.336   5.832   4.771  1.00  0.00     0.074 A 
ATOM     37  C   UNL     1       2.942   3.826   5.159  1.00  0.00     0.049 A 
ATOM     38  N   UNL     1       4.973   5.922   5.913  1.00  0.00    -0.248 NA
ATOM     39  C   UNL     1       4.707   6.875   3.801  1.00  0.00     0.031 C 
ATOM     40  C   UNL     1       2.020   2.737   4.828  1.00  0.00     0.029 A 
ATOM     41  N   UNL     1       3.285   3.581   6.466  1.00  0.00    -0.354 N 
ATOM     42  C   UNL     1       5.835   7.005   5.781  1.00  0.00     0.074 A 
ATOM     43  C   UNL     1       5.688   7.502   4.432  1.00  0.00     0.031 C 
ATOM     44  C   UNL     1       1.849   1.960   5.909  1.00  0.00     0.029 A 
ATOM     45  C   UNL     1       2.686   2.462   6.993  1.00  0.00     0.049 A 
ATOM     46  H   UNL     1       3.902   4.153   6.977  1.00  0.00     0.167 HD
ATOM     47  C   UNL     1       6.657   7.554   6.708  1.00  0.00     0.037 A 
ATOM     48  C   UNL     1       2.808   1.896   8.209  1.00  0.00     0.037 A 
ATOM     49  C   UNL     1       6.769   7.083   8.063  1.00  0.00     0.049 A 
ATOM     50  C   UNL     1       3.719   2.530   9.224  1.00  0.00     0.074 A 
ATOM     51  C   UNL     1       7.512   7.616   9.101  1.00  0.00     0.029 A 
ATOM     52  N   UNL     1       6.119   5.967   8.566  1.00  0.00    -0.354 N 
ATOM     53  N   UNL     1       4.471   3.598   9.108  1.00  0.00    -0.248 NA
ATOM     54  C   UNL     1       3.792   1.885  10.542  1.00  0.00     0.031 C 
ATOM     55  C   UNL     1       7.353   6.791  10.219  1.00  0.00     0.029 A 
ATOM     56  C   UNL     1       6.463   5.779   9.894  1.00  0.00     0.049 A 
ATOM     57  H   UNL     1       5.503   5.392   8.055  1.00  0.00     0.167 HD
ATOM     58  C   UNL     1       5.083   3.768  10.343  1.00  0.00     0.074 A 
ATOM     59  C   UNL     1       4.601   2.704  11.198  1.00  0.00     0.031 C 
ATOM     60  C   UNL     1       5.966   4.720  10.734  1.00  0.00     0.037 A 
BRANCH  47  61
ATOM     61  C   UNL     1       7.493   8.731   6.289  1.00  0.00     0.057 A 
ATOM     62  C   UNL     1       6.927   9.979   5.994  1.00  0.00     0.134 A 
ATOM     63  C   UNL     1       8.889   8.625   6.216  1.00  0.00     0.134 A 
ATOM     64  F   UNL     1       5.596  10.148   6.034  1.00  0.00    -0.206 F 
ATOM     65  C   UNL     1       7.713  11.067   5.610  1.00  0.00     0.040 A 
ATOM     66  C   UNL     1       9.687   9.716   5.865  1.00  0.00     0.040 A 
ATOM     67  F   UNL     1       9.500   7.464   6.493  1.00  0.00    -0.206 F 
ATOM     68  C   UNL     1       9.099  10.939   5.553  1.00  0.00     0.006 A 
ENDBRANCH  47  61
BRANCH  48  69
ATOM     69  C   UNL     1       2.036   0.671   8.541  1.00  0.00     0.057 A 
ATOM     70  C   UNL     1       0.995   0.704   9.477  1.00  0.00     0.134 A 
ATOM     71  C   UNL     1       2.322  -0.562   7.941  1.00  0.00     0.134 A 
ATOM     72  F   UNL     1       0.684   1.850  10.099  1.00  0.00    -0.206 F 
ATOM     73  C   UNL     1       0.282  -0.446   9.822  1.00  0.00     0.040 A 
ATOM     74  C   UNL     1       1.598  -1.714   8.255  1.00  0.00     0.040 A 
ATOM     75  F   UNL     1       3.301  -0.661   7.030  1.00  0.00    -0.206 F 
ATOM     76  C   UNL     1       0.581  -1.659   9.205  1.00  0.00     0.006 A 
ENDBRANCH  48  69
BRANCH  60  77
ATOM     77  C   UNL     1       6.435   4.679  12.160  1.00  0.00     0.057 A 
ATOM     78  C   UNL     1       7.306   3.687  12.627  1.00  0.00     0.134 A 
ATOM     79  C   UNL     1       6.042   5.673  13.065  1.00  0.00     0.134 A 
ATOM     80  F   UNL     1       7.711   2.699  11.814  1.00  0.00    -0.206 F 
ATOM     81  C   UNL     1       7.748   3.670  13.951  1.00  0.00     0.040 A 
ATOM     82  C   UNL     1       6.501   5.684  14.382  1.00  0.00     0.040 A 
ATOM     83  F   UNL     1       5.218   6.659  12.680  1.00  0.00    -0.206 F 
ATOM     84  C   UNL     1       7.351   4.676  14.830  1.00  0.00     0.006 A 
ENDBRANCH  60  77
ENDBRANCH  34  35
ENDBRANCH  26  29
ENDBRANCH  24  25
ENDBRANCH  23  24
ENDBRANCH  22  23
ENDBRANCH   3  22
TORSDOF 16
