REMARK SMILES CCOC(=O)[C@@]1(C)C/C(=N/c2cccc(C(=O)NCCCNC(=O)c3ccc(-c4c5nc(c(-c6c(F)cccc6F)c6ccc([nH]6)c(-c6c(F)cccc6F)c6nc(c(-c7c(F)cccc7F)c7ccc4[nH]7)C=C6)C=C5)cc3)c2)C(=O)N1c1ccccc1
REMARK SMILES IDX 19 1 18 2 16 3 17 4 15 6 11 7 12 8 79 9 13 10 14 11 10 12
REMARK SMILES IDX 6 13 7 14 8 15 82 16 9 17 80 18 81 19 4 20 5 21 3 22 2 23
REMARK SMILES IDX 1 24 83 25 84 26 88 27 85 28 87 29 86 30 20 31 21 32 22 33
REMARK SMILES IDX 23 34 24 36 25 37 26 38 78 39 27 40 77 41 28 42 29 43 30 44
REMARK SMILES IDX 71 45 31 46 76 47 70 48 72 49 32 50 75 51 69 52 68 53 33 55
REMARK SMILES IDX 59 56 42 57 58 58 43 59 46 60 57 61 73 62 44 63 45 64 56 66
REMARK SMILES IDX 74 67 47 68 34 69 35 70 40 71 36 72 37 73 39 74 41 75 38 76
REMARK SMILES IDX 60 77 61 78 66 79 62 80 63 81 65 82 67 83 64 84 48 85 49 86
REMARK SMILES IDX 54 87 50 88 51 89 53 90 55 91 52 92
REMARK H PARENT 18 5 22 35 72 54 46 65
REMARK Flexibility Score: inf
ROOT
ATOM      1  C   UNL     1       1.735  -4.309  -7.839  1.00  0.00     0.118 C 
ENDROOT
BRANCH   1   2
ATOM      2  N   UNL     1       2.532  -4.938  -8.881  1.00  0.00    -0.352 N 
ATOM      3  C   UNL     1       3.838  -5.368  -8.894  1.00  0.00     0.251 C 
ATOM      4  O   UNL     1       4.224  -6.020  -9.863  1.00  0.00    -0.269 OA
ATOM      5  H   UNL     1       2.051  -5.081  -9.728  1.00  0.00     0.163 HD
BRANCH   3   6
ATOM      6  C   UNL     1       4.783  -5.106  -7.779  1.00  0.00     0.041 A 
ATOM      7  C   UNL     1       5.718  -3.694  -6.030  1.00  0.00     0.064 A 
ATOM      8  C   UNL     1       6.641  -4.691  -5.720  1.00  0.00     0.028 A 
ATOM      9  C   UNL     1       4.830  -3.889  -7.097  1.00  0.00     0.042 A 
ATOM     10  C   UNL     1       6.647  -5.890  -6.436  1.00  0.00     0.003 A 
ATOM     11  C   UNL     1       5.715  -6.100  -7.457  1.00  0.00     0.014 A 
BRANCH   7  12
ATOM     12  N   UNL     1       5.699  -2.484  -5.317  1.00  0.00    -0.248 NA
ATOM     13  C   UNL     1       2.913  -0.898  -4.003  1.00  0.00     0.148 C 
ATOM     14  C   UNL     1       2.553  -0.387  -5.416  1.00  0.00     0.048 C 
ATOM     15  C   UNL     1       4.461  -0.934  -3.881  1.00  0.00     0.103 C 
ATOM     16  N   UNL     1       2.514  -2.316  -3.823  1.00  0.00    -0.290 N 
ATOM     17  C   UNL     1       4.720  -2.268  -4.492  1.00  0.00     0.109 C 
ATOM     18  C   UNL     1       3.570  -3.173  -4.127  1.00  0.00     0.273 C 
ATOM     19  O   UNL     1       3.640  -4.384  -4.143  1.00  0.00    -0.267 OA
BRANCH  13  20
ATOM     20  C   UNL     1       2.441   0.149  -2.970  1.00  0.00     0.332 C 
ATOM     21  O   UNL     1       2.625   1.353  -3.118  1.00  0.00    -0.249 OA
BRANCH  20  22
ATOM     22  O   UNL     1       1.830  -0.401  -1.891  1.00  0.00    -0.464 OA
BRANCH  22  23
ATOM     23  C   UNL     1       1.142   0.510  -1.019  1.00  0.00     0.229 C 
ATOM     24  C   UNL     1       1.211  -0.029   0.394  1.00  0.00     0.049 C 
ENDBRANCH  22  23
ENDBRANCH  20  22
ENDBRANCH  13  20
BRANCH  16  25
ATOM     25  C   UNL     1       1.215  -2.784  -3.471  1.00  0.00     0.045 A 
ATOM     26  C   UNL     1       1.058  -4.041  -2.862  1.00  0.00     0.026 A 
ATOM     27  C   UNL     1       0.059  -2.026  -3.692  1.00  0.00     0.026 A 
ATOM     28  C   UNL     1      -0.201  -4.521  -2.488  1.00  0.00     0.002 A 
ATOM     29  C   UNL     1      -1.206  -2.514  -3.339  1.00  0.00     0.002 A 
ATOM     30  C   UNL     1      -1.335  -3.760  -2.733  1.00  0.00     0.000 A 
ENDBRANCH  16  25
ENDBRANCH   7  12
ENDBRANCH   3   6
ENDBRANCH   1   2
BRANCH   1  31
ATOM     31  C   UNL     1       1.513  -2.820  -8.111  1.00  0.00     0.042 C 
BRANCH  31  32
ATOM     32  C   UNL     1       0.551  -2.523  -9.259  1.00  0.00     0.118 C 
BRANCH  32  33
ATOM     33  N   UNL     1      -0.836  -2.540  -8.822  1.00  0.00    -0.352 N 
ATOM     34  C   UNL     1      -1.821  -1.602  -9.011  1.00  0.00     0.251 C 
ATOM     35  H   UNL     1      -1.108  -3.340  -8.317  1.00  0.00     0.163 HD
ATOM     36  O   UNL     1      -2.872  -1.695  -8.381  1.00  0.00    -0.269 OA
BRANCH  34  37
ATOM     37  C   UNL     1      -1.634  -0.467  -9.949  1.00  0.00     0.039 A 
ATOM     38  C   UNL     1      -2.105   0.797  -9.573  1.00  0.00     0.014 A 
ATOM     39  C   UNL     1      -1.075  -0.647 -11.218  1.00  0.00     0.014 A 
ATOM     40  C   UNL     1      -1.979   1.885 -10.444  1.00  0.00     0.010 A 
ATOM     41  C   UNL     1      -0.921   0.445 -12.076  1.00  0.00     0.010 A 
ATOM     42  C   UNL     1      -1.375   1.719 -11.698  1.00  0.00    -0.014 A 
BRANCH  42  43
ATOM     43  C   UNL     1      -1.228   2.857 -12.639  1.00  0.00     0.031 A 
ATOM     44  C   UNL     1      -2.075   2.925 -13.878  1.00  0.00     0.074 A 
ATOM     45  C   UNL     1      -0.294   3.800 -12.418  1.00  0.00     0.049 A 
ATOM     46  N   UNL     1      -1.992   3.750 -14.891  1.00  0.00    -0.248 NA
ATOM     47  C   UNL     1      -3.146   1.925 -13.999  1.00  0.00     0.031 C 
ATOM     48  C   UNL     1       0.605   3.849 -11.264  1.00  0.00     0.029 A 
ATOM     49  N   UNL     1       0.066   4.889 -13.171  1.00  0.00    -0.354 N 
ATOM     50  C   UNL     1      -2.968   3.343 -15.790  1.00  0.00     0.074 A 
ATOM     51  C   UNL     1      -3.641   2.205 -15.197  1.00  0.00     0.031 C 
ATOM     52  C   UNL     1       1.415   4.914 -11.388  1.00  0.00     0.029 A 
ATOM     53  C   UNL     1       1.111   5.603 -12.639  1.00  0.00     0.049 A 
ATOM     54  H   UNL     1      -0.382   5.136 -14.012  1.00  0.00     0.167 HD
ATOM     55  C   UNL     1      -3.272   3.864 -17.002  1.00  0.00     0.037 A 
ATOM     56  C   UNL     1       1.763   6.680 -13.115  1.00  0.00     0.037 A 
ATOM     57  C   UNL     1      -2.641   5.017 -17.584  1.00  0.00     0.049 A 
ATOM     58  C   UNL     1       1.368   7.275 -14.434  1.00  0.00     0.074 A 
ATOM     59  C   UNL     1      -2.903   5.625 -18.800  1.00  0.00     0.029 A 
ATOM     60  N   UNL     1      -1.630   5.748 -16.981  1.00  0.00    -0.354 N 
ATOM     61  N   UNL     1       0.451   6.872 -15.277  1.00  0.00    -0.248 NA
ATOM     62  C   UNL     1       2.102   8.473 -14.869  1.00  0.00     0.031 C 
ATOM     63  C   UNL     1      -2.046   6.725 -18.935  1.00  0.00     0.029 A 
ATOM     64  C   UNL     1      -1.261   6.804 -17.797  1.00  0.00     0.049 A 
ATOM     65  H   UNL     1      -1.234   5.546 -16.103  1.00  0.00     0.167 HD
ATOM     66  C   UNL     1       0.494   7.764 -16.339  1.00  0.00     0.074 A 
ATOM     67  C   UNL     1       1.520   8.739 -16.031  1.00  0.00     0.031 C 
ATOM     68  C   UNL     1      -0.248   7.770 -17.471  1.00  0.00     0.037 A 
BRANCH  55  69
ATOM     69  C   UNL     1      -4.332   3.168 -17.794  1.00  0.00     0.057 A 
ATOM     70  C   UNL     1      -5.691   3.411 -17.571  1.00  0.00     0.134 A 
ATOM     71  C   UNL     1      -3.986   2.268 -18.808  1.00  0.00     0.134 A 
ATOM     72  F   UNL     1      -6.082   4.253 -16.603  1.00  0.00    -0.206 F 
ATOM     73  C   UNL     1      -6.675   2.772 -18.327  1.00  0.00     0.040 A 
ATOM     74  C   UNL     1      -4.959   1.630 -19.577  1.00  0.00     0.040 A 
ATOM     75  F   UNL     1      -2.697   1.995 -19.065  1.00  0.00    -0.206 F 
ATOM     76  C   UNL     1      -6.309   1.881 -19.336  1.00  0.00     0.006 A 
ENDBRANCH  55  69
BRANCH  56  77
ATOM     77  C   UNL     1       2.874   7.266 -12.333  1.00  0.00     0.057 A 
ATOM     78  C   UNL     1       2.675   8.404 -11.545  1.00  0.00     0.134 A 
ATOM     79  C   UNL     1       4.153   6.701 -12.355  1.00  0.00     0.134 A 
ATOM     80  F   UNL     1       1.472   8.994 -11.504  1.00  0.00    -0.206 F 
ATOM     81  C   UNL     1       3.716   8.966 -10.805  1.00  0.00     0.040 A 
ATOM     82  C   UNL     1       5.200   7.246 -11.612  1.00  0.00     0.040 A 
ATOM     83  F   UNL     1       4.398   5.610 -13.095  1.00  0.00    -0.206 F 
ATOM     84  C   UNL     1       4.983   8.384 -10.836  1.00  0.00     0.006 A 
ENDBRANCH  56  77
BRANCH  68  85
ATOM     85  C   UNL     1       0.011   8.872 -18.448  1.00  0.00     0.057 A 
ATOM     86  C   UNL     1       1.039   8.778 -19.392  1.00  0.00     0.134 A 
ATOM     87  C   UNL     1      -0.793  10.017 -18.466  1.00  0.00     0.134 A 
ATOM     88  F   UNL     1       1.847   7.708 -19.414  1.00  0.00    -0.206 F 
ATOM     89  C   UNL     1       1.263   9.794 -20.323  1.00  0.00     0.040 A 
ATOM     90  C   UNL     1      -0.582  11.036 -19.396  1.00  0.00     0.040 A 
ATOM     91  F   UNL     1      -1.791  10.161 -17.582  1.00  0.00    -0.206 F 
ATOM     92  C   UNL     1       0.449  10.925 -20.328  1.00  0.00     0.006 A 
ENDBRANCH  68  85
ENDBRANCH  42  43
ENDBRANCH  34  37
ENDBRANCH  32  33
ENDBRANCH  31  32
ENDBRANCH   1  31
TORSDOF 15
