REMARK SMILES Cc1ccc(Nc2nnc(SCc3nc4sc(C(=O)NCCCNC(=O)c5ccc(-c6c7nc(c(-c8c(F)cccc8F)c8ccc([nH]8)c(-c8c(F)cccc8F)c8nc(c(-c9c(F)cccc9F)c9ccc6[nH]9)C=C8)C=C7)cc5)c(C)c4c(=O)[nH]3)s2)cc1C
REMARK SMILES IDX 18 1 19 2 20 3 17 5 13 6 14 7 86 8 15 9 84 10 16 12 83 13
REMARK SMILES IDX 85 14 81 15 82 16 12 17 11 18 10 19 7 20 8 21 87 22 9 23
REMARK SMILES IDX 6 24 5 26 1 27 2 28 3 29 89 30 4 31 88 32 90 33 21 34 22 35
REMARK SMILES IDX 23 36 24 37 25 38 26 40 27 41 28 42 80 43 29 44 79 45 30 46
REMARK SMILES IDX 31 47 32 48 73 49 33 50 78 51 72 52 74 53 34 54 77 55 71 56
REMARK SMILES IDX 70 57 35 59 61 60 44 61 60 62 45 63 48 64 59 65 75 66 46 67
REMARK SMILES IDX 47 68 58 70 76 71 49 72 36 73 37 74 42 75 38 76 39 77 41 78
REMARK SMILES IDX 43 79 40 80 62 81 63 82 68 83 64 84 65 85 67 86 69 87 66 88
REMARK SMILES IDX 50 89 51 90 56 91 52 92 53 93 55 94 57 95 54 96
REMARK H PARENT 20 4 86 11 6 25 24 39 74 58 48 69
REMARK Flexibility Score: inf
ROOT
ATOM      1  C   UNL     1       5.387  -5.711   1.750  1.00  0.00     0.261 C 
ATOM      2  O   UNL     1       5.969  -6.784   1.954  1.00  0.00    -0.268 OA
ATOM      3  N   UNL     1       6.243  -4.689   1.424  1.00  0.00    -0.351 N 
ATOM      4  H   UNL     1       7.193  -4.942   1.468  1.00  0.00     0.163 HD
ENDROOT
BRANCH   1   5
ATOM      5  C   UNL     1       3.925  -5.576   1.830  1.00  0.00     0.098 A 
ATOM      6  C   UNL     1      -0.670  -6.438   2.145  1.00  0.00     0.121 A 
ATOM      7  N   UNL     1       0.391  -7.091   1.774  1.00  0.00    -0.223 NA
ATOM      8  N   UNL     1      -0.649  -5.130   2.567  1.00  0.00    -0.309 N 
ATOM      9  C   UNL     1       1.547  -6.370   1.834  1.00  0.00     0.132 A 
ATOM     10  C   UNL     1       0.453  -4.327   2.496  1.00  0.00     0.259 A 
ATOM     11  H   UNL     1      -1.476  -4.751   2.942  1.00  0.00     0.171 HD
ATOM     12  S   UNL     1       3.059  -7.056   1.505  1.00  0.00    -0.110 S 
ATOM     13  C   UNL     1       1.668  -5.043   2.163  1.00  0.00     0.080 A 
ATOM     14  O   UNL     1       0.349  -3.128   2.677  1.00  0.00    -0.269 OA
ATOM     15  C   UNL     1       3.024  -4.564   2.176  1.00  0.00    -0.012 A 
ATOM     16  C   UNL     1       3.300  -3.168   2.599  1.00  0.00     0.047 C 
BRANCH   6  17
ATOM     17  C   UNL     1      -2.047  -7.054   2.149  1.00  0.00     0.152 C 
BRANCH  17  18
ATOM     18  S   UNL     1      -2.837  -6.954   0.527  1.00  0.00    -0.085 SA
BRANCH  18  19
ATOM     19  C   UNL     1      -3.104  -5.261   0.152  1.00  0.00     0.176 A 
ATOM     20  C   UNL     1      -3.251  -2.888  -0.148  1.00  0.00     0.210 A 
ATOM     21  N   UNL     1      -3.520  -3.555  -1.250  1.00  0.00    -0.119 NA
ATOM     22  S   UNL     1      -3.106  -3.924   1.226  1.00  0.00    -0.068 S 
ATOM     23  N   UNL     1      -3.393  -4.921  -1.086  1.00  0.00    -0.130 NA
BRANCH  20  24
ATOM     24  N   UNL     1      -3.170  -1.537  -0.060  1.00  0.00    -0.330 N 
ATOM     25  H   UNL     1      -4.010  -1.028   0.016  1.00  0.00     0.169 HD
BRANCH  24  26
ATOM     26  C   UNL     1      -1.950  -0.809  -0.071  1.00  0.00     0.041 A 
ATOM     27  C   UNL     1       1.681   1.585  -0.084  1.00  0.00     0.044 C 
ATOM     28  C   UNL     1       0.442   0.732  -0.083  1.00  0.00    -0.048 A 
ATOM     29  C   UNL     1      -0.812   1.343   0.051  1.00  0.00     0.006 A 
ATOM     30  C   UNL     1       0.502  -0.668  -0.189  1.00  0.00    -0.046 A 
ATOM     31  C   UNL     1      -1.989   0.584   0.060  1.00  0.00     0.026 A 
ATOM     32  C   UNL     1      -0.693  -1.417  -0.173  1.00  0.00     0.029 A 
ATOM     33  C   UNL     1       1.792  -1.414  -0.393  1.00  0.00     0.044 C 
ENDBRANCH  24  26
ENDBRANCH  20  24
ENDBRANCH  18  19
ENDBRANCH  17  18
ENDBRANCH   6  17
ENDBRANCH   1   5
BRANCH   3  34
ATOM     34  C   UNL     1       6.029  -3.316   1.028  1.00  0.00     0.118 C 
BRANCH  34  35
ATOM     35  C   UNL     1       6.102  -2.378   2.239  1.00  0.00     0.042 C 
BRANCH  35  36
ATOM     36  C   UNL     1       7.394  -1.625   2.323  1.00  0.00     0.118 C 
BRANCH  36  37
ATOM     37  N   UNL     1       7.485  -0.613   1.269  1.00  0.00    -0.352 N 
ATOM     38  C   UNL     1       8.462   0.348   1.118  1.00  0.00     0.251 C 
ATOM     39  H   UNL     1       6.770  -0.620   0.593  1.00  0.00     0.163 HD
ATOM     40  O   UNL     1       8.287   1.337   0.420  1.00  0.00    -0.269 OA
BRANCH  38  41
ATOM     41  C   UNL     1       9.731   0.123   1.817  1.00  0.00     0.039 A 
ATOM     42  C   UNL     1      10.437   1.150   2.446  1.00  0.00     0.014 A 
ATOM     43  C   UNL     1      10.170  -1.196   1.869  1.00  0.00     0.014 A 
ATOM     44  C   UNL     1      11.592   0.814   3.139  1.00  0.00     0.010 A 
ATOM     45  C   UNL     1      11.112  -1.551   2.777  1.00  0.00     0.010 A 
ATOM     46  C   UNL     1      11.913  -0.542   3.279  1.00  0.00    -0.014 A 
BRANCH  46  47
ATOM     47  C   UNL     1      13.103  -1.009   3.950  1.00  0.00     0.031 A 
ATOM     48  C   UNL     1      13.064  -0.823   5.415  1.00  0.00     0.074 A 
ATOM     49  C   UNL     1      13.982  -1.798   3.293  1.00  0.00     0.049 A 
ATOM     50  N   UNL     1      13.690   0.070   6.104  1.00  0.00    -0.248 NA
ATOM     51  C   UNL     1      12.044  -1.558   6.182  1.00  0.00     0.031 C 
ATOM     52  C   UNL     1      13.903  -2.337   1.927  1.00  0.00     0.029 A 
ATOM     53  N   UNL     1      15.111  -2.374   3.774  1.00  0.00    -0.354 N 
ATOM     54  C   UNL     1      13.343  -0.175   7.430  1.00  0.00     0.074 A 
ATOM     55  C   UNL     1      12.149  -0.971   7.376  1.00  0.00     0.031 C 
ATOM     56  C   UNL     1      14.812  -3.326   1.774  1.00  0.00     0.029 A 
ATOM     57  C   UNL     1      15.637  -3.380   2.963  1.00  0.00     0.049 A 
ATOM     58  H   UNL     1      15.526  -2.106   4.625  1.00  0.00     0.167 HD
ATOM     59  C   UNL     1      14.251   0.024   8.427  1.00  0.00     0.037 A 
ATOM     60  C   UNL     1      16.652  -4.209   3.315  1.00  0.00     0.037 A 
ATOM     61  C   UNL     1      15.379   0.784   7.927  1.00  0.00     0.049 A 
ATOM     62  C   UNL     1      17.356  -3.557   4.457  1.00  0.00     0.074 A 
ATOM     63  C   UNL     1      15.538   2.028   7.349  1.00  0.00     0.029 A 
ATOM     64  N   UNL     1      16.516   0.076   7.607  1.00  0.00    -0.354 N 
ATOM     65  N   UNL     1      18.015  -2.433   4.342  1.00  0.00    -0.248 NA
ATOM     66  C   UNL     1      16.866  -3.857   5.797  1.00  0.00     0.031 C 
ATOM     67  C   UNL     1      16.507   1.833   6.319  1.00  0.00     0.029 A 
ATOM     68  C   UNL     1      16.954   0.512   6.386  1.00  0.00     0.049 A 
ATOM     69  H   UNL     1      16.939  -0.620   8.160  1.00  0.00     0.167 HD
ATOM     70  C   UNL     1      17.665  -1.694   5.467  1.00  0.00     0.074 A 
ATOM     71  C   UNL     1      16.992  -2.647   6.352  1.00  0.00     0.031 C 
ATOM     72  C   UNL     1      17.665  -0.327   5.447  1.00  0.00     0.037 A 
BRANCH  59  73
ATOM     73  C   UNL     1      14.379  -0.835   9.673  1.00  0.00     0.057 A 
ATOM     74  C   UNL     1      13.768  -2.087   9.879  1.00  0.00     0.134 A 
ATOM     75  C   UNL     1      15.430  -0.541  10.565  1.00  0.00     0.134 A 
ATOM     76  F   UNL     1      12.725  -2.523   9.168  1.00  0.00    -0.206 F 
ATOM     77  C   UNL     1      14.251  -3.024  10.797  1.00  0.00     0.040 A 
ATOM     78  C   UNL     1      15.947  -1.486  11.458  1.00  0.00     0.040 A 
ATOM     79  F   UNL     1      16.059   0.643  10.526  1.00  0.00    -0.206 F 
ATOM     80  C   UNL     1      15.375  -2.746  11.554  1.00  0.00     0.006 A 
ENDBRANCH  59  73
BRANCH  60  81
ATOM     81  C   UNL     1      16.830  -5.636   2.964  1.00  0.00     0.057 A 
ATOM     82  C   UNL     1      15.724  -6.474   2.728  1.00  0.00     0.134 A 
ATOM     83  C   UNL     1      18.067  -6.282   3.104  1.00  0.00     0.134 A 
ATOM     84  F   UNL     1      14.482  -5.973   2.660  1.00  0.00    -0.206 F 
ATOM     85  C   UNL     1      15.837  -7.866   2.643  1.00  0.00     0.040 A 
ATOM     86  C   UNL     1      18.194  -7.677   3.023  1.00  0.00     0.040 A 
ATOM     87  F   UNL     1      19.173  -5.576   3.379  1.00  0.00    -0.206 F 
ATOM     88  C   UNL     1      17.075  -8.475   2.801  1.00  0.00     0.006 A 
ENDBRANCH  60  81
BRANCH  72  89
ATOM     89  C   UNL     1      18.250   0.369   4.249  1.00  0.00     0.057 A 
ATOM     90  C   UNL     1      19.299   1.271   4.449  1.00  0.00     0.134 A 
ATOM     91  C   UNL     1      17.692   0.326   2.961  1.00  0.00     0.134 A 
ATOM     92  F   UNL     1      19.841   1.412   5.669  1.00  0.00    -0.206 F 
ATOM     93  C   UNL     1      19.771   2.094   3.425  1.00  0.00     0.040 A 
ATOM     94  C   UNL     1      18.175   1.122   1.917  1.00  0.00     0.040 A 
ATOM     95  F   UNL     1      16.623  -0.432   2.695  1.00  0.00    -0.206 F 
ATOM     96  C   UNL     1      19.214   2.017   2.151  1.00  0.00     0.006 A 
ENDBRANCH  72  89
ENDBRANCH  46  47
ENDBRANCH  38  41
ENDBRANCH  36  37
ENDBRANCH  35  36
ENDBRANCH  34  35
ENDBRANCH   3  34
TORSDOF 15
