REMARK SMILES Cc1nccn1CCC[NH+]1CCC2(CC1)[C@@H](C(=O)NCCCNC(=O)c1ccc(-c3c4nc(c(-c5c(F)cccc5F)c5ccc([nH]5)c(-c5c(F)cccc5F)c5nc(c(-c6c(F)cccc6F)c6ccc3[nH]6)C=C5)C=C4)cc1)CC(=O)N2C
REMARK SMILES IDX 20 1 19 2 17 3 18 4 16 6 10 7 11 8 15 9 12 11 14 12 13 13
REMARK SMILES IDX 83 14 80 15 81 16 84 17 82 18 9 19 8 20 7 21 6 22 1 23 2 24
REMARK SMILES IDX 3 25 4 26 5 27 21 28 22 29 23 30 24 31 25 33 26 34 27 35
REMARK SMILES IDX 79 36 28 37 78 38 29 39 30 40 31 41 72 42 32 43 77 44 71 45
REMARK SMILES IDX 73 46 33 47 76 48 70 49 69 50 34 52 60 53 43 54 59 55 44 56
REMARK SMILES IDX 47 57 58 58 74 59 45 60 46 61 57 63 75 64 48 65 35 66 36 67
REMARK SMILES IDX 41 68 37 69 38 70 40 71 42 72 39 73 61 74 62 75 67 76 63 77
REMARK SMILES IDX 64 78 66 79 68 80 65 81 49 82 50 83 55 84 51 85 52 86 54 87
REMARK SMILES IDX 56 88 53 89
REMARK H PARENT 19 5 10 10 23 32 73 51 47 62
REMARK Flexibility Score: inf
ROOT
ATOM      1  C   UNL     1      -1.371   3.049   4.140  1.00  0.00     0.117 C 
ENDROOT
BRANCH   1   2
ATOM      2  N   UNL     1      -1.710   2.585   2.801  1.00  0.00    -0.356 N 
ATOM      3  C   UNL     1      -2.020   1.388   2.243  1.00  0.00     0.226 C 
ATOM      4  O   UNL     1      -2.071   1.434   1.007  1.00  0.00    -0.275 OA
ATOM      5  H   UNL     1      -1.716   3.317   2.143  1.00  0.00     0.163 HD
BRANCH   3   6
ATOM      6  C   UNL     1      -2.131   0.044   2.995  1.00  0.00     0.114 C 
ATOM      7  N   UNL     1      -4.141  -2.618   0.225  1.00  0.00    -0.335 N 
ATOM      8  C   UNL     1      -3.411  -3.267   1.291  1.00  0.00     0.264 C 
ATOM      9  C   UNL     1      -4.981  -1.513   0.630  1.00  0.00     0.264 C 
ATOM     10  H   UNL     1      -4.866  -3.300   0.006  1.00  0.00     0.348 HD
ATOM     11  C   UNL     1      -2.549  -2.305   2.096  1.00  0.00     0.091 C 
ATOM     12  C   UNL     1      -4.245  -0.465   1.467  1.00  0.00     0.091 C 
ATOM     13  C   UNL     1      -3.264  -0.997   2.546  1.00  0.00     0.065 C 
ATOM     14  N   UNL     1      -3.943  -1.297   3.832  1.00  0.00    -0.339 N 
ATOM     15  C   UNL     1      -2.273   0.145   4.505  1.00  0.00     0.116 C 
ATOM     16  C   UNL     1      -3.234  -0.893   4.941  1.00  0.00     0.223 C 
ATOM     17  C   UNL     1      -5.164  -2.048   4.021  1.00  0.00     0.147 C 
ATOM     18  O   UNL     1      -3.434  -1.201   6.103  1.00  0.00    -0.275 OA
BRANCH   7  19
ATOM     19  C   UNL     1      -3.616  -2.686  -1.126  1.00  0.00     0.264 C 
BRANCH  19  20
ATOM     20  C   UNL     1      -2.756  -1.561  -1.722  1.00  0.00     0.083 C 
BRANCH  20  21
ATOM     21  C   UNL     1      -1.504  -1.061  -1.001  1.00  0.00     0.129 C 
BRANCH  21  22
ATOM     22  N   UNL     1      -0.353  -1.912  -0.780  1.00  0.00    -0.335 N 
ATOM     23  C   UNL     1       1.218  -0.015  -0.149  1.00  0.00     0.087 C 
ATOM     24  C   UNL     1       0.874  -1.451  -0.324  1.00  0.00     0.105 A 
ATOM     25  N   UNL     1       1.675  -2.457  -0.036  1.00  0.00    -0.242 NA
ATOM     26  C   UNL     1       0.970  -3.588  -0.327  1.00  0.00     0.131 A 
ATOM     27  C   UNL     1      -0.277  -3.274  -0.811  1.00  0.00     0.107 A 
ENDBRANCH  21  22
ENDBRANCH  20  21
ENDBRANCH  19  20
ENDBRANCH   7  19
ENDBRANCH   3   6
ENDBRANCH   1   2
BRANCH   1  28
ATOM     28  C   UNL     1      -0.015   3.740   4.214  1.00  0.00     0.042 C 
BRANCH  28  29
ATOM     29  C   UNL     1      -0.026   5.139   3.635  1.00  0.00     0.118 C 
BRANCH  29  30
ATOM     30  N   UNL     1      -0.893   6.061   4.366  1.00  0.00    -0.352 N 
ATOM     31  C   UNL     1      -1.144   7.390   4.068  1.00  0.00     0.251 C 
ATOM     32  H   UNL     1      -1.349   5.697   5.159  1.00  0.00     0.163 HD
ATOM     33  O   UNL     1      -1.688   8.136   4.855  1.00  0.00    -0.269 OA
BRANCH  31  34
ATOM     34  C   UNL     1      -0.682   7.873   2.755  1.00  0.00     0.039 A 
ATOM     35  C   UNL     1       0.238   8.917   2.678  1.00  0.00     0.014 A 
ATOM     36  C   UNL     1      -1.038   7.133   1.632  1.00  0.00     0.014 A 
ATOM     37  C   UNL     1       0.893   9.142   1.469  1.00  0.00     0.010 A 
ATOM     38  C   UNL     1      -0.287   7.267   0.485  1.00  0.00     0.010 A 
ATOM     39  C   UNL     1       0.662   8.286   0.380  1.00  0.00    -0.014 A 
BRANCH  39  40
ATOM     40  C   UNL     1       1.482   8.403  -0.830  1.00  0.00     0.031 A 
ATOM     41  C   UNL     1       2.968   8.472  -0.650  1.00  0.00     0.074 A 
ATOM     42  C   UNL     1       0.995   8.248  -2.079  1.00  0.00     0.049 A 
ATOM     43  N   UNL     1       3.770   9.428  -0.996  1.00  0.00    -0.248 NA
ATOM     44  C   UNL     1       3.640   7.352   0.026  1.00  0.00     0.031 C 
ATOM     45  C   UNL     1      -0.354   7.862  -2.509  1.00  0.00     0.029 A 
ATOM     46  N   UNL     1       1.678   8.309  -3.255  1.00  0.00    -0.354 N 
ATOM     47  C   UNL     1       5.065   8.979  -0.730  1.00  0.00     0.074 A 
ATOM     48  C   UNL     1       4.918   7.739  -0.008  1.00  0.00     0.031 C 
ATOM     49  C   UNL     1      -0.326   7.496  -3.808  1.00  0.00     0.029 A 
ATOM     50  C   UNL     1       0.986   7.806  -4.343  1.00  0.00     0.049 A 
ATOM     51  H   UNL     1       2.588   8.680  -3.326  1.00  0.00     0.167 HD
ATOM     52  C   UNL     1       6.169   9.576  -1.265  1.00  0.00     0.037 A 
ATOM     53  C   UNL     1       1.454   7.644  -5.600  1.00  0.00     0.037 A 
ATOM     54  C   UNL     1       5.871  10.888  -1.776  1.00  0.00     0.049 A 
ATOM     55  C   UNL     1       2.625   8.539  -5.757  1.00  0.00     0.074 A 
ATOM     56  C   UNL     1       5.364  12.054  -1.234  1.00  0.00     0.029 A 
ATOM     57  N   UNL     1       5.784  11.059  -3.136  1.00  0.00    -0.354 N 
ATOM     58  N   UNL     1       2.551   9.840  -5.784  1.00  0.00    -0.248 NA
ATOM     59  C   UNL     1       3.943   7.993  -5.476  1.00  0.00     0.031 C 
ATOM     60  C   UNL     1       4.525  12.595  -2.255  1.00  0.00     0.029 A 
ATOM     61  C   UNL     1       4.618  11.745  -3.357  1.00  0.00     0.049 A 
ATOM     62  H   UNL     1       6.428  10.750  -3.814  1.00  0.00     0.167 HD
ATOM     63  C   UNL     1       3.689  10.273  -5.120  1.00  0.00     0.074 A 
ATOM     64  C   UNL     1       4.557   9.100  -5.053  1.00  0.00     0.031 C 
ATOM     65  C   UNL     1       3.712  11.460  -4.444  1.00  0.00     0.037 A 
BRANCH  52  66
ATOM     66  C   UNL     1       7.462   8.873  -1.600  1.00  0.00     0.057 A 
ATOM     67  C   UNL     1       8.600   9.626  -1.951  1.00  0.00     0.134 A 
ATOM     68  C   UNL     1       7.555   7.493  -1.867  1.00  0.00     0.134 A 
ATOM     69  F   UNL     1       8.630  10.955  -1.770  1.00  0.00    -0.206 F 
ATOM     70  C   UNL     1       9.718   9.057  -2.576  1.00  0.00     0.040 A 
ATOM     71  C   UNL     1       8.687   6.907  -2.444  1.00  0.00     0.040 A 
ATOM     72  F   UNL     1       6.522   6.663  -1.677  1.00  0.00    -0.206 F 
ATOM     73  C   UNL     1       9.762   7.692  -2.829  1.00  0.00     0.006 A 
ENDBRANCH  52  66
BRANCH  53  74
ATOM     74  C   UNL     1       1.084   6.618  -6.593  1.00  0.00     0.057 A 
ATOM     75  C   UNL     1       1.386   6.783  -7.950  1.00  0.00     0.134 A 
ATOM     76  C   UNL     1       0.660   5.335  -6.201  1.00  0.00     0.134 A 
ATOM     77  F   UNL     1       1.829   7.961  -8.411  1.00  0.00    -0.206 F 
ATOM     78  C   UNL     1       1.299   5.725  -8.863  1.00  0.00     0.040 A 
ATOM     79  C   UNL     1       0.560   4.273  -7.104  1.00  0.00     0.040 A 
ATOM     80  F   UNL     1       0.411   5.049  -4.914  1.00  0.00    -0.206 F 
ATOM     81  C   UNL     1       0.897   4.462  -8.438  1.00  0.00     0.006 A 
ENDBRANCH  53  74
BRANCH  65  82
ATOM     82  C   UNL     1       2.558  12.407  -4.629  1.00  0.00     0.057 A 
ATOM     83  C   UNL     1       1.238  12.109  -4.260  1.00  0.00     0.134 A 
ATOM     84  C   UNL     1       2.816  13.719  -5.041  1.00  0.00     0.134 A 
ATOM     85  F   UNL     1       0.912  10.916  -3.750  1.00  0.00    -0.206 F 
ATOM     86  C   UNL     1       0.214  13.058  -4.343  1.00  0.00     0.040 A 
ATOM     87  C   UNL     1       1.809  14.686  -5.098  1.00  0.00     0.040 A 
ATOM     88  F   UNL     1       4.067  14.098  -5.349  1.00  0.00    -0.206 F 
ATOM     89  C   UNL     1       0.500  14.354  -4.758  1.00  0.00     0.006 A 
ENDBRANCH  65  82
ENDBRANCH  39  40
ENDBRANCH  31  34
ENDBRANCH  29  30
ENDBRANCH  28  29
ENDBRANCH   1  28
TORSDOF 14
