REMARK SMILES O=C(NCCCNC(=O)[C@H]1CCCN(c2cc(-c3ccccn3)nc(-c3ccccc3F)n2)C1)c1ccc(-c2c3nc(c(-c4c(F)cccc4F)c4ccc([nH]4)c(-c4c(F)cccc4F)c4nc(c(-c5c(F)cccc5F)c5ccc2[nH]5)C=C4)C=C3)cc1
REMARK SMILES IDX 5 1 4 2 3 3 1 4 2 5 35 7 36 8 88 9 37 10 87 11 38 12 39 13
REMARK SMILES IDX 40 14 81 15 41 16 86 17 80 18 82 19 42 20 85 21 79 22 78 23
REMARK SMILES IDX 43 25 69 26 52 27 68 28 53 29 56 30 67 31 83 32 54 33 55 34
REMARK SMILES IDX 66 36 84 37 57 38 44 39 45 40 50 41 46 42 47 43 49 44 51 45
REMARK SMILES IDX 48 46 70 47 71 48 76 49 72 50 73 51 75 52 77 53 74 54 58 55
REMARK SMILES IDX 59 56 64 57 60 58 61 59 63 60 65 61 62 62 6 63 7 64 8 65
REMARK SMILES IDX 9 67 10 68 11 69 34 70 12 71 14 72 13 73 15 74 16 75 33 76
REMARK SMILES IDX 17 77 25 78 24 79 18 80 19 81 23 82 20 83 22 84 21 85 26 86
REMARK SMILES IDX 27 87 31 88 28 89 30 90 32 91 29 92
REMARK H PARENT 3 6 82 24 56 35 7 66
REMARK Flexibility Score: inf
ROOT
ATOM      1  C   UNL     1       5.611   2.351  -0.155  1.00  0.00     0.042 C 
ENDROOT
BRANCH   1   2
ATOM      2  C   UNL     1       5.316   1.104  -0.984  1.00  0.00     0.118 C 
BRANCH   2   3
ATOM      3  N   UNL     1       6.384   0.115  -0.905  1.00  0.00    -0.352 N 
ATOM      4  O   UNL     1       7.431  -1.766  -0.249  1.00  0.00    -0.269 OA
ATOM      5  C   UNL     1       6.372  -1.161  -0.402  1.00  0.00     0.251 C 
ATOM      6  H   UNL     1       7.250   0.409  -1.270  1.00  0.00     0.163 HD
BRANCH   5   7
ATOM      7  C   UNL     1       5.096  -1.807  -0.032  1.00  0.00     0.039 A 
ATOM      8  C   UNL     1       3.972  -1.688  -0.852  1.00  0.00     0.014 A 
ATOM      9  C   UNL     1       5.034  -2.578   1.133  1.00  0.00     0.014 A 
ATOM     10  C   UNL     1       2.755  -2.215  -0.438  1.00  0.00     0.010 A 
ATOM     11  C   UNL     1       3.831  -3.186   1.501  1.00  0.00     0.010 A 
ATOM     12  C   UNL     1       2.675  -2.989   0.731  1.00  0.00    -0.014 A 
BRANCH  12  13
ATOM     13  C   UNL     1       1.390  -3.643   1.081  1.00  0.00     0.031 A 
ATOM     14  C   UNL     1       0.642  -3.276   2.331  1.00  0.00     0.074 A 
ATOM     15  C   UNL     1       0.885  -4.562   0.234  1.00  0.00     0.049 A 
ATOM     16  N   UNL     1      -0.495  -3.749   2.775  1.00  0.00    -0.248 NA
ATOM     17  C   UNL     1       1.245  -2.253   3.200  1.00  0.00     0.031 C 
ATOM     18  C   UNL     1       1.526  -5.001  -1.008  1.00  0.00     0.029 A 
ATOM     19  N   UNL     1      -0.283  -5.278   0.274  1.00  0.00    -0.354 N 
ATOM     20  C   UNL     1      -0.740  -3.092   3.974  1.00  0.00     0.074 A 
ATOM     21  C   UNL     1       0.382  -2.208   4.206  1.00  0.00     0.031 C 
ATOM     22  C   UNL     1       0.722  -5.871  -1.635  1.00  0.00     0.029 A 
ATOM     23  C   UNL     1      -0.456  -6.105  -0.809  1.00  0.00     0.049 A 
ATOM     24  H   UNL     1      -0.936  -5.207   1.008  1.00  0.00     0.167 HD
ATOM     25  C   UNL     1      -1.810  -3.211   4.796  1.00  0.00     0.037 A 
ATOM     26  C   UNL     1      -1.443  -6.973  -1.101  1.00  0.00     0.037 A 
ATOM     27  C   UNL     1      -2.929  -4.084   4.548  1.00  0.00     0.049 A 
ATOM     28  C   UNL     1      -2.593  -7.115  -0.149  1.00  0.00     0.074 A 
ATOM     29  C   UNL     1      -4.073  -4.250   5.309  1.00  0.00     0.029 A 
ATOM     30  N   UNL     1      -3.046  -4.939   3.462  1.00  0.00    -0.354 N 
ATOM     31  N   UNL     1      -2.822  -6.469   0.968  1.00  0.00    -0.248 NA
ATOM     32  C   UNL     1      -3.620  -8.108  -0.492  1.00  0.00     0.031 C 
ATOM     33  C   UNL     1      -4.857  -5.241   4.713  1.00  0.00     0.029 A 
ATOM     34  C   UNL     1      -4.230  -5.652   3.548  1.00  0.00     0.049 A 
ATOM     35  H   UNL     1      -2.385  -5.025   2.737  1.00  0.00     0.167 HD
ATOM     36  C   UNL     1      -4.024  -6.964   1.454  1.00  0.00     0.074 A 
ATOM     37  C   UNL     1      -4.486  -7.951   0.500  1.00  0.00     0.031 C 
ATOM     38  C   UNL     1      -4.681  -6.630   2.591  1.00  0.00     0.037 A 
BRANCH  25  39
ATOM     39  C   UNL     1      -1.837  -2.385   6.049  1.00  0.00     0.057 A 
ATOM     40  C   UNL     1      -1.728  -2.993   7.307  1.00  0.00     0.134 A 
ATOM     41  C   UNL     1      -2.074  -1.005   6.018  1.00  0.00     0.134 A 
ATOM     42  F   UNL     1      -1.509  -4.313   7.408  1.00  0.00    -0.206 F 
ATOM     43  C   UNL     1      -1.875  -2.263   8.487  1.00  0.00     0.040 A 
ATOM     44  C   UNL     1      -2.199  -0.260   7.192  1.00  0.00     0.040 A 
ATOM     45  F   UNL     1      -2.179  -0.359   4.847  1.00  0.00    -0.206 F 
ATOM     46  C   UNL     1      -2.111  -0.891   8.432  1.00  0.00     0.006 A 
ENDBRANCH  25  39
BRANCH  26  47
ATOM     47  C   UNL     1      -1.372  -7.769  -2.352  1.00  0.00     0.057 A 
ATOM     48  C   UNL     1      -0.394  -8.756  -2.534  1.00  0.00     0.134 A 
ATOM     49  C   UNL     1      -2.259  -7.538  -3.408  1.00  0.00     0.134 A 
ATOM     50  F   UNL     1       0.492  -9.019  -1.562  1.00  0.00    -0.206 F 
ATOM     51  C   UNL     1      -0.285  -9.466  -3.729  1.00  0.00     0.040 A 
ATOM     52  C   UNL     1      -2.180  -8.262  -4.599  1.00  0.00     0.040 A 
ATOM     53  F   UNL     1      -3.227  -6.618  -3.288  1.00  0.00    -0.206 F 
ATOM     54  C   UNL     1      -1.184  -9.222  -4.765  1.00  0.00     0.006 A 
ENDBRANCH  26  47
BRANCH  38  55
ATOM     55  C   UNL     1      -5.985  -7.319   2.864  1.00  0.00     0.057 A 
ATOM     56  C   UNL     1      -7.193  -6.613   2.794  1.00  0.00     0.134 A 
ATOM     57  C   UNL     1      -6.040  -8.659   3.267  1.00  0.00     0.134 A 
ATOM     58  F   UNL     1      -7.208  -5.323   2.424  1.00  0.00    -0.206 F 
ATOM     59  C   UNL     1      -8.408  -7.210   3.133  1.00  0.00     0.040 A 
ATOM     60  C   UNL     1      -7.252  -9.275   3.583  1.00  0.00     0.040 A 
ATOM     61  F   UNL     1      -4.920  -9.393   3.342  1.00  0.00    -0.206 F 
ATOM     62  C   UNL     1      -8.439  -8.546   3.526  1.00  0.00     0.006 A 
ENDBRANCH  38  55
ENDBRANCH  12  13
ENDBRANCH   5   7
ENDBRANCH   2   3
ENDBRANCH   1   2
BRANCH   1  63
ATOM     63  C   UNL     1       6.829   3.125  -0.643  1.00  0.00     0.117 C 
BRANCH  63  64
ATOM     64  N   UNL     1       6.623   3.633  -1.986  1.00  0.00    -0.356 N 
ATOM     65  C   UNL     1       6.184   4.863  -2.376  1.00  0.00     0.224 C 
ATOM     66  H   UNL     1       6.828   3.003  -2.715  1.00  0.00     0.163 HD
ATOM     67  O   UNL     1       5.914   5.032  -3.565  1.00  0.00    -0.275 OA
BRANCH  65  68
ATOM     68  C   UNL     1       6.137   5.984  -1.355  1.00  0.00     0.098 C 
ATOM     69  C   UNL     1       7.544   6.597  -1.243  1.00  0.00     0.017 C 
ATOM     70  C   UNL     1       5.118   7.035  -1.790  1.00  0.00     0.131 C 
ATOM     71  C   UNL     1       7.549   7.838  -0.352  1.00  0.00     0.022 C 
ATOM     72  N   UNL     1       5.222   8.216  -0.942  1.00  0.00    -0.356 N 
ATOM     73  C   UNL     1       6.516   8.865  -0.817  1.00  0.00     0.118 C 
BRANCH  72  74
ATOM     74  C   UNL     1       4.165   8.579  -0.136  1.00  0.00     0.133 A 
ATOM     75  C   UNL     1       3.714   9.881  -0.173  1.00  0.00     0.077 A 
ATOM     76  N   UNL     1       3.574   7.653   0.637  1.00  0.00    -0.211 NA
ATOM     77  C   UNL     1       2.604  10.198   0.581  1.00  0.00     0.095 A 
ATOM     78  C   UNL     1       2.519   8.059   1.374  1.00  0.00     0.165 A 
ATOM     79  N   UNL     1       1.999   9.295   1.374  1.00  0.00    -0.226 NA
BRANCH  77  80
ATOM     80  C   UNL     1       2.004  11.536   0.506  1.00  0.00     0.089 A 
ATOM     81  C   UNL     1       1.494  12.030  -0.697  1.00  0.00     0.030 A 
ATOM     82  N   UNL     1       2.022  12.278   1.643  1.00  0.00    -0.255 NA
ATOM     83  C   UNL     1       0.983  13.324  -0.736  1.00  0.00     0.004 A 
ATOM     84  C   UNL     1       1.507  13.525   1.577  1.00  0.00     0.112 A 
ATOM     85  C   UNL     1       0.987  14.088   0.424  1.00  0.00     0.020 A 
ENDBRANCH  77  80
BRANCH  78  86
ATOM     86  C   UNL     1       1.949   7.117   2.332  1.00  0.00     0.055 A 
ATOM     87  C   UNL     1       2.698   6.660   3.432  1.00  0.00     0.015 A 
ATOM     88  C   UNL     1       0.622   6.691   2.224  1.00  0.00     0.134 A 
ATOM     89  C   UNL     1       2.124   5.825   4.397  1.00  0.00     0.001 A 
ATOM     90  C   UNL     1       0.045   5.851   3.179  1.00  0.00     0.040 A 
ATOM     91  F   UNL     1      -0.134   7.078   1.185  1.00  0.00    -0.206 F 
ATOM     92  C   UNL     1       0.795   5.423   4.272  1.00  0.00     0.003 A 
ENDBRANCH  78  86
ENDBRANCH  72  74
ENDBRANCH  65  68
ENDBRANCH  63  64
ENDBRANCH   1  63
TORSDOF 13
