REMARK SMILES C[C@H]1[C@H](C(=O)NCCCNC(=O)c2ccc(-c3c4nc(c(-c5c(F)cccc5F)c5ccc([nH]5)c(-c5c(F)cccc5F)c5nc(c(-c6c(F)cccc6F)c6ccc3[nH]6)C=C5)C=C4)cc2)CC[N@@H+]1Cc1cnn(-c2ccccc2)c1
REMARK SMILES IDX 7 1 6 2 4 3 5 4 3 6 1 7 2 8 69 9 67 10 68 11 70 13 71 14
REMARK SMILES IDX 72 15 81 16 73 17 74 18 75 19 76 20 80 21 77 22 79 23 78 24
REMARK SMILES IDX 8 25 9 26 10 27 11 28 12 30 13 31 14 32 66 33 15 34 65 35
REMARK SMILES IDX 16 36 17 37 18 38 59 39 19 40 64 41 58 42 60 43 20 44 63 45
REMARK SMILES IDX 57 46 56 47 21 49 47 50 30 51 46 52 31 53 34 54 45 55 61 56
REMARK SMILES IDX 32 57 33 58 44 60 62 61 35 62 22 63 23 64 28 65 24 66 25 67
REMARK SMILES IDX 27 68 29 69 26 70 48 71 49 72 54 73 50 74 51 75 53 76 55 77
REMARK SMILES IDX 52 78 36 79 37 80 42 81 38 82 39 83 41 84 43 85 40 86
REMARK H PARENT 6 5 69 12 10 29 60 48 34 59
REMARK Flexibility Score: inf
ROOT
ATOM      1  C   UNL     1       0.522   1.217   3.188  1.00  0.00     0.117 C 
ENDROOT
BRANCH   1   2
ATOM      2  N   UNL     1       1.149   2.084   2.225  1.00  0.00    -0.356 N 
ATOM      3  C   UNL     1       0.839   2.277   0.919  1.00  0.00     0.229 C 
ATOM      4  O   UNL     1       1.022   3.418   0.481  1.00  0.00    -0.275 OA
ATOM      5  H   UNL     1       1.909   2.611   2.561  1.00  0.00     0.163 HD
BRANCH   3   6
ATOM      6  C   UNL     1       0.328   1.190  -0.016  1.00  0.00     0.142 C 
ATOM      7  C   UNL     1       1.565  -0.899  -0.582  1.00  0.00     0.076 C 
ATOM      8  C   UNL     1       0.490  -0.296   0.345  1.00  0.00     0.193 C 
ATOM      9  N   UNL     1      -0.812  -0.938   0.064  1.00  0.00    -0.328 N 
ATOM     10  C   UNL     1      -1.130   1.346  -0.422  1.00  0.00     0.081 C 
ATOM     11  C   UNL     1      -1.513  -0.060  -0.865  1.00  0.00     0.263 C 
ATOM     12  H   UNL     1      -0.628  -1.844  -0.365  1.00  0.00     0.348 HD
BRANCH   9  13
ATOM     13  C   UNL     1      -1.597  -1.508   1.179  1.00  0.00     0.302 C 
BRANCH  13  14
ATOM     14  C   UNL     1      -2.502  -0.594   1.971  1.00  0.00     0.045 A 
ATOM     15  C   UNL     1      -3.501   0.314   1.547  1.00  0.00     0.145 A 
ATOM     16  C   UNL     1      -2.674  -0.550   3.347  1.00  0.00     0.124 A 
ATOM     17  N   UNL     1      -3.961   1.097   2.523  1.00  0.00    -0.176 NA
ATOM     18  N   UNL     1      -3.437   0.568   3.644  1.00  0.00    -0.240 N 
BRANCH  18  19
ATOM     19  C   UNL     1      -3.357   1.333   4.830  1.00  0.00     0.065 A 
ATOM     20  C   UNL     1      -4.019   0.919   5.985  1.00  0.00     0.028 A 
ATOM     21  C   UNL     1      -2.512   2.452   4.858  1.00  0.00     0.028 A 
ATOM     22  C   UNL     1      -3.792   1.603   7.185  1.00  0.00     0.002 A 
ATOM     23  C   UNL     1      -2.251   3.095   6.070  1.00  0.00     0.002 A 
ATOM     24  C   UNL     1      -2.888   2.667   7.234  1.00  0.00     0.000 A 
ENDBRANCH  18  19
ENDBRANCH  13  14
ENDBRANCH   9  13
ENDBRANCH   3   6
ENDBRANCH   1   2
BRANCH   1  25
ATOM     25  C   UNL     1       1.492   0.343   3.982  1.00  0.00     0.042 C 
BRANCH  25  26
ATOM     26  C   UNL     1       1.127   0.332   5.467  1.00  0.00     0.118 C 
BRANCH  26  27
ATOM     27  N   UNL     1      -0.249  -0.081   5.694  1.00  0.00    -0.352 N 
ATOM     28  C   UNL     1      -0.920  -0.553   6.790  1.00  0.00     0.251 C 
ATOM     29  H   UNL     1      -0.816  -0.006   4.893  1.00  0.00     0.163 HD
ATOM     30  O   UNL     1      -2.027  -1.070   6.633  1.00  0.00    -0.269 OA
BRANCH  28  31
ATOM     31  C   UNL     1      -0.312  -0.565   8.128  1.00  0.00     0.039 A 
ATOM     32  C   UNL     1      -0.777  -1.520   9.040  1.00  0.00     0.014 A 
ATOM     33  C   UNL     1       0.781   0.233   8.444  1.00  0.00     0.014 A 
ATOM     34  C   UNL     1      -0.009  -1.830  10.151  1.00  0.00     0.010 A 
ATOM     35  C   UNL     1       1.617  -0.163   9.465  1.00  0.00     0.010 A 
ATOM     36  C   UNL     1       1.253  -1.241  10.277  1.00  0.00    -0.014 A 
BRANCH  36  37
ATOM     37  C   UNL     1       2.279  -1.840  11.143  1.00  0.00     0.031 A 
ATOM     38  C   UNL     1       2.877  -1.035  12.246  1.00  0.00     0.074 A 
ATOM     39  C   UNL     1       2.748  -3.056  10.800  1.00  0.00     0.049 A 
ATOM     40  N   UNL     1       3.854  -1.347  13.052  1.00  0.00    -0.248 NA
ATOM     41  C   UNL     1       2.345   0.326  12.434  1.00  0.00     0.031 C 
ATOM     42  C   UNL     1       2.295  -3.847   9.646  1.00  0.00     0.029 A 
ATOM     43  N   UNL     1       3.711  -3.840  11.371  1.00  0.00    -0.354 N 
ATOM     44  C   UNL     1       4.060  -0.221  13.833  1.00  0.00     0.074 A 
ATOM     45  C   UNL     1       3.166   0.808  13.353  1.00  0.00     0.031 C 
ATOM     46  C   UNL     1       2.945  -5.019   9.627  1.00  0.00     0.029 A 
ATOM     47  C   UNL     1       3.882  -5.049  10.739  1.00  0.00     0.049 A 
ATOM     48  H   UNL     1       4.232  -3.565  12.159  1.00  0.00     0.167 HD
ATOM     49  C   UNL     1       4.901  -0.081  14.882  1.00  0.00     0.037 A 
ATOM     50  C   UNL     1       4.701  -6.069  11.044  1.00  0.00     0.037 A 
ATOM     51  C   UNL     1       5.766  -1.136  15.335  1.00  0.00     0.049 A 
ATOM     52  C   UNL     1       5.571  -5.917  12.257  1.00  0.00     0.074 A 
ATOM     53  C   UNL     1       6.636  -1.148  16.407  1.00  0.00     0.029 A 
ATOM     54  N   UNL     1       5.858  -2.383  14.726  1.00  0.00    -0.354 N 
ATOM     55  N   UNL     1       5.701  -4.878  13.050  1.00  0.00    -0.248 NA
ATOM     56  C   UNL     1       6.390  -7.073  12.632  1.00  0.00     0.031 C 
ATOM     57  C   UNL     1       7.271  -2.396  16.434  1.00  0.00     0.029 A 
ATOM     58  C   UNL     1       6.771  -3.174  15.399  1.00  0.00     0.049 A 
ATOM     59  H   UNL     1       5.347  -2.662  13.932  1.00  0.00     0.167 HD
ATOM     60  C   UNL     1       6.606  -5.256  14.027  1.00  0.00     0.074 A 
ATOM     61  C   UNL     1       6.972  -6.632  13.739  1.00  0.00     0.031 C 
ATOM     62  C   UNL     1       7.101  -4.538  15.066  1.00  0.00     0.037 A 
BRANCH  49  63
ATOM     63  C   UNL     1       4.891   1.243  15.586  1.00  0.00     0.057 A 
ATOM     64  C   UNL     1       3.776   1.675  16.320  1.00  0.00     0.134 A 
ATOM     65  C   UNL     1       5.978   2.119  15.493  1.00  0.00     0.134 A 
ATOM     66  F   UNL     1       2.689   0.895  16.426  1.00  0.00    -0.206 F 
ATOM     67  C   UNL     1       3.725   2.945  16.898  1.00  0.00     0.040 A 
ATOM     68  C   UNL     1       5.951   3.381  16.092  1.00  0.00     0.040 A 
ATOM     69  F   UNL     1       7.075   1.775  14.803  1.00  0.00    -0.206 F 
ATOM     70  C   UNL     1       4.818   3.801  16.787  1.00  0.00     0.006 A 
ENDBRANCH  49  63
BRANCH  50  71
ATOM     71  C   UNL     1       4.676  -7.316  10.240  1.00  0.00     0.057 A 
ATOM     72  C   UNL     1       4.117  -8.492  10.754  1.00  0.00     0.134 A 
ATOM     73  C   UNL     1       5.167  -7.358   8.929  1.00  0.00     0.134 A 
ATOM     74  F   UNL     1       3.631  -8.517  12.003  1.00  0.00    -0.206 F 
ATOM     75  C   UNL     1       4.066  -9.669  10.005  1.00  0.00     0.040 A 
ATOM     76  C   UNL     1       5.103  -8.523   8.160  1.00  0.00     0.040 A 
ATOM     77  F   UNL     1       5.694  -6.260   8.367  1.00  0.00    -0.206 F 
ATOM     78  C   UNL     1       4.556  -9.685   8.701  1.00  0.00     0.006 A 
ENDBRANCH  50  71
BRANCH  62  79
ATOM     79  C   UNL     1       8.075  -5.245  15.954  1.00  0.00     0.057 A 
ATOM     80  C   UNL     1       9.390  -5.495  15.544  1.00  0.00     0.134 A 
ATOM     81  C   UNL     1       7.700  -5.650  17.240  1.00  0.00     0.134 A 
ATOM     82  F   UNL     1       9.798  -5.143  14.315  1.00  0.00    -0.206 F 
ATOM     83  C   UNL     1      10.296  -6.148  16.378  1.00  0.00     0.040 A 
ATOM     84  C   UNL     1       8.604  -6.280  18.092  1.00  0.00     0.040 A 
ATOM     85  F   UNL     1       6.455  -5.430  17.688  1.00  0.00    -0.206 F 
ATOM     86  C   UNL     1       9.905  -6.536  17.659  1.00  0.00     0.006 A 
ENDBRANCH  62  79
ENDBRANCH  36  37
ENDBRANCH  28  31
ENDBRANCH  26  27
ENDBRANCH  25  26
ENDBRANCH   1  25
TORSDOF 13
