REMARK SMILES Cc1noc(C[N@H+]2CCC[C@@H](c3ccc(C(=O)NCCCNC(=O)c4ccc(-c5c6nc(c(-c7c(F)cccc7F)c7ccc([nH]7)c(-c7c(F)cccc7F)c7nc(c(-c8c(F)cccc8F)c8ccc5[nH]8)C=C7)C=C6)cc4)cc3)C2)n1
REMARK SMILES IDX 19 1 18 2 16 3 17 4 15 6 12 7 13 8 80 9 14 10 79 11 11 12
REMARK SMILES IDX 7 13 8 14 81 15 9 17 10 18 6 19 5 20 1 21 2 22 3 23 82 24
REMARK SMILES IDX 4 25 20 26 21 27 22 28 23 29 24 31 25 32 26 33 78 34 27 35
REMARK SMILES IDX 77 36 28 37 29 38 30 39 71 40 31 41 76 42 70 43 72 44 32 45
REMARK SMILES IDX 75 46 69 47 68 48 33 50 59 51 42 52 58 53 43 54 46 55 57 56
REMARK SMILES IDX 73 57 44 58 45 59 56 61 74 62 47 63 34 64 35 65 40 66 36 67
REMARK SMILES IDX 37 68 39 69 41 70 38 71 60 72 61 73 66 74 62 75 63 76 65 77
REMARK SMILES IDX 67 78 64 79 48 80 49 81 54 82 50 83 51 84 53 85 55 86 52 87
REMARK H PARENT 18 5 7 16 22 30 72 49 46 60
REMARK Flexibility Score: inf
ROOT
ATOM      1  C   UNL     1      -3.064   9.174  -1.981  1.00  0.00     0.118 C 
ENDROOT
BRANCH   1   2
ATOM      2  N   UNL     1      -4.044   8.214  -2.452  1.00  0.00    -0.352 N 
ATOM      3  C   UNL     1      -3.922   6.911  -2.858  1.00  0.00     0.251 C 
ATOM      4  O   UNL     1      -4.951   6.304  -3.155  1.00  0.00    -0.269 OA
ATOM      5  H   UNL     1      -4.964   8.562  -2.486  1.00  0.00     0.163 HD
BRANCH   3   6
ATOM      6  C   UNL     1      -2.620   6.194  -2.895  1.00  0.00     0.039 A 
ATOM      7  C   UNL     1      -0.229   4.685  -2.865  1.00  0.00    -0.039 A 
ATOM      8  C   UNL     1      -1.469   4.078  -2.610  1.00  0.00     0.005 A 
ATOM      9  C   UNL     1      -0.213   6.043  -3.202  1.00  0.00     0.005 A 
ATOM     10  C   UNL     1      -2.647   4.825  -2.613  1.00  0.00     0.014 A 
ATOM     11  C   UNL     1      -1.400   6.783  -3.237  1.00  0.00     0.014 A 
BRANCH   7  12
ATOM     12  C   UNL     1       1.075   3.904  -2.799  1.00  0.00     0.074 C 
ATOM     13  N   UNL     1       2.364   2.219  -1.411  1.00  0.00    -0.327 N 
ATOM     14  C   UNL     1       2.435   1.320  -2.572  1.00  0.00     0.262 C 
ATOM     15  C   UNL     1       1.187   3.104  -1.482  1.00  0.00     0.270 C 
ATOM     16  H   UNL     1       3.198   2.806  -1.433  1.00  0.00     0.348 HD
ATOM     17  C   UNL     1       2.457   2.107  -3.883  1.00  0.00     0.062 C 
ATOM     18  C   UNL     1       1.216   2.982  -4.017  1.00  0.00     0.020 C 
BRANCH  13  19
ATOM     19  C   UNL     1       2.374   1.453  -0.131  1.00  0.00     0.364 C 
BRANCH  19  20
ATOM     20  C   UNL     1       1.180   0.580   0.106  1.00  0.00     0.281 A 
ATOM     21  C   UNL     1      -2.200  -0.331   0.294  1.00  0.00     0.093 C 
ATOM     22  C   UNL     1      -0.728  -0.260   0.240  1.00  0.00     0.169 A 
ATOM     23  N   UNL     1       0.043  -1.311  -0.066  1.00  0.00    -0.063 NA
ATOM     24  N   UNL     1      -0.057   0.921   0.401  1.00  0.00    -0.191 NA
ATOM     25  O   UNL     1       1.323  -0.754  -0.153  1.00  0.00    -0.333 OA
ENDBRANCH  19  20
ENDBRANCH  13  19
ENDBRANCH   7  12
ENDBRANCH   3   6
ENDBRANCH   1   2
BRANCH   1  26
ATOM     26  C   UNL     1      -2.676  10.152  -3.089  1.00  0.00     0.042 C 
BRANCH  26  27
ATOM     27  C   UNL     1      -3.782  11.142  -3.438  1.00  0.00     0.118 C 
BRANCH  27  28
ATOM     28  N   UNL     1      -3.980  12.130  -2.389  1.00  0.00    -0.352 N 
ATOM     29  C   UNL     1      -3.923  13.500  -2.452  1.00  0.00     0.251 C 
ATOM     30  H   UNL     1      -4.186  11.761  -1.500  1.00  0.00     0.163 HD
ATOM     31  O   UNL     1      -3.905  14.154  -1.414  1.00  0.00    -0.269 OA
BRANCH  29  32
ATOM     32  C   UNL     1      -3.870  14.194  -3.758  1.00  0.00     0.039 A 
ATOM     33  C   UNL     1      -3.030  15.304  -3.893  1.00  0.00     0.014 A 
ATOM     34  C   UNL     1      -4.675  13.795  -4.829  1.00  0.00     0.014 A 
ATOM     35  C   UNL     1      -2.963  15.983  -5.111  1.00  0.00     0.010 A 
ATOM     36  C   UNL     1      -4.560  14.432  -6.062  1.00  0.00     0.010 A 
ATOM     37  C   UNL     1      -3.709  15.537  -6.213  1.00  0.00    -0.014 A 
BRANCH  37  38
ATOM     38  C   UNL     1      -3.621  16.221  -7.527  1.00  0.00     0.031 A 
ATOM     39  C   UNL     1      -4.817  16.938  -8.089  1.00  0.00     0.074 A 
ATOM     40  C   UNL     1      -2.482  16.146  -8.240  1.00  0.00     0.049 A 
ATOM     41  N   UNL     1      -4.957  17.531  -9.247  1.00  0.00    -0.248 NA
ATOM     42  C   UNL     1      -6.024  16.971  -7.248  1.00  0.00     0.031 C 
ATOM     43  C   UNL     1      -1.266  15.444  -7.822  1.00  0.00     0.029 A 
ATOM     44  N   UNL     1      -2.164  16.655  -9.474  1.00  0.00    -0.354 N 
ATOM     45  C   UNL     1      -6.267  17.990  -9.282  1.00  0.00     0.074 A 
ATOM     46  C   UNL     1      -6.895  17.570  -8.047  1.00  0.00     0.031 C 
ATOM     47  C   UNL     1      -0.331  15.581  -8.775  1.00  0.00     0.029 A 
ATOM     48  C   UNL     1      -0.889  16.350  -9.883  1.00  0.00     0.049 A 
ATOM     49  H   UNL     1      -2.791  17.188 -10.015  1.00  0.00     0.167 HD
ATOM     50  C   UNL     1      -6.886  18.713 -10.246  1.00  0.00     0.037 A 
ATOM     51  C   UNL     1      -0.244  16.652 -11.026  1.00  0.00     0.037 A 
ATOM     52  C   UNL     1      -6.251  19.154 -11.460  1.00  0.00     0.049 A 
ATOM     53  C   UNL     1      -0.950  17.461 -12.077  1.00  0.00     0.074 A 
ATOM     54  C   UNL     1      -6.775  19.942 -12.470  1.00  0.00     0.029 A 
ATOM     55  N   UNL     1      -4.950  18.846 -11.826  1.00  0.00    -0.354 N 
ATOM     56  N   UNL     1      -2.170  17.939 -12.069  1.00  0.00    -0.248 NA
ATOM     57  C   UNL     1      -0.187  17.777 -13.292  1.00  0.00     0.031 C 
ATOM     58  C   UNL     1      -5.801  20.082 -13.465  1.00  0.00     0.029 A 
ATOM     59  C   UNL     1      -4.658  19.415 -13.055  1.00  0.00     0.049 A 
ATOM     60  H   UNL     1      -4.326  18.304 -11.292  1.00  0.00     0.167 HD
ATOM     61  C   UNL     1      -2.314  18.633 -13.263  1.00  0.00     0.074 A 
ATOM     62  C   UNL     1      -1.052  18.524 -13.965  1.00  0.00     0.031 C 
ATOM     63  C   UNL     1      -3.394  19.301 -13.736  1.00  0.00     0.037 A 
BRANCH  50  64
ATOM     64  C   UNL     1      -8.325  19.074 -10.023  1.00  0.00     0.057 A 
ATOM     65  C   UNL     1      -8.707  20.028  -9.070  1.00  0.00     0.134 A 
ATOM     66  C   UNL     1      -9.339  18.486 -10.789  1.00  0.00     0.134 A 
ATOM     67  F   UNL     1      -7.786  20.620  -8.295  1.00  0.00    -0.206 F 
ATOM     68  C   UNL     1     -10.047  20.366  -8.871  1.00  0.00     0.040 A 
ATOM     69  C   UNL     1     -10.680  18.833 -10.617  1.00  0.00     0.040 A 
ATOM     70  F   UNL     1      -9.042  17.569 -11.723  1.00  0.00    -0.206 F 
ATOM     71  C   UNL     1     -11.037  19.772  -9.651  1.00  0.00     0.006 A 
ENDBRANCH  50  64
BRANCH  51  72
ATOM     72  C   UNL     1       1.157  16.206 -11.224  1.00  0.00     0.057 A 
ATOM     73  C   UNL     1       2.215  17.122 -11.190  1.00  0.00     0.134 A 
ATOM     74  C   UNL     1       1.473  14.862 -11.450  1.00  0.00     0.134 A 
ATOM     75  F   UNL     1       1.971  18.426 -10.995  1.00  0.00    -0.206 F 
ATOM     76  C   UNL     1       3.536  16.720 -11.389  1.00  0.00     0.040 A 
ATOM     77  C   UNL     1       2.792  14.442 -11.629  1.00  0.00     0.040 A 
ATOM     78  F   UNL     1       0.504  13.935 -11.486  1.00  0.00    -0.206 F 
ATOM     79  C   UNL     1       3.828  15.374 -11.604  1.00  0.00     0.006 A 
ENDBRANCH  51  72
BRANCH  63  80
ATOM     80  C   UNL     1      -3.246  19.991 -15.059  1.00  0.00     0.057 A 
ATOM     81  C   UNL     1      -3.222  19.278 -16.263  1.00  0.00     0.134 A 
ATOM     82  C   UNL     1      -3.165  21.387 -15.128  1.00  0.00     0.134 A 
ATOM     83  F   UNL     1      -3.282  17.938 -16.262  1.00  0.00    -0.206 F 
ATOM     84  C   UNL     1      -3.102  19.930 -17.492  1.00  0.00     0.040 A 
ATOM     85  C   UNL     1      -3.068  22.051 -16.352  1.00  0.00     0.040 A 
ATOM     86  F   UNL     1      -3.190  22.128 -14.010  1.00  0.00    -0.206 F 
ATOM     87  C   UNL     1      -3.031  21.321 -17.538  1.00  0.00     0.006 A 
ENDBRANCH  63  80
ENDBRANCH  37  38
ENDBRANCH  29  32
ENDBRANCH  27  28
ENDBRANCH  26  27
ENDBRANCH   1  26
TORSDOF 13
