REMARK SMILES Cc1nsc(NC(=O)[C@H]2Cc3[nH]cnc3C[NH2+]2)c1C(=O)NCCCNC(=O)c1ccc(-c2c3nc(c(-c4c(F)cccc4F)c4ccc([nH]4)c(-c4c(F)cccc4F)c4nc(c(-c5c(F)cccc5F)c5ccc2[nH]5)C=C4)C=C3)cc1
REMARK SMILES IDX 23 1 22 2 21 3 19 4 20 5 18 7 1 8 2 9 3 10 4 11 5 12 6 13
REMARK SMILES IDX 7 14 8 16 9 17 10 18 17 19 11 20 16 21 12 24 15 25 13 26
REMARK SMILES IDX 14 28 24 29 25 30 26 31 27 33 28 34 29 35 81 36 30 37 80 38
REMARK SMILES IDX 31 39 32 40 33 41 74 42 34 43 79 44 73 45 75 46 35 47 78 48
REMARK SMILES IDX 72 49 71 50 36 52 62 53 45 54 61 55 46 56 49 57 60 58 76 59
REMARK SMILES IDX 47 60 48 61 59 63 77 64 50 65 37 66 38 67 43 68 39 69 40 70
REMARK SMILES IDX 42 71 44 72 41 73 63 74 64 75 69 76 65 77 66 78 68 79 70 80
REMARK SMILES IDX 67 81 51 82 52 83 57 84 53 85 54 86 56 87 58 88 55 89
REMARK H PARENT 21 6 6 15 17 22 17 23 12 27 25 32 75 51 49 62
REMARK Flexibility Score: inf
ROOT
ATOM      1  C   UNL     1       1.079   2.267   0.276  1.00  0.00     0.042 C 
ENDROOT
BRANCH   1   2
ATOM      2  C   UNL     1      -0.323   2.079  -0.317  1.00  0.00     0.118 C 
BRANCH   2   3
ATOM      3  N   UNL     1      -0.244   2.043  -1.766  1.00  0.00    -0.352 N 
ATOM      4  C   UNL     1      -0.176   0.984  -2.635  1.00  0.00     0.256 C 
ATOM      5  O   UNL     1      -0.051   1.248  -3.831  1.00  0.00    -0.269 OA
ATOM      6  H   UNL     1      -0.238   2.927  -2.198  1.00  0.00     0.163 HD
BRANCH   4   7
ATOM      7  C   UNL     1      -0.415  -0.379  -2.178  1.00  0.00     0.097 A 
ATOM      8  C   UNL     1       1.173  -0.855  -0.105  1.00  0.00     0.069 C 
ATOM      9  C   UNL     1       0.030  -1.124  -1.015  1.00  0.00     0.066 A 
ATOM     10  N   UNL     1      -0.641  -2.251  -0.761  1.00  0.00    -0.195 NA
ATOM     11  S   UNL     1      -1.633  -2.554  -2.037  1.00  0.00    -0.017 S 
ATOM     12  C   UNL     1      -0.996  -1.322  -3.018  1.00  0.00     0.129 A 
BRANCH  12  13
ATOM     13  N   UNL     1      -1.226  -1.273  -4.372  1.00  0.00    -0.311 N 
ATOM     14  C   UNL     1      -1.010  -2.250  -5.312  1.00  0.00     0.283 C 
ATOM     15  H   UNL     1      -1.593  -0.425  -4.713  1.00  0.00     0.171 HD
ATOM     16  O   UNL     1      -1.233  -1.938  -6.491  1.00  0.00    -0.268 OA
BRANCH  14  17
ATOM     17  C   UNL     1      -0.397  -3.640  -5.003  1.00  0.00     0.279 C 
ATOM     18  C   UNL     1       0.999  -3.537  -4.307  1.00  0.00     0.131 C 
ATOM     19  N   UNL     1      -1.402  -4.531  -4.343  1.00  0.00    -0.331 N 
ATOM     20  C   UNL     1       1.359  -4.876  -3.789  1.00  0.00     0.050 A 
ATOM     21  C   UNL     1      -0.918  -5.925  -4.172  1.00  0.00     0.320 C 
ATOM     22  H   UNL     1      -2.247  -4.548  -4.914  1.00  0.00     0.347 HD
ATOM     23  H   UNL     1      -1.579  -4.154  -3.412  1.00  0.00     0.347 HD
ATOM     24  N   UNL     1       2.553  -5.315  -3.302  1.00  0.00    -0.348 N 
ATOM     25  C   UNL     1       0.499  -5.945  -3.706  1.00  0.00     0.116 A 
ATOM     26  C   UNL     1       2.376  -6.632  -2.966  1.00  0.00     0.197 A 
ATOM     27  H   UNL     1       3.380  -4.790  -3.209  1.00  0.00     0.167 HD
ATOM     28  N   UNL     1       1.144  -7.037  -3.192  1.00  0.00    -0.236 NA
ENDBRANCH  14  17
ENDBRANCH  12  13
ENDBRANCH   4   7
ENDBRANCH   2   3
ENDBRANCH   1   2
BRANCH   1  29
ATOM     29  C   UNL     1       1.461   3.722   0.430  1.00  0.00     0.118 C 
BRANCH  29  30
ATOM     30  N   UNL     1       0.730   4.343   1.534  1.00  0.00    -0.352 N 
ATOM     31  C   UNL     1       0.613   5.684   1.849  1.00  0.00     0.251 C 
ATOM     32  H   UNL     1       0.257   3.723   2.134  1.00  0.00     0.163 HD
ATOM     33  O   UNL     1       0.295   6.046   2.964  1.00  0.00    -0.269 OA
BRANCH  31  34
ATOM     34  C   UNL     1       0.898   6.660   0.786  1.00  0.00     0.039 A 
ATOM     35  C   UNL     1       1.667   7.797   1.035  1.00  0.00     0.014 A 
ATOM     36  C   UNL     1       0.458   6.351  -0.495  1.00  0.00     0.014 A 
ATOM     37  C   UNL     1       2.069   8.569  -0.049  1.00  0.00     0.010 A 
ATOM     38  C   UNL     1       1.037   6.977  -1.563  1.00  0.00     0.010 A 
ATOM     39  C   UNL     1       1.777   8.132  -1.353  1.00  0.00    -0.014 A 
BRANCH  39  40
ATOM     40  C   UNL     1       2.309   8.826  -2.516  1.00  0.00     0.031 A 
ATOM     41  C   UNL     1       3.766   9.118  -2.458  1.00  0.00     0.074 A 
ATOM     42  C   UNL     1       1.596   9.042  -3.642  1.00  0.00     0.049 A 
ATOM     43  N   UNL     1       4.321  10.270  -2.283  1.00  0.00    -0.248 NA
ATOM     44  C   UNL     1       4.712   7.992  -2.442  1.00  0.00     0.031 C 
ATOM     45  C   UNL     1       0.255   8.569  -4.008  1.00  0.00     0.029 A 
ATOM     46  N   UNL     1       1.988   9.700  -4.764  1.00  0.00    -0.354 N 
ATOM     47  C   UNL     1       5.694  10.052  -2.343  1.00  0.00     0.074 A 
ATOM     48  C   UNL     1       5.874   8.625  -2.261  1.00  0.00     0.031 C 
ATOM     49  C   UNL     1       0.051   8.751  -5.331  1.00  0.00     0.029 A 
ATOM     50  C   UNL     1       1.155   9.525  -5.861  1.00  0.00     0.049 A 
ATOM     51  H   UNL     1       2.800  10.256  -4.797  1.00  0.00     0.167 HD
ATOM     52  C   UNL     1       6.545  11.056  -2.692  1.00  0.00     0.037 A 
ATOM     53  C   UNL     1       1.374   9.988  -7.116  1.00  0.00     0.037 A 
ATOM     54  C   UNL     1       5.894  12.342  -2.597  1.00  0.00     0.049 A 
ATOM     55  C   UNL     1       2.354  11.098  -7.002  1.00  0.00     0.074 A 
ATOM     56  C   UNL     1       5.267  13.038  -1.579  1.00  0.00     0.029 A 
ATOM     57  N   UNL     1       5.465  12.934  -3.761  1.00  0.00    -0.354 N 
ATOM     58  N   UNL     1       2.082  12.244  -6.441  1.00  0.00    -0.248 NA
ATOM     59  C   UNL     1       3.767  10.758  -7.079  1.00  0.00     0.031 C 
ATOM     60  C   UNL     1       4.125  13.633  -2.193  1.00  0.00     0.029 A 
ATOM     61  C   UNL     1       4.168  13.334  -3.555  1.00  0.00     0.049 A 
ATOM     62  H   UNL     1       5.988  13.049  -4.587  1.00  0.00     0.167 HD
ATOM     63  C   UNL     1       3.221  12.561  -5.716  1.00  0.00     0.074 A 
ATOM     64  C   UNL     1       4.254  11.651  -6.213  1.00  0.00     0.031 C 
ATOM     65  C   UNL     1       3.153  13.319  -4.582  1.00  0.00     0.037 A 
BRANCH  52  66
ATOM     66  C   UNL     1       7.821  10.867  -3.478  1.00  0.00     0.057 A 
ATOM     67  C   UNL     1       8.661  11.976  -3.692  1.00  0.00     0.134 A 
ATOM     68  C   UNL     1       8.106   9.741  -4.277  1.00  0.00     0.134 A 
ATOM     69  F   UNL     1       8.496  13.111  -2.996  1.00  0.00    -0.206 F 
ATOM     70  C   UNL     1       9.643  11.994  -4.690  1.00  0.00     0.040 A 
ATOM     71  C   UNL     1       9.117   9.732  -5.241  1.00  0.00     0.040 A 
ATOM     72  F   UNL     1       7.365   8.628  -4.245  1.00  0.00    -0.206 F 
ATOM     73  C   UNL     1       9.866  10.872  -5.478  1.00  0.00     0.006 A 
ENDBRANCH  52  66
BRANCH  53  74
ATOM     74  C   UNL     1       1.021   9.371  -8.413  1.00  0.00     0.057 A 
ATOM     75  C   UNL     1       1.107  10.107  -9.604  1.00  0.00     0.134 A 
ATOM     76  C   UNL     1       0.880   7.980  -8.555  1.00  0.00     0.134 A 
ATOM     77  F   UNL     1       1.271  11.437  -9.571  1.00  0.00    -0.206 F 
ATOM     78  C   UNL     1       1.103   9.492 -10.862  1.00  0.00     0.040 A 
ATOM     79  C   UNL     1       0.868   7.354  -9.807  1.00  0.00     0.040 A 
ATOM     80  F   UNL     1       0.845   7.173  -7.485  1.00  0.00    -0.206 F 
ATOM     81  C   UNL     1       1.000   8.109 -10.966  1.00  0.00     0.006 A 
ENDBRANCH  53  74
BRANCH  65  82
ATOM     82  C   UNL     1       1.847  13.994  -4.257  1.00  0.00     0.057 A 
ATOM     83  C   UNL     1       0.649  13.311  -3.990  1.00  0.00     0.134 A 
ATOM     84  C   UNL     1       1.837  15.378  -4.056  1.00  0.00     0.134 A 
ATOM     85  F   UNL     1       0.581  11.976  -4.054  1.00  0.00    -0.206 F 
ATOM     86  C   UNL     1      -0.512  13.980  -3.587  1.00  0.00     0.040 A 
ATOM     87  C   UNL     1       0.694  16.054  -3.621  1.00  0.00     0.040 A 
ATOM     88  F   UNL     1       2.958  16.094  -4.234  1.00  0.00    -0.206 F 
ATOM     89  C   UNL     1      -0.489  15.357  -3.396  1.00  0.00     0.006 A 
ENDBRANCH  65  82
ENDBRANCH  39  40
ENDBRANCH  31  34
ENDBRANCH  29  30
ENDBRANCH   1  29
TORSDOF 12
