REMARK SMILES Cc1ccc(-c2nn(-c3ccccc3)cc2[C@@H]2[NH2+][C@H](C(=O)NCCCNC(=O)c3ccc(-c4c5nc(c(-c6c(F)cccc6F)c6ccc([nH]6)c(-c6c(F)cccc6F)c6nc(c(-c7c(F)cccc7F)c7ccc4[nH]7)C=C6)C=C5)cc3)CS2)cc1
REMARK SMILES IDX 24 1 23 2 22 3 20 4 21 5 19 7 17 8 18 9 84 10 83 13 16 14
REMARK SMILES IDX 6 15 7 16 8 17 15 18 5 19 1 20 2 21 3 22 86 23 4 24 85 25
REMARK SMILES IDX 9 26 10 27 14 28 11 29 13 30 12 31 25 32 26 33 27 34 28 36
REMARK SMILES IDX 29 37 30 38 82 39 31 40 81 41 32 42 33 43 34 44 75 45 35 46
REMARK SMILES IDX 80 47 74 48 76 49 36 50 79 51 73 52 72 53 37 55 63 56 46 57
REMARK SMILES IDX 62 58 47 59 50 60 61 61 77 62 48 63 49 64 60 66 78 67 51 68
REMARK SMILES IDX 38 69 39 70 44 71 40 72 41 73 43 74 45 75 42 76 64 77 65 78
REMARK SMILES IDX 70 79 66 80 67 81 69 82 71 83 68 84 52 85 53 86 58 87 54 88
REMARK SMILES IDX 55 89 57 90 59 91 56 92
REMARK H PARENT 22 6 18 11 18 12 26 35 76 54 50 65
REMARK Flexibility Score: inf
ROOT
ATOM      1  C   UNL     1      -4.393  -1.712  -1.139  1.00  0.00     0.042 C 
ENDROOT
BRANCH   1   2
ATOM      2  C   UNL     1      -5.792  -1.512  -0.554  1.00  0.00     0.118 C 
BRANCH   2   3
ATOM      3  N   UNL     1      -6.305  -2.711   0.093  1.00  0.00    -0.351 N 
ATOM      4  C   UNL     1      -6.165  -3.204   1.353  1.00  0.00     0.279 C 
ATOM      5  O   UNL     1      -6.782  -4.247   1.605  1.00  0.00    -0.268 OA
ATOM      6  H   UNL     1      -6.860  -3.273  -0.494  1.00  0.00     0.163 HD
BRANCH   4   7
ATOM      7  C   UNL     1      -5.373  -2.513   2.473  1.00  0.00     0.283 C 
ATOM      8  C   UNL     1      -3.890  -0.610   2.778  1.00  0.00     0.278 C 
ATOM      9  N   UNL     1      -4.148  -1.832   2.001  1.00  0.00    -0.320 N 
ATOM     10  S   UNL     1      -5.066  -0.562   4.151  1.00  0.00    -0.087 SA
ATOM     11  H   UNL     1      -3.355  -2.465   2.102  1.00  0.00     0.348 HD
ATOM     12  H   UNL     1      -4.277  -1.573   1.023  1.00  0.00     0.348 HD
ATOM     13  C   UNL     1      -6.266  -1.574   3.261  1.00  0.00     0.151 C 
BRANCH   8  14
ATOM     14  C   UNL     1      -4.043   0.537   1.820  1.00  0.00     0.067 A 
ATOM     15  C   UNL     1      -3.095   1.027   0.866  1.00  0.00     0.103 A 
ATOM     16  N   UNL     1      -3.686   1.873   0.006  1.00  0.00    -0.167 NA
ATOM     17  N   UNL     1      -4.945   2.049   0.452  1.00  0.00    -0.240 N 
ATOM     18  C   UNL     1      -5.159   1.340   1.606  1.00  0.00     0.126 A 
BRANCH  15  19
ATOM     19  C   UNL     1      -1.676   0.706   0.653  1.00  0.00     0.003 A 
ATOM     20  C   UNL     1       2.510  -0.077  -0.127  1.00  0.00     0.044 C 
ATOM     21  C   UNL     1       1.062   0.201   0.146  1.00  0.00    -0.051 A 
ATOM     22  C   UNL     1       0.185  -0.849   0.434  1.00  0.00     0.004 A 
ATOM     23  C   UNL     1       0.558   1.502   0.081  1.00  0.00     0.004 A 
ATOM     24  C   UNL     1      -1.169  -0.597   0.689  1.00  0.00     0.011 A 
ATOM     25  C   UNL     1      -0.795   1.748   0.329  1.00  0.00     0.011 A 
ENDBRANCH  15  19
BRANCH  17  26
ATOM     26  C   UNL     1      -5.892   2.817  -0.282  1.00  0.00     0.065 A 
ATOM     27  C   UNL     1      -5.652   3.096  -1.634  1.00  0.00     0.028 A 
ATOM     28  C   UNL     1      -7.069   3.288   0.313  1.00  0.00     0.028 A 
ATOM     29  C   UNL     1      -6.574   3.826  -2.387  1.00  0.00     0.002 A 
ATOM     30  C   UNL     1      -7.964   4.063  -0.432  1.00  0.00     0.002 A 
ATOM     31  C   UNL     1      -7.717   4.332  -1.779  1.00  0.00     0.000 A 
ENDBRANCH  17  26
ENDBRANCH   8  14
ENDBRANCH   4   7
ENDBRANCH   2   3
ENDBRANCH   1   2
BRANCH   1  32
ATOM     32  C   UNL     1      -4.178  -1.016  -2.474  1.00  0.00     0.118 C 
BRANCH  32  33
ATOM     33  N   UNL     1      -3.490   0.275  -2.503  1.00  0.00    -0.352 N 
ATOM     34  C   UNL     1      -3.320   1.104  -3.616  1.00  0.00     0.251 C 
ATOM     35  H   UNL     1      -3.109   0.593  -1.653  1.00  0.00     0.163 HD
ATOM     36  O   UNL     1      -2.712   2.150  -3.599  1.00  0.00    -0.269 OA
BRANCH  34  37
ATOM     37  C   UNL     1      -4.049   0.689  -4.834  1.00  0.00     0.039 A 
ATOM     38  C   UNL     1      -5.255   1.349  -5.124  1.00  0.00     0.014 A 
ATOM     39  C   UNL     1      -3.781  -0.586  -5.301  1.00  0.00     0.014 A 
ATOM     40  C   UNL     1      -6.311   0.631  -5.686  1.00  0.00     0.010 A 
ATOM     41  C   UNL     1      -4.860  -1.321  -5.731  1.00  0.00     0.010 A 
ATOM     42  C   UNL     1      -6.134  -0.731  -5.900  1.00  0.00    -0.014 A 
BRANCH  42  43
ATOM     43  C   UNL     1      -7.157  -1.684  -6.326  1.00  0.00     0.031 A 
ATOM     44  C   UNL     1      -6.905  -2.416  -7.596  1.00  0.00     0.074 A 
ATOM     45  C   UNL     1      -8.071  -2.163  -5.451  1.00  0.00     0.049 A 
ATOM     46  N   UNL     1      -7.625  -3.378  -8.055  1.00  0.00    -0.248 NA
ATOM     47  C   UNL     1      -5.784  -2.086  -8.474  1.00  0.00     0.031 C 
ATOM     48  C   UNL     1      -8.654  -3.503  -5.467  1.00  0.00     0.029 A 
ATOM     49  N   UNL     1      -8.818  -1.479  -4.486  1.00  0.00    -0.354 N 
ATOM     50  C   UNL     1      -6.915  -3.997  -9.058  1.00  0.00     0.074 A 
ATOM     51  C   UNL     1      -5.826  -3.099  -9.340  1.00  0.00     0.031 C 
ATOM     52  C   UNL     1      -9.803  -3.497  -4.782  1.00  0.00     0.029 A 
ATOM     53  C   UNL     1     -10.085  -2.126  -4.421  1.00  0.00     0.049 A 
ATOM     54  H   UNL     1      -8.525  -0.703  -3.955  1.00  0.00     0.167 HD
ATOM     55  C   UNL     1      -7.295  -5.252  -9.433  1.00  0.00     0.037 A 
ATOM     56  C   UNL     1     -11.230  -1.470  -4.779  1.00  0.00     0.037 A 
ATOM     57  C   UNL     1      -8.649  -5.543  -8.939  1.00  0.00     0.049 A 
ATOM     58  C   UNL     1     -11.863  -1.924  -6.066  1.00  0.00     0.074 A 
ATOM     59  C   UNL     1      -9.205  -6.315  -7.934  1.00  0.00     0.029 A 
ATOM     60  N   UNL     1      -9.671  -4.726  -9.390  1.00  0.00    -0.354 N 
ATOM     61  N   UNL     1     -11.541  -3.014  -6.704  1.00  0.00    -0.248 NA
ATOM     62  C   UNL     1     -12.849  -1.118  -6.789  1.00  0.00     0.031 C 
ATOM     63  C   UNL     1     -10.559  -5.887  -7.746  1.00  0.00     0.029 A 
ATOM     64  C   UNL     1     -10.825  -4.872  -8.648  1.00  0.00     0.049 A 
ATOM     65  H   UNL     1      -9.585  -4.111 -10.153  1.00  0.00     0.167 HD
ATOM     66  C   UNL     1     -12.161  -3.011  -7.924  1.00  0.00     0.074 A 
ATOM     67  C   UNL     1     -12.993  -1.822  -7.922  1.00  0.00     0.031 C 
ATOM     68  C   UNL     1     -11.914  -3.939  -8.892  1.00  0.00     0.037 A 
BRANCH  55  69
ATOM     69  C   UNL     1      -6.424  -6.274 -10.142  1.00  0.00     0.057 A 
ATOM     70  C   UNL     1      -6.857  -7.613 -10.247  1.00  0.00     0.134 A 
ATOM     71  C   UNL     1      -5.131  -6.062 -10.661  1.00  0.00     0.134 A 
ATOM     72  F   UNL     1      -8.066  -7.999  -9.818  1.00  0.00    -0.206 F 
ATOM     73  C   UNL     1      -6.064  -8.641 -10.782  1.00  0.00     0.040 A 
ATOM     74  C   UNL     1      -4.332  -7.078 -11.205  1.00  0.00     0.040 A 
ATOM     75  F   UNL     1      -4.540  -4.868 -10.678  1.00  0.00    -0.206 F 
ATOM     76  C   UNL     1      -4.791  -8.378 -11.258  1.00  0.00     0.006 A 
ENDBRANCH  55  69
BRANCH  56  77
ATOM     77  C   UNL     1     -11.279  -0.102  -4.220  1.00  0.00     0.057 A 
ATOM     78  C   UNL     1     -11.498  -0.034  -2.835  1.00  0.00     0.134 A 
ATOM     79  C   UNL     1     -10.542   0.915  -4.833  1.00  0.00     0.134 A 
ATOM     80  F   UNL     1     -12.245  -0.962  -2.218  1.00  0.00    -0.206 F 
ATOM     81  C   UNL     1     -10.787   0.862  -2.050  1.00  0.00     0.040 A 
ATOM     82  C   UNL     1      -9.821   1.814  -4.054  1.00  0.00     0.040 A 
ATOM     83  F   UNL     1     -10.345   0.913  -6.159  1.00  0.00    -0.206 F 
ATOM     84  C   UNL     1      -9.896   1.733  -2.663  1.00  0.00     0.006 A 
ENDBRANCH  56  77
BRANCH  68  85
ATOM     85  C   UNL     1     -12.692  -3.965 -10.173  1.00  0.00     0.057 A 
ATOM     86  C   UNL     1     -14.094  -3.890 -10.175  1.00  0.00     0.134 A 
ATOM     87  C   UNL     1     -12.088  -4.178 -11.425  1.00  0.00     0.134 A 
ATOM     88  F   UNL     1     -14.777  -3.734  -9.031  1.00  0.00    -0.206 F 
ATOM     89  C   UNL     1     -14.845  -3.985 -11.351  1.00  0.00     0.040 A 
ATOM     90  C   UNL     1     -12.831  -4.325 -12.599  1.00  0.00     0.040 A 
ATOM     91  F   UNL     1     -10.756  -4.228 -11.564  1.00  0.00    -0.206 F 
ATOM     92  C   UNL     1     -14.214  -4.218 -12.567  1.00  0.00     0.006 A 
ENDBRANCH  68  85
ENDBRANCH  42  43
ENDBRANCH  34  37
ENDBRANCH  32  33
ENDBRANCH   1  32
TORSDOF 13
