REMARK SMILES Cc1[nH]c2ccccc2c1/C=C1/SC(=S)N(c2cccc(C(=O)NCCCNC(=O)c3ccc(-c4c5nc(c(-c6c(F)cccc6F)c6ccc([nH]6)c(-c6c(F)cccc6F)c6nc(c(-c7c(F)cccc7F)c7ccc4[nH]7)C=C6)C=C5)cc3)c2)C1=O
REMARK SMILES IDX 26 1 25 2 24 3 22 4 23 5 21 7 17 8 18 9 85 10 19 11 20 12
REMARK SMILES IDX 16 13 11 14 12 15 13 16 86 17 14 18 87 19 15 20 10 21 1 22
REMARK SMILES IDX 2 23 3 24 4 25 9 27 5 28 8 29 6 30 7 31 27 32 28 33 29 34
REMARK SMILES IDX 30 36 31 37 32 38 84 39 33 40 83 41 34 42 35 43 36 44 77 45
REMARK SMILES IDX 37 46 82 47 76 48 78 49 38 50 81 51 75 52 74 53 39 55 65 56
REMARK SMILES IDX 48 57 64 58 49 59 52 60 63 61 79 62 50 63 51 64 62 66 80 67
REMARK SMILES IDX 53 68 40 69 41 70 46 71 42 72 43 73 45 74 47 75 44 76 66 77
REMARK SMILES IDX 67 78 72 79 68 80 69 81 71 82 73 83 70 84 54 85 55 86 60 87
REMARK SMILES IDX 56 88 57 89 59 90 61 91 58 92
REMARK H PARENT 24 6 3 26 28 35 78 54 52 65
REMARK Flexibility Score: inf
ROOT
ATOM      1  C   UNL     1      -8.454  -1.935  -2.691  1.00  0.00     0.042 C 
ENDROOT
BRANCH   1   2
ATOM      2  C   UNL     1      -8.007  -2.896  -3.784  1.00  0.00     0.118 C 
BRANCH   2   3
ATOM      3  N   UNL     1      -7.997  -2.305  -5.114  1.00  0.00    -0.352 N 
ATOM      4  C   UNL     1      -7.037  -1.910  -6.013  1.00  0.00     0.251 C 
ATOM      5  O   UNL     1      -7.452  -1.424  -7.069  1.00  0.00    -0.269 OA
ATOM      6  H   UNL     1      -8.907  -2.150  -5.455  1.00  0.00     0.163 HD
BRANCH   4   7
ATOM      7  C   UNL     1      -5.562  -1.967  -5.793  1.00  0.00     0.041 A 
ATOM      8  C   UNL     1      -3.558  -2.640  -4.564  1.00  0.00     0.051 A 
ATOM      9  C   UNL     1      -2.794  -1.776  -5.355  1.00  0.00     0.027 A 
ATOM     10  C   UNL     1      -4.924  -2.781  -4.856  1.00  0.00     0.040 A 
ATOM     11  C   UNL     1      -3.386  -1.050  -6.386  1.00  0.00     0.003 A 
ATOM     12  C   UNL     1      -4.765  -1.125  -6.584  1.00  0.00     0.014 A 
BRANCH   8  13
ATOM     13  N   UNL     1      -3.023  -3.215  -3.364  1.00  0.00    -0.261 N 
ATOM     14  C   UNL     1      -1.611  -2.504  -0.065  1.00  0.00     0.032 C 
ATOM     15  C   UNL     1      -2.112  -3.055  -1.181  1.00  0.00     0.081 C 
ATOM     16  S   UNL     1      -2.689  -4.673  -1.251  1.00  0.00    -0.054 SA
ATOM     17  C   UNL     1      -2.310  -2.382  -2.498  1.00  0.00     0.270 C 
ATOM     18  C   UNL     1      -3.274  -4.500  -2.906  1.00  0.00     0.152 C 
ATOM     19  O   UNL     1      -1.944  -1.236  -2.731  1.00  0.00    -0.268 OA
ATOM     20  S   UNL     1      -3.938  -5.812  -3.705  1.00  0.00    -0.051 S 
BRANCH  14  21
ATOM     21  C   UNL     1      -1.154  -1.162   0.070  1.00  0.00     0.004 A 
ATOM     22  C   UNL     1      -3.434   0.136   0.170  1.00  0.00     0.065 C 
ATOM     23  C   UNL     1      -1.960  -0.043   0.163  1.00  0.00     0.020 A 
ATOM     24  N   UNL     1      -1.121   1.047   0.194  1.00  0.00    -0.358 N 
ATOM     25  C   UNL     1       0.197   0.652   0.149  1.00  0.00     0.046 A 
ATOM     26  H   UNL     1      -1.422   1.983   0.242  1.00  0.00     0.166 HD
ATOM     27  C   UNL     1       0.207  -0.741   0.093  1.00  0.00     0.007 A 
ATOM     28  C   UNL     1       1.368   1.418   0.136  1.00  0.00     0.027 A 
ATOM     29  C   UNL     1       1.449  -1.406   0.034  1.00  0.00     0.011 A 
ATOM     30  C   UNL     1       2.587   0.736   0.072  1.00  0.00     0.002 A 
ATOM     31  C   UNL     1       2.630  -0.655   0.026  1.00  0.00     0.001 A 
ENDBRANCH  14  21
ENDBRANCH   8  13
ENDBRANCH   4   7
ENDBRANCH   2   3
ENDBRANCH   1   2
BRANCH   1  32
ATOM     32  C   UNL     1      -9.954  -1.668  -2.672  1.00  0.00     0.118 C 
BRANCH  32  33
ATOM     33  N   UNL     1     -10.735  -2.883  -2.476  1.00  0.00    -0.352 N 
ATOM     34  C   UNL     1     -11.521  -3.309  -1.436  1.00  0.00     0.251 C 
ATOM     35  H   UNL     1     -10.691  -3.515  -3.230  1.00  0.00     0.163 HD
ATOM     36  O   UNL     1     -11.887  -4.482  -1.414  1.00  0.00    -0.269 OA
BRANCH  34  37
ATOM     37  C   UNL     1     -11.937  -2.397  -0.347  1.00  0.00     0.039 A 
ATOM     38  C   UNL     1     -12.123  -2.928   0.934  1.00  0.00     0.014 A 
ATOM     39  C   UNL     1     -12.226  -1.051  -0.582  1.00  0.00     0.014 A 
ATOM     40  C   UNL     1     -12.552  -2.105   1.977  1.00  0.00     0.010 A 
ATOM     41  C   UNL     1     -12.560  -0.210   0.477  1.00  0.00     0.010 A 
ATOM     42  C   UNL     1     -12.747  -0.731   1.763  1.00  0.00    -0.014 A 
BRANCH  42  43
ATOM     43  C   UNL     1     -13.165   0.160   2.875  1.00  0.00     0.031 A 
ATOM     44  C   UNL     1     -14.490   0.872   2.828  1.00  0.00     0.074 A 
ATOM     45  C   UNL     1     -12.329   0.355   3.913  1.00  0.00     0.049 A 
ATOM     46  N   UNL     1     -15.023   1.685   3.706  1.00  0.00    -0.248 NA
ATOM     47  C   UNL     1     -15.313   0.671   1.625  1.00  0.00     0.031 C 
ATOM     48  C   UNL     1     -10.989  -0.222   4.040  1.00  0.00     0.029 A 
ATOM     49  N   UNL     1     -12.483   1.091   5.059  1.00  0.00    -0.354 N 
ATOM     50  C   UNL     1     -16.228   2.101   3.155  1.00  0.00     0.074 A 
ATOM     51  C   UNL     1     -16.323   1.499   1.843  1.00  0.00     0.031 C 
ATOM     52  C   UNL     1     -10.461   0.147   5.218  1.00  0.00     0.029 A 
ATOM     53  C   UNL     1     -11.413   1.005   5.916  1.00  0.00     0.049 A 
ATOM     54  H   UNL     1     -13.285   1.629   5.251  1.00  0.00     0.167 HD
ATOM     55  C   UNL     1     -17.184   2.891   3.702  1.00  0.00     0.037 A 
ATOM     56  C   UNL     1     -11.227   1.545   7.134  1.00  0.00     0.037 A 
ATOM     57  C   UNL     1     -17.102   3.460   5.021  1.00  0.00     0.049 A 
ATOM     58  C   UNL     1     -12.323   2.375   7.740  1.00  0.00     0.074 A 
ATOM     59  C   UNL     1     -18.040   4.225   5.692  1.00  0.00     0.029 A 
ATOM     60  N   UNL     1     -16.017   3.319   5.873  1.00  0.00    -0.354 N 
ATOM     61  N   UNL     1     -13.488   2.702   7.236  1.00  0.00    -0.248 NA
ATOM     62  C   UNL     1     -12.083   2.897   9.092  1.00  0.00     0.031 C 
ATOM     63  C   UNL     1     -17.509   4.572   6.940  1.00  0.00     0.029 A 
ATOM     64  C   UNL     1     -16.258   3.990   7.061  1.00  0.00     0.049 A 
ATOM     65  H   UNL     1     -15.197   2.816   5.665  1.00  0.00     0.167 HD
ATOM     66  C   UNL     1     -14.130   3.447   8.215  1.00  0.00     0.074 A 
ATOM     67  C   UNL     1     -13.232   3.505   9.351  1.00  0.00     0.031 C 
ATOM     68  C   UNL     1     -15.351   4.035   8.178  1.00  0.00     0.037 A 
BRANCH  55  69
ATOM     69  C   UNL     1     -18.405   3.171   2.874  1.00  0.00     0.057 A 
ATOM     70  C   UNL     1     -19.358   2.178   2.605  1.00  0.00     0.134 A 
ATOM     71  C   UNL     1     -18.647   4.451   2.361  1.00  0.00     0.134 A 
ATOM     72  F   UNL     1     -19.180   0.926   3.056  1.00  0.00    -0.206 F 
ATOM     73  C   UNL     1     -20.490   2.440   1.833  1.00  0.00     0.040 A 
ATOM     74  C   UNL     1     -19.790   4.732   1.609  1.00  0.00     0.040 A 
ATOM     75  F   UNL     1     -17.780   5.450   2.584  1.00  0.00    -0.206 F 
ATOM     76  C   UNL     1     -20.712   3.724   1.338  1.00  0.00     0.006 A 
ENDBRANCH  55  69
BRANCH  56  77
ATOM     77  C   UNL     1      -9.976   1.272   7.884  1.00  0.00     0.057 A 
ATOM     78  C   UNL     1      -9.980   0.437   9.008  1.00  0.00     0.134 A 
ATOM     79  C   UNL     1      -8.753   1.833   7.499  1.00  0.00     0.134 A 
ATOM     80  F   UNL     1     -11.124  -0.117   9.432  1.00  0.00    -0.206 F 
ATOM     81  C   UNL     1      -8.816   0.187   9.736  1.00  0.00     0.040 A 
ATOM     82  C   UNL     1      -7.577   1.572   8.205  1.00  0.00     0.040 A 
ATOM     83  F   UNL     1      -8.682   2.631   6.424  1.00  0.00    -0.206 F 
ATOM     84  C   UNL     1      -7.609   0.752   9.332  1.00  0.00     0.006 A 
ENDBRANCH  56  77
BRANCH  68  85
ATOM     85  C   UNL     1     -15.786   4.766   9.413  1.00  0.00     0.057 A 
ATOM     86  C   UNL     1     -15.216   5.990   9.786  1.00  0.00     0.134 A 
ATOM     87  C   UNL     1     -16.791   4.241  10.236  1.00  0.00     0.134 A 
ATOM     88  F   UNL     1     -14.239   6.538   9.048  1.00  0.00    -0.206 F 
ATOM     89  C   UNL     1     -15.605   6.649  10.953  1.00  0.00     0.040 A 
ATOM     90  C   UNL     1     -17.207   4.904  11.390  1.00  0.00     0.040 A 
ATOM     91  F   UNL     1     -17.384   3.077   9.929  1.00  0.00    -0.206 F 
ATOM     92  C   UNL     1     -16.607   6.108  11.756  1.00  0.00     0.006 A 
ENDBRANCH  68  85
ENDBRANCH  42  43
ENDBRANCH  34  37
ENDBRANCH  32  33
ENDBRANCH   1  32
TORSDOF 12
