REMARK SMILES O=C(NCCCNC(=O)c1ccccc1C(=O)N1CCS[C@H]1c1ccccc1)c1ccc(-c2c3nc(c(-c4c(F)cccc4F)c4ccc([nH]4)c(-c4c(F)cccc4F)c4nc(c(-c5c(F)cccc5F)c5ccc2[nH]5)C=C4)C=C3)cc1
REMARK SMILES IDX 5 1 4 2 3 3 1 4 2 5 29 7 30 8 82 9 31 10 81 11 32 12 33 13
REMARK SMILES IDX 34 14 75 15 35 16 80 17 74 18 76 19 36 20 79 21 73 22 72 23
REMARK SMILES IDX 37 25 63 26 46 27 62 28 47 29 50 30 61 31 77 32 48 33 49 34
REMARK SMILES IDX 60 36 78 37 51 38 38 39 39 40 44 41 40 42 41 43 43 44 45 45
REMARK SMILES IDX 42 46 64 47 65 48 70 49 66 50 67 51 69 52 71 53 68 54 52 55
REMARK SMILES IDX 53 56 58 57 54 58 55 59 57 60 59 61 56 62 6 63 7 64 8 65
REMARK SMILES IDX 9 67 10 68 11 69 15 70 12 71 14 72 13 73 16 74 17 75 18 76
REMARK SMILES IDX 19 77 22 78 20 79 21 80 23 81 24 82 28 83 25 84 27 85 26 86
REMARK H PARENT 3 6 76 24 50 35 7 66
REMARK Flexibility Score: inf
ROOT
ATOM      1  C   UNL     1       5.791  -1.194   2.292  1.00  0.00     0.042 C 
ENDROOT
BRANCH   1   2
ATOM      2  C   UNL     1       5.101  -0.381   1.204  1.00  0.00     0.118 C 
BRANCH   2   3
ATOM      3  N   UNL     1       3.670  -0.612   1.075  1.00  0.00    -0.352 N 
ATOM      4  O   UNL     1       1.558  -0.127   0.403  1.00  0.00    -0.269 OA
ATOM      5  C   UNL     1       2.729   0.212   0.499  1.00  0.00     0.251 C 
ATOM      6  H   UNL     1       3.334  -1.460   1.445  1.00  0.00     0.163 HD
BRANCH   5   7
ATOM      7  C   UNL     1       3.165   1.559   0.084  1.00  0.00     0.039 A 
ATOM      8  C   UNL     1       4.228   1.708  -0.808  1.00  0.00     0.014 A 
ATOM      9  C   UNL     1       2.623   2.661   0.750  1.00  0.00     0.014 A 
ATOM     10  C   UNL     1       4.872   2.936  -0.890  1.00  0.00     0.010 A 
ATOM     11  C   UNL     1       3.230   3.909   0.610  1.00  0.00     0.010 A 
ATOM     12  C   UNL     1       4.399   4.037  -0.156  1.00  0.00    -0.014 A 
BRANCH  12  13
ATOM     13  C   UNL     1       5.168   5.304  -0.164  1.00  0.00     0.031 A 
ATOM     14  C   UNL     1       5.871   5.783   1.077  1.00  0.00     0.074 A 
ATOM     15  C   UNL     1       5.275   5.995  -1.313  1.00  0.00     0.049 A 
ATOM     16  N   UNL     1       6.582   6.868   1.256  1.00  0.00    -0.248 NA
ATOM     17  C   UNL     1       5.758   4.939   2.278  1.00  0.00     0.031 C 
ATOM     18  C   UNL     1       4.647   5.620  -2.581  1.00  0.00     0.029 A 
ATOM     19  N   UNL     1       5.966   7.140  -1.604  1.00  0.00    -0.354 N 
ATOM     20  C   UNL     1       6.970   6.855   2.589  1.00  0.00     0.074 A 
ATOM     21  C   UNL     1       6.413   5.657   3.180  1.00  0.00     0.031 C 
ATOM     22  C   UNL     1       5.019   6.495  -3.526  1.00  0.00     0.029 A 
ATOM     23  C   UNL     1       5.867   7.516  -2.920  1.00  0.00     0.049 A 
ATOM     24  H   UNL     1       6.484   7.644  -0.935  1.00  0.00     0.167 HD
ATOM     25  C   UNL     1       7.723   7.761   3.258  1.00  0.00     0.037 A 
ATOM     26  C   UNL     1       6.393   8.572  -3.565  1.00  0.00     0.037 A 
ATOM     27  C   UNL     1       8.308   8.932   2.659  1.00  0.00     0.049 A 
ATOM     28  C   UNL     1       7.234   9.551  -2.805  1.00  0.00     0.074 A 
ATOM     29  C   UNL     1       9.110   9.895   3.248  1.00  0.00     0.029 A 
ATOM     30  N   UNL     1       8.161   9.292   1.329  1.00  0.00    -0.354 N 
ATOM     31  N   UNL     1       7.579   9.533  -1.541  1.00  0.00    -0.248 NA
ATOM     32  C   UNL     1       7.748  10.703  -3.558  1.00  0.00     0.031 C 
ATOM     33  C   UNL     1       9.431  10.851   2.277  1.00  0.00     0.029 A 
ATOM     34  C   UNL     1       8.848  10.468   1.079  1.00  0.00     0.049 A 
ATOM     35  H   UNL     1       7.645   8.787   0.660  1.00  0.00     0.167 HD
ATOM     36  C   UNL     1       8.343  10.673  -1.341  1.00  0.00     0.074 A 
ATOM     37  C   UNL     1       8.434  11.346  -2.622  1.00  0.00     0.031 C 
ATOM     38  C   UNL     1       8.911  11.127  -0.199  1.00  0.00     0.037 A 
BRANCH  25  39
ATOM     39  C   UNL     1       7.943   7.533   4.723  1.00  0.00     0.057 A 
ATOM     40  C   UNL     1       8.866   6.592   5.195  1.00  0.00     0.134 A 
ATOM     41  C   UNL     1       7.256   8.300   5.673  1.00  0.00     0.134 A 
ATOM     42  F   UNL     1       9.544   5.816   4.336  1.00  0.00    -0.206 F 
ATOM     43  C   UNL     1       9.090   6.413   6.562  1.00  0.00     0.040 A 
ATOM     44  C   UNL     1       7.482   8.141   7.041  1.00  0.00     0.040 A 
ATOM     45  F   UNL     1       6.360   9.220   5.285  1.00  0.00    -0.206 F 
ATOM     46  C   UNL     1       8.401   7.194   7.489  1.00  0.00     0.006 A 
ENDBRANCH  25  39
BRANCH  26  47
ATOM     47  C   UNL     1       6.126   8.742  -5.010  1.00  0.00     0.057 A 
ATOM     48  C   UNL     1       7.110   8.459  -5.962  1.00  0.00     0.134 A 
ATOM     49  C   UNL     1       4.864   9.134  -5.473  1.00  0.00     0.134 A 
ATOM     50  F   UNL     1       8.339   8.091  -5.573  1.00  0.00    -0.206 F 
ATOM     51  C   UNL     1       6.849   8.559  -7.329  1.00  0.00     0.040 A 
ATOM     52  C   UNL     1       4.584   9.220  -6.836  1.00  0.00     0.040 A 
ATOM     53  F   UNL     1       3.880   9.408  -4.604  1.00  0.00    -0.206 F 
ATOM     54  C   UNL     1       5.579   8.932  -7.769  1.00  0.00     0.006 A 
ENDBRANCH  26  47
BRANCH  38  55
ATOM     55  C   UNL     1       9.668  12.414  -0.290  1.00  0.00     0.057 A 
ATOM     56  C   UNL     1       9.003  13.646  -0.316  1.00  0.00     0.134 A 
ATOM     57  C   UNL     1      11.066  12.424  -0.338  1.00  0.00     0.134 A 
ATOM     58  F   UNL     1       7.663  13.696  -0.286  1.00  0.00    -0.206 F 
ATOM     59  C   UNL     1       9.706  14.847  -0.402  1.00  0.00     0.040 A 
ATOM     60  C   UNL     1      11.780  13.620  -0.411  1.00  0.00     0.040 A 
ATOM     61  F   UNL     1      11.756  11.274  -0.314  1.00  0.00    -0.206 F 
ATOM     62  C   UNL     1      11.099  14.836  -0.447  1.00  0.00     0.006 A 
ENDBRANCH  38  55
ENDBRANCH  12  13
ENDBRANCH   5   7
ENDBRANCH   2   3
ENDBRANCH   1   2
BRANCH   1  63
ATOM     63  C   UNL     1       5.596  -2.700   2.195  1.00  0.00     0.118 C 
BRANCH  63  64
ATOM     64  N   UNL     1       6.008  -3.255   0.920  1.00  0.00    -0.352 N 
ATOM     65  C   UNL     1       6.315  -4.554   0.618  1.00  0.00     0.252 C 
ATOM     66  H   UNL     1       6.075  -2.614   0.176  1.00  0.00     0.163 HD
ATOM     67  O   UNL     1       6.782  -4.816  -0.487  1.00  0.00    -0.269 OA
BRANCH  65  68
ATOM     68  C   UNL     1       6.201  -5.605   1.648  1.00  0.00     0.052 A 
ATOM     69  C   UNL     1       7.404  -6.219   2.031  1.00  0.00     0.014 A 
ATOM     70  C   UNL     1       5.000  -5.975   2.268  1.00  0.00     0.052 A 
ATOM     71  C   UNL     1       7.421  -7.144   3.074  1.00  0.00     0.001 A 
ATOM     72  C   UNL     1       5.034  -6.877   3.344  1.00  0.00     0.014 A 
ATOM     73  C   UNL     1       6.239  -7.460   3.741  1.00  0.00     0.001 A 
BRANCH  70  74
ATOM     74  C   UNL     1       3.690  -5.370   1.940  1.00  0.00     0.255 C 
ATOM     75  O   UNL     1       3.059  -4.869   2.872  1.00  0.00    -0.269 OA
BRANCH  74  76
ATOM     76  N   UNL     1       3.287  -5.253   0.623  1.00  0.00    -0.322 N 
ATOM     77  C   UNL     1       2.359  -4.183   0.294  1.00  0.00     0.132 C 
ATOM     78  C   UNL     1       3.129  -6.350  -0.328  1.00  0.00     0.174 C 
ATOM     79  C   UNL     1       2.527  -3.886  -1.182  1.00  0.00     0.093 C 
ATOM     80  S   UNL     1       2.763  -5.526  -1.927  1.00  0.00    -0.130 SA
BRANCH  78  81
ATOM     81  C   UNL     1       4.166  -7.444  -0.377  1.00  0.00    -0.015 A 
ATOM     82  C   UNL     1       5.301  -7.409  -1.199  1.00  0.00     0.007 A 
ATOM     83  C   UNL     1       3.991  -8.568   0.455  1.00  0.00     0.007 A 
ATOM     84  C   UNL     1       6.234  -8.449  -1.179  1.00  0.00     0.000 A 
ATOM     85  C   UNL     1       4.925  -9.605   0.479  1.00  0.00     0.000 A 
ATOM     86  C   UNL     1       6.048  -9.544  -0.339  1.00  0.00     0.000 A 
ENDBRANCH  78  81
ENDBRANCH  74  76
ENDBRANCH  70  74
ENDBRANCH  65  68
ENDBRANCH  63  64
ENDBRANCH   1  63
TORSDOF 13
