REMARK SMILES CCCCCC[C@@H](C(=O)NCCCNC(=O)c1ccc(-c2c3nc(c(-c4c(F)cccc4F)c4ccc([nH]4)c(-c4c(F)cccc4F)c4nc(c(-c5c(F)cccc5F)c5ccc2[nH]5)C=C4)C=C3)cc1)c1ccccc1C
REMARK SMILES IDX 8 1 9 2 10 3 7 5 6 6 5 7 4 8 3 9 2 10 1 11 71 12 72 13 76 14
REMARK SMILES IDX 73 15 75 16 77 17 74 18 11 19 12 20 13 21 14 22 15 23 16 25
REMARK SMILES IDX 17 26 18 27 70 28 19 29 69 30 20 31 21 32 22 33 63 34 23 35
REMARK SMILES IDX 68 36 62 37 64 38 24 39 67 40 61 41 60 42 25 44 51 45 34 46
REMARK SMILES IDX 50 47 35 48 38 49 49 50 65 51 36 52 37 53 48 55 66 56 39 57
REMARK SMILES IDX 26 58 27 59 32 60 28 61 29 62 31 63 33 64 30 65 52 66 53 67
REMARK SMILES IDX 58 68 54 69 55 70 57 71 59 72 56 73 40 74 41 75 46 76 42 77
REMARK SMILES IDX 43 78 45 79 47 80 44 81
REMARK H PARENT 10 4 14 24 64 43 38 54
REMARK Flexibility Score: inf
ROOT
ATOM      1  C   UNL     1      -2.128   4.656  -3.096  1.00  0.00     0.227 C 
ATOM      2  O   UNL     1      -3.247   5.157  -3.248  1.00  0.00    -0.274 OA
ATOM      3  N   UNL     1      -1.630   3.992  -4.185  1.00  0.00    -0.356 N 
ATOM      4  H   UNL     1      -2.128   4.160  -5.017  1.00  0.00     0.163 HD
ENDROOT
BRANCH   1   5
ATOM      5  C   UNL     1      -1.321   4.821  -1.778  1.00  0.00     0.109 C 
BRANCH   5   6
ATOM      6  C   UNL     1      -1.523   3.649  -0.795  1.00  0.00     0.018 C 
BRANCH   6   7
ATOM      7  C   UNL     1      -0.779   2.338  -1.011  1.00  0.00     0.001 C 
BRANCH   7   8
ATOM      8  C   UNL     1       0.745   2.405  -0.938  1.00  0.00     0.000 C 
BRANCH   8   9
ATOM      9  C   UNL     1       1.310   2.316   0.480  1.00  0.00    -0.000 C 
BRANCH   9  10
ATOM     10  C   UNL     1       0.914   1.064   1.272  1.00  0.00    -0.003 C 
ATOM     11  C   UNL     1       1.146  -0.243   0.528  1.00  0.00     0.004 C 
ENDBRANCH   9  10
ENDBRANCH   8   9
ENDBRANCH   7   8
ENDBRANCH   6   7
ENDBRANCH   5   6
BRANCH   5  12
ATOM     12  C   UNL     1      -1.621   6.220  -1.153  1.00  0.00    -0.033 A 
ATOM     13  C   UNL     1      -1.072   7.323  -1.856  1.00  0.00     0.005 A 
ATOM     14  C   UNL     1      -2.394   6.510   0.005  1.00  0.00    -0.047 A 
ATOM     15  C   UNL     1      -1.238   8.642  -1.423  1.00  0.00     0.000 A 
ATOM     16  C   UNL     1      -2.507   7.849   0.446  1.00  0.00     0.004 A 
ATOM     17  C   UNL     1      -3.130   5.508   0.857  1.00  0.00     0.044 C 
ATOM     18  C   UNL     1      -1.942   8.904  -0.260  1.00  0.00     0.000 A 
ENDBRANCH   5  12
ENDBRANCH   1   5
BRANCH   3  19
ATOM     19  C   UNL     1      -0.503   3.086  -4.345  1.00  0.00     0.117 C 
BRANCH  19  20
ATOM     20  C   UNL     1      -0.978   1.629  -4.340  1.00  0.00     0.042 C 
BRANCH  20  21
ATOM     21  C   UNL     1      -1.424   1.084  -5.686  1.00  0.00     0.118 C 
BRANCH  21  22
ATOM     22  N   UNL     1      -0.316   0.590  -6.485  1.00  0.00    -0.352 N 
ATOM     23  C   UNL     1       0.009  -0.687  -6.882  1.00  0.00     0.251 C 
ATOM     24  H   UNL     1       0.309   1.286  -6.794  1.00  0.00     0.163 HD
ATOM     25  O   UNL     1       1.104  -0.882  -7.403  1.00  0.00    -0.269 OA
BRANCH  23  26
ATOM     26  C   UNL     1      -0.913  -1.837  -6.680  1.00  0.00     0.039 A 
ATOM     27  C   UNL     1      -0.363  -3.099  -6.424  1.00  0.00     0.014 A 
ATOM     28  C   UNL     1      -2.299  -1.714  -6.798  1.00  0.00     0.014 A 
ATOM     29  C   UNL     1      -1.196  -4.210  -6.239  1.00  0.00     0.010 A 
ATOM     30  C   UNL     1      -3.131  -2.796  -6.509  1.00  0.00     0.010 A 
ATOM     31  C   UNL     1      -2.591  -4.063  -6.248  1.00  0.00    -0.014 A 
BRANCH  31  32
ATOM     32  C   UNL     1      -3.500  -5.224  -6.038  1.00  0.00     0.031 A 
ATOM     33  C   UNL     1      -4.463  -5.636  -7.122  1.00  0.00     0.074 A 
ATOM     34  C   UNL     1      -3.503  -5.875  -4.858  1.00  0.00     0.049 A 
ATOM     35  N   UNL     1      -5.389  -6.562  -7.102  1.00  0.00    -0.248 NA
ATOM     36  C   UNL     1      -4.399  -4.886  -8.387  1.00  0.00     0.031 C 
ATOM     37  C   UNL     1      -2.656  -5.553  -3.708  1.00  0.00     0.029 A 
ATOM     38  N   UNL     1      -4.255  -6.941  -4.426  1.00  0.00    -0.354 N 
ATOM     39  C   UNL     1      -6.027  -6.488  -8.335  1.00  0.00     0.074 A 
ATOM     40  C   UNL     1      -5.423  -5.391  -9.058  1.00  0.00     0.031 C 
ATOM     41  C   UNL     1      -2.915  -6.418  -2.714  1.00  0.00     0.029 A 
ATOM     42  C   UNL     1      -3.973  -7.329  -3.137  1.00  0.00     0.049 A 
ATOM     43  H   UNL     1      -4.931  -7.385  -4.986  1.00  0.00     0.167 HD
ATOM     44  C   UNL     1      -7.008  -7.278  -8.834  1.00  0.00     0.037 A 
ATOM     45  C   UNL     1      -4.511  -8.305  -2.381  1.00  0.00     0.037 A 
ATOM     46  C   UNL     1      -7.582  -8.395  -8.132  1.00  0.00     0.049 A 
ATOM     47  C   UNL     1      -5.596  -9.172  -2.959  1.00  0.00     0.074 A 
ATOM     48  C   UNL     1      -8.537  -9.294  -8.576  1.00  0.00     0.029 A 
ATOM     49  N   UNL     1      -7.251  -8.768  -6.839  1.00  0.00    -0.354 N 
ATOM     50  N   UNL     1      -6.144  -9.127  -4.149  1.00  0.00    -0.248 NA
ATOM     51  C   UNL     1      -6.132 -10.230  -2.091  1.00  0.00     0.031 C 
ATOM     52  C   UNL     1      -8.812 -10.188  -7.537  1.00  0.00     0.029 A 
ATOM     53  C   UNL     1      -7.995  -9.874  -6.462  1.00  0.00     0.049 A 
ATOM     54  H   UNL     1      -6.586  -8.315  -6.272  1.00  0.00     0.167 HD
ATOM     55  C   UNL     1      -7.067 -10.165  -4.182  1.00  0.00     0.074 A 
ATOM     56  C   UNL     1      -6.993 -10.832  -2.899  1.00  0.00     0.031 C 
ATOM     57  C   UNL     1      -7.901 -10.534  -5.185  1.00  0.00     0.037 A 
BRANCH  44  58
ATOM     58  C   UNL     1      -7.516  -6.966 -10.213  1.00  0.00     0.057 A 
ATOM     59  C   UNL     1      -6.735  -7.186 -11.355  1.00  0.00     0.134 A 
ATOM     60  C   UNL     1      -8.814  -6.475 -10.405  1.00  0.00     0.134 A 
ATOM     61  F   UNL     1      -5.479  -7.644 -11.242  1.00  0.00    -0.206 F 
ATOM     62  C   UNL     1      -7.215  -6.901 -12.635  1.00  0.00     0.040 A 
ATOM     63  C   UNL     1      -9.315  -6.214 -11.682  1.00  0.00     0.040 A 
ATOM     64  F   UNL     1      -9.620  -6.250  -9.356  1.00  0.00    -0.206 F 
ATOM     65  C   UNL     1      -8.512  -6.421 -12.801  1.00  0.00     0.006 A 
ENDBRANCH  44  58
BRANCH  45  66
ATOM     66  C   UNL     1      -4.019  -8.534  -0.998  1.00  0.00     0.057 A 
ATOM     67  C   UNL     1      -3.289  -9.684  -0.673  1.00  0.00     0.134 A 
ATOM     68  C   UNL     1      -4.279  -7.624   0.033  1.00  0.00     0.134 A 
ATOM     69  F   UNL     1      -3.025 -10.603  -1.613  1.00  0.00    -0.206 F 
ATOM     70  C   UNL     1      -2.853  -9.931   0.630  1.00  0.00     0.040 A 
ATOM     71  C   UNL     1      -3.827  -7.845   1.336  1.00  0.00     0.040 A 
ATOM     72  F   UNL     1      -4.967  -6.500  -0.213  1.00  0.00    -0.206 F 
ATOM     73  C   UNL     1      -3.119  -9.007   1.639  1.00  0.00     0.006 A 
ENDBRANCH  45  66
BRANCH  57  74
ATOM     74  C   UNL     1      -8.771 -11.733  -4.951  1.00  0.00     0.057 A 
ATOM     75  C   UNL     1      -9.873 -11.690  -4.088  1.00  0.00     0.134 A 
ATOM     76  C   UNL     1      -8.526 -12.933  -5.630  1.00  0.00     0.134 A 
ATOM     77  F   UNL     1     -10.154 -10.574  -3.398  1.00  0.00    -0.206 F 
ATOM     78  C   UNL     1     -10.688 -12.806  -3.892  1.00  0.00     0.040 A 
ATOM     79  C   UNL     1      -9.350 -14.047  -5.463  1.00  0.00     0.040 A 
ATOM     80  F   UNL     1      -7.492 -13.038  -6.479  1.00  0.00    -0.206 F 
ATOM     81  C   UNL     1     -10.431 -13.987  -4.587  1.00  0.00     0.006 A 
ENDBRANCH  57  74
ENDBRANCH  31  32
ENDBRANCH  23  26
ENDBRANCH  21  22
ENDBRANCH  20  21
ENDBRANCH  19  20
ENDBRANCH   3  19
TORSDOF 16
