REMARK SMILES O=C(NCCCNC(=O)c1ccc(-c2c3nc(c(-c4c(F)cccc4F)c4ccc([nH]4)c(-c4c(F)cccc4F)c4nc(c(-c5c(F)cccc5F)c5ccc2[nH]5)C=C4)C=C3)cc1)c1ccc(C(=O)Nc2ccc(-c3nc4ccccc4[nH]3)cc2)cc1
REMARK SMILES IDX 4 1 3 2 1 3 2 4 64 6 65 7 87 8 66 9 86 10 67 11 68 12 69 13
REMARK SMILES IDX 70 14 71 16 72 17 85 18 73 19 84 20 74 21 75 22 76 23 83 24
REMARK SMILES IDX 77 25 82 26 78 28 81 29 79 30 80 31 5 32 6 33 7 34 8 35 9 37
REMARK SMILES IDX 10 38 11 39 63 40 12 41 62 42 13 43 14 44 15 45 56 46 16 47
REMARK SMILES IDX 61 48 55 49 57 50 17 51 60 52 54 53 53 54 18 56 44 57 27 58
REMARK SMILES IDX 43 59 28 60 31 61 42 62 58 63 29 64 30 65 41 67 59 68 32 69
REMARK SMILES IDX 19 70 20 71 25 72 21 73 22 74 24 75 26 76 23 77 45 78 46 79
REMARK SMILES IDX 51 80 47 81 48 82 50 83 52 84 49 85 33 86 34 87 39 88 35 89
REMARK SMILES IDX 36 90 38 91 40 92 37 93
REMARK H PARENT 3 5 70 15 83 27 7 36 57 55 31 66
REMARK Flexibility Score: inf
ROOT
ATOM      1  C   UNL     1       4.726   0.030  -1.359  1.00  0.00     0.118 C 
ENDROOT
BRANCH   1   2
ATOM      2  N   UNL     1       3.300   0.273  -1.214  1.00  0.00    -0.352 N 
ATOM      3  O   UNL     1       1.303   0.512  -0.224  1.00  0.00    -0.269 OA
ATOM      4  C   UNL     1       2.524   0.447  -0.096  1.00  0.00     0.251 C 
ATOM      5  H   UNL     1       2.807   0.320  -2.064  1.00  0.00     0.163 HD
BRANCH   4   6
ATOM      6  C   UNL     1       3.121   0.508   1.258  1.00  0.00     0.039 A 
ATOM      7  C   UNL     1       4.321   1.165   1.534  1.00  0.00     0.014 A 
ATOM      8  C   UNL     1       2.418  -0.082   2.307  1.00  0.00     0.014 A 
ATOM      9  C   UNL     1       4.910   1.055   2.799  1.00  0.00     0.014 A 
ATOM     10  C   UNL     1       2.963  -0.098   3.594  1.00  0.00     0.014 A 
ATOM     11  C   UNL     1       4.260   0.373   3.837  1.00  0.00     0.040 A 
BRANCH  11  12
ATOM     12  C   UNL     1       4.963   0.288   5.164  1.00  0.00     0.255 C 
ATOM     13  O   UNL     1       5.918   1.038   5.374  1.00  0.00    -0.269 OA
ATOM     14  N   UNL     1       4.521  -0.518   6.196  1.00  0.00    -0.322 N 
ATOM     15  H   UNL     1       4.846  -0.270   7.092  1.00  0.00     0.170 HD
BRANCH  14  16
ATOM     16  C   UNL     1       3.679  -1.633   6.154  1.00  0.00     0.041 A 
ATOM     17  C   UNL     1       2.655  -1.725   7.100  1.00  0.00     0.027 A 
ATOM     18  C   UNL     1       3.787  -2.591   5.149  1.00  0.00     0.027 A 
ATOM     19  C   UNL     1       1.633  -2.670   6.933  1.00  0.00     0.014 A 
ATOM     20  C   UNL     1       2.787  -3.550   5.007  1.00  0.00     0.014 A 
ATOM     21  C   UNL     1       1.671  -3.568   5.858  1.00  0.00     0.017 A 
BRANCH  21  22
ATOM     22  C   UNL     1       0.590  -4.502   5.537  1.00  0.00     0.138 A 
ATOM     23  N   UNL     1       0.736  -5.574   4.781  1.00  0.00    -0.229 NA
ATOM     24  N   UNL     1      -0.738  -4.336   5.868  1.00  0.00    -0.338 N 
ATOM     25  C   UNL     1      -0.517  -6.081   4.583  1.00  0.00     0.089 A 
ATOM     26  C   UNL     1      -1.470  -5.322   5.249  1.00  0.00     0.066 A 
ATOM     27  H   UNL     1      -1.102  -3.630   6.449  1.00  0.00     0.168 HD
ATOM     28  C   UNL     1      -0.915  -7.185   3.820  1.00  0.00     0.030 A 
ATOM     29  C   UNL     1      -2.837  -5.604   5.195  1.00  0.00     0.028 A 
ATOM     30  C   UNL     1      -2.277  -7.492   3.748  1.00  0.00     0.002 A 
ATOM     31  C   UNL     1      -3.219  -6.713   4.426  1.00  0.00     0.002 A 
ENDBRANCH  21  22
ENDBRANCH  14  16
ENDBRANCH  11  12
ENDBRANCH   4   6
ENDBRANCH   1   2
BRANCH   1  32
ATOM     32  C   UNL     1       5.045  -1.305  -2.014  1.00  0.00     0.042 C 
BRANCH  32  33
ATOM     33  C   UNL     1       4.478  -1.477  -3.414  1.00  0.00     0.118 C 
BRANCH  33  34
ATOM     34  N   UNL     1       4.937  -0.455  -4.345  1.00  0.00    -0.352 N 
ATOM     35  C   UNL     1       5.746  -0.544  -5.452  1.00  0.00     0.251 C 
ATOM     36  H   UNL     1       4.613   0.454  -4.148  1.00  0.00     0.163 HD
ATOM     37  O   UNL     1       6.150   0.480  -5.990  1.00  0.00    -0.269 OA
BRANCH  35  38
ATOM     38  C   UNL     1       6.160  -1.864  -5.979  1.00  0.00     0.039 A 
ATOM     39  C   UNL     1       7.479  -2.030  -6.410  1.00  0.00     0.014 A 
ATOM     40  C   UNL     1       5.263  -2.930  -6.059  1.00  0.00     0.014 A 
ATOM     41  C   UNL     1       7.919  -3.287  -6.830  1.00  0.00     0.010 A 
ATOM     42  C   UNL     1       5.724  -4.202  -6.389  1.00  0.00     0.010 A 
ATOM     43  C   UNL     1       7.060  -4.396  -6.768  1.00  0.00    -0.014 A 
BRANCH  43  44
ATOM     44  C   UNL     1       7.552  -5.767  -7.055  1.00  0.00     0.031 A 
ATOM     45  C   UNL     1       6.976  -6.567  -8.190  1.00  0.00     0.074 A 
ATOM     46  C   UNL     1       8.472  -6.320  -6.239  1.00  0.00     0.049 A 
ATOM     47  N   UNL     1       7.234  -7.801  -8.544  1.00  0.00    -0.248 NA
ATOM     48  C   UNL     1       5.960  -5.904  -9.021  1.00  0.00     0.031 C 
ATOM     49  C   UNL     1       9.072  -5.666  -5.074  1.00  0.00     0.029 A 
ATOM     50  N   UNL     1       9.056  -7.562  -6.257  1.00  0.00    -0.354 N 
ATOM     51  C   UNL     1       6.409  -8.063  -9.631  1.00  0.00     0.074 A 
ATOM     52  C   UNL     1       5.603  -6.880  -9.843  1.00  0.00     0.031 C 
ATOM     53  C   UNL     1       9.955  -6.501  -4.506  1.00  0.00     0.029 A 
ATOM     54  C   UNL     1       9.950  -7.765  -5.234  1.00  0.00     0.049 A 
ATOM     55  H   UNL     1       8.853  -8.243  -6.939  1.00  0.00     0.167 HD
ATOM     56  C   UNL     1       6.344  -9.180 -10.394  1.00  0.00     0.037 A 
ATOM     57  C   UNL     1      10.675  -8.852  -4.908  1.00  0.00     0.037 A 
ATOM     58  C   UNL     1       7.154 -10.352 -10.184  1.00  0.00     0.049 A 
ATOM     59  C   UNL     1      10.562 -10.089  -5.755  1.00  0.00     0.074 A 
ATOM     60  C   UNL     1       7.203 -11.511 -10.939  1.00  0.00     0.029 A 
ATOM     61  N   UNL     1       8.050 -10.519  -9.138  1.00  0.00    -0.354 N 
ATOM     62  N   UNL     1       9.833 -10.296  -6.824  1.00  0.00    -0.248 NA
ATOM     63  C   UNL     1      11.376 -11.244  -5.350  1.00  0.00     0.031 C 
ATOM     64  C   UNL     1       8.084 -12.402 -10.317  1.00  0.00     0.029 A 
ATOM     65  C   UNL     1       8.631 -11.775  -9.209  1.00  0.00     0.049 A 
ATOM     66  H   UNL     1       8.243  -9.845  -8.447  1.00  0.00     0.167 HD
ATOM     67  C   UNL     1      10.118 -11.591  -7.234  1.00  0.00     0.074 A 
ATOM     68  C   UNL     1      11.102 -12.115  -6.310  1.00  0.00     0.031 C 
ATOM     69  C   UNL     1       9.609 -12.286  -8.282  1.00  0.00     0.037 A 
BRANCH  56  70
ATOM     70  C   UNL     1       5.359  -9.190 -11.529  1.00  0.00     0.057 A 
ATOM     71  C   UNL     1       5.531  -8.389 -12.666  1.00  0.00     0.134 A 
ATOM     72  C   UNL     1       4.249 -10.043 -11.505  1.00  0.00     0.134 A 
ATOM     73  F   UNL     1       6.568  -7.541 -12.750  1.00  0.00    -0.206 F 
ATOM     74  C   UNL     1       4.622  -8.416 -13.725  1.00  0.00     0.040 A 
ATOM     75  C   UNL     1       3.349 -10.102 -12.571  1.00  0.00     0.040 A 
ATOM     76  F   UNL     1       4.026 -10.844 -10.452  1.00  0.00    -0.206 F 
ATOM     77  C   UNL     1       3.530  -9.281 -13.682  1.00  0.00     0.006 A 
ENDBRANCH  56  70
BRANCH  57  78
ATOM     78  C   UNL     1      11.579  -8.818  -3.730  1.00  0.00     0.057 A 
ATOM     79  C   UNL     1      12.970  -8.861  -3.884  1.00  0.00     0.134 A 
ATOM     80  C   UNL     1      11.078  -8.752  -2.424  1.00  0.00     0.134 A 
ATOM     81  F   UNL     1      13.511  -8.944  -5.108  1.00  0.00    -0.206 F 
ATOM     82  C   UNL     1      13.828  -8.863  -2.783  1.00  0.00     0.040 A 
ATOM     83  C   UNL     1      11.925  -8.723  -1.315  1.00  0.00     0.040 A 
ATOM     84  F   UNL     1       9.755  -8.699  -2.208  1.00  0.00    -0.206 F 
ATOM     85  C   UNL     1      13.306  -8.788  -1.494  1.00  0.00     0.006 A 
ENDBRANCH  57  78
BRANCH  69  86
ATOM     86  C   UNL     1      10.130 -13.677  -8.501  1.00  0.00     0.057 A 
ATOM     87  C   UNL     1       9.811 -14.733  -7.636  1.00  0.00     0.134 A 
ATOM     88  C   UNL     1      10.936 -13.971  -9.608  1.00  0.00     0.134 A 
ATOM     89  F   UNL     1       9.055 -14.517  -6.549  1.00  0.00    -0.206 F 
ATOM     90  C   UNL     1      10.297 -16.024  -7.851  1.00  0.00     0.040 A 
ATOM     91  C   UNL     1      11.402 -15.264  -9.850  1.00  0.00     0.040 A 
ATOM     92  F   UNL     1      11.272 -13.009 -10.481  1.00  0.00    -0.206 F 
ATOM     93  C   UNL     1      11.089 -16.293  -8.965  1.00  0.00     0.006 A 
ENDBRANCH  69  86
ENDBRANCH  43  44
ENDBRANCH  35  38
ENDBRANCH  33  34
ENDBRANCH  32  33
ENDBRANCH   1  32
TORSDOF 13
