REMARK SMILES CS(=O)(=O)Nc1cc(NS(C)(=O)=O)cc(C(=O)NCCCNC(=O)c2ccc(-c3c4nc(c(-c5c(F)cccc5F)c5ccc([nH]5)c(-c5c(F)cccc5F)c5nc(c(-c6c(F)cccc6F)c6ccc3[nH]6)C=C5)C=C4)cc2)c1
REMARK SMILES IDX 20 1 19 2 18 3 16 4 17 5 15 7 6 8 7 9 79 10 8 11 14 12 5 13
REMARK SMILES IDX 2 15 1 16 3 17 4 18 9 19 10 21 11 22 12 23 13 24 21 25 22 26
REMARK SMILES IDX 23 27 24 29 25 30 26 31 78 32 27 33 77 34 28 35 29 36 30 37
REMARK SMILES IDX 71 38 31 39 76 40 70 41 72 42 32 43 75 44 69 45 68 46 33 48
REMARK SMILES IDX 59 49 42 50 58 51 43 52 46 53 57 54 73 55 44 56 45 57 56 59
REMARK SMILES IDX 74 60 47 61 34 62 35 63 40 64 36 65 37 66 39 67 41 68 38 69
REMARK SMILES IDX 60 70 61 71 66 72 62 73 63 74 65 75 67 76 64 77 48 78 49 79
REMARK SMILES IDX 54 80 50 81 51 82 53 83 55 84 52 85
REMARK H PARENT 18 6 5 14 9 20 22 28 72 47 46 58
REMARK Flexibility Score: inf
ROOT
ATOM      1  C   UNL     1       4.735  -0.851  -0.959  1.00  0.00     0.042 C 
ENDROOT
BRANCH   1   2
ATOM      2  C   UNL     1       4.380  -0.270   0.407  1.00  0.00     0.118 C 
BRANCH   2   3
ATOM      3  N   UNL     1       5.241   0.848   0.743  1.00  0.00    -0.352 N 
ATOM      4  C   UNL     1       5.098   2.206   0.626  1.00  0.00     0.251 C 
ATOM      5  O   UNL     1       6.018   2.904   1.053  1.00  0.00    -0.269 OA
ATOM      6  H   UNL     1       6.102   0.576   1.133  1.00  0.00     0.163 HD
BRANCH   4   7
ATOM      7  C   UNL     1       3.879   2.877   0.087  1.00  0.00     0.043 A 
ATOM      8  C   UNL     1       1.706   2.895  -0.972  1.00  0.00     0.051 A 
ATOM      9  C   UNL     1       1.534   4.228  -0.597  1.00  0.00     0.053 A 
ATOM     10  C   UNL     1       2.914   2.259  -0.706  1.00  0.00     0.040 A 
ATOM     11  C   UNL     1       2.571   4.937   0.003  1.00  0.00     0.051 A 
ATOM     12  C   UNL     1       3.703   4.231   0.419  1.00  0.00     0.040 A 
BRANCH   8  13
ATOM     13  N   UNL     1       0.614   2.256  -1.620  1.00  0.00    -0.284 N 
ATOM     14  H   UNL     1      -0.017   2.834  -2.107  1.00  0.00     0.180 HD
BRANCH  13  15
ATOM     15  S   UNL     1       0.305   0.621  -1.629  1.00  0.00     0.229 S 
ATOM     16  C   UNL     1       0.188   0.197   0.101  1.00  0.00     0.183 C 
ATOM     17  O   UNL     1       1.440  -0.073  -2.196  1.00  0.00    -0.207 OA
ATOM     18  O   UNL     1      -1.015   0.480  -2.207  1.00  0.00    -0.207 OA
ENDBRANCH  13  15
ENDBRANCH   8  13
BRANCH  11  19
ATOM     19  N   UNL     1       2.462   6.313   0.407  1.00  0.00    -0.284 N 
ATOM     20  H   UNL     1       2.780   6.592   1.296  1.00  0.00     0.180 HD
BRANCH  19  21
ATOM     21  S   UNL     1       1.780   7.460  -0.652  1.00  0.00     0.229 S 
ATOM     22  C   UNL     1       0.941   8.484   0.533  1.00  0.00     0.183 C 
ATOM     23  O   UNL     1       2.890   8.216  -1.195  1.00  0.00    -0.207 OA
ATOM     24  O   UNL     1       0.776   6.867  -1.502  1.00  0.00    -0.207 OA
ENDBRANCH  19  21
ENDBRANCH  11  19
ENDBRANCH   4   7
ENDBRANCH   2   3
ENDBRANCH   1   2
BRANCH   1  25
ATOM     25  C   UNL     1       5.865  -1.867  -0.873  1.00  0.00     0.118 C 
BRANCH  25  26
ATOM     26  N   UNL     1       5.451  -3.073  -0.161  1.00  0.00    -0.352 N 
ATOM     27  C   UNL     1       5.371  -4.372  -0.595  1.00  0.00     0.251 C 
ATOM     28  H   UNL     1       5.189  -2.932   0.777  1.00  0.00     0.163 HD
ATOM     29  O   UNL     1       4.760  -5.201   0.073  1.00  0.00    -0.269 OA
BRANCH  27  30
ATOM     30  C   UNL     1       6.014  -4.768  -1.863  1.00  0.00     0.039 A 
ATOM     31  C   UNL     1       5.358  -5.668  -2.708  1.00  0.00     0.014 A 
ATOM     32  C   UNL     1       7.269  -4.265  -2.209  1.00  0.00     0.014 A 
ATOM     33  C   UNL     1       5.934  -6.006  -3.933  1.00  0.00     0.010 A 
ATOM     34  C   UNL     1       7.793  -4.524  -3.469  1.00  0.00     0.010 A 
ATOM     35  C   UNL     1       7.135  -5.403  -4.340  1.00  0.00    -0.014 A 
BRANCH  35  36
ATOM     36  C   UNL     1       7.724  -5.671  -5.674  1.00  0.00     0.031 A 
ATOM     37  C   UNL     1       9.090  -6.290  -5.783  1.00  0.00     0.074 A 
ATOM     38  C   UNL     1       7.063  -5.283  -6.782  1.00  0.00     0.049 A 
ATOM     39  N   UNL     1       9.814  -6.516  -6.849  1.00  0.00    -0.248 NA
ATOM     40  C   UNL     1       9.744  -6.675  -4.521  1.00  0.00     0.031 C 
ATOM     41  C   UNL     1       5.753  -4.630  -6.801  1.00  0.00     0.029 A 
ATOM     42  N   UNL     1       7.409  -5.371  -8.106  1.00  0.00    -0.354 N 
ATOM     43  C   UNL     1      11.008  -7.055  -6.387  1.00  0.00     0.074 A 
ATOM     44  C   UNL     1      10.939  -7.060  -4.942  1.00  0.00     0.031 C 
ATOM     45  C   UNL     1       5.392  -4.404  -8.073  1.00  0.00     0.029 A 
ATOM     46  C   UNL     1       6.465  -4.849  -8.957  1.00  0.00     0.049 A 
ATOM     47  H   UNL     1       8.253  -5.771  -8.418  1.00  0.00     0.167 HD
ATOM     48  C   UNL     1      12.055  -7.528  -7.103  1.00  0.00     0.037 A 
ATOM     49  C   UNL     1       6.470  -4.731 -10.297  1.00  0.00     0.037 A 
ATOM     50  C   UNL     1      12.109  -7.530  -8.541  1.00  0.00     0.049 A 
ATOM     51  C   UNL     1       7.659  -5.235 -11.069  1.00  0.00     0.074 A 
ATOM     52  C   UNL     1      13.100  -8.032  -9.366  1.00  0.00     0.029 A 
ATOM     53  N   UNL     1      11.131  -6.997  -9.368  1.00  0.00    -0.354 N 
ATOM     54  N   UNL     1       8.752  -5.806 -10.624  1.00  0.00    -0.248 NA
ATOM     55  C   UNL     1       7.613  -5.080 -12.529  1.00  0.00     0.031 C 
ATOM     56  C   UNL     1      12.748  -7.751 -10.690  1.00  0.00     0.029 A 
ATOM     57  C   UNL     1      11.508  -7.132 -10.694  1.00  0.00     0.049 A 
ATOM     58  H   UNL     1      10.292  -6.584  -9.058  1.00  0.00     0.167 HD
ATOM     59  C   UNL     1       9.510  -6.106 -11.749  1.00  0.00     0.074 A 
ATOM     60  C   UNL     1       8.743  -5.667 -12.896  1.00  0.00     0.031 C 
ATOM     61  C   UNL     1      10.729  -6.694 -11.825  1.00  0.00     0.037 A 
BRANCH  48  62
ATOM     62  C   UNL     1      13.225  -8.077  -6.337  1.00  0.00     0.057 A 
ATOM     63  C   UNL     1      13.132  -9.257  -5.585  1.00  0.00     0.134 A 
ATOM     64  C   UNL     1      14.468  -7.430  -6.365  1.00  0.00     0.134 A 
ATOM     65  F   UNL     1      11.969  -9.922  -5.505  1.00  0.00    -0.206 F 
ATOM     66  C   UNL     1      14.219  -9.754  -4.863  1.00  0.00     0.040 A 
ATOM     67  C   UNL     1      15.571  -7.935  -5.673  1.00  0.00     0.040 A 
ATOM     68  F   UNL     1      14.633  -6.300  -7.068  1.00  0.00    -0.206 F 
ATOM     69  C   UNL     1      15.445  -9.095  -4.912  1.00  0.00     0.006 A 
ENDBRANCH  48  62
BRANCH  49  70
ATOM     70  C   UNL     1       5.305  -4.132 -10.997  1.00  0.00     0.057 A 
ATOM     71  C   UNL     1       4.473  -4.911 -11.810  1.00  0.00     0.134 A 
ATOM     72  C   UNL     1       4.995  -2.772 -10.875  1.00  0.00     0.134 A 
ATOM     73  F   UNL     1       4.728  -6.217 -11.980  1.00  0.00    -0.206 F 
ATOM     74  C   UNL     1       3.389  -4.357 -12.492  1.00  0.00     0.040 A 
ATOM     75  C   UNL     1       3.896  -2.211 -11.528  1.00  0.00     0.040 A 
ATOM     76  F   UNL     1       5.746  -1.972 -10.104  1.00  0.00    -0.206 F 
ATOM     77  C   UNL     1       3.095  -3.003 -12.348  1.00  0.00     0.006 A 
ENDBRANCH  49  70
BRANCH  61  78
ATOM     78  C   UNL     1      11.293  -6.932 -13.196  1.00  0.00     0.057 A 
ATOM     79  C   UNL     1      11.751  -5.884 -14.004  1.00  0.00     0.134 A 
ATOM     80  C   UNL     1      11.423  -8.236 -13.693  1.00  0.00     0.134 A 
ATOM     81  F   UNL     1      11.644  -4.611 -13.592  1.00  0.00    -0.206 F 
ATOM     82  C   UNL     1      12.295  -6.122 -15.267  1.00  0.00     0.040 A 
ATOM     83  C   UNL     1      11.995  -8.488 -14.941  1.00  0.00     0.040 A 
ATOM     84  F   UNL     1      11.014  -9.287 -12.967  1.00  0.00    -0.206 F 
ATOM     85  C   UNL     1      12.426  -7.428 -15.734  1.00  0.00     0.006 A 
ENDBRANCH  61  78
ENDBRANCH  35  36
ENDBRANCH  27  30
ENDBRANCH  25  26
ENDBRANCH   1  25
TORSDOF 14
