REMARK SMILES O=C(Cn1nc(-c2ccc(Br)cc2)ccc1=O)N[C@H](C(=O)NCCCNC(=O)c1ccc(-c2c3nc(c(-c4c(F)cccc4F)c4ccc([nH]4)c(-c4c(F)cccc4F)c4nc(c(-c5c(F)cccc5F)c5ccc2[nH]5)C=C4)C=C3)cc1)c1ccccc1
REMARK SMILES IDX 23 1 22 2 20 3 21 4 19 6 18 7 1 8 2 9 3 11 4 12 5 13 16 14
REMARK SMILES IDX 6 15 15 16 17 17 14 18 7 19 8 20 13 21 9 22 12 23 10 24
REMARK SMILES IDX 11 25 83 26 84 27 88 28 85 29 87 30 86 31 24 32 25 33 26 34
REMARK SMILES IDX 27 35 28 37 29 38 30 39 82 40 31 41 81 42 32 43 33 44 34 45
REMARK SMILES IDX 75 46 35 47 80 48 74 49 76 50 36 51 79 52 73 53 72 54 37 56
REMARK SMILES IDX 63 57 46 58 62 59 47 60 50 61 61 62 77 63 48 64 49 65 60 67
REMARK SMILES IDX 78 68 51 69 38 70 39 71 44 72 40 73 41 74 43 75 45 76 42 77
REMARK SMILES IDX 64 78 65 79 70 80 66 81 67 82 69 83 71 84 68 85 52 86 53 87
REMARK SMILES IDX 58 88 54 89 55 90 57 91 59 92 56 93
REMARK H PARENT 22 5 18 10 26 36 76 55 50 66
REMARK Flexibility Score: inf
ROOT
ATOM      1  C   UNL     1       2.000   1.721  -1.361  1.00  0.00     0.117 C 
ENDROOT
BRANCH   1   2
ATOM      2  N   UNL     1       2.916   0.751  -0.795  1.00  0.00    -0.354 N 
ATOM      3  C   UNL     1       3.189  -0.534  -1.189  1.00  0.00     0.247 C 
ATOM      4  O   UNL     1       3.778  -1.240  -0.365  1.00  0.00    -0.272 OA
ATOM      5  H   UNL     1       3.419   1.062  -0.008  1.00  0.00     0.163 HD
BRANCH   3   6
ATOM      6  C   UNL     1       2.604  -1.071  -2.531  1.00  0.00     0.202 C 
BRANCH   6   7
ATOM      7  N   UNL     1       2.935  -0.248  -3.705  1.00  0.00    -0.339 N 
ATOM      8  O   UNL     1       5.144   0.040  -3.196  1.00  0.00    -0.273 OA
ATOM      9  C   UNL     1       4.228   0.118  -4.013  1.00  0.00     0.242 C 
ATOM     10  H   UNL     1       2.205   0.052  -4.293  1.00  0.00     0.164 HD
BRANCH   9  11
ATOM     11  C   UNL     1       4.439   0.810  -5.365  1.00  0.00     0.248 C 
BRANCH  11  12
ATOM     12  N   UNL     1       3.461   0.463  -6.395  1.00  0.00    -0.220 N 
ATOM     13  N   UNL     1       2.825   1.524  -7.013  1.00  0.00    -0.169 NA
ATOM     14  C   UNL     1       3.501  -0.808  -6.960  1.00  0.00     0.267 A 
ATOM     15  C   UNL     1       2.078   1.249  -8.036  1.00  0.00     0.091 A 
ATOM     16  C   UNL     1       2.455  -1.099  -7.961  1.00  0.00     0.075 A 
ATOM     17  O   UNL     1       4.298  -1.689  -6.660  1.00  0.00    -0.268 OA
ATOM     18  C   UNL     1       1.740  -0.111  -8.497  1.00  0.00     0.036 A 
BRANCH  15  19
ATOM     19  C   UNL     1       1.580   2.344  -8.888  1.00  0.00     0.002 A 
ATOM     20  C   UNL     1       2.523   3.054  -9.640  1.00  0.00     0.011 A 
ATOM     21  C   UNL     1       0.219   2.638  -8.982  1.00  0.00     0.011 A 
ATOM     22  C   UNL     1       2.101   4.064 -10.504  1.00  0.00     0.016 A 
ATOM     23  C   UNL     1      -0.198   3.659  -9.840  1.00  0.00     0.016 A 
ATOM     24  C   UNL     1       0.743   4.363 -10.598  1.00  0.00     0.018 A 
ATOM     25  Br  UNL     1       0.170   5.736 -11.765  1.00  0.00    -0.051 Br
ENDBRANCH  15  19
ENDBRANCH  11  12
ENDBRANCH   9  11
ENDBRANCH   6   7
BRANCH   6  26
ATOM     26  C   UNL     1       2.774  -2.574  -2.745  1.00  0.00    -0.016 A 
ATOM     27  C   UNL     1       3.483  -3.114  -3.826  1.00  0.00     0.006 A 
ATOM     28  C   UNL     1       2.175  -3.479  -1.849  1.00  0.00     0.006 A 
ATOM     29  C   UNL     1       3.556  -4.492  -4.040  1.00  0.00     0.000 A 
ATOM     30  C   UNL     1       2.267  -4.861  -2.046  1.00  0.00     0.000 A 
ATOM     31  C   UNL     1       2.946  -5.367  -3.151  1.00  0.00     0.000 A 
ENDBRANCH   6  26
ENDBRANCH   3   6
ENDBRANCH   1   2
BRANCH   1  32
ATOM     32  C   UNL     1       0.818   1.978  -0.432  1.00  0.00     0.042 C 
BRANCH  32  33
ATOM     33  C   UNL     1       1.194   2.586   0.916  1.00  0.00     0.118 C 
BRANCH  33  34
ATOM     34  N   UNL     1       1.745   3.931   0.815  1.00  0.00    -0.352 N 
ATOM     35  C   UNL     1       1.382   5.090   1.468  1.00  0.00     0.251 C 
ATOM     36  H   UNL     1       2.492   4.027   0.181  1.00  0.00     0.163 HD
ATOM     37  O   UNL     1       1.888   6.154   1.153  1.00  0.00    -0.269 OA
BRANCH  35  38
ATOM     38  C   UNL     1       0.339   5.048   2.520  1.00  0.00     0.039 A 
ATOM     39  C   UNL     1       0.319   4.031   3.474  1.00  0.00     0.014 A 
ATOM     40  C   UNL     1      -0.655   6.032   2.528  1.00  0.00     0.014 A 
ATOM     41  C   UNL     1      -0.796   3.876   4.290  1.00  0.00     0.010 A 
ATOM     42  C   UNL     1      -1.727   5.931   3.420  1.00  0.00     0.010 A 
ATOM     43  C   UNL     1      -1.843   4.813   4.261  1.00  0.00    -0.014 A 
BRANCH  43  44
ATOM     44  C   UNL     1      -3.057   4.574   5.086  1.00  0.00     0.031 A 
ATOM     45  C   UNL     1      -4.399   4.353   4.437  1.00  0.00     0.074 A 
ATOM     46  C   UNL     1      -2.943   4.487   6.425  1.00  0.00     0.049 A 
ATOM     47  N   UNL     1      -5.554   4.079   4.994  1.00  0.00    -0.248 NA
ATOM     48  C   UNL     1      -4.456   4.460   2.971  1.00  0.00     0.031 C 
ATOM     49  C   UNL     1      -1.703   4.678   7.179  1.00  0.00     0.029 A 
ATOM     50  N   UNL     1      -3.876   4.191   7.386  1.00  0.00    -0.354 N 
ATOM     51  C   UNL     1      -6.472   4.001   3.953  1.00  0.00     0.074 A 
ATOM     52  C   UNL     1      -5.749   4.295   2.735  1.00  0.00     0.031 C 
ATOM     53  C   UNL     1      -1.940   4.443   8.478  1.00  0.00     0.029 A 
ATOM     54  C   UNL     1      -3.357   4.145   8.656  1.00  0.00     0.049 A 
ATOM     55  H   UNL     1      -4.826   4.028   7.185  1.00  0.00     0.167 HD
ATOM     56  C   UNL     1      -7.793   3.697   4.002  1.00  0.00     0.037 A 
ATOM     57  C   UNL     1      -3.955   3.902   9.837  1.00  0.00     0.037 A 
ATOM     58  C   UNL     1      -8.513   3.393   5.212  1.00  0.00     0.049 A 
ATOM     59  C   UNL     1      -5.427   3.611   9.870  1.00  0.00     0.074 A 
ATOM     60  C   UNL     1      -9.845   3.044   5.361  1.00  0.00     0.029 A 
ATOM     61  N   UNL     1      -7.962   3.411   6.485  1.00  0.00    -0.354 N 
ATOM     62  N   UNL     1      -6.274   3.512   8.875  1.00  0.00    -0.248 NA
ATOM     63  C   UNL     1      -6.026   3.403  11.195  1.00  0.00     0.031 C 
ATOM     64  C   UNL     1     -10.110   2.900   6.728  1.00  0.00     0.029 A 
ATOM     65  C   UNL     1      -8.932   3.107   7.427  1.00  0.00     0.049 A 
ATOM     66  H   UNL     1      -7.020   3.610   6.689  1.00  0.00     0.167 HD
ATOM     67  C   UNL     1      -7.503   3.216   9.450  1.00  0.00     0.074 A 
ATOM     68  C   UNL     1      -7.283   3.128  10.880  1.00  0.00     0.031 C 
ATOM     69  C   UNL     1      -8.705   3.035   8.849  1.00  0.00     0.037 A 
BRANCH  56  70
ATOM     70  C   UNL     1      -8.547   3.710   2.701  1.00  0.00     0.057 A 
ATOM     71  C   UNL     1      -9.497   4.706   2.438  1.00  0.00     0.134 A 
ATOM     72  C   UNL     1      -8.337   2.744   1.707  1.00  0.00     0.134 A 
ATOM     73  F   UNL     1      -9.757   5.657   3.347  1.00  0.00    -0.206 F 
ATOM     74  C   UNL     1     -10.199   4.748   1.232  1.00  0.00     0.040 A 
ATOM     75  C   UNL     1      -9.012   2.792   0.485  1.00  0.00     0.040 A 
ATOM     76  F   UNL     1      -7.433   1.769   1.887  1.00  0.00    -0.206 F 
ATOM     77  C   UNL     1      -9.949   3.795   0.246  1.00  0.00     0.006 A 
ENDBRANCH  56  70
BRANCH  57  78
ATOM     78  C   UNL     1      -3.155   3.932  11.087  1.00  0.00     0.057 A 
ATOM     79  C   UNL     1      -2.624   5.129  11.581  1.00  0.00     0.134 A 
ATOM     80  C   UNL     1      -2.900   2.763  11.812  1.00  0.00     0.134 A 
ATOM     81  F   UNL     1      -2.830   6.282  10.928  1.00  0.00    -0.206 F 
ATOM     82  C   UNL     1      -1.856   5.162  12.745  1.00  0.00     0.040 A 
ATOM     83  C   UNL     1      -2.155   2.786  12.992  1.00  0.00     0.040 A 
ATOM     84  F   UNL     1      -3.398   1.589  11.399  1.00  0.00    -0.206 F 
ATOM     85  C   UNL     1      -1.625   3.988  13.457  1.00  0.00     0.006 A 
ENDBRANCH  57  78
BRANCH  69  86
ATOM     86  C   UNL     1      -9.866   2.705   9.742  1.00  0.00     0.057 A 
ATOM     87  C   UNL     1     -10.428   1.422   9.738  1.00  0.00     0.134 A 
ATOM     88  C   UNL     1     -10.430   3.655  10.604  1.00  0.00     0.134 A 
ATOM     89  F   UNL     1      -9.941   0.467   8.931  1.00  0.00    -0.206 F 
ATOM     90  C   UNL     1     -11.505   1.095  10.562  1.00  0.00     0.040 A 
ATOM     91  C   UNL     1     -11.489   3.331  11.454  1.00  0.00     0.040 A 
ATOM     92  F   UNL     1      -9.929   4.898  10.668  1.00  0.00    -0.206 F 
ATOM     93  C   UNL     1     -12.033   2.048  11.431  1.00  0.00     0.006 A 
ENDBRANCH  69  86
ENDBRANCH  43  44
ENDBRANCH  35  38
ENDBRANCH  33  34
ENDBRANCH  32  33
ENDBRANCH   1  32
TORSDOF 15
