REMARK SMILES Cc1ccc(N)cc1S(=O)(=O)Nc1cccc(C(=O)NCCCNC(=O)c2ccc(-c3c4nc(c(-c5c(F)cccc5F)c5ccc([nH]5)c(-c5c(F)cccc5F)c5nc(c(-c6c(F)cccc6F)c6ccc3[nH]6)C=C5)C=C4)cc2)c1
REMARK SMILES IDX 21 1 20 2 18 3 19 4 17 6 13 7 14 8 81 9 15 10 16 11 12 12
REMARK SMILES IDX 9 14 10 15 11 16 8 17 1 18 2 19 3 20 4 21 7 22 5 23 6 24
REMARK SMILES IDX 22 27 23 28 24 29 25 30 26 32 27 33 28 34 80 35 29 36 79 37
REMARK SMILES IDX 30 38 31 39 32 40 73 41 33 42 78 43 72 44 74 45 34 46 77 47
REMARK SMILES IDX 71 48 70 49 35 51 61 52 44 53 60 54 45 55 48 56 59 57 75 58
REMARK SMILES IDX 46 59 47 60 58 62 76 63 49 64 36 65 37 66 42 67 38 68 39 69
REMARK SMILES IDX 41 70 43 71 40 72 62 73 63 74 68 75 64 76 65 77 67 78 69 79
REMARK SMILES IDX 66 80 50 81 51 82 56 83 52 84 53 85 55 86 57 87 54 88
REMARK H PARENT 20 5 12 13 6 25 6 26 24 31 74 50 48 61
REMARK Flexibility Score: inf
ROOT
ATOM      1  C   UNL     1      -1.566  -0.901   2.705  1.00  0.00     0.118 C 
ENDROOT
BRANCH   1   2
ATOM      2  N   UNL     1      -2.753  -1.694   2.975  1.00  0.00    -0.352 N 
ATOM      3  C   UNL     1      -4.048  -1.614   2.526  1.00  0.00     0.251 C 
ATOM      4  O   UNL     1      -4.842  -2.458   2.944  1.00  0.00    -0.269 OA
ATOM      5  H   UNL     1      -2.598  -2.436   3.603  1.00  0.00     0.163 HD
BRANCH   3   6
ATOM      6  C   UNL     1      -4.513  -0.629   1.506  1.00  0.00     0.041 A 
ATOM      7  C   UNL     1      -4.210   1.309   0.091  1.00  0.00     0.050 A 
ATOM      8  C   UNL     1      -5.343   0.956  -0.648  1.00  0.00     0.027 A 
ATOM      9  C   UNL     1      -3.881   0.586   1.235  1.00  0.00     0.040 A 
ATOM     10  C   UNL     1      -6.059  -0.193  -0.322  1.00  0.00     0.003 A 
ATOM     11  C   UNL     1      -5.621  -1.001   0.727  1.00  0.00     0.014 A 
BRANCH   7  12
ATOM     12  N   UNL     1      -3.369   2.306  -0.470  1.00  0.00    -0.280 N 
ATOM     13  H   UNL     1      -3.779   2.898  -1.142  1.00  0.00     0.180 HD
BRANCH  12  14
ATOM     14  S   UNL     1      -1.764   2.585  -0.116  1.00  0.00     0.262 S 
ATOM     15  O   UNL     1      -1.672   2.835   1.314  1.00  0.00    -0.201 OA
ATOM     16  O   UNL     1      -1.339   3.588  -1.063  1.00  0.00    -0.201 OA
BRANCH  14  17
ATOM     17  C   UNL     1      -0.744   1.145  -0.436  1.00  0.00     0.092 A 
ATOM     18  C   UNL     1      -2.379  -0.335  -1.806  1.00  0.00     0.046 C 
ATOM     19  C   UNL     1      -1.110  -0.056  -1.065  1.00  0.00    -0.030 A 
ATOM     20  C   UNL     1      -0.208  -1.138  -0.992  1.00  0.00     0.007 A 
ATOM     21  C   UNL     1       1.065  -0.999  -0.438  1.00  0.00     0.026 A 
ATOM     22  C   UNL     1       0.566   1.275   0.084  1.00  0.00     0.048 A 
ATOM     23  C   UNL     1       1.493   0.234   0.032  1.00  0.00     0.033 A 
BRANCH  23  24
ATOM     24  N   UNL     1       2.757   0.381   0.575  1.00  0.00    -0.399 N 
ATOM     25  H   UNL     1       3.401  -0.363   0.530  1.00  0.00     0.156 HD
ATOM     26  H   UNL     1       3.013   1.228   1.005  1.00  0.00     0.156 HD
ENDBRANCH  23  24
ENDBRANCH  14  17
ENDBRANCH  12  14
ENDBRANCH   7  12
ENDBRANCH   3   6
ENDBRANCH   1   2
BRANCH   1  27
ATOM     27  C   UNL     1      -1.399   0.206   3.742  1.00  0.00     0.042 C 
BRANCH  27  28
ATOM     28  C   UNL     1      -0.803  -0.305   5.044  1.00  0.00     0.118 C 
BRANCH  28  29
ATOM     29  N   UNL     1       0.618  -0.594   4.915  1.00  0.00    -0.352 N 
ATOM     30  C   UNL     1       1.661  -0.236   5.730  1.00  0.00     0.251 C 
ATOM     31  H   UNL     1       0.867  -1.125   4.124  1.00  0.00     0.163 HD
ATOM     32  O   UNL     1       2.815  -0.434   5.360  1.00  0.00    -0.269 OA
BRANCH  30  33
ATOM     33  C   UNL     1       1.410   0.406   7.040  1.00  0.00     0.039 A 
ATOM     34  C   UNL     1       2.273   1.425   7.455  1.00  0.00     0.014 A 
ATOM     35  C   UNL     1       0.367  -0.006   7.873  1.00  0.00     0.014 A 
ATOM     36  C   UNL     1       2.070   2.048   8.686  1.00  0.00     0.010 A 
ATOM     37  C   UNL     1       0.114   0.673   9.062  1.00  0.00     0.010 A 
ATOM     38  C   UNL     1       0.977   1.691   9.492  1.00  0.00    -0.014 A 
BRANCH  38  39
ATOM     39  C   UNL     1       0.752   2.351  10.801  1.00  0.00     0.031 A 
ATOM     40  C   UNL     1       0.856   1.559  12.076  1.00  0.00     0.074 A 
ATOM     41  C   UNL     1       0.426   3.657  10.841  1.00  0.00     0.049 A 
ATOM     42  N   UNL     1       0.708   1.960  13.313  1.00  0.00    -0.248 NA
ATOM     43  C   UNL     1       1.133   0.120  11.942  1.00  0.00     0.031 C 
ATOM     44  C   UNL     1       0.242   4.519   9.673  1.00  0.00     0.029 A 
ATOM     45  N   UNL     1       0.198   4.488  11.908  1.00  0.00    -0.354 N 
ATOM     46  C   UNL     1       0.853   0.823  14.099  1.00  0.00     0.074 A 
ATOM     47  C   UNL     1       1.045  -0.292  13.198  1.00  0.00     0.031 C 
ATOM     48  C   UNL     1      -0.023   5.768  10.087  1.00  0.00     0.029 A 
ATOM     49  C   UNL     1      -0.056   5.788  11.546  1.00  0.00     0.049 A 
ATOM     50  H   UNL     1       0.215   4.182  12.844  1.00  0.00     0.167 HD
ATOM     51  C   UNL     1       0.853   0.720  15.449  1.00  0.00     0.037 A 
ATOM     52  C   UNL     1      -0.275   6.876  12.308  1.00  0.00     0.037 A 
ATOM     53  C   UNL     1       0.701   1.837  16.343  1.00  0.00     0.049 A 
ATOM     54  C   UNL     1      -0.248   6.741  13.804  1.00  0.00     0.074 A 
ATOM     55  C   UNL     1       0.764   1.853  17.725  1.00  0.00     0.029 A 
ATOM     56  N   UNL     1       0.454   3.140  15.938  1.00  0.00    -0.354 N 
ATOM     57  N   UNL     1      -0.028   5.676  14.536  1.00  0.00    -0.248 NA
ATOM     58  C   UNL     1      -0.492   7.965  14.581  1.00  0.00     0.031 C 
ATOM     59  C   UNL     1       0.517   3.160  18.158  1.00  0.00     0.029 A 
ATOM     60  C   UNL     1       0.342   3.966  17.044  1.00  0.00     0.049 A 
ATOM     61  H   UNL     1       0.371   3.435  15.002  1.00  0.00     0.167 HD
ATOM     62  C   UNL     1      -0.073   6.104  15.855  1.00  0.00     0.074 A 
ATOM     63  C   UNL     1      -0.335   7.529  15.823  1.00  0.00     0.031 C 
ATOM     64  C   UNL     1       0.091   5.384  16.992  1.00  0.00     0.037 A 
BRANCH  51  65
ATOM     65  C   UNL     1       1.025  -0.652  16.034  1.00  0.00     0.057 A 
ATOM     66  C   UNL     1       2.241  -1.345  15.956  1.00  0.00     0.134 A 
ATOM     67  C   UNL     1      -0.038  -1.288  16.688  1.00  0.00     0.134 A 
ATOM     68  F   UNL     1       3.295  -0.798  15.331  1.00  0.00    -0.206 F 
ATOM     69  C   UNL     1       2.384  -2.633  16.475  1.00  0.00     0.040 A 
ATOM     70  C   UNL     1       0.101  -2.565  17.235  1.00  0.00     0.040 A 
ATOM     71  F   UNL     1      -1.228  -0.681  16.804  1.00  0.00    -0.206 F 
ATOM     72  C   UNL     1       1.312  -3.245  17.121  1.00  0.00     0.006 A 
ENDBRANCH  51  65
BRANCH  52  73
ATOM     73  C   UNL     1      -0.471   8.199  11.668  1.00  0.00     0.057 A 
ATOM     74  C   UNL     1       0.528   9.178  11.730  1.00  0.00     0.134 A 
ATOM     75  C   UNL     1      -1.644   8.516  10.975  1.00  0.00     0.134 A 
ATOM     76  F   UNL     1       1.667   8.938  12.395  1.00  0.00    -0.206 F 
ATOM     77  C   UNL     1       0.362  10.431  11.138  1.00  0.00     0.040 A 
ATOM     78  C   UNL     1      -1.815   9.757  10.359  1.00  0.00     0.040 A 
ATOM     79  F   UNL     1      -2.634   7.617  10.874  1.00  0.00    -0.206 F 
ATOM     80  C   UNL     1      -0.811  10.720  10.444  1.00  0.00     0.006 A 
ENDBRANCH  52  73
BRANCH  64  81
ATOM     81  C   UNL     1       0.032   6.133  18.289  1.00  0.00     0.057 A 
ATOM     82  C   UNL     1      -1.174   6.616  18.811  1.00  0.00     0.134 A 
ATOM     83  C   UNL     1       1.196   6.348  19.039  1.00  0.00     0.134 A 
ATOM     84  F   UNL     1      -2.321   6.454  18.134  1.00  0.00    -0.206 F 
ATOM     85  C   UNL     1      -1.218   7.307  20.023  1.00  0.00     0.040 A 
ATOM     86  C   UNL     1       1.161   7.016  20.263  1.00  0.00     0.040 A 
ATOM     87  F   UNL     1       2.382   5.904  18.598  1.00  0.00    -0.206 F 
ATOM     88  C   UNL     1      -0.048   7.504  20.755  1.00  0.00     0.006 A 
ENDBRANCH  64  81
ENDBRANCH  38  39
ENDBRANCH  30  33
ENDBRANCH  28  29
ENDBRANCH  27  28
ENDBRANCH   1  27
TORSDOF 14
