REMARK SMILES Cc1nc(C(F)(F)F)c(C(=O)NCCCNC(=O)c2ccc(-c3c4nc(c(-c5c(F)cccc5F)c5ccc([nH]5)c(-c5c(F)cccc5F)c5nc(c(-c6c(F)cccc6F)c6ccc3[nH]6)C=C5)C=C4)cc2)s1
REMARK SMILES IDX 14 1 13 2 12 3 10 4 11 5 9 7 1 8 2 9 3 10 73 11 4 12 5 13
REMARK SMILES IDX 6 14 7 15 8 16 15 17 16 18 17 19 18 21 19 22 20 23 72 24
REMARK SMILES IDX 21 25 71 26 22 27 23 28 24 29 65 30 25 31 70 32 64 33 66 34
REMARK SMILES IDX 26 35 69 36 63 37 62 38 27 40 53 41 36 42 52 43 37 44 40 45
REMARK SMILES IDX 51 46 67 47 38 48 39 49 50 51 68 52 41 53 28 54 29 55 34 56
REMARK SMILES IDX 30 57 31 58 33 59 35 60 32 61 54 62 55 63 60 64 56 65 57 66
REMARK SMILES IDX 59 67 61 68 58 69 42 70 43 71 48 72 44 73 45 74 47 75 49 76
REMARK SMILES IDX 46 77
REMARK H PARENT 12 6 16 20 66 39 40 50
REMARK Flexibility Score: inf
ROOT
ATOM      1  C   UNL     1       4.609  -2.526  -0.861  1.00  0.00     0.042 C 
ENDROOT
BRANCH   1   2
ATOM      2  C   UNL     1       4.174  -1.753   0.381  1.00  0.00     0.118 C 
BRANCH   2   3
ATOM      3  N   UNL     1       3.818  -0.397   0.053  1.00  0.00    -0.351 N 
ATOM      4  C   UNL     1       2.658   0.305  -0.102  1.00  0.00     0.263 C 
ATOM      5  O   UNL     1       2.893   1.499  -0.337  1.00  0.00    -0.268 OA
ATOM      6  H   UNL     1       4.612   0.166  -0.095  1.00  0.00     0.163 HD
BRANCH   4   7
ATOM      7  C   UNL     1       1.289  -0.205  -0.002  1.00  0.00     0.124 A 
ATOM      8  C   UNL     1      -2.595   0.410   0.040  1.00  0.00     0.079 C 
ATOM      9  C   UNL     1      -1.179  -0.040   0.067  1.00  0.00     0.091 A 
ATOM     10  N   UNL     1      -0.806  -1.290   0.093  1.00  0.00    -0.236 NA
ATOM     11  S   UNL     1       0.089   1.083   0.052  1.00  0.00    -0.113 S 
ATOM     12  C   UNL     1       0.597  -1.422   0.029  1.00  0.00     0.168 A 
BRANCH  12  13
ATOM     13  C   UNL     1       1.074  -2.841  -0.039  1.00  0.00     0.435 C 
ATOM     14  F   UNL     1       2.003  -3.026  -1.007  1.00  0.00    -0.164 F 
ATOM     15  F   UNL     1       1.606  -3.267   1.136  1.00  0.00    -0.164 F 
ATOM     16  F   UNL     1       0.072  -3.719  -0.324  1.00  0.00    -0.164 F 
ENDBRANCH  12  13
ENDBRANCH   4   7
ENDBRANCH   2   3
ENDBRANCH   1   2
BRANCH   1  17
ATOM     17  C   UNL     1       6.105  -2.426  -1.131  1.00  0.00     0.118 C 
BRANCH  17  18
ATOM     18  N   UNL     1       6.881  -3.135  -0.119  1.00  0.00    -0.352 N 
ATOM     19  C   UNL     1       7.633  -4.280  -0.219  1.00  0.00     0.251 C 
ATOM     20  H   UNL     1       6.863  -2.729   0.777  1.00  0.00     0.163 HD
ATOM     21  O   UNL     1       7.990  -4.864   0.798  1.00  0.00    -0.269 OA
BRANCH  19  22
ATOM     22  C   UNL     1       8.005  -4.813  -1.546  1.00  0.00     0.039 A 
ATOM     23  C   UNL     1       7.985  -6.195  -1.755  1.00  0.00     0.014 A 
ATOM     24  C   UNL     1       8.392  -3.954  -2.576  1.00  0.00     0.014 A 
ATOM     25  C   UNL     1       8.275  -6.707  -3.022  1.00  0.00     0.010 A 
ATOM     26  C   UNL     1       8.590  -4.456  -3.856  1.00  0.00     0.010 A 
ATOM     27  C   UNL     1       8.533  -5.837  -4.093  1.00  0.00    -0.014 A 
BRANCH  27  28
ATOM     28  C   UNL     1       8.736  -6.337  -5.475  1.00  0.00     0.031 A 
ATOM     29  C   UNL     1      10.036  -6.078  -6.184  1.00  0.00     0.074 A 
ATOM     30  C   UNL     1       7.716  -6.935  -6.121  1.00  0.00     0.049 A 
ATOM     31  N   UNL     1      10.359  -6.312  -7.430  1.00  0.00    -0.248 NA
ATOM     32  C   UNL     1      11.103  -5.441  -5.396  1.00  0.00     0.031 C 
ATOM     33  C   UNL     1       6.394  -7.204  -5.552  1.00  0.00     0.029 A 
ATOM     34  N   UNL     1       7.625  -7.408  -7.406  1.00  0.00    -0.354 N 
ATOM     35  C   UNL     1      11.655  -5.835  -7.578  1.00  0.00     0.074 A 
ATOM     36  C   UNL     1      12.039  -5.249  -6.313  1.00  0.00     0.031 C 
ATOM     37  C   UNL     1       5.631  -7.808  -6.476  1.00  0.00     0.029 A 
ATOM     38  C   UNL     1       6.390  -7.924  -7.716  1.00  0.00     0.049 A 
ATOM     39  H   UNL     1       8.374  -7.380  -8.044  1.00  0.00     0.167 HD
ATOM     40  C   UNL     1      12.460  -5.900  -8.666  1.00  0.00     0.037 A 
ATOM     41  C   UNL     1       5.916  -8.415  -8.877  1.00  0.00     0.037 A 
ATOM     42  C   UNL     1      12.076  -6.504  -9.915  1.00  0.00     0.049 A 
ATOM     43  C   UNL     1       6.820  -8.449 -10.078  1.00  0.00     0.074 A 
ATOM     44  C   UNL     1      12.837  -6.677 -11.057  1.00  0.00     0.029 A 
ATOM     45  N   UNL     1      10.820  -7.027 -10.186  1.00  0.00    -0.354 N 
ATOM     46  N   UNL     1       8.067  -8.057 -10.186  1.00  0.00    -0.248 NA
ATOM     47  C   UNL     1       6.252  -8.992 -11.320  1.00  0.00     0.031 C 
ATOM     48  C   UNL     1      12.026  -7.255 -12.037  1.00  0.00     0.029 A 
ATOM     49  C   UNL     1      10.776  -7.495 -11.488  1.00  0.00     0.049 A 
ATOM     50  H   UNL     1      10.072  -7.060  -9.547  1.00  0.00     0.167 HD
ATOM     51  C   UNL     1       8.440  -8.330 -11.496  1.00  0.00     0.074 A 
ATOM     52  C   UNL     1       7.292  -8.934 -12.140  1.00  0.00     0.031 C 
ATOM     53  C   UNL     1       9.625  -8.100 -12.111  1.00  0.00     0.037 A 
BRANCH  40  54
ATOM     54  C   UNL     1      13.833  -5.302  -8.552  1.00  0.00     0.057 A 
ATOM     55  C   UNL     1      14.824  -5.873  -7.742  1.00  0.00     0.134 A 
ATOM     56  C   UNL     1      14.180  -4.162  -9.287  1.00  0.00     0.134 A 
ATOM     57  F   UNL     1      14.556  -6.960  -7.002  1.00  0.00    -0.206 F 
ATOM     58  C   UNL     1      16.100  -5.315  -7.645  1.00  0.00     0.040 A 
ATOM     59  C   UNL     1      15.461  -3.612  -9.223  1.00  0.00     0.040 A 
ATOM     60  F   UNL     1      13.282  -3.567 -10.088  1.00  0.00    -0.206 F 
ATOM     61  C   UNL     1      16.424  -4.185  -8.394  1.00  0.00     0.006 A 
ENDBRANCH  40  54
BRANCH  41  62
ATOM     62  C   UNL     1       4.522  -8.919  -8.959  1.00  0.00     0.057 A 
ATOM     63  C   UNL     1       4.257 -10.283  -9.133  1.00  0.00     0.134 A 
ATOM     64  C   UNL     1       3.422  -8.057  -8.872  1.00  0.00     0.134 A 
ATOM     65  F   UNL     1       5.268 -11.158  -9.241  1.00  0.00    -0.206 F 
ATOM     66  C   UNL     1       2.953 -10.768  -9.239  1.00  0.00     0.040 A 
ATOM     67  C   UNL     1       2.112  -8.531  -8.948  1.00  0.00     0.040 A 
ATOM     68  F   UNL     1       3.606  -6.740  -8.697  1.00  0.00    -0.206 F 
ATOM     69  C   UNL     1       1.875  -9.891  -9.141  1.00  0.00     0.006 A 
ENDBRANCH  41  62
BRANCH  53  70
ATOM     70  C   UNL     1       9.755  -8.530 -13.543  1.00  0.00     0.057 A 
ATOM     71  C   UNL     1       9.110  -7.847 -14.581  1.00  0.00     0.134 A 
ATOM     72  C   UNL     1      10.582  -9.606 -13.891  1.00  0.00     0.134 A 
ATOM     73  F   UNL     1       8.293  -6.816 -14.313  1.00  0.00    -0.206 F 
ATOM     74  C   UNL     1       9.270  -8.229 -15.914  1.00  0.00     0.040 A 
ATOM     75  C   UNL     1      10.772  -9.979 -15.221  1.00  0.00     0.040 A 
ATOM     76  F   UNL     1      11.235 -10.297 -12.944  1.00  0.00    -0.206 F 
ATOM     77  C   UNL     1      10.111  -9.292 -16.237  1.00  0.00     0.006 A 
ENDBRANCH  53  70
ENDBRANCH  27  28
ENDBRANCH  19  22
ENDBRANCH  17  18
ENDBRANCH   1  17
TORSDOF 11
