REMARK SMILES N#Cc1ccc(C[N@H+]2CCCC[C@H]2C(=O)NCCCNC(=O)c2ccc(-c3c4nc(c(-c5c(F)cccc5F)c5ccc([nH]5)c(-c5c(F)cccc5F)c5nc(c(-c6c(F)cccc6F)c6ccc3[nH]6)C=C5)C=C4)cc2)c(F)c1
REMARK SMILES IDX 17 1 16 2 14 3 15 4 13 6 8 7 9 8 10 10 12 11 11 12 7 13 6 14
REMARK SMILES IDX 3 15 4 16 79 17 5 18 77 19 78 20 2 21 1 22 18 23 19 24 20 25
REMARK SMILES IDX 21 26 22 28 23 29 24 30 76 31 25 32 75 33 26 34 27 35 28 36
REMARK SMILES IDX 69 37 29 38 74 39 68 40 70 41 30 42 73 43 67 44 66 45 31 47
REMARK SMILES IDX 57 48 40 49 56 50 41 51 44 52 55 53 71 54 42 55 43 56 54 58
REMARK SMILES IDX 72 59 45 60 32 61 33 62 38 63 34 64 35 65 37 66 39 67 36 68
REMARK SMILES IDX 58 69 59 70 64 71 60 72 61 73 63 74 65 75 62 76 46 77 47 78
REMARK SMILES IDX 52 79 48 80 49 81 51 82 53 83 50 84
REMARK H PARENT 16 5 8 9 20 27 70 46 44 57
REMARK Flexibility Score: inf
ROOT
ATOM      1  C   UNL     1       2.935  -3.688   1.135  1.00  0.00     0.118 C 
ENDROOT
BRANCH   1   2
ATOM      2  N   UNL     1       2.027  -2.585   1.354  1.00  0.00    -0.351 N 
ATOM      3  C   UNL     1       2.304  -1.317   1.767  1.00  0.00     0.278 C 
ATOM      4  O   UNL     1       1.381  -0.722   2.327  1.00  0.00    -0.268 OA
ATOM      5  H   UNL     1       1.077  -2.776   1.180  1.00  0.00     0.163 HD
BRANCH   3   6
ATOM      6  C   UNL     1       3.706  -0.712   1.484  1.00  0.00     0.274 C 
ATOM      7  N   UNL     1       3.703   0.761   1.307  1.00  0.00    -0.321 N 
ATOM      8  C   UNL     1       3.306   1.504   2.503  1.00  0.00     0.263 C 
ATOM      9  H   UNL     1       4.691   0.988   1.193  1.00  0.00     0.349 HD
ATOM     10  C   UNL     1       4.126   1.097   3.738  1.00  0.00     0.062 C 
ATOM     11  C   UNL     1       4.671  -1.077   2.618  1.00  0.00     0.076 C 
ATOM     12  C   UNL     1       4.259  -0.411   3.924  1.00  0.00     0.012 C 
BRANCH   7  13
ATOM     13  C   UNL     1       3.147   1.259   0.035  1.00  0.00     0.302 C 
BRANCH  13  14
ATOM     14  C   UNL     1       1.686   0.992  -0.240  1.00  0.00     0.042 A 
ATOM     15  C   UNL     1      -1.025   0.262  -0.356  1.00  0.00     0.055 A 
ATOM     16  C   UNL     1      -0.657   1.533   0.100  1.00  0.00     0.020 A 
ATOM     17  C   UNL     1      -0.052  -0.601  -0.857  1.00  0.00     0.059 A 
ATOM     18  C   UNL     1       0.693   1.894   0.164  1.00  0.00     0.014 A 
ATOM     19  C   UNL     1       1.285  -0.215  -0.826  1.00  0.00     0.133 A 
ATOM     20  F   UNL     1       2.208  -1.080  -1.272  1.00  0.00    -0.206 F 
BRANCH  15  21
ATOM     21  C   UNL     1      -2.387  -0.176  -0.257  1.00  0.00     0.099 C 
ATOM     22  N   UNL     1      -3.478  -0.551  -0.154  1.00  0.00    -0.192 NA
ENDBRANCH  15  21
ENDBRANCH  13  14
ENDBRANCH   7  13
ENDBRANCH   3   6
ENDBRANCH   1   2
BRANCH   1  23
ATOM     23  C   UNL     1       2.912  -4.614   2.349  1.00  0.00     0.042 C 
BRANCH  23  24
ATOM     24  C   UNL     1       1.527  -5.184   2.656  1.00  0.00     0.118 C 
BRANCH  24  25
ATOM     25  N   UNL     1       1.007  -5.999   1.570  1.00  0.00    -0.352 N 
ATOM     26  C   UNL     1       0.550  -7.292   1.591  1.00  0.00     0.251 C 
ATOM     27  H   UNL     1       0.980  -5.559   0.690  1.00  0.00     0.163 HD
ATOM     28  O   UNL     1       0.344  -7.883   0.535  1.00  0.00    -0.269 OA
BRANCH  26  29
ATOM     29  C   UNL     1       0.332  -7.980   2.880  1.00  0.00     0.039 A 
ATOM     30  C   UNL     1       0.756  -9.303   3.009  1.00  0.00     0.014 A 
ATOM     31  C   UNL     1      -0.289  -7.333   3.953  1.00  0.00     0.014 A 
ATOM     32  C   UNL     1       0.614  -9.957   4.232  1.00  0.00     0.010 A 
ATOM     33  C   UNL     1      -0.354  -7.958   5.196  1.00  0.00     0.010 A 
ATOM     34  C   UNL     1       0.098  -9.277   5.350  1.00  0.00    -0.014 A 
BRANCH  34  35
ATOM     35  C   UNL     1       0.059  -9.935   6.682  1.00  0.00     0.031 A 
ATOM     36  C   UNL     1      -1.250 -10.184   7.379  1.00  0.00     0.074 A 
ATOM     37  C   UNL     1       1.217 -10.286   7.276  1.00  0.00     0.049 A 
ATOM     38  N   UNL     1      -1.470 -10.733   8.548  1.00  0.00    -0.248 NA
ATOM     39  C   UNL     1      -2.472  -9.745   6.686  1.00  0.00     0.031 C 
ATOM     40  C   UNL     1       2.555 -10.057   6.724  1.00  0.00     0.029 A 
ATOM     41  N   UNL     1       1.459 -10.910   8.475  1.00  0.00    -0.354 N 
ATOM     42  C   UNL     1      -2.848 -10.713   8.724  1.00  0.00     0.074 A 
ATOM     43  C   UNL     1      -3.410 -10.039   7.574  1.00  0.00     0.031 C 
ATOM     44  C   UNL     1       3.471 -10.563   7.563  1.00  0.00     0.029 A 
ATOM     45  C   UNL     1       2.795 -11.104   8.736  1.00  0.00     0.049 A 
ATOM     46  H   UNL     1       0.743 -11.192   9.089  1.00  0.00     0.167 HD
ATOM     47  C   UNL     1      -3.579 -11.234   9.738  1.00  0.00     0.037 A 
ATOM     48  C   UNL     1       3.407 -11.644   9.807  1.00  0.00     0.037 A 
ATOM     49  C   UNL     1      -3.017 -11.905  10.882  1.00  0.00     0.049 A 
ATOM     50  C   UNL     1       2.567 -12.169  10.941  1.00  0.00     0.074 A 
ATOM     51  C   UNL     1      -3.680 -12.493  11.946  1.00  0.00     0.029 A 
ATOM     52  N   UNL     1      -1.661 -12.072  11.116  1.00  0.00    -0.354 N 
ATOM     53  N   UNL     1       1.262 -12.205  11.059  1.00  0.00    -0.248 NA
ATOM     54  C   UNL     1       3.287 -12.736  12.089  1.00  0.00     0.031 C 
ATOM     55  C   UNL     1      -2.725 -12.961  12.853  1.00  0.00     0.029 A 
ATOM     56  C   UNL     1      -1.467 -12.729  12.321  1.00  0.00     0.049 A 
ATOM     57  H   UNL     1      -0.942 -11.768  10.516  1.00  0.00     0.167 HD
ATOM     58  C   UNL     1       1.007 -12.827  12.274  1.00  0.00     0.074 A 
ATOM     59  C   UNL     1       2.291 -13.177  12.842  1.00  0.00     0.031 C 
ATOM     60  C   UNL     1      -0.184 -13.082  12.871  1.00  0.00     0.037 A 
BRANCH  47  61
ATOM     61  C   UNL     1      -5.074 -11.113   9.658  1.00  0.00     0.057 A 
ATOM     62  C   UNL     1      -5.822 -11.837   8.719  1.00  0.00     0.134 A 
ATOM     63  C   UNL     1      -5.782 -10.326  10.576  1.00  0.00     0.134 A 
ATOM     64  F   UNL     1      -5.208 -12.603   7.805  1.00  0.00    -0.206 F 
ATOM     65  C   UNL     1      -7.216 -11.770   8.686  1.00  0.00     0.040 A 
ATOM     66  C   UNL     1      -7.177 -10.276  10.573  1.00  0.00     0.040 A 
ATOM     67  F   UNL     1      -5.130  -9.614  11.507  1.00  0.00    -0.206 F 
ATOM     68  C   UNL     1      -7.898 -10.997   9.623  1.00  0.00     0.006 A 
ENDBRANCH  47  61
BRANCH  48  69
ATOM     69  C   UNL     1       4.892 -11.708   9.878  1.00  0.00     0.057 A 
ATOM     70  C   UNL     1       5.568 -12.934   9.921  1.00  0.00     0.134 A 
ATOM     71  C   UNL     1       5.667 -10.545   9.967  1.00  0.00     0.134 A 
ATOM     72  F   UNL     1       4.883 -14.085   9.857  1.00  0.00    -0.206 F 
ATOM     73  C   UNL     1       6.951 -13.002  10.096  1.00  0.00     0.040 A 
ATOM     74  C   UNL     1       7.055 -10.598  10.103  1.00  0.00     0.040 A 
ATOM     75  F   UNL     1       5.087  -9.337   9.921  1.00  0.00    -0.206 F 
ATOM     76  C   UNL     1       7.699 -11.831  10.186  1.00  0.00     0.006 A 
ENDBRANCH  48  69
BRANCH  60  77
ATOM     77  C   UNL     1      -0.152 -13.813  14.184  1.00  0.00     0.057 A 
ATOM     78  C   UNL     1       0.361 -13.230  15.351  1.00  0.00     0.134 A 
ATOM     79  C   UNL     1      -0.658 -15.116  14.285  1.00  0.00     0.134 A 
ATOM     80  F   UNL     1       0.871 -11.990  15.324  1.00  0.00    -0.206 F 
ATOM     81  C   UNL     1       0.407 -13.930  16.558  1.00  0.00     0.040 A 
ATOM     82  C   UNL     1      -0.652 -15.812  15.495  1.00  0.00     0.040 A 
ATOM     83  F   UNL     1      -1.176 -15.732  13.211  1.00  0.00    -0.206 F 
ATOM     84  C   UNL     1      -0.107 -15.223  16.633  1.00  0.00     0.006 A 
ENDBRANCH  60  77
ENDBRANCH  34  35
ENDBRANCH  26  29
ENDBRANCH  24  25
ENDBRANCH  23  24
ENDBRANCH   1  23
TORSDOF 13
