REMARK SMILES COc1ccc(C[N@@H+]2CCO[C@H](Cc3ccc(F)cc3)C2)cc1C(=O)NCCCNC(=O)c1ccc(-c2c3nc(c(-c4c(F)cccc4F)c4ccc([nH]4)c(-c4c(F)cccc4F)c4nc(c(-c5c(F)cccc5F)c5ccc2[nH]5)C=C4)C=C3)cc1
REMARK SMILES IDX 27 1 26 2 24 3 25 4 23 6 3 7 4 8 5 9 22 10 6 11 2 12 1 13
REMARK SMILES IDX 7 14 8 15 9 16 21 17 10 19 12 20 11 21 13 22 14 23 15 24
REMARK SMILES IDX 20 25 16 26 19 27 17 28 18 29 28 30 29 31 30 32 31 33 32 35
REMARK SMILES IDX 33 36 34 37 86 38 35 39 85 40 36 41 37 42 38 43 79 44 39 45
REMARK SMILES IDX 84 46 78 47 80 48 40 49 83 50 77 51 76 52 41 54 67 55 50 56
REMARK SMILES IDX 66 57 51 58 54 59 65 60 81 61 52 62 53 63 64 65 82 66 55 67
REMARK SMILES IDX 42 68 43 69 48 70 44 71 45 72 47 73 49 74 46 75 68 76 69 77
REMARK SMILES IDX 74 78 70 79 71 80 73 81 75 82 72 83 56 84 57 85 62 86 58 87
REMARK SMILES IDX 59 88 61 89 63 90 60 91
REMARK H PARENT 26 5 8 18 30 34 80 53 54 64
REMARK Flexibility Score: inf
ROOT
ATOM      1  C   UNL     1       1.643   0.251   0.010  1.00  0.00     0.118 C 
ENDROOT
BRANCH   1   2
ATOM      2  N   UNL     1       2.761  -0.665   0.100  1.00  0.00    -0.352 N 
ATOM      3  C   UNL     1       2.849  -1.948   0.588  1.00  0.00     0.255 C 
ATOM      4  O   UNL     1       3.951  -2.495   0.475  1.00  0.00    -0.269 OA
ATOM      5  H   UNL     1       3.608  -0.306  -0.250  1.00  0.00     0.163 HD
BRANCH   3   6
ATOM      6  C   UNL     1       1.765  -2.700   1.305  1.00  0.00     0.082 A 
ATOM      7  C   UNL     1       0.378  -2.605   1.137  1.00  0.00     0.131 A 
ATOM      8  C   UNL     1      -0.482  -3.324   1.983  1.00  0.00     0.048 A 
ATOM      9  C   UNL     1       0.012  -4.132   3.009  1.00  0.00     0.013 A 
ATOM     10  C   UNL     1       2.242  -3.586   2.312  1.00  0.00     0.027 A 
ATOM     11  C   UNL     1       1.387  -4.235   3.229  1.00  0.00     0.007 A 
BRANCH   7  12
ATOM     12  O   UNL     1      -0.267  -1.754   0.286  1.00  0.00    -0.496 OA
ATOM     13  C   UNL     1      -0.262  -2.197  -1.067  1.00  0.00     0.278 C 
ENDBRANCH   7  12
BRANCH  11  14
ATOM     14  C   UNL     1       1.945  -4.986   4.428  1.00  0.00     0.299 C 
BRANCH  14  15
ATOM     15  N   UNL     1       1.866  -4.379   5.761  1.00  0.00    -0.327 N 
ATOM     16  C   UNL     1       0.557  -4.043   6.312  1.00  0.00     0.291 C 
ATOM     17  C   UNL     1       2.889  -3.423   6.204  1.00  0.00     0.295 C 
ATOM     18  H   UNL     1       2.142  -5.260   6.195  1.00  0.00     0.348 HD
ATOM     19  C   UNL     1       0.193  -2.567   6.132  1.00  0.00     0.222 C 
ATOM     20  C   UNL     1       2.510  -1.910   6.138  1.00  0.00     0.177 C 
ATOM     21  O   UNL     1       1.188  -1.681   6.652  1.00  0.00    -0.366 OA
BRANCH  20  22
ATOM     22  C   UNL     1       2.749  -1.364   4.726  1.00  0.00     0.073 C 
BRANCH  22  23
ATOM     23  C   UNL     1       2.227  -0.010   4.329  1.00  0.00    -0.045 A 
ATOM     24  C   UNL     1       0.917   0.108   3.833  1.00  0.00     0.007 A 
ATOM     25  C   UNL     1       3.061   1.113   4.312  1.00  0.00     0.007 A 
ATOM     26  C   UNL     1       0.437   1.320   3.350  1.00  0.00     0.039 A 
ATOM     27  C   UNL     1       2.584   2.328   3.815  1.00  0.00     0.039 A 
ATOM     28  C   UNL     1       1.277   2.421   3.345  1.00  0.00     0.123 A 
ATOM     29  F   UNL     1       0.845   3.571   2.813  1.00  0.00    -0.207 F 
ENDBRANCH  22  23
ENDBRANCH  20  22
ENDBRANCH  14  15
ENDBRANCH  11  14
ENDBRANCH   3   6
ENDBRANCH   1   2
BRANCH   1  30
ATOM     30  C   UNL     1       2.008   1.724   0.084  1.00  0.00     0.042 C 
BRANCH  30  31
ATOM     31  C   UNL     1       2.610   2.328  -1.175  1.00  0.00     0.118 C 
BRANCH  31  32
ATOM     32  N   UNL     1       1.719   2.320  -2.331  1.00  0.00    -0.352 N 
ATOM     33  C   UNL     1       0.995   3.298  -2.967  1.00  0.00     0.251 C 
ATOM     34  H   UNL     1       1.617   1.429  -2.739  1.00  0.00     0.163 HD
ATOM     35  O   UNL     1       0.228   2.958  -3.874  1.00  0.00    -0.269 OA
BRANCH  33  36
ATOM     36  C   UNL     1       1.071   4.732  -2.594  1.00  0.00     0.039 A 
ATOM     37  C   UNL     1      -0.062   5.537  -2.771  1.00  0.00     0.014 A 
ATOM     38  C   UNL     1       2.242   5.320  -2.122  1.00  0.00     0.014 A 
ATOM     39  C   UNL     1      -0.035   6.889  -2.407  1.00  0.00     0.010 A 
ATOM     40  C   UNL     1       2.229   6.623  -1.630  1.00  0.00     0.010 A 
ATOM     41  C   UNL     1       1.100   7.435  -1.787  1.00  0.00    -0.014 A 
BRANCH  41  42
ATOM     42  C   UNL     1       1.141   8.854  -1.338  1.00  0.00     0.031 A 
ATOM     43  C   UNL     1       2.194   9.792  -1.876  1.00  0.00     0.074 A 
ATOM     44  C   UNL     1       0.272   9.289  -0.403  1.00  0.00     0.049 A 
ATOM     45  N   UNL     1       2.430  11.042  -1.562  1.00  0.00    -0.248 NA
ATOM     46  C   UNL     1       3.131   9.244  -2.871  1.00  0.00     0.031 C 
ATOM     47  C   UNL     1      -0.753   8.470   0.248  1.00  0.00     0.029 A 
ATOM     48  N   UNL     1       0.114  10.528   0.166  1.00  0.00    -0.354 N 
ATOM     49  C   UNL     1       3.549  11.414  -2.299  1.00  0.00     0.074 A 
ATOM     50  C   UNL     1       3.989  10.241  -3.019  1.00  0.00     0.031 C 
ATOM     51  C   UNL     1      -1.458   9.237   1.094  1.00  0.00     0.029 A 
ATOM     52  C   UNL     1      -0.911  10.589   1.081  1.00  0.00     0.049 A 
ATOM     53  H   UNL     1       0.680  11.301  -0.059  1.00  0.00     0.167 HD
ATOM     54  C   UNL     1       4.138  12.629  -2.398  1.00  0.00     0.037 A 
ATOM     55  C   UNL     1      -1.357  11.618   1.827  1.00  0.00     0.037 A 
ATOM     56  C   UNL     1       3.675  13.806  -1.711  1.00  0.00     0.049 A 
ATOM     57  C   UNL     1      -0.692  12.960   1.694  1.00  0.00     0.074 A 
ATOM     58  C   UNL     1       4.157  15.100  -1.797  1.00  0.00     0.029 A 
ATOM     59  N   UNL     1       2.620  13.829  -0.811  1.00  0.00    -0.354 N 
ATOM     60  N   UNL     1       0.315  13.314   0.932  1.00  0.00    -0.248 NA
ATOM     61  C   UNL     1      -1.230  14.050   2.521  1.00  0.00     0.031 C 
ATOM     62  C   UNL     1       3.426  15.897  -0.910  1.00  0.00     0.029 A 
ATOM     63  C   UNL     1       2.452  15.111  -0.315  1.00  0.00     0.049 A 
ATOM     64  H   UNL     1       2.072  13.050  -0.562  1.00  0.00     0.167 HD
ATOM     65  C   UNL     1       0.512  14.669   1.166  1.00  0.00     0.074 A 
ATOM     66  C   UNL     1      -0.492  15.077   2.126  1.00  0.00     0.031 C 
ATOM     67  C   UNL     1       1.442  15.501   0.636  1.00  0.00     0.037 A 
BRANCH  54  68
ATOM     68  C   UNL     1       5.341  12.749  -3.291  1.00  0.00     0.057 A 
ATOM     69  C   UNL     1       5.245  12.630  -4.685  1.00  0.00     0.134 A 
ATOM     70  C   UNL     1       6.608  13.014  -2.755  1.00  0.00     0.134 A 
ATOM     71  F   UNL     1       4.065  12.365  -5.265  1.00  0.00    -0.206 F 
ATOM     72  C   UNL     1       6.367  12.738  -5.508  1.00  0.00     0.040 A 
ATOM     73  C   UNL     1       7.732  13.156  -3.571  1.00  0.00     0.040 A 
ATOM     74  F   UNL     1       6.774  13.147  -1.431  1.00  0.00    -0.206 F 
ATOM     75  C   UNL     1       7.615  13.010  -4.952  1.00  0.00     0.006 A 
ENDBRANCH  54  68
BRANCH  55  76
ATOM     76  C   UNL     1      -2.509  11.430   2.747  1.00  0.00     0.057 A 
ATOM     77  C   UNL     1      -3.741  12.046   2.498  1.00  0.00     0.134 A 
ATOM     78  C   UNL     1      -2.406  10.643   3.901  1.00  0.00     0.134 A 
ATOM     79  F   UNL     1      -3.899  12.828   1.419  1.00  0.00    -0.206 F 
ATOM     80  C   UNL     1      -4.821  11.909   3.373  1.00  0.00     0.040 A 
ATOM     81  C   UNL     1      -3.486  10.473   4.769  1.00  0.00     0.040 A 
ATOM     82  F   UNL     1      -1.256  10.019   4.195  1.00  0.00    -0.206 F 
ATOM     83  C   UNL     1      -4.696  11.115   4.511  1.00  0.00     0.006 A 
ENDBRANCH  55  76
BRANCH  67  84
ATOM     84  C   UNL     1       1.396  16.941   1.057  1.00  0.00     0.057 A 
ATOM     85  C   UNL     1       1.762  17.349   2.346  1.00  0.00     0.134 A 
ATOM     86  C   UNL     1       1.016  17.936   0.147  1.00  0.00     0.134 A 
ATOM     87  F   UNL     1       2.124  16.444   3.268  1.00  0.00    -0.206 F 
ATOM     88  C   UNL     1       1.724  18.692   2.724  1.00  0.00     0.040 A 
ATOM     89  C   UNL     1       1.005  19.285   0.504  1.00  0.00     0.040 A 
ATOM     90  F   UNL     1       0.664  17.616  -1.107  1.00  0.00    -0.206 F 
ATOM     91  C   UNL     1       1.352  19.665   1.798  1.00  0.00     0.006 A 
ENDBRANCH  67  84
ENDBRANCH  41  42
ENDBRANCH  33  36
ENDBRANCH  31  32
ENDBRANCH  30  31
ENDBRANCH   1  30
TORSDOF 15
