REMARK SMILES CCSc1nc(CC(=O)N[C@@H](C(=O)NCCCNC(=O)c2ccc(-c3c4nc(c(-c5c(F)cccc5F)c5ccc([nH]5)c(-c5c(F)cccc5F)c5nc(c(-c6c(F)cccc6F)c6ccc3[nH]6)C=C5)C=C4)cc2)C2=C(C)N=N[C@@H]2C)cs1
REMARK SMILES IDX 12 1 13 2 14 3 11 5 10 6 8 7 9 8 7 10 6 11 4 12 5 13 83 14
REMARK SMILES IDX 82 15 3 16 2 17 1 18 75 19 76 20 80 21 77 22 78 23 79 24
REMARK SMILES IDX 81 25 15 26 16 27 17 28 18 29 19 30 20 32 21 33 22 34 74 35
REMARK SMILES IDX 23 36 73 37 24 38 25 39 26 40 67 41 27 42 72 43 66 44 68 45
REMARK SMILES IDX 28 46 71 47 65 48 64 49 29 51 55 52 38 53 54 54 39 55 42 56
REMARK SMILES IDX 53 57 69 58 40 59 41 60 52 62 70 63 43 64 30 65 31 66 36 67
REMARK SMILES IDX 32 68 33 69 35 70 37 71 34 72 56 73 57 74 62 75 58 76 59 77
REMARK SMILES IDX 61 78 63 79 60 80 44 81 45 82 50 83 46 84 47 85 49 86 51 87
REMARK SMILES IDX 48 88
REMARK H PARENT 14 4 10 9 18 31 68 50 42 61
REMARK Flexibility Score: inf
ROOT
ATOM      1  C   UNL     1       3.885  -1.009  -6.317  1.00  0.00     0.247 C 
ATOM      2  O   UNL     1       2.879  -1.174  -7.015  1.00  0.00    -0.272 OA
ATOM      3  N   UNL     1       4.330   0.285  -6.234  1.00  0.00    -0.354 N 
ATOM      4  H   UNL     1       4.352   0.819  -7.061  1.00  0.00     0.163 HD
ENDROOT
BRANCH   1   5
ATOM      5  C   UNL     1       4.578  -2.197  -5.523  1.00  0.00     0.202 C 
BRANCH   5   6
ATOM      6  N   UNL     1       5.975  -1.921  -5.158  1.00  0.00    -0.340 N 
ATOM      7  C   UNL     1       6.565  -1.726  -3.940  1.00  0.00     0.226 C 
ATOM      8  O   UNL     1       7.720  -1.288  -3.938  1.00  0.00    -0.275 OA
ATOM      9  H   UNL     1       6.592  -1.868  -5.923  1.00  0.00     0.164 HD
BRANCH   7  10
ATOM     10  C   UNL     1       5.859  -2.026  -2.623  1.00  0.00     0.157 C 
BRANCH  10  11
ATOM     11  C   UNL     1       4.955  -0.930  -2.168  1.00  0.00     0.062 A 
ATOM     12  C   UNL     1       2.953   0.033  -2.095  1.00  0.00     0.150 A 
ATOM     13  N   UNL     1       3.608  -1.037  -2.483  1.00  0.00    -0.234 NA
ATOM     14  S   UNL     1       3.902   1.227  -1.313  1.00  0.00    -0.116 S 
ATOM     15  C   UNL     1       5.293   0.234  -1.501  1.00  0.00     0.092 A 
BRANCH  12  16
ATOM     16  S   UNL     1       1.268   0.194  -2.530  1.00  0.00    -0.096 SA
BRANCH  16  17
ATOM     17  C   UNL     1       0.513   0.857  -1.023  1.00  0.00     0.074 C 
ATOM     18  C   UNL     1       0.675  -0.068   0.171  1.00  0.00     0.016 C 
ENDBRANCH  16  17
ENDBRANCH  12  16
ENDBRANCH  10  11
ENDBRANCH   7  10
ENDBRANCH   5   6
BRANCH   5  19
ATOM     19  C   UNL     1       4.583  -3.466  -6.343  1.00  0.00     0.011 C 
ATOM     20  C   UNL     1       4.815  -4.737  -5.984  1.00  0.00     0.064 C 
ATOM     21  C   UNL     1       4.197  -3.562  -7.793  1.00  0.00     0.156 C 
ATOM     22  C   UNL     1       5.195  -5.303  -4.664  1.00  0.00     0.069 C 
ATOM     23  N   UNL     1       4.653  -5.624  -7.019  1.00  0.00    -0.160 NA
ATOM     24  N   UNL     1       4.302  -5.022  -8.065  1.00  0.00    -0.181 NA
ATOM     25  C   UNL     1       5.119  -2.840  -8.767  1.00  0.00     0.040 C 
ENDBRANCH   5  19
ENDBRANCH   1   5
BRANCH   3  26
ATOM     26  C   UNL     1       4.768   0.911  -5.016  1.00  0.00     0.117 C 
BRANCH  26  27
ATOM     27  C   UNL     1       5.978   1.808  -5.152  1.00  0.00     0.042 C 
BRANCH  27  28
ATOM     28  C   UNL     1       5.616   3.222  -5.569  1.00  0.00     0.118 C 
BRANCH  28  29
ATOM     29  N   UNL     1       4.800   3.918  -4.575  1.00  0.00    -0.352 N 
ATOM     30  C   UNL     1       5.010   5.109  -3.920  1.00  0.00     0.251 C 
ATOM     31  H   UNL     1       3.962   3.458  -4.335  1.00  0.00     0.163 HD
ATOM     32  O   UNL     1       4.270   5.441  -3.004  1.00  0.00    -0.269 OA
BRANCH  30  33
ATOM     33  C   UNL     1       6.148   5.970  -4.305  1.00  0.00     0.039 A 
ATOM     34  C   UNL     1       6.890   6.604  -3.305  1.00  0.00     0.014 A 
ATOM     35  C   UNL     1       6.493   6.138  -5.646  1.00  0.00     0.014 A 
ATOM     36  C   UNL     1       8.032   7.330  -3.649  1.00  0.00     0.010 A 
ATOM     37  C   UNL     1       7.686   6.764  -5.977  1.00  0.00     0.010 A 
ATOM     38  C   UNL     1       8.465   7.373  -4.983  1.00  0.00    -0.014 A 
BRANCH  38  39
ATOM     39  C   UNL     1       9.716   8.065  -5.382  1.00  0.00     0.031 A 
ATOM     40  C   UNL     1       9.653   9.203  -6.365  1.00  0.00     0.074 A 
ATOM     41  C   UNL     1      10.905   7.618  -4.934  1.00  0.00     0.049 A 
ATOM     42  N   UNL     1      10.629   9.841  -6.958  1.00  0.00    -0.248 NA
ATOM     43  C   UNL     1       8.310   9.657  -6.766  1.00  0.00     0.031 C 
ATOM     44  C   UNL     1      11.102   6.495  -4.014  1.00  0.00     0.029 A 
ATOM     45  N   UNL     1      12.179   8.048  -5.206  1.00  0.00    -0.354 N 
ATOM     46  C   UNL     1      10.019  10.751  -7.812  1.00  0.00     0.074 A 
ATOM     47  C   UNL     1       8.592  10.540  -7.710  1.00  0.00     0.031 C 
ATOM     48  C   UNL     1      12.415   6.345  -3.776  1.00  0.00     0.029 A 
ATOM     49  C   UNL     1      13.155   7.327  -4.560  1.00  0.00     0.049 A 
ATOM     50  H   UNL     1      12.376   8.803  -5.807  1.00  0.00     0.167 HD
ATOM     51  C   UNL     1      10.594  11.700  -8.587  1.00  0.00     0.037 A 
ATOM     52  C   UNL     1      14.495   7.442  -4.606  1.00  0.00     0.037 A 
ATOM     53  C   UNL     1      12.011  11.934  -8.655  1.00  0.00     0.049 A 
ATOM     54  C   UNL     1      15.108   8.504  -5.479  1.00  0.00     0.074 A 
ATOM     55  C   UNL     1      12.693  12.893  -9.381  1.00  0.00     0.029 A 
ATOM     56  N   UNL     1      12.961  11.205  -7.957  1.00  0.00    -0.354 N 
ATOM     57  N   UNL     1      14.517   9.384  -6.250  1.00  0.00    -0.248 NA
ATOM     58  C   UNL     1      16.575   8.589  -5.486  1.00  0.00     0.031 C 
ATOM     59  C   UNL     1      14.061  12.730  -9.141  1.00  0.00     0.029 A 
ATOM     60  C   UNL     1      14.226  11.693  -8.237  1.00  0.00     0.049 A 
ATOM     61  H   UNL     1      12.766  10.453  -7.353  1.00  0.00     0.167 HD
ATOM     62  C   UNL     1      15.535  10.150  -6.802  1.00  0.00     0.074 A 
ATOM     63  C   UNL     1      16.780   9.636  -6.271  1.00  0.00     0.031 C 
ATOM     64  C   UNL     1      15.449  11.185  -7.672  1.00  0.00     0.037 A 
BRANCH  51  65
ATOM     65  C   UNL     1       9.684  12.570  -9.403  1.00  0.00     0.057 A 
ATOM     66  C   UNL     1       8.861  13.534  -8.804  1.00  0.00     0.134 A 
ATOM     67  C   UNL     1       9.651  12.470 -10.799  1.00  0.00     0.134 A 
ATOM     68  F   UNL     1       8.833  13.669  -7.470  1.00  0.00    -0.206 F 
ATOM     69  C   UNL     1       8.020  14.350  -9.563  1.00  0.00     0.040 A 
ATOM     70  C   UNL     1       8.835  13.299 -11.570  1.00  0.00     0.040 A 
ATOM     71  F   UNL     1      10.416  11.571 -11.436  1.00  0.00    -0.206 F 
ATOM     72  C   UNL     1       8.012  14.238 -10.951  1.00  0.00     0.006 A 
ENDBRANCH  51  65
BRANCH  52  73
ATOM     73  C   UNL     1      15.357   6.553  -3.787  1.00  0.00     0.057 A 
ATOM     74  C   UNL     1      16.086   7.058  -2.704  1.00  0.00     0.134 A 
ATOM     75  C   UNL     1      15.502   5.192  -4.082  1.00  0.00     0.134 A 
ATOM     76  F   UNL     1      16.003   8.358  -2.383  1.00  0.00    -0.206 F 
ATOM     77  C   UNL     1      16.952   6.252  -1.963  1.00  0.00     0.040 A 
ATOM     78  C   UNL     1      16.344   4.368  -3.333  1.00  0.00     0.040 A 
ATOM     79  F   UNL     1      14.825   4.644  -5.102  1.00  0.00    -0.206 F 
ATOM     80  C   UNL     1      17.081   4.901  -2.276  1.00  0.00     0.006 A 
ENDBRANCH  52  73
BRANCH  64  81
ATOM     81  C   UNL     1      16.727  11.868  -8.055  1.00  0.00     0.057 A 
ATOM     82  C   UNL     1      17.651  11.276  -8.924  1.00  0.00     0.134 A 
ATOM     83  C   UNL     1      17.013  13.154  -7.580  1.00  0.00     0.134 A 
ATOM     84  F   UNL     1      17.440  10.040  -9.402  1.00  0.00    -0.206 F 
ATOM     85  C   UNL     1      18.826  11.933  -9.293  1.00  0.00     0.040 A 
ATOM     86  C   UNL     1      18.171  13.831  -7.961  1.00  0.00     0.040 A 
ATOM     87  F   UNL     1      16.163  13.778  -6.750  1.00  0.00    -0.206 F 
ATOM     88  C   UNL     1      19.084  13.217  -8.816  1.00  0.00     0.006 A 
ENDBRANCH  64  81
ENDBRANCH  38  39
ENDBRANCH  30  33
ENDBRANCH  28  29
ENDBRANCH  27  28
ENDBRANCH  26  27
ENDBRANCH   3  26
TORSDOF 16
