REMARK SMILES O=C(CNC(=O)CNC(=O)OCc1ccccc1)NCCCNC(=O)c1ccc(-c2c3nc(c(-c4c(F)cccc4F)c4ccc([nH]4)c(-c4c(F)cccc4F)c4nc(c(-c5c(F)cccc5F)c5ccc2[nH]5)C=C4)C=C3)cc1
REMARK SMILES IDX 1 1 2 2 19 3 3 5 4 6 5 7 6 9 7 10 8 11 9 12 10 14 11 15
REMARK SMILES IDX 12 16 13 17 14 18 18 19 15 20 17 21 16 22 20 23 21 24 22 25
REMARK SMILES IDX 23 26 24 27 25 29 26 30 27 31 79 32 28 33 78 34 29 35 30 36
REMARK SMILES IDX 31 37 72 38 32 39 77 40 71 41 73 42 33 43 76 44 70 45 69 46
REMARK SMILES IDX 34 48 60 49 43 50 59 51 44 52 47 53 58 54 74 55 45 56 46 57
REMARK SMILES IDX 57 59 75 60 48 61 35 62 36 63 41 64 37 65 38 66 40 67 42 68
REMARK SMILES IDX 39 69 61 70 62 71 67 72 63 73 64 74 66 75 68 76 65 77 49 78
REMARK SMILES IDX 50 79 55 80 51 81 52 82 54 83 56 84 53 85
REMARK H PARENT 19 4 4 8 8 13 23 28 73 47 47 58
REMARK Flexibility Score: inf
ROOT
ATOM      1  O   UNL     1       0.999   0.307   0.463  1.00  0.00    -0.273 OA
ATOM      2  C   UNL     1       2.114  -0.104   0.154  1.00  0.00     0.239 C 
ATOM      3  N   UNL     1       2.792   0.323  -0.968  1.00  0.00    -0.355 N 
ATOM      4  H   UNL     1       3.730   0.048  -1.087  1.00  0.00     0.163 HD
ENDROOT
BRANCH   2   5
ATOM      5  C   UNL     1       2.897  -1.058   1.067  1.00  0.00     0.216 C 
BRANCH   5   6
ATOM      6  N   UNL     1       3.974  -1.771   0.389  1.00  0.00    -0.346 N 
ATOM      7  C   UNL     1       5.323  -1.697   0.569  1.00  0.00     0.239 C 
ATOM      8  H   UNL     1       3.681  -2.403  -0.307  1.00  0.00     0.164 HD
ATOM      9  O   UNL     1       6.041  -2.441  -0.101  1.00  0.00    -0.273 OA
BRANCH   7  10
ATOM     10  C   UNL     1       5.921  -0.704   1.563  1.00  0.00     0.219 C 
BRANCH  10  11
ATOM     11  N   UNL     1       5.698   0.648   1.086  1.00  0.00    -0.312 N 
ATOM     12  C   UNL     1       5.025   1.631   1.741  1.00  0.00     0.407 C 
ATOM     13  H   UNL     1       6.071   0.876   0.203  1.00  0.00     0.167 HD
ATOM     14  O   UNL     1       4.723   2.675   1.173  1.00  0.00    -0.225 OA
BRANCH  12  15
ATOM     15  O   UNL     1       4.719   1.298   3.014  1.00  0.00    -0.445 OA
BRANCH  15  16
ATOM     16  C   UNL     1       3.917   2.248   3.732  1.00  0.00     0.270 C 
BRANCH  16  17
ATOM     17  C   UNL     1       4.687   3.487   4.110  1.00  0.00    -0.011 A 
ATOM     18  C   UNL     1       5.950   3.400   4.712  1.00  0.00     0.007 A 
ATOM     19  C   UNL     1       4.138   4.752   3.857  1.00  0.00     0.007 A 
ATOM     20  C   UNL     1       6.661   4.558   5.029  1.00  0.00     0.000 A 
ATOM     21  C   UNL     1       4.849   5.908   4.176  1.00  0.00     0.000 A 
ATOM     22  C   UNL     1       6.112   5.811   4.758  1.00  0.00     0.000 A 
ENDBRANCH  16  17
ENDBRANCH  15  16
ENDBRANCH  12  15
ENDBRANCH  10  11
ENDBRANCH   7  10
ENDBRANCH   5   6
ENDBRANCH   2   5
BRANCH   3  23
ATOM     23  C   UNL     1       2.178   1.162  -1.979  1.00  0.00     0.117 C 
BRANCH  23  24
ATOM     24  C   UNL     1       2.505   2.645  -1.833  1.00  0.00     0.042 C 
BRANCH  24  25
ATOM     25  C   UNL     1       3.974   3.004  -2.039  1.00  0.00     0.118 C 
BRANCH  25  26
ATOM     26  N   UNL     1       4.465   2.700  -3.377  1.00  0.00    -0.352 N 
ATOM     27  C   UNL     1       5.114   3.481  -4.299  1.00  0.00     0.251 C 
ATOM     28  H   UNL     1       4.303   1.774  -3.669  1.00  0.00     0.163 HD
ATOM     29  O   UNL     1       5.347   3.013  -5.412  1.00  0.00    -0.269 OA
BRANCH  27  30
ATOM     30  C   UNL     1       5.518   4.875  -4.000  1.00  0.00     0.039 A 
ATOM     31  C   UNL     1       5.414   5.827  -5.022  1.00  0.00     0.014 A 
ATOM     32  C   UNL     1       6.043   5.253  -2.762  1.00  0.00     0.014 A 
ATOM     33  C   UNL     1       5.782   7.155  -4.788  1.00  0.00     0.010 A 
ATOM     34  C   UNL     1       6.336   6.593  -2.505  1.00  0.00     0.010 A 
ATOM     35  C   UNL     1       6.219   7.558  -3.517  1.00  0.00    -0.014 A 
BRANCH  35  36
ATOM     36  C   UNL     1       6.574   8.976  -3.241  1.00  0.00     0.031 A 
ATOM     37  C   UNL     1       7.984   9.348  -2.865  1.00  0.00     0.074 A 
ATOM     38  C   UNL     1       5.622   9.928  -3.287  1.00  0.00     0.049 A 
ATOM     39  N   UNL     1       8.474  10.519  -2.543  1.00  0.00    -0.248 NA
ATOM     40  C   UNL     1       8.968   8.255  -2.822  1.00  0.00     0.031 C 
ATOM     41  C   UNL     1       4.210   9.699  -3.602  1.00  0.00     0.029 A 
ATOM     42  N   UNL     1       5.695  11.280  -3.061  1.00  0.00    -0.354 N 
ATOM     43  C   UNL     1       9.814  10.302  -2.248  1.00  0.00     0.074 A 
ATOM     44  C   UNL     1      10.048   8.879  -2.375  1.00  0.00     0.031 C 
ATOM     45  C   UNL     1       3.557  10.871  -3.572  1.00  0.00     0.029 A 
ATOM     46  C   UNL     1       4.491  11.929  -3.197  1.00  0.00     0.049 A 
ATOM     47  H   UNL     1       6.532  11.742  -2.824  1.00  0.00     0.167 HD
ATOM     48  C   UNL     1      10.771  11.205  -1.924  1.00  0.00     0.037 A 
ATOM     49  C   UNL     1       4.173  13.227  -3.032  1.00  0.00     0.037 A 
ATOM     50  C   UNL     1      10.544  12.623  -1.815  1.00  0.00     0.049 A 
ATOM     51  C   UNL     1       5.249  14.208  -2.654  1.00  0.00     0.074 A 
ATOM     52  C   UNL     1      11.460  13.624  -1.542  1.00  0.00     0.029 A 
ATOM     53  N   UNL     1       9.312  13.240  -1.970  1.00  0.00    -0.354 N 
ATOM     54  N   UNL     1       6.525  13.997  -2.442  1.00  0.00    -0.248 NA
ATOM     55  C   UNL     1       4.841  15.612  -2.500  1.00  0.00     0.031 C 
ATOM     56  C   UNL     1      10.774  14.841  -1.480  1.00  0.00     0.029 A 
ATOM     57  C   UNL     1       9.440  14.606  -1.775  1.00  0.00     0.049 A 
ATOM     58  H   UNL     1       8.470  12.777  -2.187  1.00  0.00     0.167 HD
ATOM     59  C   UNL     1       7.077  15.242  -2.165  1.00  0.00     0.074 A 
ATOM     60  C   UNL     1       5.999  16.204  -2.248  1.00  0.00     0.031 C 
ATOM     61  C   UNL     1       8.362  15.558  -1.871  1.00  0.00     0.037 A 
BRANCH  48  62
ATOM     62  C   UNL     1      12.156  10.684  -1.663  1.00  0.00     0.057 A 
ATOM     63  C   UNL     1      12.955  10.158  -2.687  1.00  0.00     0.134 A 
ATOM     64  C   UNL     1      12.711  10.739  -0.378  1.00  0.00     0.134 A 
ATOM     65  F   UNL     1      12.482  10.066  -3.939  1.00  0.00    -0.206 F 
ATOM     66  C   UNL     1      14.242   9.677  -2.438  1.00  0.00     0.040 A 
ATOM     67  C   UNL     1      14.008  10.290  -0.122  1.00  0.00     0.040 A 
ATOM     68  F   UNL     1      12.007  11.239   0.649  1.00  0.00    -0.206 F 
ATOM     69  C   UNL     1      14.774   9.750  -1.152  1.00  0.00     0.006 A 
ENDBRANCH  48  62
BRANCH  49  70
ATOM     70  C   UNL     1       2.775  13.685  -3.244  1.00  0.00     0.057 A 
ATOM     71  C   UNL     1       2.439  14.506  -4.326  1.00  0.00     0.134 A 
ATOM     72  C   UNL     1       1.747  13.330  -2.362  1.00  0.00     0.134 A 
ATOM     73  F   UNL     1       3.383  14.898  -5.195  1.00  0.00    -0.206 F 
ATOM     74  C   UNL     1       1.139  14.977  -4.512  1.00  0.00     0.040 A 
ATOM     75  C   UNL     1       0.436  13.770  -2.551  1.00  0.00     0.040 A 
ATOM     76  F   UNL     1       2.001  12.540  -1.308  1.00  0.00    -0.206 F 
ATOM     77  C   UNL     1       0.131  14.604  -3.625  1.00  0.00     0.006 A 
ENDBRANCH  49  70
BRANCH  61  78
ATOM     78  C   UNL     1       8.686  17.010  -1.665  1.00  0.00     0.057 A 
ATOM     79  C   UNL     1       8.257  17.716  -0.534  1.00  0.00     0.134 A 
ATOM     80  C   UNL     1       9.470  17.702  -2.598  1.00  0.00     0.134 A 
ATOM     81  F   UNL     1       7.492  17.117   0.392  1.00  0.00    -0.206 F 
ATOM     82  C   UNL     1       8.574  19.063  -0.351  1.00  0.00     0.040 A 
ATOM     83  C   UNL     1       9.819  19.040  -2.411  1.00  0.00     0.040 A 
ATOM     84  F   UNL     1       9.923  17.084  -3.699  1.00  0.00    -0.206 F 
ATOM     85  C   UNL     1       9.364  19.727  -1.288  1.00  0.00     0.006 A 
ENDBRANCH  61  78
ENDBRANCH  35  36
ENDBRANCH  27  30
ENDBRANCH  25  26
ENDBRANCH  24  25
ENDBRANCH  23  24
ENDBRANCH   3  23
TORSDOF 16
