REMARK SMILES C[NH2+][C@@](C)(CC[N@@H+](C)C1CCC(C)(C)CC1)C(=O)NCCCNC(=O)c1ccc(-c2c3nc(c(-c4c(F)cccc4F)c4ccc([nH]4)c(-c4c(F)cccc4F)c4nc(c(-c5c(F)cccc5F)c5ccc2[nH]5)C=C4)C=C3)cc1
REMARK SMILES IDX 20 1 19 2 17 3 18 4 3 6 4 7 2 8 1 9 5 12 6 13 7 14 8 15 9 17
REMARK SMILES IDX 10 18 16 19 11 20 15 21 12 22 13 23 14 24 21 25 22 26 23 27
REMARK SMILES IDX 24 28 25 30 26 31 27 32 79 33 28 34 78 35 29 36 30 37 31 38
REMARK SMILES IDX 72 39 32 40 77 41 71 42 73 43 33 44 76 45 70 46 69 47 34 49
REMARK SMILES IDX 60 50 43 51 59 52 44 53 47 54 58 55 74 56 45 57 46 58 57 60
REMARK SMILES IDX 75 61 48 62 35 63 36 64 41 65 37 66 38 67 40 68 42 69 39 70
REMARK SMILES IDX 61 71 62 72 67 73 63 74 64 75 66 76 68 77 65 78 49 79 50 80
REMARK SMILES IDX 55 81 51 82 52 83 54 84 56 85 53 86
REMARK H PARENT 19 5 2 10 2 11 7 16 23 29 73 48 47 59
REMARK Flexibility Score: inf
ROOT
ATOM      1  C   UNL     1      -4.944  -1.410  -0.713  1.00  0.00     0.118 C 
ENDROOT
BRANCH   1   2
ATOM      2  N   UNL     1      -3.682  -0.689  -0.782  1.00  0.00    -0.351 N 
ATOM      3  C   UNL     1      -2.547  -1.114  -0.161  1.00  0.00     0.281 C 
ATOM      4  O   UNL     1      -2.492  -0.605   0.943  1.00  0.00    -0.268 OA
ATOM      5  H   UNL     1      -3.647   0.146  -1.302  1.00  0.00     0.163 HD
BRANCH   3   6
ATOM      6  C   UNL     1      -1.588  -2.222  -0.734  1.00  0.00     0.177 C 
ATOM      7  C   UNL     1      -2.024  -2.530  -2.177  1.00  0.00     0.090 C 
BRANCH   6   8
ATOM      8  N   UNL     1      -0.136  -1.930  -0.793  1.00  0.00    -0.336 N 
ATOM      9  C   UNL     1       0.506  -1.199  -1.864  1.00  0.00     0.331 C 
ATOM     10  H   UNL     1       0.075  -1.411   0.059  1.00  0.00     0.346 HD
ATOM     11  H   UNL     1       0.241  -2.865  -0.949  1.00  0.00     0.346 HD
ENDBRANCH   6   8
BRANCH   6  12
ATOM     12  C   UNL     1      -1.644  -3.394   0.302  1.00  0.00     0.140 C 
BRANCH  12  13
ATOM     13  C   UNL     1      -0.739  -3.391   1.637  1.00  0.00     0.269 C 
BRANCH  13  14
ATOM     14  N   UNL     1      -0.793  -2.455   2.805  1.00  0.00    -0.335 N 
ATOM     15  C   UNL     1      -0.348  -3.091   4.037  1.00  0.00     0.332 C 
ATOM     16  H   UNL     1      -1.795  -2.268   2.854  1.00  0.00     0.348 HD
BRANCH  14  17
ATOM     17  C   UNL     1      -0.287  -1.067   2.657  1.00  0.00     0.183 C 
ATOM     18  C   UNL     1       0.877  -0.774   1.711  1.00  0.00     0.065 C 
ATOM     19  C   UNL     1      -0.075  -0.048   3.808  1.00  0.00     0.065 C 
ATOM     20  C   UNL     1       0.501   0.488   0.930  1.00  0.00     0.012 C 
ATOM     21  C   UNL     1      -0.240   1.408   3.240  1.00  0.00     0.012 C 
ATOM     22  C   UNL     1       0.374   1.727   1.829  1.00  0.00    -0.035 C 
ATOM     23  C   UNL     1      -0.514   2.763   1.090  1.00  0.00     0.011 C 
ATOM     24  C   UNL     1       1.786   2.324   1.948  1.00  0.00     0.011 C 
ENDBRANCH  14  17
ENDBRANCH  13  14
ENDBRANCH  12  13
ENDBRANCH   6  12
ENDBRANCH   3   6
ENDBRANCH   1   2
BRANCH   1  25
ATOM     25  C   UNL     1      -5.307  -2.123   0.603  1.00  0.00     0.042 C 
BRANCH  25  26
ATOM     26  C   UNL     1      -5.455  -1.289   1.878  1.00  0.00     0.118 C 
BRANCH  26  27
ATOM     27  N   UNL     1      -6.481  -0.266   1.778  1.00  0.00    -0.352 N 
ATOM     28  C   UNL     1      -7.810  -0.278   2.107  1.00  0.00     0.251 C 
ATOM     29  H   UNL     1      -6.163   0.589   1.407  1.00  0.00     0.163 HD
ATOM     30  O   UNL     1      -8.526   0.647   1.718  1.00  0.00    -0.269 OA
BRANCH  28  31
ATOM     31  C   UNL     1      -8.418  -1.369   2.904  1.00  0.00     0.039 A 
ATOM     32  C   UNL     1      -9.708  -1.794   2.565  1.00  0.00     0.014 A 
ATOM     33  C   UNL     1      -7.803  -1.893   4.044  1.00  0.00     0.014 A 
ATOM     34  C   UNL     1     -10.365  -2.749   3.347  1.00  0.00     0.010 A 
ATOM     35  C   UNL     1      -8.429  -2.903   4.781  1.00  0.00     0.010 A 
ATOM     36  C   UNL     1      -9.728  -3.324   4.458  1.00  0.00    -0.014 A 
BRANCH  36  37
ATOM     37  C   UNL     1     -10.437  -4.315   5.314  1.00  0.00     0.031 A 
ATOM     38  C   UNL     1     -10.751  -3.993   6.753  1.00  0.00     0.074 A 
ATOM     39  C   UNL     1     -10.783  -5.516   4.810  1.00  0.00     0.049 A 
ATOM     40  N   UNL     1     -11.342  -4.732   7.659  1.00  0.00    -0.248 NA
ATOM     41  C   UNL     1     -10.321  -2.676   7.245  1.00  0.00     0.031 C 
ATOM     42  C   UNL     1     -10.501  -5.974   3.449  1.00  0.00     0.029 A 
ATOM     43  N   UNL     1     -11.445  -6.572   5.386  1.00  0.00    -0.354 N 
ATOM     44  C   UNL     1     -11.343  -3.975   8.825  1.00  0.00     0.074 A 
ATOM     45  C   UNL     1     -10.636  -2.748   8.529  1.00  0.00     0.031 C 
ATOM     46  C   UNL     1     -11.005  -7.208   3.288  1.00  0.00     0.029 A 
ATOM     47  C   UNL     1     -11.619  -7.641   4.540  1.00  0.00     0.049 A 
ATOM     48  H   UNL     1     -11.764  -6.565   6.317  1.00  0.00     0.167 HD
ATOM     49  C   UNL     1     -11.904  -4.258  10.026  1.00  0.00     0.037 A 
ATOM     50  C   UNL     1     -12.206  -8.835   4.748  1.00  0.00     0.037 A 
ATOM     51  C   UNL     1     -12.623  -5.472  10.318  1.00  0.00     0.049 A 
ATOM     52  C   UNL     1     -12.832  -9.126   6.085  1.00  0.00     0.074 A 
ATOM     53  C   UNL     1     -13.257  -5.840  11.492  1.00  0.00     0.029 A 
ATOM     54  N   UNL     1     -12.804  -6.516   9.423  1.00  0.00    -0.354 N 
ATOM     55  N   UNL     1     -12.872  -8.377   7.160  1.00  0.00    -0.248 NA
ATOM     56  C   UNL     1     -13.510 -10.421   6.230  1.00  0.00     0.031 C 
ATOM     57  C   UNL     1     -13.788  -7.123  11.320  1.00  0.00     0.029 A 
ATOM     58  C   UNL     1     -13.533  -7.531  10.021  1.00  0.00     0.049 A 
ATOM     59  H   UNL     1     -12.464  -6.533   8.499  1.00  0.00     0.167 HD
ATOM     60  C   UNL     1     -13.609  -9.093   8.096  1.00  0.00     0.074 A 
ATOM     61  C   UNL     1     -14.005 -10.330   7.457  1.00  0.00     0.031 C 
ATOM     62  C   UNL     1     -13.931  -8.754   9.369  1.00  0.00     0.037 A 
BRANCH  49  63
ATOM     63  C   UNL     1     -11.764  -3.228  11.112  1.00  0.00     0.057 A 
ATOM     64  C   UNL     1     -12.414  -1.987  11.042  1.00  0.00     0.134 A 
ATOM     65  C   UNL     1     -10.981  -3.478  12.246  1.00  0.00     0.134 A 
ATOM     66  F   UNL     1     -13.172  -1.677   9.979  1.00  0.00    -0.206 F 
ATOM     67  C   UNL     1     -12.259  -1.021  12.038  1.00  0.00     0.040 A 
ATOM     68  C   UNL     1     -10.844  -2.532  13.265  1.00  0.00     0.040 A 
ATOM     69  F   UNL     1     -10.338  -4.647  12.387  1.00  0.00    -0.206 F 
ATOM     70  C   UNL     1     -11.476  -1.295  13.156  1.00  0.00     0.006 A 
ENDBRANCH  49  63
BRANCH  50  71
ATOM     71  C   UNL     1     -12.262  -9.834   3.651  1.00  0.00     0.057 A 
ATOM     72  C   UNL     1     -13.470 -10.150   3.018  1.00  0.00     0.134 A 
ATOM     73  C   UNL     1     -11.110 -10.497   3.209  1.00  0.00     0.134 A 
ATOM     74  F   UNL     1     -14.610  -9.562   3.408  1.00  0.00    -0.206 F 
ATOM     75  C   UNL     1     -13.536 -11.104   2.000  1.00  0.00     0.040 A 
ATOM     76  C   UNL     1     -11.157 -11.434   2.175  1.00  0.00     0.040 A 
ATOM     77  F   UNL     1      -9.920 -10.233   3.767  1.00  0.00    -0.206 F 
ATOM     78  C   UNL     1     -12.375 -11.745   1.573  1.00  0.00     0.006 A 
ENDBRANCH  50  71
BRANCH  62  79
ATOM     79  C   UNL     1     -14.799  -9.709  10.136  1.00  0.00     0.057 A 
ATOM     80  C   UNL     1     -14.329 -10.950  10.586  1.00  0.00     0.134 A 
ATOM     81  C   UNL     1     -16.122  -9.368  10.450  1.00  0.00     0.134 A 
ATOM     82  F   UNL     1     -13.076 -11.343  10.310  1.00  0.00    -0.206 F 
ATOM     83  C   UNL     1     -15.152 -11.829  11.292  1.00  0.00     0.040 A 
ATOM     84  C   UNL     1     -16.945 -10.226  11.181  1.00  0.00     0.040 A 
ATOM     85  F   UNL     1     -16.634  -8.191  10.059  1.00  0.00    -0.206 F 
ATOM     86  C   UNL     1     -16.462 -11.466  11.596  1.00  0.00     0.006 A 
ENDBRANCH  62  79
ENDBRANCH  36  37
ENDBRANCH  28  31
ENDBRANCH  26  27
ENDBRANCH  25  26
ENDBRANCH   1  25
TORSDOF 15
