REMARK SMILES COc1ccc(-n2ccnc2C[N@@H+]2CCn3nc(C(=O)NCCCNC(=O)c4ccc(-c5c6nc(c(-c7c(F)cccc7F)c7ccc([nH]7)c(-c7c(F)cccc7F)c7nc(c(-c8c(F)cccc8F)c8ccc5[nH]8)C=C7)C=C6)cc4)cc3C2)cc1
REMARK SMILES IDX 22 1 21 2 19 3 20 4 18 6 13 7 14 8 84 9 15 11 83 12 16 13
REMARK SMILES IDX 82 14 17 15 12 16 11 17 7 18 8 19 9 20 10 21 6 22 3 23 4 24
REMARK SMILES IDX 86 25 5 26 85 27 2 28 1 29 23 30 24 31 25 32 26 33 27 35
REMARK SMILES IDX 28 36 29 37 81 38 30 39 80 40 31 41 32 42 33 43 74 44 34 45
REMARK SMILES IDX 79 46 73 47 75 48 35 49 78 50 72 51 71 52 36 54 62 55 45 56
REMARK SMILES IDX 61 57 46 58 49 59 60 60 76 61 47 62 48 63 59 65 77 66 50 67
REMARK SMILES IDX 37 68 38 69 43 70 39 71 40 72 42 73 44 74 41 75 63 76 64 77
REMARK SMILES IDX 69 78 65 79 66 80 68 81 70 82 67 83 51 84 52 85 57 86 53 87
REMARK SMILES IDX 54 88 56 89 58 90 55 91
REMARK H PARENT 21 5 13 10 25 34 75 53 49 64
REMARK Flexibility Score: inf
ROOT
ATOM      1  C   UNL     1      -1.226   4.396   0.116  1.00  0.00     0.118 C 
ENDROOT
BRANCH   1   2
ATOM      2  N   UNL     1      -1.354   2.933   0.280  1.00  0.00    -0.351 N 
ATOM      3  C   UNL     1      -1.401   2.042   1.361  1.00  0.00     0.271 C 
ATOM      4  O   UNL     1      -1.624   0.866   1.055  1.00  0.00    -0.267 OA
ATOM      5  H   UNL     1      -1.423   2.468  -0.586  1.00  0.00     0.163 HD
BRANCH   3   6
ATOM      6  C   UNL     1      -1.068   2.410   2.774  1.00  0.00     0.150 A 
ATOM      7  N   UNL     1       0.738   4.601   6.215  1.00  0.00    -0.322 N 
ATOM      8  C   UNL     1       1.694   3.482   6.133  1.00  0.00     0.286 C 
ATOM      9  C   UNL     1      -0.660   4.130   6.067  1.00  0.00     0.319 C 
ATOM     10  H   UNL     1       0.945   4.944   7.152  1.00  0.00     0.348 HD
ATOM     11  C   UNL     1       1.260   2.174   5.414  1.00  0.00     0.206 C 
ATOM     12  C   UNL     1      -0.803   3.371   4.791  1.00  0.00     0.094 A 
ATOM     13  N   UNL     1       0.097   2.378   4.568  1.00  0.00    -0.257 N 
ATOM     14  C   UNL     1      -1.560   3.445   3.633  1.00  0.00     0.065 A 
ATOM     15  N   UNL     1      -0.123   1.692   3.438  1.00  0.00    -0.167 NA
BRANCH   7  16
ATOM     16  C   UNL     1       0.936   5.801   5.373  1.00  0.00     0.339 C 
BRANCH  16  17
ATOM     17  C   UNL     1       2.308   6.326   5.005  1.00  0.00     0.168 A 
ATOM     18  N   UNL     1       3.201   5.771   4.081  1.00  0.00    -0.299 N 
ATOM     19  C   UNL     1       4.242   6.662   3.946  1.00  0.00     0.113 A 
ATOM     20  C   UNL     1       3.909   7.745   4.716  1.00  0.00     0.132 A 
ATOM     21  N   UNL     1       2.750   7.513   5.399  1.00  0.00    -0.236 NA
BRANCH  18  22
ATOM     22  C   UNL     1       3.039   4.654   3.235  1.00  0.00     0.047 A 
ATOM     23  C   UNL     1       2.680   2.570   1.395  1.00  0.00     0.119 A 
ATOM     24  C   UNL     1       1.667   3.429   1.754  1.00  0.00     0.048 A 
ATOM     25  C   UNL     1       3.910   2.732   1.994  1.00  0.00     0.048 A 
ATOM     26  C   UNL     1       1.822   4.492   2.619  1.00  0.00     0.030 A 
ATOM     27  C   UNL     1       4.095   3.776   2.923  1.00  0.00     0.030 A 
BRANCH  23  28
ATOM     28  O   UNL     1       2.490   1.788   0.293  1.00  0.00    -0.497 OA
ATOM     29  C   UNL     1       1.980   0.492   0.595  1.00  0.00     0.278 C 
ENDBRANCH  23  28
ENDBRANCH  18  22
ENDBRANCH  16  17
ENDBRANCH   7  16
ENDBRANCH   3   6
ENDBRANCH   1   2
BRANCH   1  30
ATOM     30  C   UNL     1       0.090   4.969  -0.494  1.00  0.00     0.042 C 
BRANCH  30  31
ATOM     31  C   UNL     1       0.243   4.976  -1.999  1.00  0.00     0.118 C 
BRANCH  31  32
ATOM     32  N   UNL     1      -0.488   6.011  -2.726  1.00  0.00    -0.352 N 
ATOM     33  C   UNL     1      -0.399   6.353  -4.080  1.00  0.00     0.251 C 
ATOM     34  H   UNL     1      -1.127   6.537  -2.193  1.00  0.00     0.163 HD
ATOM     35  O   UNL     1      -0.814   7.429  -4.471  1.00  0.00    -0.269 OA
BRANCH  33  36
ATOM     36  C   UNL     1       0.229   5.405  -5.037  1.00  0.00     0.039 A 
ATOM     37  C   UNL     1       0.834   5.778  -6.241  1.00  0.00     0.014 A 
ATOM     38  C   UNL     1       0.248   4.075  -4.678  1.00  0.00     0.014 A 
ATOM     39  C   UNL     1       1.420   4.776  -7.023  1.00  0.00     0.010 A 
ATOM     40  C   UNL     1       1.235   3.283  -5.157  1.00  0.00     0.010 A 
ATOM     41  C   UNL     1       1.588   3.502  -6.460  1.00  0.00    -0.014 A 
BRANCH  41  42
ATOM     42  C   UNL     1       2.224   2.371  -7.114  1.00  0.00     0.031 A 
ATOM     43  C   UNL     1       3.617   2.670  -7.488  1.00  0.00     0.074 A 
ATOM     44  C   UNL     1       1.709   1.116  -7.123  1.00  0.00     0.049 A 
ATOM     45  N   UNL     1       4.051   3.002  -8.655  1.00  0.00    -0.248 NA
ATOM     46  C   UNL     1       4.593   2.866  -6.404  1.00  0.00     0.031 C 
ATOM     47  C   UNL     1       0.500   0.605  -6.454  1.00  0.00     0.029 A 
ATOM     48  N   UNL     1       2.216  -0.013  -7.697  1.00  0.00    -0.354 N 
ATOM     49  C   UNL     1       5.419   3.174  -8.494  1.00  0.00     0.074 A 
ATOM     50  C   UNL     1       5.635   3.349  -7.084  1.00  0.00     0.031 C 
ATOM     51  C   UNL     1       0.481  -0.749  -6.496  1.00  0.00     0.029 A 
ATOM     52  C   UNL     1       1.574  -1.198  -7.336  1.00  0.00     0.049 A 
ATOM     53  H   UNL     1       2.978   0.008  -8.320  1.00  0.00     0.167 HD
ATOM     54  C   UNL     1       6.271   2.815  -9.493  1.00  0.00     0.037 A 
ATOM     55  C   UNL     1       1.922  -2.455  -7.718  1.00  0.00     0.037 A 
ATOM     56  C   UNL     1       5.534   2.574 -10.714  1.00  0.00     0.049 A 
ATOM     57  C   UNL     1       2.781  -2.317  -8.916  1.00  0.00     0.074 A 
ATOM     58  C   UNL     1       4.751   3.327 -11.564  1.00  0.00     0.029 A 
ATOM     59  N   UNL     1       5.214   1.260 -10.951  1.00  0.00    -0.354 N 
ATOM     60  N   UNL     1       2.353  -1.877 -10.066  1.00  0.00    -0.248 NA
ATOM     61  C   UNL     1       4.219  -2.243  -8.717  1.00  0.00     0.031 C 
ATOM     62  C   UNL     1       3.718   2.445 -12.009  1.00  0.00     0.029 A 
ATOM     63  C   UNL     1       3.954   1.175 -11.478  1.00  0.00     0.049 A 
ATOM     64  H   UNL     1       5.803   0.492 -10.770  1.00  0.00     0.167 HD
ATOM     65  C   UNL     1       3.379  -1.074 -10.541  1.00  0.00     0.074 A 
ATOM     66  C   UNL     1       4.543  -1.444  -9.737  1.00  0.00     0.031 C 
ATOM     67  C   UNL     1       3.102   0.012 -11.323  1.00  0.00     0.037 A 
BRANCH  54  68
ATOM     68  C   UNL     1       7.645   2.216  -9.274  1.00  0.00     0.057 A 
ATOM     69  C   UNL     1       8.443   1.948 -10.403  1.00  0.00     0.134 A 
ATOM     70  C   UNL     1       8.097   1.623  -8.077  1.00  0.00     0.134 A 
ATOM     71  F   UNL     1       8.122   2.446 -11.606  1.00  0.00    -0.206 F 
ATOM     72  C   UNL     1       9.547   1.088 -10.358  1.00  0.00     0.040 A 
ATOM     73  C   UNL     1       9.227   0.803  -8.012  1.00  0.00     0.040 A 
ATOM     74  F   UNL     1       7.430   1.711  -6.922  1.00  0.00    -0.206 F 
ATOM     75  C   UNL     1       9.937   0.504  -9.161  1.00  0.00     0.006 A 
ENDBRANCH  54  68
BRANCH  55  76
ATOM     76  C   UNL     1       1.819  -3.736  -6.979  1.00  0.00     0.057 A 
ATOM     77  C   UNL     1       1.863  -4.975  -7.636  1.00  0.00     0.134 A 
ATOM     78  C   UNL     1       1.986  -3.773  -5.585  1.00  0.00     0.134 A 
ATOM     79  F   UNL     1       1.762  -5.040  -8.972  1.00  0.00    -0.206 F 
ATOM     80  C   UNL     1       2.081  -6.179  -6.949  1.00  0.00     0.040 A 
ATOM     81  C   UNL     1       2.206  -4.967  -4.886  1.00  0.00     0.040 A 
ATOM     82  F   UNL     1       2.038  -2.639  -4.870  1.00  0.00    -0.206 F 
ATOM     83  C   UNL     1       2.266  -6.176  -5.570  1.00  0.00     0.006 A 
ENDBRANCH  55  76
BRANCH  67  84
ATOM     84  C   UNL     1       1.725   0.091 -11.932  1.00  0.00     0.057 A 
ATOM     85  C   UNL     1       0.533   0.252 -11.207  1.00  0.00     0.134 A 
ATOM     86  C   UNL     1       1.620   0.122 -13.326  1.00  0.00     0.134 A 
ATOM     87  F   UNL     1       0.536   0.318  -9.871  1.00  0.00    -0.206 F 
ATOM     88  C   UNL     1      -0.705   0.398 -11.843  1.00  0.00     0.040 A 
ATOM     89  C   UNL     1       0.396   0.301 -13.974  1.00  0.00     0.040 A 
ATOM     90  F   UNL     1       2.722   0.022 -14.087  1.00  0.00    -0.206 F 
ATOM     91  C   UNL     1      -0.775   0.430 -13.232  1.00  0.00     0.006 A 
ENDBRANCH  67  84
ENDBRANCH  41  42
ENDBRANCH  33  36
ENDBRANCH  31  32
ENDBRANCH  30  31
ENDBRANCH   1  30
TORSDOF 14
