REMARK SMILES O=C(CCCN1C(=O)c2ccc3c4c(ccc(c24)C1=O)C(=O)NC3=O)NCCCNC(=O)c1ccc(-c2c3nc(c(-c4c(F)cccc4F)c4ccc([nH]4)c(-c4c(F)cccc4F)c4nc(c(-c5c(F)cccc5F)c5ccc2[nH]5)C=C4)C=C3)cc1
REMARK SMILES IDX 27 1 26 2 1 3 2 4 3 6 4 7 5 8 6 9 19 10 7 11 20 12 17 13
REMARK SMILES IDX 9 14 8 15 16 16 18 17 10 18 15 19 13 20 11 21 14 22 12 23
REMARK SMILES IDX 21 24 24 25 23 26 22 27 25 28 28 30 29 31 30 32 31 33 32 35
REMARK SMILES IDX 33 36 34 37 86 38 35 39 85 40 36 41 37 42 38 43 79 44 39 45
REMARK SMILES IDX 84 46 78 47 80 48 40 49 83 50 77 51 76 52 41 54 67 55 50 56
REMARK SMILES IDX 66 57 51 58 54 59 65 60 81 61 52 62 53 63 64 65 82 66 55 67
REMARK SMILES IDX 42 68 43 69 48 70 44 71 45 72 47 73 49 74 46 75 68 76 69 77
REMARK SMILES IDX 74 78 70 79 71 80 73 81 75 82 72 83 56 84 57 85 62 86 58 87
REMARK SMILES IDX 59 88 61 89 63 90 60 91
REMARK H PARENT 26 5 23 29 30 34 80 53 54 64
REMARK Flexibility Score: inf
ROOT
ATOM      1  C   UNL     1       1.932   1.327  -2.163  1.00  0.00     0.117 C 
ENDROOT
BRANCH   1   2
ATOM      2  N   UNL     1       2.666   0.728  -1.067  1.00  0.00    -0.356 N 
ATOM      3  O   UNL     1       0.926  -0.519  -0.250  1.00  0.00    -0.275 OA
ATOM      4  C   UNL     1       2.103  -0.175  -0.198  1.00  0.00     0.220 C 
ATOM      5  H   UNL     1       3.610   0.978  -0.940  1.00  0.00     0.163 HD
BRANCH   4   6
ATOM      6  C   UNL     1       3.033  -0.714   0.874  1.00  0.00     0.102 C 
BRANCH   6   7
ATOM      7  C   UNL     1       3.963  -1.835   0.401  1.00  0.00     0.032 C 
BRANCH   7   8
ATOM      8  C   UNL     1       5.254  -1.397  -0.310  1.00  0.00     0.130 C 
BRANCH   8   9
ATOM      9  N   UNL     1       6.037  -0.433   0.471  1.00  0.00    -0.274 N 
ATOM     10  C   UNL     1       5.897   0.910   0.153  1.00  0.00     0.261 C 
ATOM     11  C   UNL     1       6.892  -0.914   1.460  1.00  0.00     0.261 C 
ATOM     12  O   UNL     1       5.272   1.314  -0.823  1.00  0.00    -0.269 OA
ATOM     13  C   UNL     1       6.500   1.898   1.065  1.00  0.00     0.049 A 
ATOM     14  C   UNL     1       7.610   0.100   2.277  1.00  0.00     0.049 A 
ATOM     15  O   UNL     1       7.066  -2.106   1.694  1.00  0.00    -0.269 OA
ATOM     16  C   UNL     1       6.196   3.257   0.906  1.00  0.00     0.015 A 
ATOM     17  C   UNL     1       7.353   1.463   2.079  1.00  0.00     0.009 A 
ATOM     18  C   UNL     1       8.499  -0.313   3.276  1.00  0.00     0.015 A 
ATOM     19  C   UNL     1       6.767   4.203   1.750  1.00  0.00     0.015 A 
ATOM     20  C   UNL     1       7.960   2.425   2.921  1.00  0.00     0.009 A 
ATOM     21  C   UNL     1       9.125   0.633   4.089  1.00  0.00     0.015 A 
ATOM     22  C   UNL     1       7.654   3.786   2.745  1.00  0.00     0.048 A 
ATOM     23  C   UNL     1       8.848   1.994   3.917  1.00  0.00     0.048 A 
ATOM     24  C   UNL     1       8.274   4.792   3.634  1.00  0.00     0.258 C 
ATOM     25  C   UNL     1       9.493   2.997   4.796  1.00  0.00     0.258 C 
ATOM     26  N   UNL     1       9.146   4.310   4.579  1.00  0.00    -0.288 N 
ATOM     27  O   UNL     1       8.019   5.984   3.522  1.00  0.00    -0.269 OA
ATOM     28  O   UNL     1      10.289   2.668   5.665  1.00  0.00    -0.269 OA
ATOM     29  H   UNL     1       9.569   4.978   5.166  1.00  0.00     0.173 HD
ENDBRANCH   8   9
ENDBRANCH   7   8
ENDBRANCH   6   7
ENDBRANCH   4   6
ENDBRANCH   1   2
BRANCH   1  30
ATOM     30  C   UNL     1       2.066   2.849  -2.224  1.00  0.00     0.042 C 
BRANCH  30  31
ATOM     31  C   UNL     1       3.462   3.404  -2.498  1.00  0.00     0.118 C 
BRANCH  31  32
ATOM     32  N   UNL     1       4.111   2.879  -3.687  1.00  0.00    -0.352 N 
ATOM     33  C   UNL     1       5.031   3.489  -4.507  1.00  0.00     0.251 C 
ATOM     34  H   UNL     1       3.858   1.962  -3.940  1.00  0.00     0.163 HD
ATOM     35  O   UNL     1       5.451   2.911  -5.505  1.00  0.00    -0.269 OA
BRANCH  33  36
ATOM     36  C   UNL     1       5.495   4.861  -4.207  1.00  0.00     0.039 A 
ATOM     37  C   UNL     1       5.465   5.815  -5.228  1.00  0.00     0.014 A 
ATOM     38  C   UNL     1       5.973   5.206  -2.940  1.00  0.00     0.014 A 
ATOM     39  C   UNL     1       5.856   7.129  -4.962  1.00  0.00     0.010 A 
ATOM     40  C   UNL     1       6.310   6.531  -2.661  1.00  0.00     0.010 A 
ATOM     41  C   UNL     1       6.253   7.508  -3.668  1.00  0.00    -0.014 A 
BRANCH  41  42
ATOM     42  C   UNL     1       6.604   8.921  -3.366  1.00  0.00     0.031 A 
ATOM     43  C   UNL     1       8.009   9.297  -2.981  1.00  0.00     0.074 A 
ATOM     44  C   UNL     1       5.647   9.870  -3.403  1.00  0.00     0.049 A 
ATOM     45  N   UNL     1       8.495  10.472  -2.667  1.00  0.00    -0.248 NA
ATOM     46  C   UNL     1       8.993   8.205  -2.921  1.00  0.00     0.031 C 
ATOM     47  C   UNL     1       4.238   9.636  -3.720  1.00  0.00     0.029 A 
ATOM     48  N   UNL     1       5.715  11.221  -3.167  1.00  0.00    -0.354 N 
ATOM     49  C   UNL     1       9.835  10.261  -2.366  1.00  0.00     0.074 A 
ATOM     50  C   UNL     1      10.072   8.838  -2.483  1.00  0.00     0.031 C 
ATOM     51  C   UNL     1       3.580  10.806  -3.684  1.00  0.00     0.029 A 
ATOM     52  C   UNL     1       4.510  11.867  -3.308  1.00  0.00     0.049 A 
ATOM     53  H   UNL     1       6.548  11.683  -2.919  1.00  0.00     0.167 HD
ATOM     54  C   UNL     1      10.787  11.170  -2.046  1.00  0.00     0.037 A 
ATOM     55  C   UNL     1       4.189  13.165  -3.151  1.00  0.00     0.037 A 
ATOM     56  C   UNL     1      10.558  12.588  -1.945  1.00  0.00     0.049 A 
ATOM     57  C   UNL     1       5.262  14.153  -2.780  1.00  0.00     0.074 A 
ATOM     58  C   UNL     1      11.472  13.593  -1.677  1.00  0.00     0.029 A 
ATOM     59  N   UNL     1       9.325  13.204  -2.102  1.00  0.00    -0.354 N 
ATOM     60  N   UNL     1       6.539  13.948  -2.571  1.00  0.00    -0.248 NA
ATOM     61  C   UNL     1       4.848  15.556  -2.634  1.00  0.00     0.031 C 
ATOM     62  C   UNL     1      10.785  14.810  -1.625  1.00  0.00     0.029 A 
ATOM     63  C   UNL     1       9.452  14.571  -1.915  1.00  0.00     0.049 A 
ATOM     64  H   UNL     1       8.484  12.738  -2.314  1.00  0.00     0.167 HD
ATOM     65  C   UNL     1       7.087  15.197  -2.302  1.00  0.00     0.074 A 
ATOM     66  C   UNL     1       6.005  16.155  -2.387  1.00  0.00     0.031 C 
ATOM     67  C   UNL     1       8.371  15.519  -2.012  1.00  0.00     0.037 A 
BRANCH  54  68
ATOM     68  C   UNL     1      12.174  10.656  -1.783  1.00  0.00     0.057 A 
ATOM     69  C   UNL     1      12.979  10.142  -2.809  1.00  0.00     0.134 A 
ATOM     70  C   UNL     1      12.726  10.707  -0.496  1.00  0.00     0.134 A 
ATOM     71  F   UNL     1      12.508  10.056  -4.063  1.00  0.00    -0.206 F 
ATOM     72  C   UNL     1      14.269   9.672  -2.561  1.00  0.00     0.040 A 
ATOM     73  C   UNL     1      14.025  10.267  -0.241  1.00  0.00     0.040 A 
ATOM     74  F   UNL     1      12.015  11.196   0.531  1.00  0.00    -0.206 F 
ATOM     75  C   UNL     1      14.799   9.740  -1.273  1.00  0.00     0.006 A 
ENDBRANCH  54  68
BRANCH  55  76
ATOM     76  C   UNL     1       2.791  13.618  -3.367  1.00  0.00     0.057 A 
ATOM     77  C   UNL     1       2.453  14.423  -4.461  1.00  0.00     0.134 A 
ATOM     78  C   UNL     1       1.766  13.276  -2.478  1.00  0.00     0.134 A 
ATOM     79  F   UNL     1       3.396  14.802  -5.337  1.00  0.00    -0.206 F 
ATOM     80  C   UNL     1       1.152  14.890  -4.652  1.00  0.00     0.040 A 
ATOM     81  C   UNL     1       0.455  13.714  -2.671  1.00  0.00     0.040 A 
ATOM     82  F   UNL     1       2.022  12.502  -1.413  1.00  0.00    -0.206 F 
ATOM     83  C   UNL     1       0.147  14.531  -3.757  1.00  0.00     0.006 A 
ENDBRANCH  55  76
BRANCH  67  84
ATOM     84  C   UNL     1       8.689  16.973  -1.810  1.00  0.00     0.057 A 
ATOM     85  C   UNL     1       8.269  17.675  -0.674  1.00  0.00     0.134 A 
ATOM     86  C   UNL     1       9.459  17.669  -2.752  1.00  0.00     0.134 A 
ATOM     87  F   UNL     1       7.519  17.072   0.260  1.00  0.00    -0.206 F 
ATOM     88  C   UNL     1       8.582  19.024  -0.492  1.00  0.00     0.040 A 
ATOM     89  C   UNL     1       9.802  19.010  -2.568  1.00  0.00     0.040 A 
ATOM     90  F   UNL     1       9.901  17.055  -3.859  1.00  0.00    -0.206 F 
ATOM     91  C   UNL     1       9.357  19.693  -1.438  1.00  0.00     0.006 A 
ENDBRANCH  67  84
ENDBRANCH  41  42
ENDBRANCH  33  36
ENDBRANCH  31  32
ENDBRANCH  30  31
ENDBRANCH   1  30
TORSDOF 13
