REMARK SMILES CC(C)(C)OC(=O)N[C@H](Cc1ccc(N=[N+]=[N-])cc1)C(=O)NCCCNC(=O)c1ccc(-c2c3nc(c(-c4c(F)cccc4F)c4ccc([nH]4)c(-c4c(F)cccc4F)c4nc(c(-c5c(F)cccc5F)c5ccc2[nH]5)C=C4)C=C3)cc1
REMARK SMILES IDX 23 1 22 2 20 3 21 4 9 6 8 7 6 8 7 9 5 11 2 12 1 13 3 14 4 15
REMARK SMILES IDX 10 16 11 17 12 18 19 19 13 20 18 21 14 22 15 23 16 24 17 25
REMARK SMILES IDX 24 26 25 27 26 28 27 29 28 31 29 32 30 33 82 34 31 35 81 36
REMARK SMILES IDX 32 37 33 38 34 39 75 40 35 41 80 42 74 43 76 44 36 45 79 46
REMARK SMILES IDX 73 47 72 48 37 50 63 51 46 52 62 53 47 54 50 55 61 56 77 57
REMARK SMILES IDX 48 58 49 59 60 61 78 62 51 63 38 64 39 65 44 66 40 67 41 68
REMARK SMILES IDX 43 69 45 70 42 71 64 72 65 73 70 74 66 75 67 76 69 77 71 78
REMARK SMILES IDX 68 79 52 80 53 81 58 82 54 83 55 84 57 85 59 86 56 87
REMARK H PARENT 22 5 8 10 26 30 76 49 50 60
REMARK Flexibility Score: inf
ROOT
ATOM      1  C   UNL     1       1.373   7.085  -3.322  1.00  0.00     0.117 C 
ENDROOT
BRANCH   1   2
ATOM      2  N   UNL     1       0.911   6.813  -1.975  1.00  0.00    -0.354 N 
ATOM      3  C   UNL     1       1.097   5.703  -1.201  1.00  0.00     0.243 C 
ATOM      4  O   UNL     1       0.413   5.602  -0.178  1.00  0.00    -0.273 OA
ATOM      5  H   UNL     1       0.387   7.534  -1.557  1.00  0.00     0.163 HD
BRANCH   3   6
ATOM      6  C   UNL     1       2.015   4.546  -1.660  1.00  0.00     0.179 C 
BRANCH   6   7
ATOM      7  N   UNL     1       3.343   4.985  -2.097  1.00  0.00    -0.309 N 
ATOM      8  C   UNL     1       4.189   5.878  -1.520  1.00  0.00     0.408 C 
ATOM      9  O   UNL     1       5.321   6.009  -1.965  1.00  0.00    -0.225 OA
ATOM     10  H   UNL     1       3.670   4.574  -2.930  1.00  0.00     0.167 HD
BRANCH   8  11
ATOM     11  O   UNL     1       3.637   6.590  -0.517  1.00  0.00    -0.444 OA
BRANCH  11  12
ATOM     12  C   UNL     1       4.367   7.698   0.072  1.00  0.00     0.106 C 
ATOM     13  C   UNL     1       3.465   8.218   1.200  1.00  0.00     0.056 C 
ATOM     14  C   UNL     1       4.562   8.825  -0.952  1.00  0.00     0.056 C 
ATOM     15  C   UNL     1       5.697   7.244   0.683  1.00  0.00     0.056 C 
ENDBRANCH  11  12
ENDBRANCH   8  11
ENDBRANCH   6   7
BRANCH   6  16
ATOM     16  C   UNL     1       1.233   3.748  -2.753  1.00  0.00     0.070 C 
BRANCH  16  17
ATOM     17  C   UNL     1       2.027   2.979  -3.792  1.00  0.00    -0.045 A 
ATOM     18  C   UNL     1       1.931   1.589  -3.881  1.00  0.00     0.004 A 
ATOM     19  C   UNL     1       2.845   3.639  -4.722  1.00  0.00     0.004 A 
ATOM     20  C   UNL     1       2.699   0.884  -4.818  1.00  0.00     0.010 A 
ATOM     21  C   UNL     1       3.640   2.932  -5.627  1.00  0.00     0.010 A 
ATOM     22  C   UNL     1       3.589   1.536  -5.681  1.00  0.00     0.038 A 
BRANCH  22  23
ATOM     23  N   UNL     1       4.348   0.735  -6.556  1.00  0.00    -0.061 NA
ATOM     24  N   UNL     1       5.254   1.312  -7.179  1.00  0.00     0.005 N 
ATOM     25  N   UNL     1       6.085   1.839  -7.763  1.00  0.00    -0.003 NA
ENDBRANCH  22  23
ENDBRANCH  16  17
ENDBRANCH   6  16
ENDBRANCH   3   6
ENDBRANCH   1   2
BRANCH   1  26
ATOM     26  C   UNL     1       0.210   7.129  -4.305  1.00  0.00     0.042 C 
BRANCH  26  27
ATOM     27  C   UNL     1      -0.671   8.354  -4.122  1.00  0.00     0.118 C 
BRANCH  27  28
ATOM     28  N   UNL     1       0.034   9.587  -4.442  1.00  0.00    -0.352 N 
ATOM     29  C   UNL     1      -0.266  10.549  -5.372  1.00  0.00     0.251 C 
ATOM     30  H   UNL     1       0.846   9.755  -3.912  1.00  0.00     0.163 HD
ATOM     31  O   UNL     1       0.562  11.410  -5.651  1.00  0.00    -0.269 OA
BRANCH  29  32
ATOM     32  C   UNL     1      -1.579  10.535  -6.047  1.00  0.00     0.039 A 
ATOM     33  C   UNL     1      -1.640  10.811  -7.415  1.00  0.00     0.014 A 
ATOM     34  C   UNL     1      -2.747  10.253  -5.333  1.00  0.00     0.014 A 
ATOM     35  C   UNL     1      -2.866  10.744  -8.077  1.00  0.00     0.010 A 
ATOM     36  C   UNL     1      -3.948  10.088  -6.011  1.00  0.00     0.010 A 
ATOM     37  C   UNL     1      -4.023  10.344  -7.388  1.00  0.00    -0.014 A 
BRANCH  37  38
ATOM     38  C   UNL     1      -5.323  10.197  -8.085  1.00  0.00     0.031 A 
ATOM     39  C   UNL     1      -6.493  11.056  -7.694  1.00  0.00     0.074 A 
ATOM     40  C   UNL     1      -5.467   9.248  -9.030  1.00  0.00     0.049 A 
ATOM     41  N   UNL     1      -7.718  11.046  -8.155  1.00  0.00    -0.248 NA
ATOM     42  C   UNL     1      -6.262  12.035  -6.621  1.00  0.00     0.031 C 
ATOM     43  C   UNL     1      -4.418   8.327  -9.471  1.00  0.00     0.029 A 
ATOM     44  N   UNL     1      -6.555   8.902  -9.789  1.00  0.00    -0.354 N 
ATOM     45  C   UNL     1      -8.402  12.009  -7.423  1.00  0.00     0.074 A 
ATOM     46  C   UNL     1      -7.477  12.527  -6.440  1.00  0.00     0.031 C 
ATOM     47  C   UNL     1      -4.900   7.553 -10.455  1.00  0.00     0.029 A 
ATOM     48  C   UNL     1      -6.302   7.888 -10.680  1.00  0.00     0.049 A 
ATOM     49  H   UNL     1      -7.433   9.339  -9.704  1.00  0.00     0.167 HD
ATOM     50  C   UNL     1      -9.676  12.443  -7.575  1.00  0.00     0.037 A 
ATOM     51  C   UNL     1      -7.112   7.296 -11.577  1.00  0.00     0.037 A 
ATOM     52  C   UNL     1     -10.592  11.921  -8.555  1.00  0.00     0.049 A 
ATOM     53  C   UNL     1      -8.539   7.755 -11.692  1.00  0.00     0.074 A 
ATOM     54  C   UNL     1     -11.890  12.317  -8.822  1.00  0.00     0.029 A 
ATOM     55  N   UNL     1     -10.308  10.874  -9.422  1.00  0.00    -0.354 N 
ATOM     56  N   UNL     1      -9.156   8.712 -11.043  1.00  0.00    -0.248 NA
ATOM     57  C   UNL     1      -9.381   7.049 -12.666  1.00  0.00     0.031 C 
ATOM     58  C   UNL     1     -12.413  11.469  -9.805  1.00  0.00     0.029 A 
ATOM     59  C   UNL     1     -11.418  10.589 -10.201  1.00  0.00     0.049 A 
ATOM     60  H   UNL     1      -9.445  10.404  -9.476  1.00  0.00     0.167 HD
ATOM     61  C   UNL     1     -10.447   8.749 -11.554  1.00  0.00     0.074 A 
ATOM     62  C   UNL     1     -10.519   7.722 -12.574  1.00  0.00     0.031 C 
ATOM     63  C   UNL     1     -11.477   9.563 -11.214  1.00  0.00     0.037 A 
BRANCH  50  64
ATOM     64  C   UNL     1     -10.146  13.525  -6.641  1.00  0.00     0.057 A 
ATOM     65  C   UNL     1      -9.603  14.819  -6.669  1.00  0.00     0.134 A 
ATOM     66  C   UNL     1     -11.141  13.269  -5.690  1.00  0.00     0.134 A 
ATOM     67  F   UNL     1      -8.638  15.133  -7.548  1.00  0.00    -0.206 F 
ATOM     68  C   UNL     1      -9.993  15.797  -5.753  1.00  0.00     0.040 A 
ATOM     69  C   UNL     1     -11.566  14.251  -4.793  1.00  0.00     0.040 A 
ATOM     70  F   UNL     1     -11.713  12.058  -5.610  1.00  0.00    -0.206 F 
ATOM     71  C   UNL     1     -10.980  15.515  -4.813  1.00  0.00     0.006 A 
ENDBRANCH  50  64
BRANCH  51  72
ATOM     72  C   UNL     1      -6.577   6.237 -12.470  1.00  0.00     0.057 A 
ATOM     73  C   UNL     1      -6.415   6.473 -13.840  1.00  0.00     0.134 A 
ATOM     74  C   UNL     1      -6.206   4.978 -11.984  1.00  0.00     0.134 A 
ATOM     75  F   UNL     1      -6.767   7.655 -14.368  1.00  0.00    -0.206 F 
ATOM     76  C   UNL     1      -5.915   5.492 -14.698  1.00  0.00     0.040 A 
ATOM     77  C   UNL     1      -5.681   3.996 -12.826  1.00  0.00     0.040 A 
ATOM     78  F   UNL     1      -6.329   4.692 -10.680  1.00  0.00    -0.206 F 
ATOM     79  C   UNL     1      -5.540   4.251 -14.189  1.00  0.00     0.006 A 
ENDBRANCH  51  72
BRANCH  63  80
ATOM     80  C   UNL     1     -12.761   9.404 -11.979  1.00  0.00     0.057 A 
ATOM     81  C   UNL     1     -13.583   8.280 -11.831  1.00  0.00     0.134 A 
ATOM     82  C   UNL     1     -13.196  10.410 -12.852  1.00  0.00     0.134 A 
ATOM     83  F   UNL     1     -13.220   7.272 -11.023  1.00  0.00    -0.206 F 
ATOM     84  C   UNL     1     -14.777   8.150 -12.543  1.00  0.00     0.040 A 
ATOM     85  C   UNL     1     -14.404  10.307 -13.543  1.00  0.00     0.040 A 
ATOM     86  F   UNL     1     -12.463  11.519 -13.035  1.00  0.00    -0.206 F 
ATOM     87  C   UNL     1     -15.194   9.170 -13.396  1.00  0.00     0.006 A 
ENDBRANCH  63  80
ENDBRANCH  37  38
ENDBRANCH  29  32
ENDBRANCH  27  28
ENDBRANCH  26  27
ENDBRANCH   1  26
TORSDOF 16
