REMARK SMILES CCC[N@H+]1CCC[C@H]([C@@H](C)Nc2cccc(C(=O)NCCCNC(=O)c3ccc(-c4c5nc(c(-c6c(F)cccc6F)c6ccc([nH]6)c(-c6c(F)cccc6F)c6nc(c(-c7c(F)cccc7F)c7ccc4[nH]7)C=C6)C=C5)cc3)c2)C1
REMARK SMILES IDX 17 1 18 2 19 3 16 5 12 6 13 7 80 8 14 9 15 10 11 11 9 13
REMARK SMILES IDX 10 14 8 15 4 16 5 17 81 18 6 20 7 21 3 22 2 23 1 24 20 25
REMARK SMILES IDX 21 26 22 27 23 28 24 29 25 31 26 32 27 33 79 34 28 35 78 36
REMARK SMILES IDX 29 37 30 38 31 39 72 40 32 41 77 42 71 43 73 44 33 45 76 46
REMARK SMILES IDX 70 47 69 48 34 50 60 51 43 52 59 53 44 54 47 55 58 56 74 57
REMARK SMILES IDX 45 58 46 59 57 61 75 62 48 63 35 64 36 65 41 66 37 67 38 68
REMARK SMILES IDX 40 69 42 70 39 71 61 72 62 73 67 74 63 75 64 76 66 77 68 78
REMARK SMILES IDX 65 79 49 80 50 81 55 82 51 83 52 84 54 85 56 86 53 87
REMARK H PARENT 19 4 11 12 4 19 23 30 73 49 47 60
REMARK Flexibility Score: inf
ROOT
ATOM      1  C   UNL     1       4.953  -4.314   4.825  1.00  0.00     0.251 C 
ATOM      2  O   UNL     1       6.074  -4.704   4.497  1.00  0.00    -0.269 OA
ATOM      3  N   UNL     1       4.878  -3.314   5.772  1.00  0.00    -0.352 N 
ATOM      4  H   UNL     1       5.761  -3.006   6.079  1.00  0.00     0.163 HD
ENDROOT
BRANCH   1   5
ATOM      5  C   UNL     1       3.758  -4.987   4.248  1.00  0.00     0.041 A 
ATOM      6  C   UNL     1       1.345  -5.057   3.906  1.00  0.00     0.035 A 
ATOM      7  C   UNL     1       1.472  -6.385   3.492  1.00  0.00     0.026 A 
ATOM      8  C   UNL     1       2.528  -4.348   4.121  1.00  0.00     0.039 A 
ATOM      9  C   UNL     1       2.726  -6.999   3.403  1.00  0.00     0.003 A 
ATOM     10  C   UNL     1       3.864  -6.314   3.827  1.00  0.00     0.014 A 
BRANCH   6  11
ATOM     11  N   UNL     1       0.089  -4.502   4.072  1.00  0.00    -0.382 N 
ATOM     12  H   UNL     1      -0.691  -5.065   3.865  1.00  0.00     0.160 HD
BRANCH  11  13
ATOM     13  C   UNL     1      -0.164  -3.133   4.535  1.00  0.00     0.084 C 
ATOM     14  C   UNL     1      -0.569  -3.179   6.011  1.00  0.00     0.031 C 
BRANCH  13  15
ATOM     15  C   UNL     1      -1.226  -2.460   3.622  1.00  0.00     0.066 C 
ATOM     16  N   UNL     1       0.439  -1.751   1.940  1.00  0.00    -0.335 N 
ATOM     17  C   UNL     1       0.244  -0.332   2.223  1.00  0.00     0.262 C 
ATOM     18  C   UNL     1      -0.796  -2.519   2.139  1.00  0.00     0.267 C 
ATOM     19  H   UNL     1       1.117  -2.057   2.638  1.00  0.00     0.348 HD
ATOM     20  C   UNL     1      -0.254  -0.109   3.655  1.00  0.00     0.062 C 
ATOM     21  C   UNL     1      -1.470  -0.980   3.981  1.00  0.00     0.017 C 
BRANCH  16  22
ATOM     22  C   UNL     1       1.105  -2.063   0.672  1.00  0.00     0.261 C 
BRANCH  22  23
ATOM     23  C   UNL     1       0.585  -1.401  -0.611  1.00  0.00     0.058 C 
ATOM     24  C   UNL     1       1.187  -0.026  -0.876  1.00  0.00     0.010 C 
ENDBRANCH  22  23
ENDBRANCH  16  22
ENDBRANCH  13  15
ENDBRANCH  11  13
ENDBRANCH   6  11
ENDBRANCH   1   5
BRANCH   3  25
ATOM     25  C   UNL     1       3.771  -2.614   6.416  1.00  0.00     0.118 C 
BRANCH  25  26
ATOM     26  C   UNL     1       3.624  -2.905   7.902  1.00  0.00     0.042 C 
BRANCH  26  27
ATOM     27  C   UNL     1       4.712  -2.300   8.773  1.00  0.00     0.118 C 
BRANCH  27  28
ATOM     28  N   UNL     1       4.759  -0.845   8.693  1.00  0.00    -0.352 N 
ATOM     29  C   UNL     1       4.425   0.136   9.594  1.00  0.00     0.251 C 
ATOM     30  H   UNL     1       5.092  -0.502   7.833  1.00  0.00     0.163 HD
ATOM     31  O   UNL     1       4.362   1.300   9.206  1.00  0.00    -0.269 OA
BRANCH  29  32
ATOM     32  C   UNL     1       4.133  -0.173  11.013  1.00  0.00     0.039 A 
ATOM     33  C   UNL     1       3.197   0.615  11.694  1.00  0.00     0.014 A 
ATOM     34  C   UNL     1       4.814  -1.176  11.704  1.00  0.00     0.014 A 
ATOM     35  C   UNL     1       2.913   0.364  13.039  1.00  0.00     0.010 A 
ATOM     36  C   UNL     1       4.455  -1.495  13.011  1.00  0.00     0.010 A 
ATOM     37  C   UNL     1       3.518  -0.715  13.702  1.00  0.00    -0.014 A 
BRANCH  37  38
ATOM     38  C   UNL     1       3.220  -1.018  15.125  1.00  0.00     0.031 A 
ATOM     39  C   UNL     1       4.317  -0.960  16.156  1.00  0.00     0.074 A 
ATOM     40  C   UNL     1       1.980  -1.405  15.481  1.00  0.00     0.049 A 
ATOM     41  N   UNL     1       4.273  -1.256  17.430  1.00  0.00    -0.248 NA
ATOM     42  C   UNL     1       5.649  -0.547  15.685  1.00  0.00     0.031 C 
ATOM     43  C   UNL     1       0.845  -1.558  14.569  1.00  0.00     0.029 A 
ATOM     44  N   UNL     1       1.469  -1.749  16.707  1.00  0.00    -0.354 N 
ATOM     45  C   UNL     1       5.569  -1.091  17.902  1.00  0.00     0.074 A 
ATOM     46  C   UNL     1       6.389  -0.725  16.769  1.00  0.00     0.031 C 
ATOM     47  C   UNL     1      -0.236  -1.935  15.272  1.00  0.00     0.029 A 
ATOM     48  C   UNL     1       0.137  -2.084  16.675  1.00  0.00     0.049 A 
ATOM     49  H   UNL     1       2.006  -1.756  17.532  1.00  0.00     0.167 HD
ATOM     50  C   UNL     1       6.033  -1.206  19.170  1.00  0.00     0.037 A 
ATOM     51  C   UNL     1      -0.690  -2.467  17.666  1.00  0.00     0.037 A 
ATOM     52  C   UNL     1       5.208  -1.528  20.304  1.00  0.00     0.049 A 
ATOM     53  C   UNL     1      -0.160  -2.557  19.069  1.00  0.00     0.074 A 
ATOM     54  C   UNL     1       5.565  -1.604  21.638  1.00  0.00     0.029 A 
ATOM     55  N   UNL     1       3.855  -1.823  20.234  1.00  0.00    -0.354 N 
ATOM     56  N   UNL     1       1.054  -2.333  19.511  1.00  0.00    -0.248 NA
ATOM     57  C   UNL     1      -1.118  -2.943  20.114  1.00  0.00     0.031 C 
ATOM     58  C   UNL     1       4.435  -1.978  22.373  1.00  0.00     0.029 A 
ATOM     59  C   UNL     1       3.365  -2.094  21.501  1.00  0.00     0.049 A 
ATOM     60  H   UNL     1       3.321  -1.839  19.407  1.00  0.00     0.167 HD
ATOM     61  C   UNL     1       1.000  -2.523  20.885  1.00  0.00     0.074 A 
ATOM     62  C   UNL     1      -0.370  -2.866  21.206  1.00  0.00     0.031 C 
ATOM     63  C   UNL     1       1.995  -2.424  21.800  1.00  0.00     0.037 A 
BRANCH  50  64
ATOM     64  C   UNL     1       7.499  -0.969  19.395  1.00  0.00     0.057 A 
ATOM     65  C   UNL     1       8.067   0.307  19.278  1.00  0.00     0.134 A 
ATOM     66  C   UNL     1       8.349  -2.022  19.753  1.00  0.00     0.134 A 
ATOM     67  F   UNL     1       7.312   1.358  18.924  1.00  0.00    -0.206 F 
ATOM     68  C   UNL     1       9.432   0.521  19.479  1.00  0.00     0.040 A 
ATOM     69  C   UNL     1       9.710  -1.816  19.985  1.00  0.00     0.040 A 
ATOM     70  F   UNL     1       7.870  -3.268  19.889  1.00  0.00    -0.206 F 
ATOM     71  C   UNL     1      10.257  -0.542  19.840  1.00  0.00     0.006 A 
ENDBRANCH  50  64
BRANCH  51  72
ATOM     72  C   UNL     1      -2.116  -2.754  17.373  1.00  0.00     0.057 A 
ATOM     73  C   UNL     1      -3.127  -1.887  17.802  1.00  0.00     0.134 A 
ATOM     74  C   UNL     1      -2.504  -3.896  16.662  1.00  0.00     0.134 A 
ATOM     75  F   UNL     1      -2.819  -0.785  18.502  1.00  0.00    -0.206 F 
ATOM     76  C   UNL     1      -4.475  -2.154  17.554  1.00  0.00     0.040 A 
ATOM     77  C   UNL     1      -3.846  -4.163  16.386  1.00  0.00     0.040 A 
ATOM     78  F   UNL     1      -1.582  -4.761  16.215  1.00  0.00    -0.206 F 
ATOM     79  C   UNL     1      -4.836  -3.294  16.839  1.00  0.00     0.006 A 
ENDBRANCH  51  72
BRANCH  63  80
ATOM     80  C   UNL     1       1.627  -2.654  23.236  1.00  0.00     0.057 A 
ATOM     81  C   UNL     1       1.335  -3.932  23.729  1.00  0.00     0.134 A 
ATOM     82  C   UNL     1       1.595  -1.587  24.142  1.00  0.00     0.134 A 
ATOM     83  F   UNL     1       1.336  -4.994  22.909  1.00  0.00    -0.206 F 
ATOM     84  C   UNL     1       0.997  -4.136  25.067  1.00  0.00     0.040 A 
ATOM     85  C   UNL     1       1.284  -1.782  25.488  1.00  0.00     0.040 A 
ATOM     86  F   UNL     1       1.875  -0.339  23.735  1.00  0.00    -0.206 F 
ATOM     87  C   UNL     1       0.977  -3.059  25.952  1.00  0.00     0.006 A 
ENDBRANCH  63  80
ENDBRANCH  37  38
ENDBRANCH  29  32
ENDBRANCH  27  28
ENDBRANCH  26  27
ENDBRANCH  25  26
ENDBRANCH   3  25
TORSDOF 15
