REMARK SMILES CCCCCNC(=O)Oc1cccc(-c2ccc([C@@H](C)C(=O)NCCCNC(=O)c3ccc(-c4c5nc(c(-c6c(F)cccc6F)c6ccc([nH]6)c(-c6c(F)cccc6F)c6nc(c(-c7c(F)cccc7F)c7ccc4[nH]7)C=C6)C=C5)cc3)cc2F)c1
REMARK SMILES IDX 19 1 20 2 18 3 15 4 16 5 85 6 17 7 84 8 86 9 14 10 10 11
REMARK SMILES IDX 11 12 87 13 12 14 13 15 9 16 7 17 6 18 8 20 5 21 4 22 3 23
REMARK SMILES IDX 2 24 1 25 21 26 22 27 23 28 24 30 25 31 26 32 27 33 28 34
REMARK SMILES IDX 29 36 30 37 31 38 83 39 32 40 82 41 33 42 34 43 35 44 76 45
REMARK SMILES IDX 36 46 81 47 75 48 77 49 37 50 80 51 74 52 73 53 38 55 64 56
REMARK SMILES IDX 47 57 63 58 48 59 51 60 62 61 78 62 49 63 50 64 61 66 79 67
REMARK SMILES IDX 52 68 39 69 40 70 45 71 41 72 42 73 44 74 46 75 43 76 65 77
REMARK SMILES IDX 66 78 71 79 67 80 68 81 70 82 72 83 69 84 53 85 54 86 59 87
REMARK SMILES IDX 55 88 56 89 58 90 60 91 57 92
REMARK H PARENT 6 19 23 29 27 35 77 54 51 65
REMARK Flexibility Score: inf
ROOT
ATOM      1  C   UNL     1      -2.247  -8.314 -10.941  1.00  0.00     0.105 C 
ATOM      2  C   UNL     1      -2.869  -9.544 -11.598  1.00  0.00     0.023 C 
ENDROOT
BRANCH   1   3
ATOM      3  C   UNL     1      -2.640  -8.063  -9.494  1.00  0.00    -0.033 A 
ATOM      4  C   UNL     1      -3.322  -7.312  -6.819  1.00  0.00     0.018 A 
ATOM      5  C   UNL     1      -4.298  -7.729  -7.739  1.00  0.00     0.012 A 
ATOM      6  C   UNL     1      -1.991  -7.349  -7.259  1.00  0.00     0.131 A 
ATOM      7  C   UNL     1      -3.960  -8.128  -9.040  1.00  0.00     0.005 A 
ATOM      8  C   UNL     1      -1.653  -7.695  -8.570  1.00  0.00     0.044 A 
ATOM      9  F   UNL     1      -0.987  -7.036  -6.425  1.00  0.00    -0.206 F 
BRANCH   4  10
ATOM     10  C   UNL     1      -3.707  -6.813  -5.480  1.00  0.00    -0.012 A 
ATOM     11  C   UNL     1      -3.440  -5.221  -3.656  1.00  0.00     0.133 A 
ATOM     12  C   UNL     1      -4.500  -5.788  -2.958  1.00  0.00     0.047 A 
ATOM     13  C   UNL     1      -3.036  -5.726  -4.893  1.00  0.00     0.056 A 
ATOM     14  C   UNL     1      -5.177  -6.866  -3.517  1.00  0.00     0.004 A 
ATOM     15  C   UNL     1      -4.780  -7.374  -4.760  1.00  0.00     0.009 A 
BRANCH  11  16
ATOM     16  O   UNL     1      -2.718  -4.203  -3.014  1.00  0.00    -0.410 OA
BRANCH  16  17
ATOM     17  C   UNL     1      -2.500  -3.023  -3.711  1.00  0.00     0.412 C 
ATOM     18  N   UNL     1      -1.671  -2.159  -3.050  1.00  0.00    -0.321 N 
ATOM     19  H   UNL     1      -1.492  -1.296  -3.489  1.00  0.00     0.167 HD
ATOM     20  O   UNL     1      -2.978  -2.729  -4.800  1.00  0.00    -0.224 OA
BRANCH  18  21
ATOM     21  C   UNL     1      -1.029  -2.382  -1.771  1.00  0.00     0.119 C 
BRANCH  21  22
ATOM     22  C   UNL     1       0.495  -2.323  -1.875  1.00  0.00     0.021 C 
BRANCH  22  23
ATOM     23  C   UNL     1       1.064  -0.961  -2.292  1.00  0.00     0.002 C 
BRANCH  23  24
ATOM     24  C   UNL     1       0.655   0.225  -1.414  1.00  0.00    -0.003 C 
ATOM     25  C   UNL     1       1.067   0.074   0.042  1.00  0.00     0.004 C 
ENDBRANCH  23  24
ENDBRANCH  22  23
ENDBRANCH  21  22
ENDBRANCH  18  21
ENDBRANCH  16  17
ENDBRANCH  11  16
ENDBRANCH   4  10
ENDBRANCH   1   3
BRANCH   1  26
ATOM     26  C   UNL     1      -2.276  -7.042 -11.804  1.00  0.00     0.227 C 
ATOM     27  O   UNL     1      -1.216  -6.479 -12.105  1.00  0.00    -0.274 OA
ATOM     28  N   UNL     1      -3.414  -6.466 -12.277  1.00  0.00    -0.356 N 
ATOM     29  H   UNL     1      -3.258  -5.682 -12.851  1.00  0.00     0.163 HD
BRANCH  28  30
ATOM     30  C   UNL     1      -4.814  -6.792 -12.093  1.00  0.00     0.117 C 
BRANCH  30  31
ATOM     31  C   UNL     1      -5.486  -5.914 -11.040  1.00  0.00     0.042 C 
BRANCH  31  32
ATOM     32  C   UNL     1      -5.927  -4.547 -11.550  1.00  0.00     0.118 C 
BRANCH  32  33
ATOM     33  N   UNL     1      -7.003  -4.644 -12.524  1.00  0.00    -0.352 N 
ATOM     34  C   UNL     1      -8.270  -4.120 -12.531  1.00  0.00     0.251 C 
ATOM     35  H   UNL     1      -6.782  -5.180 -13.320  1.00  0.00     0.163 HD
ATOM     36  O   UNL     1      -9.065  -4.524 -13.379  1.00  0.00    -0.269 OA
BRANCH  34  37
ATOM     37  C   UNL     1      -8.710  -3.096 -11.552  1.00  0.00     0.039 A 
ATOM     38  C   UNL     1     -10.058  -3.086 -11.174  1.00  0.00     0.014 A 
ATOM     39  C   UNL     1      -7.856  -2.102 -11.066  1.00  0.00     0.014 A 
ATOM     40  C   UNL     1     -10.535  -2.109 -10.297  1.00  0.00     0.010 A 
ATOM     41  C   UNL     1      -8.313  -1.179 -10.123  1.00  0.00     0.010 A 
ATOM     42  C   UNL     1      -9.662  -1.158  -9.743  1.00  0.00    -0.014 A 
BRANCH  42  43
ATOM     43  C   UNL     1     -10.169  -0.144  -8.782  1.00  0.00     0.031 A 
ATOM     44  C   UNL     1     -10.145   1.323  -9.123  1.00  0.00     0.074 A 
ATOM     45  C   UNL     1     -10.641  -0.549  -7.586  1.00  0.00     0.049 A 
ATOM     46  N   UNL     1     -10.588   2.340  -8.426  1.00  0.00    -0.248 NA
ATOM     47  C   UNL     1      -9.524   1.705 -10.401  1.00  0.00     0.031 C 
ATOM     48  C   UNL     1     -10.652  -1.933  -7.105  1.00  0.00     0.029 A 
ATOM     49  N   UNL     1     -11.208   0.162  -6.558  1.00  0.00    -0.354 N 
ATOM     50  C   UNL     1     -10.284   3.475  -9.168  1.00  0.00     0.074 A 
ATOM     51  C   UNL     1      -9.580   3.029 -10.350  1.00  0.00     0.031 C 
ATOM     52  C   UNL     1     -11.231  -1.974  -5.894  1.00  0.00     0.029 A 
ATOM     53  C   UNL     1     -11.606  -0.620  -5.500  1.00  0.00     0.049 A 
ATOM     54  H   UNL     1     -11.318   1.141  -6.575  1.00  0.00     0.167 HD
ATOM     55  C   UNL     1     -10.584   4.768  -8.901  1.00  0.00     0.037 A 
ATOM     56  C   UNL     1     -12.214  -0.285  -4.347  1.00  0.00     0.037 A 
ATOM     57  C   UNL     1     -11.322   5.207  -7.745  1.00  0.00     0.049 A 
ATOM     58  C   UNL     1     -12.574   1.154  -4.101  1.00  0.00     0.074 A 
ATOM     59  C   UNL     1     -11.755   6.484  -7.432  1.00  0.00     0.029 A 
ATOM     60  N   UNL     1     -11.734   4.381  -6.711  1.00  0.00    -0.354 N 
ATOM     61  N   UNL     1     -12.374   2.200  -4.865  1.00  0.00    -0.248 NA
ATOM     62  C   UNL     1     -13.261   1.456  -2.837  1.00  0.00     0.031 C 
ATOM     63  C   UNL     1     -12.390   6.439  -6.187  1.00  0.00     0.029 A 
ATOM     64  C   UNL     1     -12.395   5.125  -5.748  1.00  0.00     0.049 A 
ATOM     65  H   UNL     1     -11.580   3.409  -6.668  1.00  0.00     0.167 HD
ATOM     66  C   UNL     1     -12.931   3.277  -4.187  1.00  0.00     0.074 A 
ATOM     67  C   UNL     1     -13.502   2.752  -2.965  1.00  0.00     0.031 C 
ATOM     68  C   UNL     1     -12.961   4.586  -4.539  1.00  0.00     0.037 A 
BRANCH  55  69
ATOM     69  C   UNL     1     -10.127   5.814  -9.877  1.00  0.00     0.057 A 
ATOM     70  C   UNL     1     -10.726   5.964 -11.134  1.00  0.00     0.134 A 
ATOM     71  C   UNL     1      -9.127   6.730  -9.525  1.00  0.00     0.134 A 
ATOM     72  F   UNL     1     -11.683   5.115 -11.537  1.00  0.00    -0.206 F 
ATOM     73  C   UNL     1     -10.340   6.980 -12.011  1.00  0.00     0.040 A 
ATOM     74  C   UNL     1      -8.749   7.764 -10.383  1.00  0.00     0.040 A 
ATOM     75  F   UNL     1      -8.516   6.647  -8.333  1.00  0.00    -0.206 F 
ATOM     76  C   UNL     1      -9.355   7.890 -11.631  1.00  0.00     0.006 A 
ENDBRANCH  55  69
BRANCH  56  77
ATOM     77  C   UNL     1     -12.548  -1.326  -3.341  1.00  0.00     0.057 A 
ATOM     78  C   UNL     1     -13.879  -1.665  -3.063  1.00  0.00     0.134 A 
ATOM     79  C   UNL     1     -11.552  -1.976  -2.605  1.00  0.00     0.134 A 
ATOM     80  F   UNL     1     -14.880  -1.063  -3.723  1.00  0.00    -0.206 F 
ATOM     81  C   UNL     1     -14.207  -2.584  -2.065  1.00  0.00     0.040 A 
ATOM     82  C   UNL     1     -11.864  -2.919  -1.624  1.00  0.00     0.040 A 
ATOM     83  F   UNL     1     -10.258  -1.704  -2.828  1.00  0.00    -0.206 F 
ATOM     84  C   UNL     1     -13.197  -3.215  -1.343  1.00  0.00     0.006 A 
ENDBRANCH  56  77
BRANCH  68  85
ATOM     85  C   UNL     1     -13.660   5.525  -3.600  1.00  0.00     0.057 A 
ATOM     86  C   UNL     1     -13.123   5.854  -2.348  1.00  0.00     0.134 A 
ATOM     87  C   UNL     1     -14.884   6.106  -3.952  1.00  0.00     0.134 A 
ATOM     88  F   UNL     1     -11.959   5.321  -1.946  1.00  0.00    -0.206 F 
ATOM     89  C   UNL     1     -13.799   6.695  -1.464  1.00  0.00     0.040 A 
ATOM     90  C   UNL     1     -15.555   6.972  -3.088  1.00  0.00     0.040 A 
ATOM     91  F   UNL     1     -15.449   5.842  -5.140  1.00  0.00    -0.206 F 
ATOM     92  C   UNL     1     -15.018   7.260  -1.835  1.00  0.00     0.006 A 
ENDBRANCH  68  85
ENDBRANCH  42  43
ENDBRANCH  34  37
ENDBRANCH  32  33
ENDBRANCH  31  32
ENDBRANCH  30  31
ENDBRANCH  28  30
ENDBRANCH   1  26
TORSDOF 18
