REMARK SMILES C[C@@H](C(=O)NCCCNC(=O)c1ccc(-c2c3nc(c(-c4c(F)cccc4F)c4ccc([nH]4)c(-c4c(F)cccc4F)c4nc(c(-c5c(F)cccc5F)c5ccc2[nH]5)C=C4)C=C3)cc1)c1ccc(NC2CCCC2)cc1F
REMARK SMILES IDX 6 1 5 2 3 3 4 4 2 6 1 7 66 8 67 9 77 10 68 11 76 12 78 13
REMARK SMILES IDX 69 14 70 15 71 17 72 18 75 19 73 20 74 21 7 22 8 23 9 24
REMARK SMILES IDX 10 25 11 27 12 28 13 29 65 30 14 31 64 32 15 33 16 34 17 35
REMARK SMILES IDX 58 36 18 37 63 38 57 39 59 40 19 41 62 42 56 43 55 44 20 46
REMARK SMILES IDX 46 47 29 48 45 49 30 50 33 51 44 52 60 53 31 54 32 55 43 57
REMARK SMILES IDX 61 58 34 59 21 60 22 61 27 62 23 63 24 64 26 65 28 66 25 67
REMARK SMILES IDX 47 68 48 69 53 70 49 71 50 72 52 73 54 74 51 75 35 76 36 77
REMARK SMILES IDX 41 78 37 79 38 80 40 81 42 82 39 83
REMARK H PARENT 5 5 70 16 9 26 59 45 33 56
REMARK Flexibility Score: inf
ROOT
ATOM      1  C   UNL     1       3.332  -2.308  -0.085  1.00  0.00     0.117 C 
ENDROOT
BRANCH   1   2
ATOM      2  N   UNL     1       2.260  -2.622   0.839  1.00  0.00    -0.356 N 
ATOM      3  C   UNL     1       0.998  -2.109   0.928  1.00  0.00     0.227 C 
ATOM      4  O   UNL     1       0.369  -2.361   1.958  1.00  0.00    -0.274 OA
ATOM      5  H   UNL     1       2.476  -3.313   1.507  1.00  0.00     0.163 HD
BRANCH   3   6
ATOM      6  C   UNL     1       0.424  -1.266  -0.226  1.00  0.00     0.108 C 
ATOM      7  C   UNL     1       1.047   0.136  -0.211  1.00  0.00     0.023 C 
BRANCH   6   8
ATOM      8  C   UNL     1      -1.101  -1.243  -0.202  1.00  0.00     0.000 A 
ATOM      9  C   UNL     1      -1.846  -0.064  -0.112  1.00  0.00     0.009 A 
ATOM     10  C   UNL     1      -1.819  -2.440  -0.280  1.00  0.00     0.129 A 
ATOM     11  C   UNL     1      -3.244  -0.094  -0.091  1.00  0.00     0.026 A 
ATOM     12  C   UNL     1      -3.215  -2.469  -0.220  1.00  0.00     0.065 A 
ATOM     13  F   UNL     1      -1.161  -3.601  -0.424  1.00  0.00    -0.207 F 
ATOM     14  C   UNL     1      -3.961  -1.290  -0.108  1.00  0.00     0.037 A 
BRANCH  14  15
ATOM     15  N   UNL     1      -5.337  -1.363  -0.059  1.00  0.00    -0.382 N 
ATOM     16  H   UNL     1      -5.712  -2.272  -0.009  1.00  0.00     0.160 HD
BRANCH  15  17
ATOM     17  C   UNL     1      -6.312  -0.282  -0.071  1.00  0.00     0.079 C 
ATOM     18  C   UNL     1      -6.238   0.658   1.131  1.00  0.00     0.025 C 
ATOM     19  C   UNL     1      -6.253   0.590  -1.329  1.00  0.00     0.025 C 
ATOM     20  C   UNL     1      -6.810   1.966   0.602  1.00  0.00     0.002 C 
ATOM     21  C   UNL     1      -6.350   2.035  -0.847  1.00  0.00     0.002 C 
ENDBRANCH  15  17
ENDBRANCH  14  15
ENDBRANCH   6   8
ENDBRANCH   3   6
ENDBRANCH   1   2
BRANCH   1  22
ATOM     22  C   UNL     1       4.295  -1.282   0.516  1.00  0.00     0.042 C 
BRANCH  22  23
ATOM     23  C   UNL     1       5.053  -1.779   1.742  1.00  0.00     0.118 C 
BRANCH  23  24
ATOM     24  N   UNL     1       6.018  -2.811   1.413  1.00  0.00    -0.352 N 
ATOM     25  C   UNL     1       7.353  -2.890   1.712  1.00  0.00     0.251 C 
ATOM     26  H   UNL     1       5.660  -3.570   0.897  1.00  0.00     0.163 HD
ATOM     27  O   UNL     1       8.036  -3.764   1.177  1.00  0.00    -0.269 OA
BRANCH  25  28
ATOM     28  C   UNL     1       7.989  -1.943   2.656  1.00  0.00     0.039 A 
ATOM     29  C   UNL     1       9.296  -1.522   2.392  1.00  0.00     0.014 A 
ATOM     30  C   UNL     1       7.352  -1.529   3.831  1.00  0.00     0.014 A 
ATOM     31  C   UNL     1       9.956  -0.682   3.291  1.00  0.00     0.010 A 
ATOM     32  C   UNL     1       7.985  -0.634   4.693  1.00  0.00     0.010 A 
ATOM     33  C   UNL     1       9.304  -0.227   4.447  1.00  0.00    -0.014 A 
BRANCH  33  34
ATOM     34  C   UNL     1      10.019   0.615   5.438  1.00  0.00     0.031 A 
ATOM     35  C   UNL     1      10.330   0.067   6.805  1.00  0.00     0.074 A 
ATOM     36  C   UNL     1      10.370   1.876   5.123  1.00  0.00     0.049 A 
ATOM     37  N   UNL     1      10.928   0.647   7.814  1.00  0.00    -0.248 NA
ATOM     38  C   UNL     1       9.886  -1.309   7.082  1.00  0.00     0.031 C 
ATOM     39  C   UNL     1      10.085   2.541   3.852  1.00  0.00     0.029 A 
ATOM     40  N   UNL     1      11.042   2.823   5.854  1.00  0.00    -0.354 N 
ATOM     41  C   UNL     1      10.916  -0.283   8.846  1.00  0.00     0.074 A 
ATOM     42  C   UNL     1      10.207  -1.446   8.359  1.00  0.00     0.031 C 
ATOM     43  C   UNL     1      10.596   3.783   3.884  1.00  0.00     0.029 A 
ATOM     44  C   UNL     1      11.226   4.006   5.182  1.00  0.00     0.049 A 
ATOM     45  H   UNL     1      11.361   2.669   6.772  1.00  0.00     0.167 HD
ATOM     46  C   UNL     1      11.468  -0.191  10.080  1.00  0.00     0.037 A 
ATOM     47  C   UNL     1      11.841   5.139   5.568  1.00  0.00     0.037 A 
ATOM     48  C   UNL     1      12.200   0.953  10.556  1.00  0.00     0.049 A 
ATOM     49  C   UNL     1      12.488   5.203   6.923  1.00  0.00     0.074 A 
ATOM     50  C   UNL     1      12.827   1.132  11.777  1.00  0.00     0.029 A 
ATOM     51  N   UNL     1      12.411   2.111   9.824  1.00  0.00    -0.354 N 
ATOM     52  N   UNL     1      12.513   4.297   7.870  1.00  0.00    -0.248 NA
ATOM     53  C   UNL     1      13.209   6.440   7.255  1.00  0.00     0.031 C 
ATOM     54  C   UNL     1      13.401   2.409  11.790  1.00  0.00     0.029 A 
ATOM     55  C   UNL     1      13.159   3.009  10.565  1.00  0.00     0.049 A 
ATOM     56  H   UNL     1      12.078   2.271   8.911  1.00  0.00     0.167 HD
ATOM     57  C   UNL     1      13.271   4.841   8.897  1.00  0.00     0.074 A 
ATOM     58  C   UNL     1      13.699   6.152   8.453  1.00  0.00     0.031 C 
ATOM     59  C   UNL     1      13.586   4.304  10.101  1.00  0.00     0.037 A 
BRANCH  46  60
ATOM     60  C   UNL     1      11.303  -1.370  10.993  1.00  0.00     0.057 A 
ATOM     61  C   UNL     1      11.987  -2.573  10.771  1.00  0.00     0.134 A 
ATOM     62  C   UNL     1      10.458  -1.303  12.107  1.00  0.00     0.134 A 
ATOM     63  F   UNL     1      12.800  -2.707   9.711  1.00  0.00    -0.206 F 
ATOM     64  C   UNL     1      11.811  -3.678  11.605  1.00  0.00     0.040 A 
ATOM     65  C   UNL     1      10.294  -2.393  12.964  1.00  0.00     0.040 A 
ATOM     66  F   UNL     1       9.777  -0.180  12.380  1.00  0.00    -0.206 F 
ATOM     67  C   UNL     1      10.965  -3.588  12.709  1.00  0.00     0.006 A 
ENDBRANCH  46  60
BRANCH  47  68
ATOM     68  C   UNL     1      11.914   6.290   4.636  1.00  0.00     0.057 A 
ATOM     69  C   UNL     1      13.112   6.625   3.995  1.00  0.00     0.134 A 
ATOM     70  C   UNL     1      10.790   7.075   4.357  1.00  0.00     0.134 A 
ATOM     71  F   UNL     1      14.226   5.918   4.236  1.00  0.00    -0.206 F 
ATOM     72  C   UNL     1      13.194   7.709   3.120  1.00  0.00     0.040 A 
ATOM     73  C   UNL     1      10.852   8.149   3.469  1.00  0.00     0.040 A 
ATOM     74  F   UNL     1       9.611   6.798   4.934  1.00  0.00    -0.206 F 
ATOM     75  C   UNL     1      12.059   8.472   2.852  1.00  0.00     0.006 A 
ENDBRANCH  47  68
BRANCH  59  76
ATOM     76  C   UNL     1      14.463   5.118  11.004  1.00  0.00     0.057 A 
ATOM     77  C   UNL     1      13.979   6.237  11.692  1.00  0.00     0.134 A 
ATOM     78  C   UNL     1      15.800   4.757  11.210  1.00  0.00     0.134 A 
ATOM     79  F   UNL     1      12.710   6.640  11.526  1.00  0.00    -0.206 F 
ATOM     80  C   UNL     1      14.801   6.984  12.536  1.00  0.00     0.040 A 
ATOM     81  C   UNL     1      16.626   5.483  12.069  1.00  0.00     0.040 A 
ATOM     82  F   UNL     1      16.322   3.691  10.586  1.00  0.00    -0.206 F 
ATOM     83  C   UNL     1      16.128   6.604  12.730  1.00  0.00     0.006 A 
ENDBRANCH  59  76
ENDBRANCH  33  34
ENDBRANCH  25  28
ENDBRANCH  23  24
ENDBRANCH  22  23
ENDBRANCH   1  22
TORSDOF 13
