REMARK SMILES Cc1nc2cc(S(=O)(=O)N3CCC(C(=O)NCCCNC(=O)c4ccc(-c5c6nc(c(-c7c(F)cccc7F)c7ccc([nH]7)c(-c7c(F)cccc7F)c7nc(c(-c8c(F)cccc8F)c8ccc5[nH]8)C=C7)C=C6)cc4)CC3)ccc2n1C1CCCC1
REMARK SMILES IDX 17 1 16 2 14 3 15 4 13 6 10 7 11 8 78 9 12 10 77 11 7 12
REMARK SMILES IDX 8 13 9 14 6 15 1 16 2 17 3 18 82 19 4 20 81 21 5 22 80 23
REMARK SMILES IDX 79 24 83 25 84 26 87 27 85 28 86 29 18 30 19 31 20 32 21 33
REMARK SMILES IDX 22 35 23 36 24 37 76 38 25 39 75 40 26 41 27 42 28 43 69 44
REMARK SMILES IDX 29 45 74 46 68 47 70 48 30 49 73 50 67 51 66 52 31 54 57 55
REMARK SMILES IDX 40 56 56 57 41 58 44 59 55 60 71 61 42 62 43 63 54 65 72 66
REMARK SMILES IDX 45 67 32 68 33 69 38 70 34 71 35 72 37 73 39 74 36 75 58 76
REMARK SMILES IDX 59 77 64 78 60 79 61 80 63 81 65 82 62 83 46 84 47 85 52 86
REMARK SMILES IDX 48 87 49 88 51 89 53 90 50 91
REMARK H PARENT 16 5 20 34 70 53 44 64
REMARK Flexibility Score: inf
ROOT
ATOM      1  C   UNL     1      -2.122  -5.470  11.327  1.00  0.00     0.117 C 
ENDROOT
BRANCH   1   2
ATOM      2  N   UNL     1      -2.472  -4.090  11.645  1.00  0.00    -0.356 N 
ATOM      3  C   UNL     1      -2.406  -2.951  10.904  1.00  0.00     0.223 C 
ATOM      4  O   UNL     1      -2.774  -1.896  11.425  1.00  0.00    -0.275 OA
ATOM      5  H   UNL     1      -2.819  -3.961  12.557  1.00  0.00     0.163 HD
BRANCH   3   6
ATOM      6  C   UNL     1      -1.903  -2.968   9.472  1.00  0.00     0.081 C 
ATOM      7  N   UNL     1      -0.864  -4.411   7.188  1.00  0.00    -0.198 NA
ATOM      8  C   UNL     1       0.073  -3.619   8.020  1.00  0.00     0.103 C 
ATOM      9  C   UNL     1      -2.310  -4.085   7.211  1.00  0.00     0.103 C 
ATOM     10  C   UNL     1      -0.440  -3.388   9.421  1.00  0.00     0.030 C 
ATOM     11  C   UNL     1      -2.847  -3.781   8.592  1.00  0.00     0.030 C 
BRANCH   7  12
ATOM     12  S   UNL     1      -0.253  -4.821   5.628  1.00  0.00     0.243 S 
ATOM     13  O   UNL     1      -1.231  -5.687   4.996  1.00  0.00    -0.207 OA
ATOM     14  O   UNL     1       1.123  -5.224   5.793  1.00  0.00    -0.207 OA
BRANCH  12  15
ATOM     15  C   UNL     1      -0.234  -3.305   4.687  1.00  0.00     0.085 A 
ATOM     16  C   UNL     1       1.087  -0.032  -0.132  1.00  0.00     0.088 C 
ATOM     17  C   UNL     1       0.646  -0.682   1.129  1.00  0.00     0.106 A 
ATOM     18  N   UNL     1       0.745  -1.979   1.351  1.00  0.00    -0.233 NA
ATOM     19  N   UNL     1       0.129  -0.029   2.232  1.00  0.00    -0.325 N 
ATOM     20  C   UNL     1       0.304  -2.184   2.627  1.00  0.00     0.090 A 
ATOM     21  C   UNL     1      -0.107  -0.985   3.198  1.00  0.00     0.068 A 
ATOM     22  C   UNL     1       0.244  -3.373   3.371  1.00  0.00     0.052 A 
ATOM     23  C   UNL     1      -0.602  -0.908   4.497  1.00  0.00     0.030 A 
ATOM     24  C   UNL     1      -0.654  -2.087   5.226  1.00  0.00     0.024 A 
BRANCH  19  25
ATOM     25  C   UNL     1      -0.050   1.400   2.404  1.00  0.00     0.089 C 
ATOM     26  C   UNL     1      -1.474   1.852   2.745  1.00  0.00     0.025 C 
ATOM     27  C   UNL     1       0.805   2.012   3.518  1.00  0.00     0.025 C 
ATOM     28  C   UNL     1      -1.286   3.271   3.267  1.00  0.00     0.002 C 
ATOM     29  C   UNL     1       0.111   3.321   3.885  1.00  0.00     0.002 C 
ENDBRANCH  19  25
ENDBRANCH  12  15
ENDBRANCH   7  12
ENDBRANCH   3   6
ENDBRANCH   1   2
BRANCH   1  30
ATOM     30  C   UNL     1      -0.965  -5.988  12.176  1.00  0.00     0.042 C 
BRANCH  30  31
ATOM     31  C   UNL     1      -1.276  -6.029  13.668  1.00  0.00     0.118 C 
BRANCH  31  32
ATOM     32  N   UNL     1      -2.481  -6.765  13.985  1.00  0.00    -0.352 N 
ATOM     33  C   UNL     1      -2.773  -8.069  14.255  1.00  0.00     0.251 C 
ATOM     34  H   UNL     1      -3.278  -6.188  14.012  1.00  0.00     0.163 HD
ATOM     35  O   UNL     1      -3.938  -8.297  14.593  1.00  0.00    -0.269 OA
BRANCH  33  36
ATOM     36  C   UNL     1      -1.841  -9.215  14.093  1.00  0.00     0.039 A 
ATOM     37  C   UNL     1      -0.523  -9.145  13.641  1.00  0.00     0.014 A 
ATOM     38  C   UNL     1      -2.409 -10.482  14.325  1.00  0.00     0.014 A 
ATOM     39  C   UNL     1       0.149 -10.306  13.274  1.00  0.00     0.010 A 
ATOM     40  C   UNL     1      -1.734 -11.643  13.990  1.00  0.00     0.010 A 
ATOM     41  C   UNL     1      -0.488 -11.545  13.388  1.00  0.00    -0.014 A 
BRANCH  41  42
ATOM     42  C   UNL     1       0.221 -12.739  12.945  1.00  0.00     0.031 A 
ATOM     43  C   UNL     1       1.492 -12.987  13.677  1.00  0.00     0.074 A 
ATOM     44  C   UNL     1      -0.279 -13.585  12.019  1.00  0.00     0.049 A 
ATOM     45  N   UNL     1       2.695 -12.943  13.209  1.00  0.00    -0.248 NA
ATOM     46  C   UNL     1       1.428 -13.139  15.140  1.00  0.00     0.031 C 
ATOM     47  C   UNL     1      -1.608 -13.576  11.399  1.00  0.00     0.029 A 
ATOM     48  N   UNL     1       0.292 -14.700  11.481  1.00  0.00    -0.354 N 
ATOM     49  C   UNL     1       3.536 -13.262  14.273  1.00  0.00     0.074 A 
ATOM     50  C   UNL     1       2.722 -13.207  15.458  1.00  0.00     0.031 C 
ATOM     51  C   UNL     1      -1.818 -14.750  10.759  1.00  0.00     0.029 A 
ATOM     52  C   UNL     1      -0.594 -15.528  10.796  1.00  0.00     0.049 A 
ATOM     53  H   UNL     1       1.252 -14.903  11.570  1.00  0.00     0.167 HD
ATOM     54  C   UNL     1       4.779 -13.773  14.053  1.00  0.00     0.037 A 
ATOM     55  C   UNL     1      -0.339 -16.782  10.337  1.00  0.00     0.037 A 
ATOM     56  C   UNL     1       5.205 -13.522  12.700  1.00  0.00     0.049 A 
ATOM     57  C   UNL     1       1.134 -16.933  10.248  1.00  0.00     0.074 A 
ATOM     58  C   UNL     1       5.479 -12.395  11.951  1.00  0.00     0.029 A 
ATOM     59  N   UNL     1       5.063 -14.546  11.796  1.00  0.00    -0.354 N 
ATOM     60  N   UNL     1       1.867 -16.285   9.385  1.00  0.00    -0.248 NA
ATOM     61  C   UNL     1       1.833 -17.404  11.434  1.00  0.00     0.031 C 
ATOM     62  C   UNL     1       5.007 -12.700  10.640  1.00  0.00     0.029 A 
ATOM     63  C   UNL     1       4.543 -14.016  10.646  1.00  0.00     0.049 A 
ATOM     64  H   UNL     1       5.293 -15.491  11.948  1.00  0.00     0.167 HD
ATOM     65  C   UNL     1       2.980 -15.877  10.107  1.00  0.00     0.074 A 
ATOM     66  C   UNL     1       2.935 -16.652  11.347  1.00  0.00     0.031 C 
ATOM     67  C   UNL     1       3.663 -14.745   9.765  1.00  0.00     0.037 A 
BRANCH  54  68
ATOM     68  C   UNL     1       5.414 -14.865  14.887  1.00  0.00     0.057 A 
ATOM     69  C   UNL     1       4.705 -15.717  15.757  1.00  0.00     0.134 A 
ATOM     70  C   UNL     1       6.705 -15.311  14.539  1.00  0.00     0.134 A 
ATOM     71  F   UNL     1       3.466 -15.450  16.181  1.00  0.00    -0.206 F 
ATOM     72  C   UNL     1       5.198 -16.959  16.166  1.00  0.00     0.040 A 
ATOM     73  C   UNL     1       7.189 -16.572  14.907  1.00  0.00     0.040 A 
ATOM     74  F   UNL     1       7.497 -14.577  13.742  1.00  0.00    -0.206 F 
ATOM     75  C   UNL     1       6.423 -17.411  15.704  1.00  0.00     0.006 A 
ENDBRANCH  54  68
BRANCH  55  76
ATOM     76  C   UNL     1      -1.261 -17.941  10.292  1.00  0.00     0.057 A 
ATOM     77  C   UNL     1      -2.273 -18.093  11.257  1.00  0.00     0.134 A 
ATOM     78  C   UNL     1      -1.018 -19.058   9.480  1.00  0.00     0.134 A 
ATOM     79  F   UNL     1      -2.523 -17.123  12.150  1.00  0.00    -0.206 F 
ATOM     80  C   UNL     1      -3.004 -19.276  11.405  1.00  0.00     0.040 A 
ATOM     81  C   UNL     1      -1.742 -20.253   9.618  1.00  0.00     0.040 A 
ATOM     82  F   UNL     1      -0.033 -19.037   8.571  1.00  0.00    -0.206 F 
ATOM     83  C   UNL     1      -2.735 -20.366  10.587  1.00  0.00     0.006 A 
ENDBRANCH  55  76
BRANCH  67  84
ATOM     84  C   UNL     1       3.309 -14.084   8.462  1.00  0.00     0.057 A 
ATOM     85  C   UNL     1       4.313 -13.911   7.505  1.00  0.00     0.134 A 
ATOM     86  C   UNL     1       2.064 -13.495   8.191  1.00  0.00     0.134 A 
ATOM     87  F   UNL     1       5.546 -14.393   7.726  1.00  0.00    -0.206 F 
ATOM     88  C   UNL     1       4.090 -13.200   6.325  1.00  0.00     0.040 A 
ATOM     89  C   UNL     1       1.818 -12.807   6.998  1.00  0.00     0.040 A 
ATOM     90  F   UNL     1       1.075 -13.518   9.093  1.00  0.00    -0.206 F 
ATOM     91  C   UNL     1       2.836 -12.655   6.062  1.00  0.00     0.006 A 
ENDBRANCH  67  84
ENDBRANCH  41  42
ENDBRANCH  33  36
ENDBRANCH  31  32
ENDBRANCH  30  31
ENDBRANCH   1  30
TORSDOF 13
