REMARK SMILES Cc1nc(S(=O)(=O)N[C@H]2C=C[C@H](C(=O)NCCCNC(=O)c3ccc(-c4c5nc(c(-c6c(F)cccc6F)c6ccc([nH]6)c(-c6c(F)cccc6F)c6nc(c(-c7c(F)cccc7F)c7ccc4[nH]7)C=C6)C=C5)cc3)C2)cn1C
REMARK SMILES IDX 16 1 15 2 13 3 14 4 12 6 9 7 10 8 76 9 11 10 8 11 5 13 6 14
REMARK SMILES IDX 7 15 4 16 1 17 2 18 3 19 78 20 77 21 79 22 17 23 18 24 19 25
REMARK SMILES IDX 20 26 21 28 22 29 23 30 75 31 24 32 74 33 25 34 26 35 27 36
REMARK SMILES IDX 68 37 28 38 73 39 67 40 69 41 29 42 72 43 66 44 65 45 30 47
REMARK SMILES IDX 56 48 39 49 55 50 40 51 43 52 54 53 70 54 41 55 42 56 53 58
REMARK SMILES IDX 71 59 44 60 31 61 32 62 37 63 33 64 34 65 36 66 38 67 35 68
REMARK SMILES IDX 57 69 58 70 63 71 59 72 60 73 62 74 64 75 61 76 45 77 46 78
REMARK SMILES IDX 51 79 47 80 48 81 50 82 52 83 49 84
REMARK H PARENT 15 5 8 12 19 27 69 46 43 57
REMARK Flexibility Score: inf
ROOT
ATOM      1  C   UNL     1       2.892   7.219   1.455  1.00  0.00     0.117 C 
ENDROOT
BRANCH   1   2
ATOM      2  N   UNL     1       2.720   6.449   2.676  1.00  0.00    -0.356 N 
ATOM      3  C   UNL     1       3.328   5.288   3.068  1.00  0.00     0.226 C 
ATOM      4  O   UNL     1       3.015   4.815   4.160  1.00  0.00    -0.274 OA
ATOM      5  H   UNL     1       2.070   6.819   3.316  1.00  0.00     0.163 HD
BRANCH   3   6
ATOM      6  C   UNL     1       4.337   4.630   2.123  1.00  0.00     0.103 C 
ATOM      7  C   UNL     1       3.688   2.390   1.350  1.00  0.00     0.093 C 
ATOM      8  C   UNL     1       4.811   2.332   2.325  1.00  0.00    -0.011 C 
ATOM      9  C   UNL     1       3.621   3.884   0.992  1.00  0.00     0.042 C 
ATOM     10  C   UNL     1       5.148   3.547   2.769  1.00  0.00    -0.016 C 
BRANCH   7  11
ATOM     11  N   UNL     1       4.012   1.642   0.139  1.00  0.00    -0.203 NA
ATOM     12  H   UNL     1       3.621   2.156  -0.651  1.00  0.00     0.142 HD
BRANCH  11  13
ATOM     13  S   UNL     1       3.454   0.049   0.033  1.00  0.00     0.260 S 
ATOM     14  O   UNL     1       3.798  -0.612   1.272  1.00  0.00    -0.205 OA
ATOM     15  O   UNL     1       3.893  -0.438  -1.256  1.00  0.00    -0.205 OA
BRANCH  13  16
ATOM     16  C   UNL     1       1.710   0.040  -0.041  1.00  0.00     0.188 A 
ATOM     17  C   UNL     1      -1.481  -1.638   0.024  1.00  0.00     0.088 C 
ATOM     18  C   UNL     1      -0.310  -0.725  -0.015  1.00  0.00     0.106 A 
ATOM     19  N   UNL     1       0.948  -1.111   0.048  1.00  0.00    -0.221 NA
ATOM     20  N   UNL     1      -0.387   0.645  -0.120  1.00  0.00    -0.337 N 
ATOM     21  C   UNL     1       0.887   1.140  -0.178  1.00  0.00     0.129 A 
ATOM     22  C   UNL     1      -1.591   1.440  -0.139  1.00  0.00     0.151 C 
ENDBRANCH  13  16
ENDBRANCH  11  13
ENDBRANCH   7  11
ENDBRANCH   3   6
ENDBRANCH   1   2
BRANCH   1  23
ATOM     23  C   UNL     1       1.637   7.221   0.587  1.00  0.00     0.042 C 
BRANCH  23  24
ATOM     24  C   UNL     1       0.418   7.882   1.227  1.00  0.00     0.118 C 
BRANCH  24  25
ATOM     25  N   UNL     1       0.605   9.303   1.473  1.00  0.00    -0.352 N 
ATOM     26  C   UNL     1      -0.141  10.383   1.067  1.00  0.00     0.251 C 
ATOM     27  H   UNL     1       1.393   9.528   2.019  1.00  0.00     0.163 HD
ATOM     28  O   UNL     1       0.285  11.518   1.265  1.00  0.00    -0.269 OA
BRANCH  26  29
ATOM     29  C   UNL     1      -1.436  10.200   0.373  1.00  0.00     0.039 A 
ATOM     30  C   UNL     1      -1.733  11.027  -0.716  1.00  0.00     0.014 A 
ATOM     31  C   UNL     1      -2.370   9.254   0.802  1.00  0.00     0.014 A 
ATOM     32  C   UNL     1      -2.931  10.858  -1.416  1.00  0.00     0.010 A 
ATOM     33  C   UNL     1      -3.535   9.042   0.064  1.00  0.00     0.010 A 
ATOM     34  C   UNL     1      -3.825   9.838  -1.054  1.00  0.00    -0.014 A 
BRANCH  34  35
ATOM     35  C   UNL     1      -5.058   9.580  -1.842  1.00  0.00     0.031 A 
ATOM     36  C   UNL     1      -6.413   9.777  -1.222  1.00  0.00     0.074 A 
ATOM     37  C   UNL     1      -4.958   9.099  -3.096  1.00  0.00     0.049 A 
ATOM     38  N   UNL     1      -7.596   9.515  -1.719  1.00  0.00    -0.248 NA
ATOM     39  C   UNL     1      -6.442  10.316   0.146  1.00  0.00     0.031 C 
ATOM     40  C   UNL     1      -3.704   8.826  -3.801  1.00  0.00     0.029 A 
ATOM     41  N   UNL     1      -5.930   8.740  -3.997  1.00  0.00    -0.354 N 
ATOM     42  C   UNL     1      -8.506   9.840  -0.722  1.00  0.00     0.074 A 
ATOM     43  C   UNL     1      -7.738  10.278   0.424  1.00  0.00     0.031 C 
ATOM     44  C   UNL     1      -3.983   8.360  -5.029  1.00  0.00     0.029 A 
ATOM     45  C   UNL     1      -5.431   8.266  -5.186  1.00  0.00     0.049 A 
ATOM     46  H   UNL     1      -6.893   8.816  -3.809  1.00  0.00     0.167 HD
ATOM     47  C   UNL     1      -9.860   9.795  -0.762  1.00  0.00     0.037 A 
ATOM     48  C   UNL     1      -6.067   7.800  -6.277  1.00  0.00     0.037 A 
ATOM     49  C   UNL     1     -10.626   9.390  -1.911  1.00  0.00     0.049 A 
ATOM     50  C   UNL     1      -7.569   7.761  -6.298  1.00  0.00     0.074 A 
ATOM     51  C   UNL     1     -12.002   9.369  -2.066  1.00  0.00     0.029 A 
ATOM     52  N   UNL     1     -10.083   8.937  -3.103  1.00  0.00    -0.354 N 
ATOM     53  N   UNL     1      -8.416   8.120  -5.365  1.00  0.00    -0.248 NA
ATOM     54  C   UNL     1      -8.202   7.256  -7.524  1.00  0.00     0.031 C 
ATOM     55  C   UNL     1     -12.292   8.871  -3.341  1.00  0.00     0.029 A 
ATOM     56  C   UNL     1     -11.096   8.617  -3.993  1.00  0.00     0.049 A 
ATOM     57  H   UNL     1      -9.120   8.854  -3.291  1.00  0.00     0.167 HD
ATOM     58  C   UNL     1      -9.680   7.908  -5.899  1.00  0.00     0.074 A 
ATOM     59  C   UNL     1      -9.489   7.399  -7.241  1.00  0.00     0.031 C 
ATOM     60  C   UNL     1     -10.891   8.118  -5.328  1.00  0.00     0.037 A 
BRANCH  47  61
ATOM     61  C   UNL     1     -10.601  10.200   0.477  1.00  0.00     0.057 A 
ATOM     62  C   UNL     1     -10.674  11.537   0.888  1.00  0.00     0.134 A 
ATOM     63  C   UNL     1     -11.281   9.248   1.248  1.00  0.00     0.134 A 
ATOM     64  F   UNL     1     -10.035  12.495   0.200  1.00  0.00    -0.206 F 
ATOM     65  C   UNL     1     -11.377  11.910   2.035  1.00  0.00     0.040 A 
ATOM     66  C   UNL     1     -12.007   9.612   2.383  1.00  0.00     0.040 A 
ATOM     67  F   UNL     1     -11.256   7.951   0.906  1.00  0.00    -0.206 F 
ATOM     68  C   UNL     1     -12.051  10.947   2.783  1.00  0.00     0.006 A 
ENDBRANCH  47  61
BRANCH  48  69
ATOM     69  C   UNL     1      -5.284   7.349  -7.454  1.00  0.00     0.057 A 
ATOM     70  C   UNL     1      -5.259   8.104  -8.632  1.00  0.00     0.134 A 
ATOM     71  C   UNL     1      -4.550   6.158  -7.432  1.00  0.00     0.134 A 
ATOM     72  F   UNL     1      -5.958   9.245  -8.717  1.00  0.00    -0.206 F 
ATOM     73  C   UNL     1      -4.544   7.682  -9.754  1.00  0.00     0.040 A 
ATOM     74  C   UNL     1      -3.813   5.735  -8.539  1.00  0.00     0.040 A 
ATOM     75  F   UNL     1      -4.529   5.395  -6.329  1.00  0.00    -0.206 F 
ATOM     76  C   UNL     1      -3.814   6.496  -9.707  1.00  0.00     0.006 A 
ENDBRANCH  48  69
BRANCH  60  77
ATOM     77  C   UNL     1     -12.102   7.826  -6.162  1.00  0.00     0.057 A 
ATOM     78  C   UNL     1     -12.516   6.515  -6.428  1.00  0.00     0.134 A 
ATOM     79  C   UNL     1     -12.883   8.870  -6.675  1.00  0.00     0.134 A 
ATOM     80  F   UNL     1     -11.802   5.472  -5.977  1.00  0.00    -0.206 F 
ATOM     81  C   UNL     1     -13.655   6.252  -7.191  1.00  0.00     0.040 A 
ATOM     82  C   UNL     1     -14.036   8.619  -7.419  1.00  0.00     0.040 A 
ATOM     83  F   UNL     1     -12.544  10.148  -6.450  1.00  0.00    -0.206 F 
ATOM     84  C   UNL     1     -14.422   7.306  -7.683  1.00  0.00     0.006 A 
ENDBRANCH  60  77
ENDBRANCH  34  35
ENDBRANCH  26  29
ENDBRANCH  24  25
ENDBRANCH  23  24
ENDBRANCH   1  23
TORSDOF 13
