REMARK SMILES COc1ccc([C@@H]2[C@@H](C(=O)c3cccc4c3CCCC4)[C@H](C(=O)NCCCNC(=O)c3ccc(-c4c5nc(c(-c6c(F)cccc6F)c6ccc([nH]6)c(-c6c(F)cccc6F)c6nc(c(-c7c(F)cccc7F)c7ccc4[nH]7)C=C6)C=C5)cc3)SC3=NC(=O)S[C@H]32)cc1
REMARK SMILES IDX 26 1 25 2 24 3 22 4 23 5 21 7 7 8 8 9 91 10 86 11 90 12
REMARK SMILES IDX 85 13 87 14 88 15 89 16 6 17 3 18 4 19 93 20 5 21 92 22 2 23
REMARK SMILES IDX 1 24 9 25 10 26 11 27 12 28 16 29 13 30 15 31 17 32 14 33
REMARK SMILES IDX 20 34 18 35 19 36 27 37 28 38 29 39 30 41 31 42 32 43 84 44
REMARK SMILES IDX 33 45 83 46 34 47 35 48 36 49 77 50 37 51 82 52 76 53 78 54
REMARK SMILES IDX 38 55 81 56 75 57 74 58 39 60 65 61 48 62 64 63 49 64 52 65
REMARK SMILES IDX 63 66 79 67 50 68 51 69 62 71 80 72 53 73 40 74 41 75 46 76
REMARK SMILES IDX 42 77 43 78 45 79 47 80 44 81 66 82 67 83 72 84 68 85 69 86
REMARK SMILES IDX 71 87 73 88 70 89 54 90 55 91 60 92 56 93 57 94 59 95 61 96
REMARK SMILES IDX 58 97
REMARK H PARENT 24 6 28 40 78 59 52 70
REMARK Flexibility Score: inf
ROOT
ATOM      1  C   UNL     1       6.484   5.789  -0.754  1.00  0.00     0.042 C 
ENDROOT
BRANCH   1   2
ATOM      2  C   UNL     1       6.155   7.116  -0.079  1.00  0.00     0.117 C 
BRANCH   2   3
ATOM      3  N   UNL     1       5.798   8.155  -1.034  1.00  0.00    -0.355 N 
ATOM      4  C   UNL     1       4.635   8.835  -1.256  1.00  0.00     0.234 C 
ATOM      5  O   UNL     1       4.657   9.736  -2.099  1.00  0.00    -0.274 OA
ATOM      6  H   UNL     1       6.534   8.416  -1.633  1.00  0.00     0.163 HD
BRANCH   4   7
ATOM      7  C   UNL     1       3.341   8.534  -0.479  1.00  0.00     0.153 C 
ATOM      8  C   UNL     1       1.786   6.565   0.280  1.00  0.00     0.052 C 
ATOM      9  C   UNL     1       2.798   7.117  -0.777  1.00  0.00     0.093 C 
ATOM     10  C   UNL     1       2.312   6.691   1.730  1.00  0.00     0.121 C 
ATOM     11  C   UNL     1       2.533   8.114   2.143  1.00  0.00     0.093 C 
ATOM     12  S   UNL     1       1.129   6.120   3.010  1.00  0.00    -0.052 SA
ATOM     13  S   UNL     1       3.646   9.076   1.246  1.00  0.00    -0.095 SA
ATOM     14  N   UNL     1       2.000   8.592   3.212  1.00  0.00    -0.200 NA
ATOM     15  C   UNL     1       1.228   7.660   3.855  1.00  0.00     0.306 C 
ATOM     16  O   UNL     1       0.657   7.833   4.911  1.00  0.00    -0.259 OA
BRANCH   8  17
ATOM     17  C   UNL     1       1.448   5.089   0.031  1.00  0.00    -0.042 A 
ATOM     18  C   UNL     1       0.754   2.378  -0.344  1.00  0.00     0.118 A 
ATOM     19  C   UNL     1      -0.227   3.363  -0.355  1.00  0.00     0.047 A 
ATOM     20  C   UNL     1       2.083   2.738  -0.134  1.00  0.00     0.047 A 
ATOM     21  C   UNL     1       0.110   4.696  -0.121  1.00  0.00     0.008 A 
ATOM     22  C   UNL     1       2.429   4.085   0.039  1.00  0.00     0.008 A 
BRANCH  18  23
ATOM     23  O   UNL     1       0.311   1.110  -0.597  1.00  0.00    -0.497 OA
ATOM     24  C   UNL     1       0.990   0.076   0.106  1.00  0.00     0.278 C 
ENDBRANCH  18  23
ENDBRANCH   8  17
BRANCH   9  25
ATOM     25  C   UNL     1       2.340   7.072  -2.279  1.00  0.00     0.168 C 
ATOM     26  O   UNL     1       3.099   6.640  -3.146  1.00  0.00    -0.294 OA
BRANCH  25  27
ATOM     27  C   UNL     1       1.028   7.642  -2.720  1.00  0.00     0.021 A 
ATOM     28  C   UNL     1      -0.128   6.984  -2.347  1.00  0.00     0.012 A 
ATOM     29  C   UNL     1       0.928   9.003  -3.010  1.00  0.00    -0.034 A 
ATOM     30  C   UNL     1      -1.190   7.734  -1.840  1.00  0.00     0.001 A 
ATOM     31  C   UNL     1       0.039   9.771  -2.247  1.00  0.00    -0.044 A 
ATOM     32  C   UNL     1       0.753   9.376  -4.508  1.00  0.00     0.036 C 
ATOM     33  C   UNL     1      -1.049   9.117  -1.670  1.00  0.00     0.004 A 
ATOM     34  C   UNL     1       0.164  11.271  -2.308  1.00  0.00     0.036 C 
ATOM     35  C   UNL     1       0.684  10.889  -4.767  1.00  0.00     0.005 C 
ATOM     36  C   UNL     1       0.992  11.721  -3.523  1.00  0.00     0.005 C 
ENDBRANCH  25  27
ENDBRANCH   9  25
ENDBRANCH   4   7
ENDBRANCH   2   3
ENDBRANCH   1   2
BRANCH   1  37
ATOM     37  C   UNL     1       7.697   5.833  -1.677  1.00  0.00     0.118 C 
BRANCH  37  38
ATOM     38  N   UNL     1       8.945   6.070  -0.967  1.00  0.00    -0.352 N 
ATOM     39  C   UNL     1      10.102   5.329  -0.932  1.00  0.00     0.251 C 
ATOM     40  H   UNL     1       8.963   6.892  -0.425  1.00  0.00     0.163 HD
ATOM     41  O   UNL     1      10.990   5.634  -0.141  1.00  0.00    -0.269 OA
BRANCH  39  42
ATOM     42  C   UNL     1      10.276   4.149  -1.811  1.00  0.00     0.039 A 
ATOM     43  C   UNL     1      10.880   3.004  -1.283  1.00  0.00     0.014 A 
ATOM     44  C   UNL     1       9.871   4.165  -3.147  1.00  0.00     0.014 A 
ATOM     45  C   UNL     1      11.004   1.855  -2.069  1.00  0.00     0.010 A 
ATOM     46  C   UNL     1       9.919   2.996  -3.904  1.00  0.00     0.010 A 
ATOM     47  C   UNL     1      10.483   1.826  -3.373  1.00  0.00    -0.014 A 
BRANCH  47  48
ATOM     48  C   UNL     1      10.504   0.581  -4.185  1.00  0.00     0.031 A 
ATOM     49  C   UNL     1      11.266   0.529  -5.482  1.00  0.00     0.074 A 
ATOM     50  C   UNL     1       9.778  -0.484  -3.789  1.00  0.00     0.049 A 
ATOM     51  N   UNL     1      11.335  -0.438  -6.362  1.00  0.00    -0.248 NA
ATOM     52  C   UNL     1      12.033   1.730  -5.851  1.00  0.00     0.031 C 
ATOM     53  C   UNL     1       8.958  -0.547  -2.577  1.00  0.00     0.029 A 
ATOM     54  N   UNL     1       9.598  -1.714  -4.372  1.00  0.00    -0.354 N 
ATOM     55  C   UNL     1      12.134   0.042  -7.392  1.00  0.00     0.074 A 
ATOM     56  C   UNL     1      12.491   1.402  -7.051  1.00  0.00     0.031 C 
ATOM     57  C   UNL     1       8.377  -1.754  -2.500  1.00  0.00     0.029 A 
ATOM     58  C   UNL     1       8.744  -2.536  -3.676  1.00  0.00     0.049 A 
ATOM     59  H   UNL     1      10.040  -1.983  -5.210  1.00  0.00     0.167 HD
ATOM     60  C   UNL     1      12.549  -0.599  -8.511  1.00  0.00     0.037 A 
ATOM     61  C   UNL     1       8.290  -3.772  -3.962  1.00  0.00     0.037 A 
ATOM     62  C   UNL     1      12.213  -1.960  -8.836  1.00  0.00     0.049 A 
ATOM     63  C   UNL     1       8.759  -4.455  -5.218  1.00  0.00     0.074 A 
ATOM     64  C   UNL     1      12.643  -2.718  -9.912  1.00  0.00     0.029 A 
ATOM     65  N   UNL     1      11.361  -2.765  -8.096  1.00  0.00    -0.354 N 
ATOM     66  N   UNL     1       9.579  -4.016  -6.141  1.00  0.00    -0.248 NA
ATOM     67  C   UNL     1       8.243  -5.808  -5.469  1.00  0.00     0.031 C 
ATOM     68  C   UNL     1      12.007  -3.962  -9.854  1.00  0.00     0.029 A 
ATOM     69  C   UNL     1      11.229  -4.001  -8.708  1.00  0.00     0.049 A 
ATOM     70  H   UNL     1      10.917  -2.498  -7.259  1.00  0.00     0.167 HD
ATOM     71  C   UNL     1       9.701  -5.047  -7.064  1.00  0.00     0.074 A 
ATOM     72  C   UNL     1       8.886  -6.141  -6.579  1.00  0.00     0.031 C 
ATOM     73  C   UNL     1      10.422  -5.085  -8.211  1.00  0.00     0.037 A 
BRANCH  60  74
ATOM     74  C   UNL     1      13.414   0.161  -9.475  1.00  0.00     0.057 A 
ATOM     75  C   UNL     1      14.742   0.494  -9.175  1.00  0.00     0.134 A 
ATOM     76  C   UNL     1      12.935   0.503 -10.746  1.00  0.00     0.134 A 
ATOM     77  F   UNL     1      15.261   0.204  -7.972  1.00  0.00    -0.206 F 
ATOM     78  C   UNL     1      15.555   1.155 -10.097  1.00  0.00     0.040 A 
ATOM     79  C   UNL     1      13.748   1.138 -11.687  1.00  0.00     0.040 A 
ATOM     80  F   UNL     1      11.676   0.207 -11.102  1.00  0.00    -0.206 F 
ATOM     81  C   UNL     1      15.061   1.470 -11.361  1.00  0.00     0.006 A 
ENDBRANCH  60  74
BRANCH  61  82
ATOM     82  C   UNL     1       7.335  -4.450  -3.047  1.00  0.00     0.057 A 
ATOM     83  C   UNL     1       7.705  -5.593  -2.328  1.00  0.00     0.134 A 
ATOM     84  C   UNL     1       6.020  -3.994  -2.896  1.00  0.00     0.134 A 
ATOM     85  F   UNL     1       8.945  -6.092  -2.444  1.00  0.00    -0.206 F 
ATOM     86  C   UNL     1       6.795  -6.277  -1.519  1.00  0.00     0.040 A 
ATOM     87  C   UNL     1       5.108  -4.649  -2.067  1.00  0.00     0.040 A 
ATOM     88  F   UNL     1       5.603  -2.898  -3.547  1.00  0.00    -0.206 F 
ATOM     89  C   UNL     1       5.492  -5.802  -1.385  1.00  0.00     0.006 A 
ENDBRANCH  61  82
BRANCH  73  90
ATOM     90  C   UNL     1      10.397  -6.363  -9.000  1.00  0.00     0.057 A 
ATOM     91  C   UNL     1       9.258  -6.781  -9.700  1.00  0.00     0.134 A 
ATOM     92  C   UNL     1      11.541  -7.166  -9.089  1.00  0.00     0.134 A 
ATOM     93  F   UNL     1       8.125  -6.064  -9.646  1.00  0.00    -0.206 F 
ATOM     94  C   UNL     1       9.251  -7.965 -10.440  1.00  0.00     0.040 A 
ATOM     95  C   UNL     1      11.556  -8.335  -9.851  1.00  0.00     0.040 A 
ATOM     96  F   UNL     1      12.669  -6.819  -8.451  1.00  0.00    -0.206 F 
ATOM     97  C   UNL     1      10.405  -8.742 -10.522  1.00  0.00     0.006 A 
ENDBRANCH  73  90
ENDBRANCH  47  48
ENDBRANCH  39  42
ENDBRANCH  37  38
ENDBRANCH   1  37
TORSDOF 14
