REMARK SMILES C=CCN(CC(=O)NCCCNC(=O)c1ccc(-c2c3nc(c(-c4c(F)cccc4F)c4ccc([nH]4)c(-c4c(F)cccc4F)c4nc(c(-c5c(F)cccc5F)c5ccc2[nH]5)C=C4)C=C3)cc1)C(=O)c1ccc(C[NH3+])cc1
REMARK SMILES IDX 6 1 7 2 8 3 5 5 4 6 3 7 2 8 1 9 69 10 70 11 71 12 72 13
REMARK SMILES IDX 78 14 73 15 77 16 74 17 75 18 76 19 9 23 10 24 11 25 12 26
REMARK SMILES IDX 13 27 14 29 15 30 16 31 68 32 17 33 67 34 18 35 19 36 20 37
REMARK SMILES IDX 61 38 21 39 66 40 60 41 62 42 22 43 65 44 59 45 58 46 23 48
REMARK SMILES IDX 49 49 32 50 48 51 33 52 36 53 47 54 63 55 34 56 35 57 46 59
REMARK SMILES IDX 64 60 37 61 24 62 25 63 30 64 26 65 27 66 29 67 31 68 28 69
REMARK SMILES IDX 50 70 51 71 56 72 52 73 53 74 55 75 57 76 54 77 38 78 39 79
REMARK SMILES IDX 44 80 40 81 41 82 43 83 45 84 42 85
REMARK H PARENT 8 4 76 20 76 21 76 22 12 28 62 47 36 58
REMARK Flexibility Score: inf
ROOT
ATOM      1  C   UNL     1      -3.949   0.419   3.345  1.00  0.00     0.239 C 
ATOM      2  O   UNL     1      -4.505   0.498   4.447  1.00  0.00    -0.273 OA
ATOM      3  N   UNL     1      -4.773   0.413   2.260  1.00  0.00    -0.354 N 
ATOM      4  H   UNL     1      -5.711   0.195   2.462  1.00  0.00     0.163 HD
ENDROOT
BRANCH   1   5
ATOM      5  C   UNL     1      -2.411   0.469   3.253  1.00  0.00     0.220 C 
BRANCH   5   6
ATOM      6  N   UNL     1      -1.752  -0.347   2.226  1.00  0.00    -0.326 N 
BRANCH   6   7
ATOM      7  C   UNL     1      -1.147   0.342   1.091  1.00  0.00     0.147 C 
BRANCH   7   8
ATOM      8  C   UNL     1       0.336   0.466   1.263  1.00  0.00    -0.014 C 
ATOM      9  C   UNL     1       1.216   0.026   0.352  1.00  0.00     0.006 C 
ENDBRANCH   7   8
ENDBRANCH   6   7
BRANCH   6  10
ATOM     10  C   UNL     1      -1.554  -1.730   2.326  1.00  0.00     0.254 C 
ATOM     11  O   UNL     1      -0.973  -2.392   1.468  1.00  0.00    -0.269 OA
BRANCH  10  12
ATOM     12  C   UNL     1      -2.052  -2.470   3.508  1.00  0.00     0.040 A 
ATOM     13  C   UNL     1      -1.134  -3.109   4.346  1.00  0.00     0.014 A 
ATOM     14  C   UNL     1      -3.421  -2.643   3.716  1.00  0.00     0.014 A 
ATOM     15  C   UNL     1      -1.591  -3.874   5.426  1.00  0.00     0.010 A 
ATOM     16  C   UNL     1      -3.875  -3.383   4.810  1.00  0.00     0.010 A 
ATOM     17  C   UNL     1      -2.965  -4.001   5.680  1.00  0.00     0.006 A 
BRANCH  17  18
ATOM     18  C   UNL     1      -3.462  -4.841   6.829  1.00  0.00     0.295 C 
BRANCH  18  19
ATOM     19  N   UNL     1      -3.488  -6.253   6.473  1.00  0.00    -0.354 N 
ATOM     20  H   UNL     1      -4.119  -6.393   5.683  1.00  0.00     0.344 HD
ATOM     21  H   UNL     1      -3.815  -6.799   7.270  1.00  0.00     0.344 HD
ATOM     22  H   UNL     1      -2.549  -6.556   6.215  1.00  0.00     0.344 HD
ENDBRANCH  18  19
ENDBRANCH  17  18
ENDBRANCH  10  12
ENDBRANCH   6  10
ENDBRANCH   5   6
ENDBRANCH   1   5
BRANCH   3  23
ATOM     23  C   UNL     1      -4.507   0.673   0.860  1.00  0.00     0.117 C 
BRANCH  23  24
ATOM     24  C   UNL     1      -4.384  -0.581  -0.001  1.00  0.00     0.042 C 
BRANCH  24  25
ATOM     25  C   UNL     1      -5.659  -1.414  -0.120  1.00  0.00     0.118 C 
BRANCH  25  26
ATOM     26  N   UNL     1      -6.769  -0.682  -0.716  1.00  0.00    -0.352 N 
ATOM     27  C   UNL     1      -7.417  -0.830  -1.918  1.00  0.00     0.251 C 
ATOM     28  H   UNL     1      -7.117   0.049  -0.157  1.00  0.00     0.163 HD
ATOM     29  O   UNL     1      -8.218   0.032  -2.271  1.00  0.00    -0.269 OA
BRANCH  27  30
ATOM     30  C   UNL     1      -7.157  -1.985  -2.807  1.00  0.00     0.039 A 
ATOM     31  C   UNL     1      -7.077  -1.761  -4.186  1.00  0.00     0.014 A 
ATOM     32  C   UNL     1      -7.043  -3.286  -2.312  1.00  0.00     0.014 A 
ATOM     33  C   UNL     1      -6.792  -2.818  -5.055  1.00  0.00     0.010 A 
ATOM     34  C   UNL     1      -6.698  -4.331  -3.171  1.00  0.00     0.010 A 
ATOM     35  C   UNL     1      -6.549  -4.104  -4.547  1.00  0.00    -0.014 A 
BRANCH  35  36
ATOM     36  C   UNL     1      -6.069  -5.204  -5.424  1.00  0.00     0.031 A 
ATOM     37  C   UNL     1      -6.904  -6.432  -5.650  1.00  0.00     0.074 A 
ATOM     38  C   UNL     1      -4.827  -5.132  -5.943  1.00  0.00     0.049 A 
ATOM     39  N   UNL     1      -6.592  -7.539  -6.276  1.00  0.00    -0.248 NA
ATOM     40  C   UNL     1      -8.261  -6.421  -5.084  1.00  0.00     0.031 C 
ATOM     41  C   UNL     1      -3.904  -4.008  -5.771  1.00  0.00     0.029 A 
ATOM     42  N   UNL     1      -4.118  -6.031  -6.699  1.00  0.00    -0.354 N 
ATOM     43  C   UNL     1      -7.706  -8.362  -6.169  1.00  0.00     0.074 A 
ATOM     44  C   UNL     1      -8.689  -7.639  -5.389  1.00  0.00     0.031 C 
ATOM     45  C   UNL     1      -2.753  -4.284  -6.404  1.00  0.00     0.029 A 
ATOM     46  C   UNL     1      -2.838  -5.619  -6.985  1.00  0.00     0.049 A 
ATOM     47  H   UNL     1      -4.489  -6.889  -7.007  1.00  0.00     0.167 HD
ATOM     48  C   UNL     1      -7.894  -9.600  -6.686  1.00  0.00     0.037 A 
ATOM     49  C   UNL     1      -1.834  -6.255  -7.617  1.00  0.00     0.037 A 
ATOM     50  C   UNL     1      -6.918 -10.311  -7.473  1.00  0.00     0.049 A 
ATOM     51  C   UNL     1      -2.052  -7.647  -8.137  1.00  0.00     0.074 A 
ATOM     52  C   UNL     1      -7.046 -11.539  -8.100  1.00  0.00     0.029 A 
ATOM     53  N   UNL     1      -5.632  -9.864  -7.731  1.00  0.00    -0.354 N 
ATOM     54  N   UNL     1      -3.132  -8.387  -8.086  1.00  0.00    -0.248 NA
ATOM     55  C   UNL     1      -0.908  -8.296  -8.794  1.00  0.00     0.031 C 
ATOM     56  C   UNL     1      -5.821 -11.858  -8.694  1.00  0.00     0.029 A 
ATOM     57  C   UNL     1      -4.943 -10.809  -8.476  1.00  0.00     0.049 A 
ATOM     58  H   UNL     1      -5.261  -9.003  -7.429  1.00  0.00     0.167 HD
ATOM     59  C   UNL     1      -2.804  -9.581  -8.713  1.00  0.00     0.074 A 
ATOM     60  C   UNL     1      -1.431  -9.459  -9.156  1.00  0.00     0.031 C 
ATOM     61  C   UNL     1      -3.573 -10.681  -8.901  1.00  0.00     0.037 A 
BRANCH  48  62
ATOM     62  C   UNL     1      -9.206 -10.275  -6.413  1.00  0.00     0.057 A 
ATOM     63  C   UNL     1     -10.393  -9.856  -7.029  1.00  0.00     0.134 A 
ATOM     64  C   UNL     1      -9.276 -11.388  -5.566  1.00  0.00     0.134 A 
ATOM     65  F   UNL     1     -10.396  -8.792  -7.846  1.00  0.00    -0.206 F 
ATOM     66  C   UNL     1     -11.606 -10.506  -6.795  1.00  0.00     0.040 A 
ATOM     67  C   UNL     1     -10.479 -12.061  -5.343  1.00  0.00     0.040 A 
ATOM     68  F   UNL     1      -8.176 -11.847  -4.952  1.00  0.00    -0.206 F 
ATOM     69  C   UNL     1     -11.649 -11.617  -5.954  1.00  0.00     0.006 A 
ENDBRANCH  48  62
BRANCH  49  70
ATOM     70  C   UNL     1      -0.521  -5.583  -7.781  1.00  0.00     0.057 A 
ATOM     71  C   UNL     1      -0.084  -5.152  -9.038  1.00  0.00     0.134 A 
ATOM     72  C   UNL     1       0.328  -5.359  -6.690  1.00  0.00     0.134 A 
ATOM     73  F   UNL     1      -0.844  -5.358 -10.124  1.00  0.00    -0.206 F 
ATOM     74  C   UNL     1       1.155  -4.532  -9.208  1.00  0.00     0.040 A 
ATOM     75  C   UNL     1       1.558  -4.718  -6.841  1.00  0.00     0.040 A 
ATOM     76  F   UNL     1      -0.036  -5.746  -5.459  1.00  0.00    -0.206 F 
ATOM     77  C   UNL     1       1.977  -4.308  -8.105  1.00  0.00     0.006 A 
ENDBRANCH  49  70
BRANCH  61  78
ATOM     78  C   UNL     1      -2.946 -11.839  -9.621  1.00  0.00     0.057 A 
ATOM     79  C   UNL     1      -1.992 -12.657  -9.003  1.00  0.00     0.134 A 
ATOM     80  C   UNL     1      -3.327 -12.162 -10.929  1.00  0.00     0.134 A 
ATOM     81  F   UNL     1      -1.573 -12.390  -7.757  1.00  0.00    -0.206 F 
ATOM     82  C   UNL     1      -1.427 -13.746  -9.667  1.00  0.00     0.040 A 
ATOM     83  C   UNL     1      -2.787 -13.263 -11.595  1.00  0.00     0.040 A 
ATOM     84  F   UNL     1      -4.240 -11.422 -11.575  1.00  0.00    -0.206 F 
ATOM     85  C   UNL     1      -1.830 -14.056 -10.964  1.00  0.00     0.006 A 
ENDBRANCH  61  78
ENDBRANCH  35  36
ENDBRANCH  27  30
ENDBRANCH  25  26
ENDBRANCH  24  25
ENDBRANCH  23  24
ENDBRANCH   3  23
TORSDOF 17
