REMARK SMILES C#CC[NH2+]CC(=O)N1CC[NH+]([C@@H](C)C(=O)NCCCNC(=O)c2ccc(-c3c4nc(c(-c5c(F)cccc5F)c5ccc([nH]5)c(-c5c(F)cccc5F)c5nc(c(-c6c(F)cccc6F)c6ccc3[nH]6)C=C5)C=C4)cc2)CC1
REMARK SMILES IDX 14 1 15 2 16 3 12 5 13 6 11 7 6 8 7 9 8 10 9 11 78 12 10 13
REMARK SMILES IDX 77 14 5 16 4 17 3 20 2 21 1 22 17 23 18 24 19 25 20 26 21 27
REMARK SMILES IDX 22 29 23 30 24 31 76 32 25 33 75 34 26 35 27 36 28 37 69 38
REMARK SMILES IDX 29 39 74 40 68 41 70 42 30 43 73 44 67 45 66 46 31 48 57 49
REMARK SMILES IDX 40 50 56 51 41 52 44 53 55 54 71 55 42 56 43 57 54 59 72 60
REMARK SMILES IDX 45 61 32 62 33 63 38 64 34 65 35 66 37 67 39 68 36 69 58 70
REMARK SMILES IDX 59 71 64 72 60 73 61 74 63 75 65 76 62 77 46 78 47 79 52 80
REMARK SMILES IDX 48 81 49 82 51 83 53 84 50 85
REMARK H PARENT 16 4 11 15 4 18 4 19 20 28 70 47 44 58
REMARK Flexibility Score: inf
ROOT
ATOM      1  C   UNL     1      -4.349  -5.646  -2.599  1.00  0.00     0.278 C 
ATOM      2  O   UNL     1      -4.050  -5.965  -3.756  1.00  0.00    -0.268 OA
ATOM      3  N   UNL     1      -5.641  -5.865  -2.228  1.00  0.00    -0.351 N 
ATOM      4  H   UNL     1      -6.165  -6.401  -2.866  1.00  0.00     0.163 HD
ENDROOT
BRANCH   1   5
ATOM      5  C   UNL     1      -3.288  -5.077  -1.636  1.00  0.00     0.271 C 
ATOM      6  C   UNL     1      -3.189  -5.823  -0.304  1.00  0.00     0.086 C 
BRANCH   5   7
ATOM      7  N   UNL     1      -3.172  -3.608  -1.613  1.00  0.00    -0.322 N 
ATOM      8  C   UNL     1      -4.373  -1.000   1.600  1.00  0.00     0.278 C 
ATOM      9  O   UNL     1      -5.360  -1.220   2.302  1.00  0.00    -0.268 OA
ATOM     10  N   UNL     1      -3.958  -1.886   0.618  1.00  0.00    -0.327 N 
ATOM     11  C   UNL     1      -4.970  -2.378  -0.284  1.00  0.00     0.181 C 
ATOM     12  C   UNL     1      -2.756  -2.727   0.736  1.00  0.00     0.181 C 
ATOM     13  C   UNL     1      -4.356  -2.745  -1.646  1.00  0.00     0.284 C 
ATOM     14  C   UNL     1      -2.170  -3.134  -0.650  1.00  0.00     0.284 C 
ATOM     15  H   UNL     1      -2.854  -3.476  -2.573  1.00  0.00     0.348 HD
BRANCH   8  16
ATOM     16  C   UNL     1      -3.760   0.401   1.503  1.00  0.00     0.362 C 
BRANCH  16  17
ATOM     17  N   UNL     1      -2.312   0.376   1.341  1.00  0.00    -0.328 N 
ATOM     18  H   UNL     1      -1.941   1.292   1.591  1.00  0.00     0.347 HD
ATOM     19  H   UNL     1      -1.949  -0.359   1.948  1.00  0.00     0.347 HD
BRANCH  17  20
ATOM     20  C   UNL     1      -1.900   0.063  -0.015  1.00  0.00     0.352 C 
BRANCH  20  21
ATOM     21  C   UNL     1      -0.380   0.063  -0.015  1.00  0.00    -0.047 C 
ATOM     22  C   UNL     1       0.924   0.063  -0.015  1.00  0.00     0.010 C 
ENDBRANCH  20  21
ENDBRANCH  17  20
ENDBRANCH  16  17
ENDBRANCH   8  16
ENDBRANCH   5   7
ENDBRANCH   1   5
BRANCH   3  23
ATOM     23  C   UNL     1      -6.375  -5.442  -1.055  1.00  0.00     0.118 C 
BRANCH  23  24
ATOM     24  C   UNL     1      -7.395  -4.364  -1.408  1.00  0.00     0.042 C 
BRANCH  24  25
ATOM     25  C   UNL     1      -8.697  -4.949  -1.912  1.00  0.00     0.118 C 
BRANCH  25  26
ATOM     26  N   UNL     1      -9.498  -5.468  -0.816  1.00  0.00    -0.352 N 
ATOM     27  C   UNL     1     -10.738  -5.071  -0.380  1.00  0.00     0.251 C 
ATOM     28  H   UNL     1      -9.092  -6.211  -0.314  1.00  0.00     0.163 HD
ATOM     29  O   UNL     1     -11.151  -5.455   0.707  1.00  0.00    -0.269 OA
BRANCH  27  30
ATOM     30  C   UNL     1     -11.562  -4.165  -1.212  1.00  0.00     0.039 A 
ATOM     31  C   UNL     1     -12.316  -3.173  -0.582  1.00  0.00     0.014 A 
ATOM     32  C   UNL     1     -11.598  -4.292  -2.603  1.00  0.00     0.014 A 
ATOM     33  C   UNL     1     -13.053  -2.271  -1.351  1.00  0.00     0.010 A 
ATOM     34  C   UNL     1     -12.244  -3.330  -3.371  1.00  0.00     0.010 A 
ATOM     35  C   UNL     1     -12.988  -2.316  -2.754  1.00  0.00    -0.014 A 
BRANCH  35  36
ATOM     36  C   UNL     1     -13.690  -1.314  -3.593  1.00  0.00     0.031 A 
ATOM     37  C   UNL     1     -14.752  -1.753  -4.564  1.00  0.00     0.074 A 
ATOM     38  C   UNL     1     -13.317  -0.020  -3.533  1.00  0.00     0.049 A 
ATOM     39  N   UNL     1     -15.416  -1.042  -5.439  1.00  0.00    -0.248 NA
ATOM     40  C   UNL     1     -15.091  -3.186  -4.578  1.00  0.00     0.031 C 
ATOM     41  C   UNL     1     -12.260   0.517  -2.672  1.00  0.00     0.029 A 
ATOM     42  N   UNL     1     -13.772   1.077  -4.220  1.00  0.00    -0.354 N 
ATOM     43  C   UNL     1     -16.230  -1.940  -6.117  1.00  0.00     0.074 A 
ATOM     44  C   UNL     1     -15.944  -3.255  -5.590  1.00  0.00     0.031 C 
ATOM     45  C   UNL     1     -12.161   1.841  -2.869  1.00  0.00     0.029 A 
ATOM     46  C   UNL     1     -13.111   2.239  -3.901  1.00  0.00     0.049 A 
ATOM     47  H   UNL     1     -14.503   1.035  -4.878  1.00  0.00     0.167 HD
ATOM     48  C   UNL     1     -17.150  -1.686  -7.077  1.00  0.00     0.037 A 
ATOM     49  C   UNL     1     -13.243   3.483  -4.400  1.00  0.00     0.037 A 
ATOM     50  C   UNL     1     -17.455  -0.369  -7.569  1.00  0.00     0.049 A 
ATOM     51  C   UNL     1     -14.270   3.735  -5.469  1.00  0.00     0.074 A 
ATOM     52  C   UNL     1     -18.438   0.006  -8.469  1.00  0.00     0.029 A 
ATOM     53  N   UNL     1     -16.776   0.785  -7.210  1.00  0.00    -0.354 N 
ATOM     54  N   UNL     1     -15.103   2.892  -6.029  1.00  0.00    -0.248 NA
ATOM     55  C   UNL     1     -14.374   5.110  -5.978  1.00  0.00     0.031 C 
ATOM     56  C   UNL     1     -18.313   1.378  -8.701  1.00  0.00     0.029 A 
ATOM     57  C   UNL     1     -17.289   1.867  -7.905  1.00  0.00     0.049 A 
ATOM     58  H   UNL     1     -16.040   0.829  -6.559  1.00  0.00     0.167 HD
ATOM     59  C   UNL     1     -15.838   3.634  -6.944  1.00  0.00     0.074 A 
ATOM     60  C   UNL     1     -15.371   5.001  -6.845  1.00  0.00     0.031 C 
ATOM     61  C   UNL     1     -16.807   3.220  -7.796  1.00  0.00     0.037 A 
BRANCH  48  62
ATOM     62  C   UNL     1     -17.896  -2.850  -7.661  1.00  0.00     0.057 A 
ATOM     63  C   UNL     1     -18.856  -3.561  -6.928  1.00  0.00     0.134 A 
ATOM     64  C   UNL     1     -17.694  -3.227  -8.995  1.00  0.00     0.134 A 
ATOM     65  F   UNL     1     -19.090  -3.259  -5.642  1.00  0.00    -0.206 F 
ATOM     66  C   UNL     1     -19.575  -4.615  -7.495  1.00  0.00     0.040 A 
ATOM     67  C   UNL     1     -18.426  -4.261  -9.581  1.00  0.00     0.040 A 
ATOM     68  F   UNL     1     -16.794  -2.586  -9.756  1.00  0.00    -0.206 F 
ATOM     69  C   UNL     1     -19.367  -4.961  -8.829  1.00  0.00     0.006 A 
ENDBRANCH  48  62
BRANCH  49  70
ATOM     70  C   UNL     1     -12.375   4.582  -3.904  1.00  0.00     0.057 A 
ATOM     71  C   UNL     1     -12.901   5.646  -3.162  1.00  0.00     0.134 A 
ATOM     72  C   UNL     1     -11.000   4.603  -4.172  1.00  0.00     0.134 A 
ATOM     73  F   UNL     1     -14.213   5.693  -2.888  1.00  0.00    -0.206 F 
ATOM     74  C   UNL     1     -12.098   6.701  -2.725  1.00  0.00     0.040 A 
ATOM     75  C   UNL     1     -10.181   5.637  -3.717  1.00  0.00     0.040 A 
ATOM     76  F   UNL     1     -10.431   3.609  -4.871  1.00  0.00    -0.206 F 
ATOM     77  C   UNL     1     -10.732   6.696  -2.999  1.00  0.00     0.006 A 
ENDBRANCH  49  70
BRANCH  61  78
ATOM     78  C   UNL     1     -17.431   4.257  -8.683  1.00  0.00     0.057 A 
ATOM     79  C   UNL     1     -16.736   4.808  -9.768  1.00  0.00     0.134 A 
ATOM     80  C   UNL     1     -18.755   4.667  -8.485  1.00  0.00     0.134 A 
ATOM     81  F   UNL     1     -15.460   4.466 -10.003  1.00  0.00    -0.206 F 
ATOM     82  C   UNL     1     -17.332   5.744 -10.614  1.00  0.00     0.040 A 
ATOM     83  C   UNL     1     -19.371   5.580  -9.341  1.00  0.00     0.040 A 
ATOM     84  F   UNL     1     -19.478   4.170  -7.470  1.00  0.00    -0.206 F 
ATOM     85  C   UNL     1     -18.657   6.125 -10.407  1.00  0.00     0.006 A 
ENDBRANCH  61  78
ENDBRANCH  35  36
ENDBRANCH  27  30
ENDBRANCH  25  26
ENDBRANCH  24  25
ENDBRANCH  23  24
ENDBRANCH   3  23
TORSDOF 15
