REMARK SMILES COc1ccc(CCN2/C(=[NH+]/C(=O)CCC(=O)NCCCNC(=O)c3ccc(-c4c5nc(c(-c6c(F)cccc6F)c6ccc([nH]6)c(-c6c(F)cccc6F)c6nc(c(-c7c(F)cccc7F)c7ccc4[nH]7)C=C6)C=C5)cc3)S[C@@H]3CS(=O)(=O)C[C@@H]32)cc1
REMARK SMILES IDX 16 1 17 2 18 3 15 5 14 6 12 7 9 8 10 9 86 10 11 11 79 12
REMARK SMILES IDX 80 13 85 14 81 16 82 17 13 18 83 19 84 20 8 21 7 22 6 23
REMARK SMILES IDX 3 24 4 25 88 26 5 27 87 28 2 29 1 30 19 31 20 32 21 33 22 34
REMARK SMILES IDX 23 35 24 37 25 38 26 39 78 40 27 41 77 42 28 43 29 44 30 45
REMARK SMILES IDX 71 46 31 47 76 48 70 49 72 50 32 51 75 52 69 53 68 54 33 56
REMARK SMILES IDX 59 57 42 58 58 59 43 60 46 61 57 62 73 63 44 64 45 65 56 67
REMARK SMILES IDX 74 68 47 69 34 70 35 71 40 72 36 73 37 74 39 75 41 76 38 77
REMARK SMILES IDX 60 78 61 79 66 80 62 81 63 82 65 83 67 84 64 85 48 86 49 87
REMARK SMILES IDX 54 88 50 89 51 90 53 91 55 92 52 93
REMARK H PARENT 18 4 11 15 22 36 72 55 46 66
REMARK Flexibility Score: inf
ROOT
ATOM      1  C   UNL     1       0.004  10.115   2.178  1.00  0.00     0.220 C 
ATOM      2  O   UNL     1       1.075  10.689   2.389  1.00  0.00    -0.275 OA
ATOM      3  N   UNL     1      -0.041   8.763   2.338  1.00  0.00    -0.356 N 
ATOM      4  H   UNL     1       0.836   8.357   2.529  1.00  0.00     0.163 HD
ENDROOT
BRANCH   1   5
ATOM      5  C   UNL     1      -1.213  10.898   1.752  1.00  0.00     0.112 C 
BRANCH   5   6
ATOM      6  C   UNL     1      -0.937  11.599   0.422  1.00  0.00     0.138 C 
BRANCH   6   7
ATOM      7  C   UNL     1      -1.443  10.682  -0.649  1.00  0.00     0.308 C 
ATOM      8  N   UNL     1      -0.176   7.602  -2.085  1.00  0.00    -0.251 N 
ATOM      9  C   UNL     1      -0.800   8.863  -1.934  1.00  0.00     0.314 C 
ATOM     10  C   UNL     1      -1.060   6.720  -3.091  1.00  0.00     0.206 C 
ATOM     11  N   UNL     1      -0.546   9.693  -0.980  1.00  0.00    -0.205 N 
ATOM     12  S   UNL     1      -2.073   9.115  -3.136  1.00  0.00    -0.030 SA
ATOM     13  C   UNL     1      -2.464   7.390  -3.163  1.00  0.00     0.120 C 
ATOM     14  C   UNL     1      -1.632   5.260  -2.985  1.00  0.00     0.187 C 
ATOM     15  H   UNL     1       0.301   9.618  -0.483  1.00  0.00     0.316 HD
ATOM     16  C   UNL     1      -3.352   6.897  -2.008  1.00  0.00     0.156 C 
ATOM     17  S   UNL     1      -3.037   5.162  -1.939  1.00  0.00     0.155 S 
ATOM     18  O   UNL     1      -2.642  10.718  -0.925  1.00  0.00    -0.247 OA
ATOM     19  O   UNL     1      -2.638   4.753  -0.599  1.00  0.00    -0.229 OA
ATOM     20  O   UNL     1      -4.074   4.452  -2.643  1.00  0.00    -0.229 OA
BRANCH   8  21
ATOM     21  C   UNL     1       1.470   7.580  -1.688  1.00  0.00     0.242 C 
BRANCH  21  22
ATOM     22  C   UNL     1       2.486   6.614  -0.484  1.00  0.00     0.081 C 
BRANCH  22  23
ATOM     23  C   UNL     1       2.650   5.072   0.038  1.00  0.00    -0.044 A 
ATOM     24  C   UNL     1       2.293   2.216   0.137  1.00  0.00     0.118 A 
ATOM     25  C   UNL     1       1.579   3.017   1.002  1.00  0.00     0.046 A 
ATOM     26  C   UNL     1       3.378   2.796  -0.524  1.00  0.00     0.046 A 
ATOM     27  C   UNL     1       1.869   4.411   1.043  1.00  0.00     0.007 A 
ATOM     28  C   UNL     1       3.552   4.204  -0.588  1.00  0.00     0.007 A 
BRANCH  24  29
ATOM     29  O   UNL     1       1.890   1.010  -0.361  1.00  0.00    -0.497 OA
ATOM     30  C   UNL     1       1.427  -0.002   0.515  1.00  0.00     0.278 C 
ENDBRANCH  24  29
ENDBRANCH  22  23
ENDBRANCH  21  22
ENDBRANCH   8  21
ENDBRANCH   6   7
ENDBRANCH   5   6
ENDBRANCH   1   5
BRANCH   3  31
ATOM     31  C   UNL     1      -1.139   7.795   2.281  1.00  0.00     0.117 C 
BRANCH  31  32
ATOM     32  C   UNL     1      -1.406   7.107   0.903  1.00  0.00     0.042 C 
BRANCH  32  33
ATOM     33  C   UNL     1      -0.123   6.535   0.273  1.00  0.00     0.118 C 
BRANCH  33  34
ATOM     34  N   UNL     1      -0.009   5.341  -0.869  1.00  0.00    -0.352 N 
ATOM     35  C   UNL     1       0.864   4.715  -1.944  1.00  0.00     0.251 C 
ATOM     36  H   UNL     1      -0.849   4.829  -0.840  1.00  0.00     0.163 HD
ATOM     37  O   UNL     1       0.823   3.471  -1.929  1.00  0.00    -0.269 OA
BRANCH  35  38
ATOM     38  C   UNL     1       1.347   5.178  -3.405  1.00  0.00     0.039 A 
ATOM     39  C   UNL     1       0.747   4.509  -4.507  1.00  0.00     0.014 A 
ATOM     40  C   UNL     1       2.338   6.065  -3.829  1.00  0.00     0.014 A 
ATOM     41  C   UNL     1       0.813   4.962  -5.854  1.00  0.00     0.010 A 
ATOM     42  C   UNL     1       2.364   6.602  -5.156  1.00  0.00     0.010 A 
ATOM     43  C   UNL     1       1.558   6.089  -6.185  1.00  0.00    -0.014 A 
BRANCH  43  44
ATOM     44  C   UNL     1       1.687   6.591  -7.599  1.00  0.00     0.031 A 
ATOM     45  C   UNL     1       2.998   6.365  -8.312  1.00  0.00     0.074 A 
ATOM     46  C   UNL     1       0.709   7.280  -8.233  1.00  0.00     0.049 A 
ATOM     47  N   UNL     1       3.440   6.846  -9.447  1.00  0.00    -0.248 NA
ATOM     48  C   UNL     1       3.961   5.499  -7.614  1.00  0.00     0.031 C 
ATOM     49  C   UNL     1      -0.616   7.573  -7.686  1.00  0.00     0.029 A 
ATOM     50  N   UNL     1       0.686   7.892  -9.473  1.00  0.00    -0.354 N 
ATOM     51  C   UNL     1       4.745   6.376  -9.571  1.00  0.00     0.074 A 
ATOM     52  C   UNL     1       5.035   5.616  -8.377  1.00  0.00     0.031 C 
ATOM     53  C   UNL     1      -1.309   8.321  -8.566  1.00  0.00     0.029 A 
ATOM     54  C   UNL     1      -0.474   8.594  -9.735  1.00  0.00     0.049 A 
ATOM     55  H   UNL     1       1.432   7.833 -10.113  1.00  0.00     0.167 HD
ATOM     56  C   UNL     1       5.621   6.548 -10.590  1.00  0.00     0.037 A 
ATOM     57  C   UNL     1      -0.814   9.381 -10.782  1.00  0.00     0.037 A 
ATOM     58  C   UNL     1       5.319   7.285 -11.787  1.00  0.00     0.049 A 
ATOM     59  C   UNL     1       0.181   9.579 -11.904  1.00  0.00     0.074 A 
ATOM     60  C   UNL     1       6.113   7.491 -12.901  1.00  0.00     0.029 A 
ATOM     61  N   UNL     1       4.118   7.940 -12.022  1.00  0.00    -0.354 N 
ATOM     62  N   UNL     1       1.397   9.099 -12.021  1.00  0.00    -0.248 NA
ATOM     63  C   UNL     1      -0.236  10.423 -13.037  1.00  0.00     0.031 C 
ATOM     64  C   UNL     1       5.410   8.312 -13.789  1.00  0.00     0.029 A 
ATOM     65  C   UNL     1       4.155   8.564 -13.255  1.00  0.00     0.049 A 
ATOM     66  H   UNL     1       3.353   7.957 -11.402  1.00  0.00     0.167 HD
ATOM     67  C   UNL     1       1.872   9.546 -13.249  1.00  0.00     0.074 A 
ATOM     68  C   UNL     1       0.814  10.336 -13.843  1.00  0.00     0.031 C 
ATOM     69  C   UNL     1       3.074   9.321 -13.835  1.00  0.00     0.037 A 
BRANCH  56  70
ATOM     70  C   UNL     1       6.990   5.940 -10.438  1.00  0.00     0.057 A 
ATOM     71  C   UNL     1       7.189   4.552 -10.407  1.00  0.00     0.134 A 
ATOM     72  C   UNL     1       8.125   6.752 -10.310  1.00  0.00     0.134 A 
ATOM     73  F   UNL     1       6.147   3.713 -10.509  1.00  0.00    -0.206 F 
ATOM     74  C   UNL     1       8.456   3.997 -10.210  1.00  0.00     0.040 A 
ATOM     75  C   UNL     1       9.401   6.208 -10.148  1.00  0.00     0.040 A 
ATOM     76  F   UNL     1       8.014   8.089 -10.338  1.00  0.00    -0.206 F 
ATOM     77  C   UNL     1       9.567   4.827 -10.084  1.00  0.00     0.006 A 
ENDBRANCH  56  70
BRANCH  57  78
ATOM     78  C   UNL     1      -2.151  10.047 -10.839  1.00  0.00     0.057 A 
ATOM     79  C   UNL     1      -3.110   9.680 -11.794  1.00  0.00     0.134 A 
ATOM     80  C   UNL     1      -2.499  11.082  -9.961  1.00  0.00     0.134 A 
ATOM     81  F   UNL     1      -2.834   8.721 -12.691  1.00  0.00    -0.206 F 
ATOM     82  C   UNL     1      -4.354  10.314 -11.878  1.00  0.00     0.040 A 
ATOM     83  C   UNL     1      -3.750  11.709 -10.016  1.00  0.00     0.040 A 
ATOM     84  F   UNL     1      -1.631  11.498  -9.027  1.00  0.00    -0.206 F 
ATOM     85  C   UNL     1      -4.680  11.327 -10.980  1.00  0.00     0.006 A 
ENDBRANCH  57  78
BRANCH  69  86
ATOM     86  C   UNL     1       3.297   9.876 -15.212  1.00  0.00     0.057 A 
ATOM     87  C   UNL     1       3.523  11.239 -15.437  1.00  0.00     0.134 A 
ATOM     88  C   UNL     1       3.385   9.013 -16.313  1.00  0.00     0.134 A 
ATOM     89  F   UNL     1       3.445  12.117 -14.427  1.00  0.00    -0.206 F 
ATOM     90  C   UNL     1       3.822  11.725 -16.711  1.00  0.00     0.040 A 
ATOM     91  C   UNL     1       3.710   9.482 -17.585  1.00  0.00     0.040 A 
ATOM     92  F   UNL     1       3.191   7.694 -16.160  1.00  0.00    -0.206 F 
ATOM     93  C   UNL     1       3.929  10.843 -17.787  1.00  0.00     0.006 A 
ENDBRANCH  69  86
ENDBRANCH  43  44
ENDBRANCH  35  38
ENDBRANCH  33  34
ENDBRANCH  32  33
ENDBRANCH  31  32
ENDBRANCH   3  31
TORSDOF 16
