REMARK SMILES CC#CC[C@H](C(=O)NCCCNC(=O)c1ccc(-c2c3nc(c(-c4c(F)cccc4F)c4ccc([nH]4)c(-c4c(F)cccc4F)c4nc(c(-c5c(F)cccc5F)c5ccc2[nH]5)C=C4)C=C3)cc1)c1cccc(Br)c1
REMARK SMILES IDX 10 1 9 2 8 3 6 4 7 5 5 7 4 8 3 9 1 10 2 11 69 12 70 13 75 14
REMARK SMILES IDX 71 15 73 16 72 17 74 18 11 19 12 20 13 21 14 23 15 24 16 25
REMARK SMILES IDX 68 26 17 27 67 28 18 29 19 30 20 31 61 32 21 33 66 34 60 35
REMARK SMILES IDX 62 36 22 37 65 38 59 39 58 40 23 42 49 43 32 44 48 45 33 46
REMARK SMILES IDX 36 47 47 48 63 49 34 50 35 51 46 53 64 54 37 55 24 56 25 57
REMARK SMILES IDX 30 58 26 59 27 60 29 61 31 62 28 63 50 64 51 65 56 66 52 67
REMARK SMILES IDX 53 68 55 69 57 70 54 71 38 72 39 73 44 74 40 75 41 76 43 77
REMARK SMILES IDX 45 78 42 79
REMARK H PARENT 8 6 12 22 62 41 36 52
REMARK Flexibility Score: inf
ROOT
ATOM      1  C   UNL     1      -1.752  -6.674   0.511  1.00  0.00     0.042 C 
ENDROOT
BRANCH   1   2
ATOM      2  C   UNL     1      -1.474  -6.122  -0.870  1.00  0.00     0.117 C 
BRANCH   2   3
ATOM      3  N   UNL     1      -1.254  -4.684  -0.901  1.00  0.00    -0.355 N 
ATOM      4  C   UNL     1      -0.350  -3.959  -1.625  1.00  0.00     0.228 C 
ATOM      5  O   UNL     1      -0.500  -2.733  -1.644  1.00  0.00    -0.274 OA
ATOM      6  H   UNL     1      -1.843  -4.156  -0.315  1.00  0.00     0.163 HD
BRANCH   4   7
ATOM      7  C   UNL     1       0.868  -4.600  -2.307  1.00  0.00     0.120 C 
BRANCH   7   8
ATOM      8  C   UNL     1       1.927  -4.764  -1.150  1.00  0.00     0.107 C 
BRANCH   8   9
ATOM      9  C   UNL     1       1.933  -6.197  -0.641  1.00  0.00    -0.102 C 
ATOM     10  C   UNL     1       1.945  -8.857   0.304  1.00  0.00     0.107 C 
ATOM     11  C   UNL     1       1.939  -7.425  -0.205  1.00  0.00    -0.107 C 
ENDBRANCH   8   9
ENDBRANCH   7   8
BRANCH   7  12
ATOM     12  C   UNL     1       0.520  -5.788  -3.240  1.00  0.00    -0.034 A 
ATOM     13  C   UNL     1      -0.748  -5.864  -3.853  1.00  0.00     0.004 A 
ATOM     14  C   UNL     1       1.368  -6.898  -3.392  1.00  0.00     0.020 A 
ATOM     15  C   UNL     1      -1.244  -7.083  -4.332  1.00  0.00     0.001 A 
ATOM     16  C   UNL     1       0.862  -8.121  -3.847  1.00  0.00     0.018 A 
ATOM     17  C   UNL     1      -0.456  -8.228  -4.277  1.00  0.00     0.016 A 
ATOM     18  Br  UNL     1       1.942  -9.673  -3.760  1.00  0.00    -0.051 Br
ENDBRANCH   7  12
ENDBRANCH   4   7
ENDBRANCH   2   3
ENDBRANCH   1   2
BRANCH   1  19
ATOM     19  C   UNL     1      -3.035  -6.154   1.128  1.00  0.00     0.118 C 
BRANCH  19  20
ATOM     20  N   UNL     1      -4.229  -6.511   0.368  1.00  0.00    -0.352 N 
ATOM     21  C   UNL     1      -5.277  -7.343   0.676  1.00  0.00     0.251 C 
ATOM     22  H   UNL     1      -4.293  -6.083  -0.516  1.00  0.00     0.163 HD
ATOM     23  O   UNL     1      -6.103  -7.623  -0.193  1.00  0.00    -0.269 OA
BRANCH  21  24
ATOM     24  C   UNL     1      -5.406  -7.930   2.026  1.00  0.00     0.039 A 
ATOM     25  C   UNL     1      -5.871  -9.241   2.155  1.00  0.00     0.014 A 
ATOM     26  C   UNL     1      -5.072  -7.200   3.168  1.00  0.00     0.014 A 
ATOM     27  C   UNL     1      -5.920  -9.837   3.417  1.00  0.00     0.010 A 
ATOM     28  C   UNL     1      -4.990  -7.836   4.400  1.00  0.00     0.010 A 
ATOM     29  C   UNL     1      -5.431  -9.156   4.545  1.00  0.00    -0.014 A 
BRANCH  29  30
ATOM     30  C   UNL     1      -5.393  -9.805   5.880  1.00  0.00     0.031 A 
ATOM     31  C   UNL     1      -6.149  -9.210   7.038  1.00  0.00     0.074 A 
ATOM     32  C   UNL     1      -4.636 -10.905   6.062  1.00  0.00     0.049 A 
ATOM     33  N   UNL     1      -6.230  -9.630   8.276  1.00  0.00    -0.248 NA
ATOM     34  C   UNL     1      -6.885  -7.961   6.784  1.00  0.00     0.031 C 
ATOM     35  C   UNL     1      -3.801 -11.538   5.038  1.00  0.00     0.029 A 
ATOM     36  N   UNL     1      -4.451 -11.690   7.171  1.00  0.00    -0.354 N 
ATOM     37  C   UNL     1      -7.014  -8.695   8.942  1.00  0.00     0.074 A 
ATOM     38  C   UNL     1      -7.317  -7.646   7.995  1.00  0.00     0.031 C 
ATOM     39  C   UNL     1      -3.237 -12.642   5.552  1.00  0.00     0.029 A 
ATOM     40  C   UNL     1      -3.635 -12.773   6.949  1.00  0.00     0.049 A 
ATOM     41  H   UNL     1      -4.864 -11.495   8.044  1.00  0.00     0.167 HD
ATOM     42  C   UNL     1      -7.472  -8.723  10.216  1.00  0.00     0.037 A 
ATOM     43  C   UNL     1      -3.258 -13.764   7.777  1.00  0.00     0.037 A 
ATOM     44  C   UNL     1      -7.181  -9.777  11.152  1.00  0.00     0.049 A 
ATOM     45  C   UNL     1      -3.778 -13.773   9.188  1.00  0.00     0.074 A 
ATOM     46  C   UNL     1      -7.633  -9.928  12.451  1.00  0.00     0.029 A 
ATOM     47  N   UNL     1      -6.355 -10.860  10.889  1.00  0.00    -0.354 N 
ATOM     48  N   UNL     1      -4.581 -12.923   9.782  1.00  0.00    -0.248 NA
ATOM     49  C   UNL     1      -3.347 -14.890  10.039  1.00  0.00     0.031 C 
ATOM     50  C   UNL     1      -7.040 -11.075  12.990  1.00  0.00     0.029 A 
ATOM     51  C   UNL     1      -6.267 -11.673  12.008  1.00  0.00     0.049 A 
ATOM     52  H   UNL     1      -5.899 -11.027  10.032  1.00  0.00     0.167 HD
ATOM     53  C   UNL     1      -4.776 -13.418  11.065  1.00  0.00     0.074 A 
ATOM     54  C   UNL     1      -4.024 -14.653  11.153  1.00  0.00     0.031 C 
ATOM     55  C   UNL     1      -5.511 -12.898  12.080  1.00  0.00     0.037 A 
BRANCH  42  56
ATOM     56  C   UNL     1      -8.340  -7.579  10.661  1.00  0.00     0.057 A 
ATOM     57  C   UNL     1      -9.622  -7.371  10.132  1.00  0.00     0.134 A 
ATOM     58  C   UNL     1      -7.894  -6.677  11.636  1.00  0.00     0.134 A 
ATOM     59  F   UNL     1     -10.107  -8.188   9.184  1.00  0.00    -0.206 F 
ATOM     60  C   UNL     1     -10.412  -6.290  10.527  1.00  0.00     0.040 A 
ATOM     61  C   UNL     1      -8.689  -5.612  12.064  1.00  0.00     0.040 A 
ATOM     62  F   UNL     1      -6.681  -6.816  12.190  1.00  0.00    -0.206 F 
ATOM     63  C   UNL     1      -9.948  -5.410  11.502  1.00  0.00     0.006 A 
ENDBRANCH  42  56
BRANCH  43  64
ATOM     64  C   UNL     1      -2.380 -14.855   7.282  1.00  0.00     0.057 A 
ATOM     65  C   UNL     1      -2.868 -16.158   7.126  1.00  0.00     0.134 A 
ATOM     66  C   UNL     1      -1.037 -14.627   6.959  1.00  0.00     0.134 A 
ATOM     67  F   UNL     1      -4.141 -16.444   7.434  1.00  0.00    -0.206 F 
ATOM     68  C   UNL     1      -2.047 -17.200   6.689  1.00  0.00     0.040 A 
ATOM     69  C   UNL     1      -0.213 -15.653   6.494  1.00  0.00     0.040 A 
ATOM     70  F   UNL     1      -0.511 -13.399   7.076  1.00  0.00    -0.206 F 
ATOM     71  C   UNL     1      -0.716 -16.946   6.367  1.00  0.00     0.006 A 
ENDBRANCH  43  64
BRANCH  55  72
ATOM     72  C   UNL     1      -5.562 -13.689  13.356  1.00  0.00     0.057 A 
ATOM     73  C   UNL     1      -4.444 -13.836  14.187  1.00  0.00     0.134 A 
ATOM     74  C   UNL     1      -6.751 -14.312  13.759  1.00  0.00     0.134 A 
ATOM     75  F   UNL     1      -3.271 -13.275  13.855  1.00  0.00    -0.206 F 
ATOM     76  C   UNL     1      -4.494 -14.611  15.348  1.00  0.00     0.040 A 
ATOM     77  C   UNL     1      -6.822 -15.060  14.935  1.00  0.00     0.040 A 
ATOM     78  F   UNL     1      -7.864 -14.201  13.018  1.00  0.00    -0.206 F 
ATOM     79  C   UNL     1      -5.688 -15.222  15.726  1.00  0.00     0.006 A 
ENDBRANCH  55  72
ENDBRANCH  29  30
ENDBRANCH  21  24
ENDBRANCH  19  20
ENDBRANCH   1  19
TORSDOF 13
