REMARK SMILES CC(C)c1ocnc1C(=O)N[C@H](CC(=O)NCCCNC(=O)c1ccc(-c2c3nc(c(-c4c(F)cccc4F)c4ccc([nH]4)c(-c4c(F)cccc4F)c4nc(c(-c5c(F)cccc5F)c5ccc2[nH]5)C=C4)C=C3)cc1)c1ccccc1Cl
REMARK SMILES IDX 17 1 16 2 14 3 15 4 13 6 12 7 11 8 9 9 10 10 8 12 4 13 5 14
REMARK SMILES IDX 6 15 7 16 2 17 1 18 3 19 77 20 78 21 82 22 79 23 81 24 83 25
REMARK SMILES IDX 80 26 18 27 19 28 20 29 21 30 22 32 23 33 24 34 76 35 25 36
REMARK SMILES IDX 75 37 26 38 27 39 28 40 69 41 29 42 74 43 68 44 70 45 30 46
REMARK SMILES IDX 73 47 67 48 66 49 31 51 57 52 40 53 56 54 41 55 44 56 55 57
REMARK SMILES IDX 71 58 42 59 43 60 54 62 72 63 45 64 32 65 33 66 38 67 34 68
REMARK SMILES IDX 35 69 37 70 39 71 36 72 58 73 59 74 64 75 60 76 61 77 63 78
REMARK SMILES IDX 65 79 62 80 46 81 47 82 52 83 48 84 49 85 51 86 53 87 50 88
REMARK H PARENT 16 5 11 11 20 31 70 50 44 61
REMARK Flexibility Score: inf
ROOT
ATOM      1  C   UNL     1      -2.275   0.661  -0.967  1.00  0.00     0.117 C 
ENDROOT
BRANCH   1   2
ATOM      2  N   UNL     1      -1.665   0.344   0.308  1.00  0.00    -0.356 N 
ATOM      3  C   UNL     1      -1.613  -0.823   0.997  1.00  0.00     0.222 C 
ATOM      4  O   UNL     1      -1.097  -0.796   2.116  1.00  0.00    -0.275 OA
ATOM      5  H   UNL     1      -1.214   1.101   0.747  1.00  0.00     0.163 HD
BRANCH   3   6
ATOM      6  C   UNL     1      -2.124  -2.111   0.395  1.00  0.00     0.129 C 
BRANCH   6   7
ATOM      7  C   UNL     1      -3.662  -2.277   0.307  1.00  0.00     0.123 C 
BRANCH   7   8
ATOM      8  N   UNL     1      -4.025  -2.912  -0.966  1.00  0.00    -0.343 N 
ATOM      9  C   UNL     1      -3.676  -4.108  -1.558  1.00  0.00     0.274 C 
ATOM     10  O   UNL     1      -3.953  -4.215  -2.754  1.00  0.00    -0.267 OA
ATOM     11  H   UNL     1      -4.644  -2.373  -1.509  1.00  0.00     0.164 HD
BRANCH   9  12
ATOM     12  C   UNL     1      -3.049  -5.184  -0.787  1.00  0.00     0.170 A 
ATOM     13  C   UNL     1      -3.029  -6.550  -1.061  1.00  0.00     0.139 A 
ATOM     14  O   UNL     1      -2.375  -7.163  -0.014  1.00  0.00    -0.447 OA
ATOM     15  C   UNL     1      -2.042  -6.159   0.824  1.00  0.00     0.309 A 
ATOM     16  N   UNL     1      -2.411  -4.971   0.425  1.00  0.00    -0.211 NA
BRANCH  13  17
ATOM     17  C   UNL     1      -3.536  -7.524  -2.079  1.00  0.00     0.052 C 
ATOM     18  C   UNL     1      -4.554  -6.988  -3.074  1.00  0.00     0.016 C 
ATOM     19  C   UNL     1      -2.366  -8.176  -2.822  1.00  0.00     0.016 C 
ENDBRANCH  13  17
ENDBRANCH   9  12
ENDBRANCH   7   8
BRANCH   7  20
ATOM     20  C   UNL     1      -4.361  -2.747   1.591  1.00  0.00    -0.006 A 
ATOM     21  C   UNL     1      -4.093  -1.985   2.757  1.00  0.00     0.007 A 
ATOM     22  C   UNL     1      -5.265  -3.813   1.756  1.00  0.00     0.046 A 
ATOM     23  C   UNL     1      -4.574  -2.335   4.021  1.00  0.00     0.000 A 
ATOM     24  C   UNL     1      -5.714  -4.190   3.037  1.00  0.00     0.021 A 
ATOM     25  Cl  UNL     1      -6.019  -4.686   0.468  1.00  0.00    -0.084 Cl
ATOM     26  C   UNL     1      -5.356  -3.466   4.168  1.00  0.00     0.002 A 
ENDBRANCH   7  20
ENDBRANCH   6   7
ENDBRANCH   3   6
ENDBRANCH   1   2
BRANCH   1  27
ATOM     27  C   UNL     1      -3.547   1.486  -0.787  1.00  0.00     0.042 C 
BRANCH  27  28
ATOM     28  C   UNL     1      -3.367   2.763   0.031  1.00  0.00     0.118 C 
BRANCH  28  29
ATOM     29  N   UNL     1      -2.481   3.726  -0.600  1.00  0.00    -0.352 N 
ATOM     30  C   UNL     1      -2.661   5.075  -0.787  1.00  0.00     0.251 C 
ATOM     31  H   UNL     1      -1.632   3.361  -0.941  1.00  0.00     0.163 HD
ATOM     32  O   UNL     1      -1.861   5.713  -1.464  1.00  0.00    -0.269 OA
BRANCH  30  33
ATOM     33  C   UNL     1      -3.835   5.754  -0.199  1.00  0.00     0.039 A 
ATOM     34  C   UNL     1      -4.575   6.628  -1.000  1.00  0.00     0.014 A 
ATOM     35  C   UNL     1      -4.200   5.543   1.135  1.00  0.00     0.014 A 
ATOM     36  C   UNL     1      -5.714   7.247  -0.483  1.00  0.00     0.010 A 
ATOM     37  C   UNL     1      -5.370   6.114   1.631  1.00  0.00     0.010 A 
ATOM     38  C   UNL     1      -6.135   6.974   0.829  1.00  0.00    -0.014 A 
BRANCH  38  39
ATOM     39  C   UNL     1      -7.369   7.589   1.377  1.00  0.00     0.031 A 
ATOM     40  C   UNL     1      -7.283   8.578   2.505  1.00  0.00     0.074 A 
ATOM     41  C   UNL     1      -8.571   7.216   0.897  1.00  0.00     0.049 A 
ATOM     42  N   UNL     1      -8.248   9.177   3.155  1.00  0.00    -0.248 NA
ATOM     43  C   UNL     1      -5.934   8.921   2.982  1.00  0.00     0.031 C 
ATOM     44  C   UNL     1      -8.790   6.232  -0.165  1.00  0.00     0.029 A 
ATOM     45  N   UNL     1      -9.835   7.618   1.245  1.00  0.00    -0.354 N 
ATOM     46  C   UNL     1      -7.626   9.951   4.126  1.00  0.00     0.074 A 
ATOM     47  C   UNL     1      -6.203   9.713   4.009  1.00  0.00     0.031 C 
ATOM     48  C   UNL     1     -10.109   6.123  -0.395  1.00  0.00     0.029 A 
ATOM     49  C   UNL     1     -10.827   7.006   0.518  1.00  0.00     0.049 A 
ATOM     50  H   UNL     1     -10.015   8.282   1.950  1.00  0.00     0.167 HD
ATOM     51  C   UNL     1      -8.187  10.799   5.021  1.00  0.00     0.037 A 
ATOM     52  C   UNL     1     -12.164   7.144   0.582  1.00  0.00     0.037 A 
ATOM     53  C   UNL     1      -9.598  11.060   5.117  1.00  0.00     0.049 A 
ATOM     54  C   UNL     1     -12.761   8.107   1.567  1.00  0.00     0.074 A 
ATOM     55  C   UNL     1     -10.258  11.943   5.954  1.00  0.00     0.029 A 
ATOM     56  N   UNL     1     -10.568  10.442   4.343  1.00  0.00    -0.354 N 
ATOM     57  N   UNL     1     -12.157   8.871   2.445  1.00  0.00    -0.248 NA
ATOM     58  C   UNL     1     -14.226   8.232   1.567  1.00  0.00     0.031 C 
ATOM     59  C   UNL     1     -11.631  11.840   5.704  1.00  0.00     0.029 A 
ATOM     60  C   UNL     1     -11.822  10.917   4.689  1.00  0.00     0.049 A 
ATOM     61  H   UNL     1     -10.391   9.765   3.649  1.00  0.00     0.167 HD
ATOM     62  C   UNL     1     -13.162   9.583   3.084  1.00  0.00     0.074 A 
ATOM     63  C   UNL     1     -14.415   9.169   2.487  1.00  0.00     0.031 C 
ATOM     64  C   UNL     1     -13.057  10.498   4.079  1.00  0.00     0.037 A 
BRANCH  51  65
ATOM     65  C   UNL     1      -7.264  11.512   5.963  1.00  0.00     0.057 A 
ATOM     66  C   UNL     1      -6.428  12.549   5.529  1.00  0.00     0.134 A 
ATOM     67  C   UNL     1      -7.224  11.174   7.321  1.00  0.00     0.134 A 
ATOM     68  F   UNL     1      -6.409  12.911   4.237  1.00  0.00    -0.206 F 
ATOM     69  C   UNL     1      -5.569  13.210   6.408  1.00  0.00     0.040 A 
ATOM     70  C   UNL     1      -6.385  11.842   8.214  1.00  0.00     0.040 A 
ATOM     71  F   UNL     1      -8.002  10.192   7.802  1.00  0.00    -0.206 F 
ATOM     72  C   UNL     1      -5.550  12.860   7.757  1.00  0.00     0.006 A 
ENDBRANCH  51  65
BRANCH  52  73
ATOM     73  C   UNL     1     -13.030   6.372  -0.342  1.00  0.00     0.057 A 
ATOM     74  C   UNL     1     -13.675   6.999  -1.415  1.00  0.00     0.134 A 
ATOM     75  C   UNL     1     -13.233   4.997  -0.180  1.00  0.00     0.134 A 
ATOM     76  F   UNL     1     -13.531   8.319  -1.609  1.00  0.00    -0.206 F 
ATOM     77  C   UNL     1     -14.501   6.289  -2.286  1.00  0.00     0.040 A 
ATOM     78  C   UNL     1     -14.041   4.271  -1.055  1.00  0.00     0.040 A 
ATOM     79  F   UNL     1     -12.637   4.339   0.826  1.00  0.00    -0.206 F 
ATOM     80  C   UNL     1     -14.682   4.919  -2.110  1.00  0.00     0.006 A 
ENDBRANCH  52  73
BRANCH  64  81
ATOM     81  C   UNL     1     -14.327  11.130   4.561  1.00  0.00     0.057 A 
ATOM     82  C   UNL     1     -15.226  10.441   5.382  1.00  0.00     0.134 A 
ATOM     83  C   UNL     1     -14.634  12.455   4.227  1.00  0.00     0.134 A 
ATOM     84  F   UNL     1     -14.993   9.165   5.725  1.00  0.00    -0.206 F 
ATOM     85  C   UNL     1     -16.399  11.042   5.841  1.00  0.00     0.040 A 
ATOM     86  C   UNL     1     -15.794  13.073   4.696  1.00  0.00     0.040 A 
ATOM     87  F   UNL     1     -13.809  13.170   3.447  1.00  0.00    -0.206 F 
ATOM     88  C   UNL     1     -16.682  12.365   5.503  1.00  0.00     0.006 A 
ENDBRANCH  64  81
ENDBRANCH  38  39
ENDBRANCH  30  33
ENDBRANCH  28  29
ENDBRANCH  27  28
ENDBRANCH   1  27
TORSDOF 15
