REMARK SMILES CC(=O)N[C@@H](Cc1cc(Br)c(O)c(Br)c1)C(=O)NCCCNC(=O)c1ccc(-c2c3nc(c(-c4c(F)cccc4F)c4ccc([nH]4)c(-c4c(F)cccc4F)c4nc(c(-c5c(F)cccc5F)c5ccc2[nH]5)C=C4)C=C3)cc1
REMARK SMILES IDX 19 1 18 2 16 3 17 4 5 6 4 7 1 8 2 9 3 10 6 12 7 13 8 14
REMARK SMILES IDX 15 15 9 16 13 17 10 18 11 19 14 20 12 21 20 23 21 24 22 25
REMARK SMILES IDX 23 26 24 28 25 29 26 30 78 31 27 32 77 33 28 34 29 35 30 36
REMARK SMILES IDX 71 37 31 38 76 39 70 40 72 41 32 42 75 43 69 44 68 45 33 47
REMARK SMILES IDX 59 48 42 49 58 50 43 51 46 52 57 53 73 54 44 55 45 56 56 58
REMARK SMILES IDX 74 59 47 60 34 61 35 62 40 63 36 64 37 65 39 66 41 67 38 68
REMARK SMILES IDX 60 69 61 70 66 71 62 72 63 73 65 74 67 75 64 76 48 77 49 78
REMARK SMILES IDX 54 79 50 80 51 81 53 82 55 83 52 84
REMARK H PARENT 18 5 4 11 12 22 22 27 72 46 46 57
REMARK Flexibility Score: inf
ROOT
ATOM      1  C   UNL     1       0.241  -4.321   3.040  1.00  0.00     0.117 C 
ENDROOT
BRANCH   1   2
ATOM      2  N   UNL     1       0.269  -4.341   1.594  1.00  0.00    -0.354 N 
ATOM      3  C   UNL     1       1.144  -3.730   0.742  1.00  0.00     0.242 C 
ATOM      4  O   UNL     1       1.260  -4.227  -0.384  1.00  0.00    -0.273 OA
ATOM      5  H   UNL     1      -0.443  -4.869   1.164  1.00  0.00     0.163 HD
BRANCH   3   6
ATOM      6  C   UNL     1       2.046  -2.539   1.156  1.00  0.00     0.175 C 
BRANCH   6   7
ATOM      7  N   UNL     1       1.323  -1.500   1.896  1.00  0.00    -0.344 N 
ATOM      8  C   UNL     1       1.044   0.055  -0.003  1.00  0.00     0.114 C 
ATOM      9  C   UNL     1       0.742  -0.368   1.407  1.00  0.00     0.217 C 
ATOM     10  O   UNL     1       0.006   0.286   2.142  1.00  0.00    -0.275 OA
ATOM     11  H   UNL     1       1.247  -1.638   2.868  1.00  0.00     0.164 HD
ENDBRANCH   6   7
BRANCH   6  12
ATOM     12  C   UNL     1       3.400  -2.943   1.789  1.00  0.00     0.070 C 
BRANCH  12  13
ATOM     13  C   UNL     1       3.372  -3.664   3.117  1.00  0.00    -0.043 A 
ATOM     14  C   UNL     1       3.518  -5.060   3.168  1.00  0.00     0.023 A 
ATOM     15  C   UNL     1       3.134  -2.966   4.312  1.00  0.00     0.023 A 
ATOM     16  C   UNL     1       3.326  -5.749   4.372  1.00  0.00     0.061 A 
ATOM     17  C   UNL     1       2.929  -3.660   5.511  1.00  0.00     0.061 A 
ATOM     18  Br  UNL     1       3.418  -7.642   4.361  1.00  0.00    -0.047 Br
ATOM     19  C   UNL     1       2.996  -5.055   5.539  1.00  0.00     0.143 A 
ATOM     20  Br  UNL     1       2.460  -2.661   7.054  1.00  0.00    -0.047 Br
BRANCH  19  21
ATOM     21  O   UNL     1       2.693  -5.722   6.696  1.00  0.00    -0.506 OA
ATOM     22  H   UNL     1       2.735  -6.657   6.723  1.00  0.00     0.293 HD
ENDBRANCH  19  21
ENDBRANCH  12  13
ENDBRANCH   6  12
ENDBRANCH   3   6
ENDBRANCH   1   2
BRANCH   1  23
ATOM     23  C   UNL     1      -1.133  -4.396   3.664  1.00  0.00     0.042 C 
BRANCH  23  24
ATOM     24  C   UNL     1      -1.762  -5.777   3.570  1.00  0.00     0.118 C 
BRANCH  24  25
ATOM     25  N   UNL     1      -1.003  -6.809   4.279  1.00  0.00    -0.352 N 
ATOM     26  C   UNL     1      -1.264  -7.488   5.446  1.00  0.00     0.251 C 
ATOM     27  H   UNL     1      -0.157  -7.062   3.843  1.00  0.00     0.163 HD
ATOM     28  O   UNL     1      -0.376  -8.167   5.957  1.00  0.00    -0.269 OA
BRANCH  26  29
ATOM     29  C   UNL     1      -2.588  -7.383   6.099  1.00  0.00     0.039 A 
ATOM     30  C   UNL     1      -2.668  -7.345   7.494  1.00  0.00     0.014 A 
ATOM     31  C   UNL     1      -3.756  -7.314   5.341  1.00  0.00     0.014 A 
ATOM     32  C   UNL     1      -3.903  -7.126   8.114  1.00  0.00     0.010 A 
ATOM     33  C   UNL     1      -4.957  -6.967   5.947  1.00  0.00     0.010 A 
ATOM     34  C   UNL     1      -5.048  -6.872   7.343  1.00  0.00    -0.014 A 
BRANCH  34  35
ATOM     35  C   UNL     1      -6.351  -6.503   7.957  1.00  0.00     0.031 A 
ATOM     36  C   UNL     1      -7.580  -7.328   7.672  1.00  0.00     0.074 A 
ATOM     37  C   UNL     1      -6.456  -5.366   8.674  1.00  0.00     0.049 A 
ATOM     38  N   UNL     1      -8.827  -7.096   7.997  1.00  0.00    -0.248 NA
ATOM     39  C   UNL     1      -7.391  -8.553   6.876  1.00  0.00     0.031 C 
ATOM     40  C   UNL     1      -5.362  -4.432   8.953  1.00  0.00     0.029 A 
ATOM     41  N   UNL     1      -7.543  -4.789   9.283  1.00  0.00    -0.354 N 
ATOM     42  C   UNL     1      -9.567  -8.115   7.410  1.00  0.00     0.074 A 
ATOM     43  C   UNL     1      -8.641  -8.941   6.669  1.00  0.00     0.031 C 
ATOM     44  C   UNL     1      -5.828  -3.413   9.694  1.00  0.00     0.029 A 
ATOM     45  C   UNL     1      -7.258  -3.599   9.910  1.00  0.00     0.049 A 
ATOM     46  H   UNL     1      -8.442  -5.190   9.272  1.00  0.00     0.167 HD
ATOM     47  C   UNL     1     -10.896  -8.357   7.501  1.00  0.00     0.037 A 
ATOM     48  C   UNL     1      -8.061  -2.747  10.575  1.00  0.00     0.037 A 
ATOM     49  C   UNL     1     -11.804  -7.577   8.299  1.00  0.00     0.049 A 
ATOM     50  C   UNL     1      -9.522  -3.076  10.716  1.00  0.00     0.074 A 
ATOM     51  C   UNL     1     -13.145  -7.809   8.550  1.00  0.00     0.029 A 
ATOM     52  N   UNL     1     -11.461  -6.419   8.979  1.00  0.00    -0.354 N 
ATOM     53  N   UNL     1     -10.189  -4.097  10.236  1.00  0.00    -0.248 NA
ATOM     54  C   UNL     1     -10.340  -2.139  11.500  1.00  0.00     0.031 C 
ATOM     55  C   UNL     1     -13.623  -6.769   9.354  1.00  0.00     0.029 A 
ATOM     56  C   UNL     1     -12.570  -5.914   9.636  1.00  0.00     0.049 A 
ATOM     57  H   UNL     1     -10.563  -6.016   8.993  1.00  0.00     0.167 HD
ATOM     58  C   UNL     1     -11.495  -3.941  10.680  1.00  0.00     0.074 A 
ATOM     59  C   UNL     1     -11.524  -2.736  11.482  1.00  0.00     0.031 C 
ATOM     60  C   UNL     1     -12.576  -4.722  10.442  1.00  0.00     0.037 A 
BRANCH  47  61
ATOM     61  C   UNL     1     -11.450  -9.524   6.737  1.00  0.00     0.057 A 
ATOM     62  C   UNL     1     -11.188 -10.847   7.113  1.00  0.00     0.134 A 
ATOM     63  C   UNL     1     -12.302  -9.319   5.644  1.00  0.00     0.134 A 
ATOM     64  F   UNL     1     -10.371 -11.112   8.144  1.00  0.00    -0.206 F 
ATOM     65  C   UNL     1     -11.736 -11.926   6.417  1.00  0.00     0.040 A 
ATOM     66  C   UNL     1     -12.876 -10.389   4.956  1.00  0.00     0.040 A 
ATOM     67  F   UNL     1     -12.599  -8.077   5.234  1.00  0.00    -0.206 F 
ATOM     68  C   UNL     1     -12.590 -11.698   5.340  1.00  0.00     0.006 A 
ENDBRANCH  47  61
BRANCH  48  69
ATOM     69  C   UNL     1      -7.505  -1.508  11.177  1.00  0.00     0.057 A 
ATOM     70  C   UNL     1      -7.403  -1.363  12.566  1.00  0.00     0.134 A 
ATOM     71  C   UNL     1      -7.086  -0.434  10.384  1.00  0.00     0.134 A 
ATOM     72  F   UNL     1      -7.806  -2.351  13.379  1.00  0.00    -0.206 F 
ATOM     73  C   UNL     1      -6.931  -0.184  13.146  1.00  0.00     0.040 A 
ATOM     74  C   UNL     1      -6.587   0.741  10.950  1.00  0.00     0.040 A 
ATOM     75  F   UNL     1      -7.149  -0.513   9.047  1.00  0.00    -0.206 F 
ATOM     76  C   UNL     1      -6.519   0.871  12.336  1.00  0.00     0.006 A 
ENDBRANCH  48  69
BRANCH  60  77
ATOM     77  C   UNL     1     -13.868  -4.320  11.086  1.00  0.00     0.057 A 
ATOM     78  C   UNL     1     -14.608  -3.221  10.633  1.00  0.00     0.134 A 
ATOM     79  C   UNL     1     -14.399  -5.069  12.144  1.00  0.00     0.134 A 
ATOM     80  F   UNL     1     -14.147  -2.457   9.631  1.00  0.00    -0.206 F 
ATOM     81  C   UNL     1     -15.821  -2.867  11.224  1.00  0.00     0.040 A 
ATOM     82  C   UNL     1     -15.623  -4.740  12.726  1.00  0.00     0.040 A 
ATOM     83  F   UNL     1     -13.744  -6.139  12.617  1.00  0.00    -0.206 F 
ATOM     84  C   UNL     1     -16.335  -3.633  12.270  1.00  0.00     0.006 A 
ENDBRANCH  60  77
ENDBRANCH  34  35
ENDBRANCH  26  29
ENDBRANCH  24  25
ENDBRANCH  23  24
ENDBRANCH   1  23
TORSDOF 14
