REMARK SMILES COc1ccccc1OC1CCN(c2cccc(C(=O)NCCCNC(=O)c3ccc(-c4c5nc(c(-c6c(F)cccc6F)c6ccc([nH]6)c(-c6c(F)cccc6F)c6nc(c(-c7c(F)cccc7F)c7ccc4[nH]7)C=C6)C=C5)cc3)n2)CC1
REMARK SMILES IDX 22 1 21 2 19 3 20 4 18 6 14 7 15 8 82 9 16 10 17 11 13 12
REMARK SMILES IDX 10 13 11 14 84 15 12 16 83 17 9 18 8 19 3 20 4 21 5 22 7 23
REMARK SMILES IDX 6 24 2 25 1 26 23 27 24 28 25 29 26 30 27 32 28 33 29 34
REMARK SMILES IDX 81 35 30 36 80 37 31 38 32 39 33 40 74 41 34 42 79 43 73 44
REMARK SMILES IDX 75 45 35 46 78 47 72 48 71 49 36 51 62 52 45 53 61 54 46 55
REMARK SMILES IDX 49 56 60 57 76 58 47 59 48 60 59 62 77 63 50 64 37 65 38 66
REMARK SMILES IDX 43 67 39 68 40 69 42 70 44 71 41 72 63 73 64 74 69 75 65 76
REMARK SMILES IDX 66 77 68 78 70 79 67 80 51 81 52 82 57 83 53 84 54 85 56 86
REMARK SMILES IDX 58 87 55 88
REMARK H PARENT 21 5 25 31 75 50 49 61
REMARK Flexibility Score: inf
ROOT
ATOM      1  C   UNL     1      -4.491   1.773   5.081  1.00  0.00     0.118 C 
ENDROOT
BRANCH   1   2
ATOM      2  N   UNL     1      -3.118   1.381   5.273  1.00  0.00    -0.351 N 
ATOM      3  C   UNL     1      -2.265   0.625   4.510  1.00  0.00     0.269 C 
ATOM      4  O   UNL     1      -1.157   0.413   5.011  1.00  0.00    -0.268 OA
ATOM      5  H   UNL     1      -2.717   1.718   6.107  1.00  0.00     0.163 HD
BRANCH   3   6
ATOM      6  C   UNL     1      -2.584   0.122   3.125  1.00  0.00     0.130 A 
ATOM      7  C   UNL     1      -1.546  -0.562   1.156  1.00  0.00     0.129 A 
ATOM      8  C   UNL     1      -2.751  -0.575   0.478  1.00  0.00     0.047 A 
ATOM      9  N   UNL     1      -1.468  -0.218   2.448  1.00  0.00    -0.226 NA
ATOM     10  C   UNL     1      -3.916  -0.308   1.185  1.00  0.00     0.006 A 
ATOM     11  C   UNL     1      -3.835   0.026   2.535  1.00  0.00     0.034 A 
BRANCH   7  12
ATOM     12  N   UNL     1      -0.366  -0.886   0.540  1.00  0.00    -0.356 N 
ATOM     13  C   UNL     1       3.307  -0.657  -0.361  1.00  0.00     0.177 C 
ATOM     14  C   UNL     1       2.742  -1.526   1.283  1.00  0.00     0.066 C 
ATOM     15  C   UNL     1       1.964   0.329  -1.369  1.00  0.00     0.066 C 
ATOM     16  C   UNL     1       0.845  -1.798   1.593  1.00  0.00     0.122 C 
ATOM     17  C   UNL     1       0.084  -0.000  -1.004  1.00  0.00     0.122 C 
BRANCH  13  18
ATOM     18  O   UNL     1       3.755  -1.728  -1.242  1.00  0.00    -0.486 OA
BRANCH  18  19
ATOM     19  C   UNL     1       2.678  -2.548  -1.513  1.00  0.00     0.161 A 
ATOM     20  C   UNL     1       1.427  -2.264  -0.941  1.00  0.00     0.160 A 
ATOM     21  C   UNL     1       0.342  -3.089  -1.222  1.00  0.00     0.050 A 
ATOM     22  C   UNL     1       0.507  -4.179  -2.080  1.00  0.00     0.004 A 
ATOM     23  C   UNL     1       2.852  -3.635  -2.358  1.00  0.00     0.050 A 
ATOM     24  C   UNL     1       1.757  -4.451  -2.646  1.00  0.00     0.004 A 
BRANCH  20  25
ATOM     25  O   UNL     1       1.482  -1.128  -0.160  1.00  0.00    -0.493 OA
ATOM     26  C   UNL     1       1.446   0.383   0.912  1.00  0.00     0.278 C 
ENDBRANCH  20  25
ENDBRANCH  18  19
ENDBRANCH  13  18
ENDBRANCH   7  12
ENDBRANCH   3   6
ENDBRANCH   1   2
BRANCH   1  27
ATOM     27  C   UNL     1      -5.420   0.709   5.657  1.00  0.00     0.042 C 
BRANCH  27  28
ATOM     28  C   UNL     1      -5.551   0.828   7.170  1.00  0.00     0.118 C 
BRANCH  28  29
ATOM     29  N   UNL     1      -6.220   2.069   7.537  1.00  0.00    -0.352 N 
ATOM     30  C   UNL     1      -7.427   2.269   8.148  1.00  0.00     0.251 C 
ATOM     31  H   UNL     1      -5.727   2.891   7.310  1.00  0.00     0.163 HD
ATOM     32  O   UNL     1      -7.970   3.366   8.071  1.00  0.00    -0.269 OA
BRANCH  30  33
ATOM     33  C   UNL     1      -8.061   1.181   8.916  1.00  0.00     0.039 A 
ATOM     34  C   UNL     1      -9.455   1.106   8.955  1.00  0.00     0.014 A 
ATOM     35  C   UNL     1      -7.288   0.287   9.662  1.00  0.00     0.014 A 
ATOM     36  C   UNL     1     -10.070   0.134   9.741  1.00  0.00     0.010 A 
ATOM     37  C   UNL     1      -7.899  -0.747  10.358  1.00  0.00     0.010 A 
ATOM     38  C   UNL     1      -9.295  -0.803  10.442  1.00  0.00    -0.014 A 
BRANCH  38  39
ATOM     39  C   UNL     1      -9.929  -1.804  11.330  1.00  0.00     0.031 A 
ATOM     40  C   UNL     1      -9.649  -1.778  12.808  1.00  0.00     0.074 A 
ATOM     41  C   UNL     1     -10.720  -2.754  10.800  1.00  0.00     0.049 A 
ATOM     42  N   UNL     1     -10.089  -2.574  13.749  1.00  0.00    -0.248 NA
ATOM     43  C   UNL     1      -8.720  -0.742  13.290  1.00  0.00     0.031 C 
ATOM     44  C   UNL     1     -11.011  -2.912   9.374  1.00  0.00     0.029 A 
ATOM     45  N   UNL     1     -11.420  -3.767  11.400  1.00  0.00    -0.354 N 
ATOM     46  C   UNL     1      -9.475  -2.148  14.921  1.00  0.00     0.074 A 
ATOM     47  C   UNL     1      -8.577  -1.074  14.562  1.00  0.00     0.031 C 
ATOM     48  C   UNL     1     -11.857  -3.941   9.213  1.00  0.00     0.029 A 
ATOM     49  C   UNL     1     -12.138  -4.533  10.517  1.00  0.00     0.049 A 
ATOM     50  H   UNL     1     -11.409  -3.929  12.371  1.00  0.00     0.167 HD
ATOM     51  C   UNL     1      -9.665  -2.592  16.186  1.00  0.00     0.037 A 
ATOM     52  C   UNL     1     -12.936  -5.593  10.738  1.00  0.00     0.037 A 
ATOM     53  C   UNL     1     -10.579  -3.648  16.531  1.00  0.00     0.049 A 
ATOM     54  C   UNL     1     -13.153  -6.055  12.152  1.00  0.00     0.074 A 
ATOM     55  C   UNL     1     -10.901  -4.138  17.784  1.00  0.00     0.029 A 
ATOM     56  N   UNL     1     -11.316  -4.382  15.612  1.00  0.00    -0.354 N 
ATOM     57  N   UNL     1     -12.629  -5.595  13.263  1.00  0.00    -0.248 NA
ATOM     58  C   UNL     1     -14.089  -7.169  12.343  1.00  0.00     0.031 C 
ATOM     59  C   UNL     1     -11.789  -5.207  17.618  1.00  0.00     0.029 A 
ATOM     60  C   UNL     1     -12.075  -5.337  16.267  1.00  0.00     0.049 A 
ATOM     61  H   UNL     1     -11.301  -4.245  14.637  1.00  0.00     0.167 HD
ATOM     62  C   UNL     1     -13.196  -6.340  14.289  1.00  0.00     0.074 A 
ATOM     63  C   UNL     1     -14.113  -7.272  13.664  1.00  0.00     0.031 C 
ATOM     64  C   UNL     1     -12.983  -6.257  15.627  1.00  0.00     0.037 A 
BRANCH  51  65
ATOM     65  C   UNL     1      -8.856  -1.939  17.273  1.00  0.00     0.057 A 
ATOM     66  C   UNL     1      -9.031  -0.594  17.631  1.00  0.00     0.134 A 
ATOM     67  C   UNL     1      -7.878  -2.663  17.967  1.00  0.00     0.134 A 
ATOM     68  F   UNL     1      -9.941   0.165  17.000  1.00  0.00    -0.206 F 
ATOM     69  C   UNL     1      -8.233   0.018  18.599  1.00  0.00     0.040 A 
ATOM     70  C   UNL     1      -7.098  -2.072  18.963  1.00  0.00     0.040 A 
ATOM     71  F   UNL     1      -7.657  -3.955  17.685  1.00  0.00    -0.206 F 
ATOM     72  C   UNL     1      -7.266  -0.724  19.273  1.00  0.00     0.006 A 
ENDBRANCH  51  65
BRANCH  52  73
ATOM     73  C   UNL     1     -13.617  -6.250   9.595  1.00  0.00     0.057 A 
ATOM     74  C   UNL     1     -14.998  -6.127   9.407  1.00  0.00     0.134 A 
ATOM     75  C   UNL     1     -12.900  -6.991   8.648  1.00  0.00     0.134 A 
ATOM     76  F   UNL     1     -15.741  -5.439  10.286  1.00  0.00    -0.206 F 
ATOM     77  C   UNL     1     -15.646  -6.730   8.327  1.00  0.00     0.040 A 
ATOM     78  C   UNL     1     -13.530  -7.577   7.549  1.00  0.00     0.040 A 
ATOM     79  F   UNL     1     -11.572  -7.133   8.763  1.00  0.00    -0.206 F 
ATOM     80  C   UNL     1     -14.909  -7.453   7.391  1.00  0.00     0.006 A 
ENDBRANCH  52  73
BRANCH  64  81
ATOM     81  C   UNL     1     -13.794  -7.167  16.505  1.00  0.00     0.057 A 
ATOM     82  C   UNL     1     -13.595  -8.554  16.532  1.00  0.00     0.134 A 
ATOM     83  C   UNL     1     -14.778  -6.640  17.351  1.00  0.00     0.134 A 
ATOM     84  F   UNL     1     -12.676  -9.125  15.739  1.00  0.00    -0.206 F 
ATOM     85  C   UNL     1     -14.373  -9.386  17.339  1.00  0.00     0.040 A 
ATOM     86  C   UNL     1     -15.537  -7.457  18.188  1.00  0.00     0.040 A 
ATOM     87  F   UNL     1     -15.012  -5.319  17.385  1.00  0.00    -0.206 F 
ATOM     88  C   UNL     1     -15.343  -8.836  18.174  1.00  0.00     0.006 A 
ENDBRANCH  64  81
ENDBRANCH  38  39
ENDBRANCH  30  33
ENDBRANCH  28  29
ENDBRANCH  27  28
ENDBRANCH   1  27
TORSDOF 14
