REMARK SMILES CCCC[C@@H](Sc1nc(OCCC2CCCCC2)cc(OCCC2CCCCC2)n1)C(=O)NCCCNC(=O)c1ccc(-c2c3nc(c(-c4c(F)cccc4F)c4ccc([nH]4)c(-c4c(F)cccc4F)c4nc(c(-c5c(F)cccc5F)c5ccc2[nH]5)C=C4)C=C3)cc1
REMARK SMILES IDX 31 1 32 2 33 3 5 5 4 6 3 7 2 8 1 9 6 10 7 11 8 12 30 13 9 14
REMARK SMILES IDX 20 15 19 16 10 17 11 18 12 19 13 20 14 21 18 22 15 23 17 24
REMARK SMILES IDX 16 25 21 26 22 27 23 28 24 29 25 30 29 31 26 32 28 33 27 34
REMARK SMILES IDX 34 35 35 36 36 37 37 38 38 39 39 41 40 42 41 43 93 44 42 45
REMARK SMILES IDX 92 46 43 47 44 48 45 49 86 50 46 51 91 52 85 53 87 54 47 55
REMARK SMILES IDX 90 56 84 57 83 58 48 60 74 61 57 62 73 63 58 64 61 65 72 66
REMARK SMILES IDX 88 67 59 68 60 69 71 71 89 72 62 73 49 74 50 75 55 76 51 77
REMARK SMILES IDX 52 78 54 79 56 80 53 81 75 82 76 83 81 84 77 85 78 86 80 87
REMARK SMILES IDX 82 88 79 89 63 90 64 91 69 92 65 93 66 94 68 95 70 96 67 97
REMARK H PARENT 33 4 37 40 87 59 61 70
REMARK Flexibility Score: inf
ROOT
ATOM      1  C   UNL     1      -1.635  -3.172  -2.520  1.00  0.00     0.233 C 
ATOM      2  O   UNL     1      -2.244  -3.687  -1.579  1.00  0.00    -0.274 OA
ATOM      3  N   UNL     1      -1.319  -3.963  -3.594  1.00  0.00    -0.355 N 
ATOM      4  H   UNL     1      -1.603  -4.903  -3.519  1.00  0.00     0.163 HD
ENDROOT
BRANCH   1   5
ATOM      5  C   UNL     1      -1.203  -1.700  -2.486  1.00  0.00     0.144 C 
BRANCH   5   6
ATOM      6  C   UNL     1       0.343  -1.671  -2.444  1.00  0.00     0.025 C 
BRANCH   6   7
ATOM      7  C   UNL     1       1.048  -0.520  -1.724  1.00  0.00     0.001 C 
BRANCH   7   8
ATOM      8  C   UNL     1       0.664  -0.255  -0.272  1.00  0.00    -0.003 C 
ATOM      9  C   UNL     1       0.848  -1.399   0.700  1.00  0.00     0.004 C 
ENDBRANCH   7   8
ENDBRANCH   6   7
ENDBRANCH   5   6
BRANCH   5  10
ATOM     10  S   UNL     1      -2.145  -0.924  -3.879  1.00  0.00    -0.073 SA
BRANCH  10  11
ATOM     11  C   UNL     1      -1.556   0.712  -3.804  1.00  0.00     0.195 A 
ATOM     12  N   UNL     1      -2.335   1.583  -3.162  1.00  0.00    -0.187 NA
ATOM     13  N   UNL     1      -0.401   0.988  -4.418  1.00  0.00    -0.187 NA
ATOM     14  C   UNL     1      -1.938   2.852  -3.152  1.00  0.00     0.221 A 
ATOM     15  C   UNL     1      -0.002   2.260  -4.366  1.00  0.00     0.221 A 
ATOM     16  C   UNL     1      -0.774   3.234  -3.777  1.00  0.00     0.136 A 
BRANCH  14  17
ATOM     17  O   UNL     1      -2.710   3.611  -2.323  1.00  0.00    -0.477 OA
BRANCH  17  18
ATOM     18  C   UNL     1      -2.721   5.031  -2.344  1.00  0.00     0.231 C 
BRANCH  18  19
ATOM     19  C   UNL     1      -1.766   5.793  -1.387  1.00  0.00     0.045 C 
BRANCH  19  20
ATOM     20  C   UNL     1      -0.338   5.259  -1.237  1.00  0.00    -0.008 C 
ATOM     21  C   UNL     1       0.655   6.179  -0.501  1.00  0.00     0.004 C 
ATOM     22  C   UNL     1      -0.306   3.911  -0.520  1.00  0.00     0.004 C 
ATOM     23  C   UNL     1       2.075   5.566  -0.497  1.00  0.00     0.000 C 
ATOM     24  C   UNL     1       1.051   3.290  -0.758  1.00  0.00     0.000 C 
ATOM     25  C   UNL     1       2.121   4.100  -0.063  1.00  0.00     0.000 C 
ENDBRANCH  19  20
ENDBRANCH  18  19
ENDBRANCH  17  18
ENDBRANCH  14  17
BRANCH  15  26
ATOM     26  O   UNL     1       1.206   2.463  -4.970  1.00  0.00    -0.477 OA
BRANCH  26  27
ATOM     27  C   UNL     1       1.995   3.610  -4.652  1.00  0.00     0.231 C 
BRANCH  27  28
ATOM     28  C   UNL     1       2.325   4.444  -5.903  1.00  0.00     0.045 C 
BRANCH  28  29
ATOM     29  C   UNL     1       1.180   5.292  -6.523  1.00  0.00    -0.008 C 
ATOM     30  C   UNL     1       0.049   4.427  -7.112  1.00  0.00     0.004 C 
ATOM     31  C   UNL     1       0.784   6.460  -5.604  1.00  0.00     0.004 C 
ATOM     32  C   UNL     1      -1.398   4.868  -6.912  1.00  0.00     0.000 C 
ATOM     33  C   UNL     1      -0.613   7.011  -5.846  1.00  0.00     0.000 C 
ATOM     34  C   UNL     1      -1.626   5.893  -5.824  1.00  0.00     0.000 C 
ENDBRANCH  28  29
ENDBRANCH  27  28
ENDBRANCH  26  27
ENDBRANCH  15  26
ENDBRANCH  10  11
ENDBRANCH   5  10
ENDBRANCH   1   5
BRANCH   3  35
ATOM     35  C   UNL     1      -0.627  -3.622  -4.832  1.00  0.00     0.117 C 
BRANCH  35  36
ATOM     36  C   UNL     1       0.708  -4.332  -4.944  1.00  0.00     0.042 C 
BRANCH  36  37
ATOM     37  C   UNL     1       0.547  -5.829  -5.112  1.00  0.00     0.118 C 
BRANCH  37  38
ATOM     38  N   UNL     1      -0.172  -6.169  -6.335  1.00  0.00    -0.352 N 
ATOM     39  C   UNL     1       0.246  -6.900  -7.413  1.00  0.00     0.251 C 
ATOM     40  H   UNL     1      -1.091  -5.821  -6.394  1.00  0.00     0.163 HD
ATOM     41  O   UNL     1      -0.402  -6.890  -8.461  1.00  0.00    -0.269 OA
BRANCH  39  42
ATOM     42  C   UNL     1       1.486  -7.688  -7.315  1.00  0.00     0.039 A 
ATOM     43  C   UNL     1       2.377  -7.697  -8.389  1.00  0.00     0.014 A 
ATOM     44  C   UNL     1       1.774  -8.399  -6.147  1.00  0.00     0.014 A 
ATOM     45  C   UNL     1       3.589  -8.372  -8.263  1.00  0.00     0.010 A 
ATOM     46  C   UNL     1       3.025  -8.971  -5.982  1.00  0.00     0.010 A 
ATOM     47  C   UNL     1       3.938  -8.980  -7.045  1.00  0.00    -0.014 A 
BRANCH  47  48
ATOM     48  C   UNL     1       5.246  -9.651  -6.865  1.00  0.00     0.031 A 
ATOM     49  C   UNL     1       5.294 -11.120  -6.547  1.00  0.00     0.074 A 
ATOM     50  C   UNL     1       6.378  -8.925  -6.921  1.00  0.00     0.049 A 
ATOM     51  N   UNL     1       6.331 -11.875  -6.289  1.00  0.00    -0.248 NA
ATOM     52  C   UNL     1       4.005 -11.828  -6.476  1.00  0.00     0.031 C 
ATOM     53  C   UNL     1       6.449  -7.482  -7.165  1.00  0.00     0.029 A 
ATOM     54  N   UNL     1       7.688  -9.301  -6.768  1.00  0.00    -0.354 N 
ATOM     55  C   UNL     1       5.818 -13.135  -6.012  1.00  0.00     0.074 A 
ATOM     56  C   UNL     1       4.377 -13.030  -6.066  1.00  0.00     0.031 C 
ATOM     57  C   UNL     1       7.737  -7.102  -7.176  1.00  0.00     0.029 A 
ATOM     58  C   UNL     1       8.576  -8.261  -6.896  1.00  0.00     0.049 A 
ATOM     59  H   UNL     1       7.964 -10.227  -6.583  1.00  0.00     0.167 HD
ATOM     60  C   UNL     1       6.489 -14.284  -5.763  1.00  0.00     0.037 A 
ATOM     61  C   UNL     1       9.918  -8.247  -6.791  1.00  0.00     0.037 A 
ATOM     62  C   UNL     1       7.923 -14.383  -5.734  1.00  0.00     0.049 A 
ATOM     63  C   UNL     1      10.640  -9.535  -6.506  1.00  0.00     0.074 A 
ATOM     64  C   UNL     1       8.705 -15.510  -5.553  1.00  0.00     0.029 A 
ATOM     65  N   UNL     1       8.792 -13.312  -5.885  1.00  0.00    -0.354 N 
ATOM     66  N   UNL     1      10.147 -10.736  -6.322  1.00  0.00    -0.248 NA
ATOM     67  C   UNL     1      12.104  -9.466  -6.419  1.00  0.00     0.031 C 
ATOM     68  C   UNL     1      10.045 -15.112  -5.539  1.00  0.00     0.029 A 
ATOM     69  C   UNL     1      10.101 -13.747  -5.773  1.00  0.00     0.049 A 
ATOM     70  H   UNL     1       8.517 -12.380  -6.047  1.00  0.00     0.167 HD
ATOM     71  C   UNL     1      11.240 -11.571  -6.129  1.00  0.00     0.074 A 
ATOM     72  C   UNL     1      12.422 -10.739  -6.234  1.00  0.00     0.031 C 
ATOM     73  C   UNL     1      11.265 -12.904  -5.886  1.00  0.00     0.037 A 
BRANCH  60  74
ATOM     74  C   UNL     1       5.676 -15.520  -5.506  1.00  0.00     0.057 A 
ATOM     75  C   UNL     1       4.915 -16.131  -6.512  1.00  0.00     0.134 A 
ATOM     76  C   UNL     1       5.676 -16.125  -4.242  1.00  0.00     0.134 A 
ATOM     77  F   UNL     1       4.858 -15.596  -7.742  1.00  0.00    -0.206 F 
ATOM     78  C   UNL     1       4.160 -17.279  -6.264  1.00  0.00     0.040 A 
ATOM     79  C   UNL     1       4.951 -17.291  -3.990  1.00  0.00     0.040 A 
ATOM     80  F   UNL     1       6.386 -15.597  -3.234  1.00  0.00    -0.206 F 
ATOM     81  C   UNL     1       4.184 -17.867  -5.001  1.00  0.00     0.006 A 
ENDBRANCH  60  74
BRANCH  61  82
ATOM     82  C   UNL     1      10.665  -6.977  -6.976  1.00  0.00     0.057 A 
ATOM     83  C   UNL     1      11.492  -6.780  -8.088  1.00  0.00     0.134 A 
ATOM     84  C   UNL     1      10.578  -5.934  -6.046  1.00  0.00     0.134 A 
ATOM     85  F   UNL     1      11.630  -7.747  -9.007  1.00  0.00    -0.206 F 
ATOM     86  C   UNL     1      12.222  -5.602  -8.258  1.00  0.00     0.040 A 
ATOM     87  C   UNL     1      11.280  -4.740  -6.217  1.00  0.00     0.040 A 
ATOM     88  F   UNL     1       9.795  -6.055  -4.964  1.00  0.00    -0.206 F 
ATOM     89  C   UNL     1      12.113  -4.576  -7.322  1.00  0.00     0.006 A 
ENDBRANCH  61  82
BRANCH  73  90
ATOM     90  C   UNL     1      12.612 -13.554  -5.757  1.00  0.00     0.057 A 
ATOM     91  C   UNL     1      13.438 -13.336  -4.647  1.00  0.00     0.134 A 
ATOM     92  C   UNL     1      13.070 -14.442  -6.739  1.00  0.00     0.134 A 
ATOM     93  F   UNL     1      13.064 -12.488  -3.676  1.00  0.00    -0.206 F 
ATOM     94  C   UNL     1      14.682 -13.958  -4.531  1.00  0.00     0.040 A 
ATOM     95  C   UNL     1      14.297 -15.094  -6.620  1.00  0.00     0.040 A 
ATOM     96  F   UNL     1      12.324 -14.703  -7.823  1.00  0.00    -0.206 F 
ATOM     97  C   UNL     1      15.111 -14.846  -5.516  1.00  0.00     0.006 A 
ENDBRANCH  73  90
ENDBRANCH  47  48
ENDBRANCH  39  42
ENDBRANCH  37  38
ENDBRANCH  36  37
ENDBRANCH  35  36
ENDBRANCH   3  35
TORSDOF 23
