REMARK SMILES COc1ccc(CCN2C(=O)CC[C@@H](C(=O)NCCCNC(=O)c3ccc(-c4c5nc(c(-c6c(F)cccc6F)c6ccc([nH]6)c(-c6c(F)cccc6F)c6nc(c(-c7c(F)cccc7F)c7ccc4[nH]7)C=C6)C=C5)cc3)[C@@H]2c2ccc(Cl)cc2)cc1OC
REMARK SMILES IDX 18 1 17 2 15 3 16 4 14 6 9 7 10 8 78 9 11 10 12 11 13 12
REMARK SMILES IDX 8 13 7 14 6 15 3 16 4 17 87 18 5 19 86 20 2 21 1 22 88 23
REMARK SMILES IDX 89 24 79 25 80 26 85 27 81 28 84 29 82 30 83 31 19 32 20 33
REMARK SMILES IDX 21 34 22 35 23 37 24 38 25 39 77 40 26 41 76 42 27 43 28 44
REMARK SMILES IDX 29 45 70 46 30 47 75 48 69 49 71 50 31 51 74 52 68 53 67 54
REMARK SMILES IDX 32 56 58 57 41 58 57 59 42 60 45 61 56 62 72 63 43 64 44 65
REMARK SMILES IDX 55 67 73 68 46 69 33 70 34 71 39 72 35 73 36 74 38 75 40 76
REMARK SMILES IDX 37 77 59 78 60 79 65 80 61 81 62 82 64 83 66 84 63 85 47 86
REMARK SMILES IDX 48 87 53 88 49 89 50 90 52 91 54 92 51 93
REMARK H PARENT 17 5 21 36 71 55 45 66
REMARK Flexibility Score: inf
ROOT
ATOM      1  C   UNL     1       1.432   3.050  -7.975  1.00  0.00     0.117 C 
ENDROOT
BRANCH   1   2
ATOM      2  N   UNL     1       0.132   3.235  -8.574  1.00  0.00    -0.356 N 
ATOM      3  C   UNL     1      -1.074   3.606  -8.080  1.00  0.00     0.225 C 
ATOM      4  O   UNL     1      -1.901   3.898  -8.957  1.00  0.00    -0.275 OA
ATOM      5  H   UNL     1       0.119   3.053  -9.541  1.00  0.00     0.163 HD
BRANCH   3   6
ATOM      6  C   UNL     1      -1.537   3.572  -6.605  1.00  0.00     0.106 C 
ATOM      7  N   UNL     1       0.279   4.783  -5.368  1.00  0.00    -0.335 N 
ATOM      8  C   UNL     1      -0.321   6.017  -5.615  1.00  0.00     0.223 C 
ATOM      9  C   UNL     1      -0.536   3.555  -5.442  1.00  0.00     0.128 C 
ATOM     10  O   UNL     1       0.273   7.080  -5.430  1.00  0.00    -0.275 OA
ATOM     11  C   UNL     1      -1.721   6.047  -6.229  1.00  0.00     0.101 C 
ATOM     12  C   UNL     1      -2.487   4.739  -6.338  1.00  0.00     0.026 C 
BRANCH   7  13
ATOM     13  C   UNL     1       1.749   4.748  -5.068  1.00  0.00     0.125 C 
BRANCH  13  14
ATOM     14  C   UNL     1       2.281   4.492  -3.635  1.00  0.00     0.057 C 
BRANCH  14  15
ATOM     15  C   UNL     1       2.414   3.074  -3.100  1.00  0.00    -0.042 A 
ATOM     16  C   UNL     1       2.205   0.592  -1.792  1.00  0.00     0.160 A 
ATOM     17  C   UNL     1       1.687   0.754  -3.064  1.00  0.00     0.051 A 
ATOM     18  C   UNL     1       3.035   1.578  -1.256  1.00  0.00     0.160 A 
ATOM     19  C   UNL     1       1.870   1.960  -3.733  1.00  0.00     0.008 A 
ATOM     20  C   UNL     1       3.075   2.838  -1.880  1.00  0.00     0.054 A 
BRANCH  16  21
ATOM     21  O   UNL     1       1.895  -0.573  -1.143  1.00  0.00    -0.493 OA
ATOM     22  C   UNL     1       0.880  -0.332  -0.162  1.00  0.00     0.278 C 
ENDBRANCH  16  21
BRANCH  18  23
ATOM     23  O   UNL     1       3.814   1.448  -0.136  1.00  0.00    -0.493 OA
ATOM     24  C   UNL     1       4.209   0.114   0.195  1.00  0.00     0.278 C 
ENDBRANCH  18  23
ENDBRANCH  14  15
ENDBRANCH  13  14
ENDBRANCH   7  13
BRANCH   9  25
ATOM     25  C   UNL     1      -1.154   3.153  -4.091  1.00  0.00    -0.025 A 
ATOM     26  C   UNL     1      -1.087   3.974  -2.954  1.00  0.00     0.007 A 
ATOM     27  C   UNL     1      -1.705   1.863  -3.943  1.00  0.00     0.007 A 
ATOM     28  C   UNL     1      -1.490   3.502  -1.701  1.00  0.00     0.021 A 
ATOM     29  C   UNL     1      -2.126   1.398  -2.694  1.00  0.00     0.021 A 
ATOM     30  C   UNL     1      -1.999   2.215  -1.575  1.00  0.00     0.041 A 
ATOM     31  Cl  UNL     1      -2.454   1.622  -0.026  1.00  0.00    -0.084 Cl
ENDBRANCH   9  25
ENDBRANCH   3   6
ENDBRANCH   1   2
BRANCH   1  32
ATOM     32  C   UNL     1       2.208   1.849  -8.469  1.00  0.00     0.042 C 
BRANCH  32  33
ATOM     33  C   UNL     1       2.767   2.011  -9.865  1.00  0.00     0.118 C 
BRANCH  33  34
ATOM     34  N   UNL     1       3.779   3.058  -9.953  1.00  0.00    -0.352 N 
ATOM     35  C   UNL     1       5.110   2.980 -10.282  1.00  0.00     0.251 C 
ATOM     36  H   UNL     1       3.457   3.964  -9.743  1.00  0.00     0.163 HD
ATOM     37  O   UNL     1       5.833   3.965 -10.133  1.00  0.00    -0.269 OA
BRANCH  35  38
ATOM     38  C   UNL     1       5.686   1.714 -10.785  1.00  0.00     0.039 A 
ATOM     39  C   UNL     1       6.963   1.332 -10.367  1.00  0.00     0.014 A 
ATOM     40  C   UNL     1       4.968   0.898 -11.661  1.00  0.00     0.014 A 
ATOM     41  C   UNL     1       7.478   0.095 -10.761  1.00  0.00     0.010 A 
ATOM     42  C   UNL     1       5.426  -0.379 -11.951  1.00  0.00     0.010 A 
ATOM     43  C   UNL     1       6.693  -0.791 -11.515  1.00  0.00    -0.014 A 
BRANCH  43  44
ATOM     44  C   UNL     1       7.177  -2.147 -11.876  1.00  0.00     0.031 A 
ATOM     45  C   UNL     1       7.312  -2.537 -13.323  1.00  0.00     0.074 A 
ATOM     46  C   UNL     1       7.423  -3.049 -10.905  1.00  0.00     0.049 A 
ATOM     47  N   UNL     1       7.641  -3.693 -13.841  1.00  0.00    -0.248 NA
ATOM     48  C   UNL     1       7.005  -1.500 -14.323  1.00  0.00     0.031 C 
ATOM     49  C   UNL     1       7.275  -2.809  -9.468  1.00  0.00     0.029 A 
ATOM     50  N   UNL     1       7.841  -4.353 -10.982  1.00  0.00    -0.354 N 
ATOM     51  C   UNL     1       7.564  -3.525 -15.218  1.00  0.00     0.074 A 
ATOM     52  C   UNL     1       7.093  -2.179 -15.456  1.00  0.00     0.031 C 
ATOM     53  C   UNL     1       7.628  -3.918  -8.799  1.00  0.00     0.029 A 
ATOM     54  C   UNL     1       7.984  -4.959  -9.757  1.00  0.00     0.049 A 
ATOM     55  H   UNL     1       8.023  -4.811 -11.834  1.00  0.00     0.167 HD
ATOM     56  C   UNL     1       7.887  -4.402 -16.198  1.00  0.00     0.037 A 
ATOM     57  C   UNL     1       8.352  -6.215  -9.443  1.00  0.00     0.037 A 
ATOM     58  C   UNL     1       8.379  -5.732 -15.956  1.00  0.00     0.049 A 
ATOM     59  C   UNL     1       8.693  -7.175 -10.550  1.00  0.00     0.074 A 
ATOM     60  C   UNL     1       8.790  -6.679 -16.877  1.00  0.00     0.029 A 
ATOM     61  N   UNL     1       8.524  -6.304 -14.701  1.00  0.00    -0.354 N 
ATOM     62  N   UNL     1       8.685  -6.979 -11.846  1.00  0.00    -0.248 NA
ATOM     63  C   UNL     1       9.101  -8.528 -10.149  1.00  0.00     0.031 C 
ATOM     64  C   UNL     1       9.133  -7.843 -16.182  1.00  0.00     0.029 A 
ATOM     65  C   UNL     1       8.993  -7.601 -14.825  1.00  0.00     0.049 A 
ATOM     66  H   UNL     1       8.323  -5.854 -13.848  1.00  0.00     0.167 HD
ATOM     67  C   UNL     1       9.115  -8.172 -12.414  1.00  0.00     0.074 A 
ATOM     68  C   UNL     1       9.391  -9.079 -11.319  1.00  0.00     0.031 C 
ATOM     69  C   UNL     1       9.268  -8.488 -13.723  1.00  0.00     0.037 A 
BRANCH  56  70
ATOM     70  C   UNL     1       7.721  -3.945 -17.619  1.00  0.00     0.057 A 
ATOM     71  C   UNL     1       8.537  -2.952 -18.178  1.00  0.00     0.134 A 
ATOM     72  C   UNL     1       6.753  -4.524 -18.449  1.00  0.00     0.134 A 
ATOM     73  F   UNL     1       9.476  -2.345 -17.436  1.00  0.00    -0.206 F 
ATOM     74  C   UNL     1       8.377  -2.530 -19.500  1.00  0.00     0.040 A 
ATOM     75  C   UNL     1       6.604  -4.134 -19.782  1.00  0.00     0.040 A 
ATOM     76  F   UNL     1       5.940  -5.484 -17.982  1.00  0.00    -0.206 F 
ATOM     77  C   UNL     1       7.412  -3.128 -20.308  1.00  0.00     0.006 A 
ENDBRANCH  56  70
BRANCH  57  78
ATOM     78  C   UNL     1       8.439  -6.633  -8.020  1.00  0.00     0.057 A 
ATOM     79  C   UNL     1       9.675  -6.914  -7.425  1.00  0.00     0.134 A 
ATOM     80  C   UNL     1       7.296  -6.772  -7.224  1.00  0.00     0.134 A 
ATOM     81  F   UNL     1      10.806  -6.816  -8.139  1.00  0.00    -0.206 F 
ATOM     82  C   UNL     1       9.769  -7.341  -6.099  1.00  0.00     0.040 A 
ATOM     83  C   UNL     1       7.377  -7.170  -5.889  1.00  0.00     0.040 A 
ATOM     84  F   UNL     1       6.082  -6.509  -7.731  1.00  0.00    -0.206 F 
ATOM     85  C   UNL     1       8.617  -7.465  -5.326  1.00  0.00     0.006 A 
ENDBRANCH  57  78
BRANCH  69  86
ATOM     86  C   UNL     1       9.794  -9.858 -14.042  1.00  0.00     0.057 A 
ATOM     87  C   UNL     1       9.023 -11.012 -13.853  1.00  0.00     0.134 A 
ATOM     88  C   UNL     1      11.077 -10.019 -14.582  1.00  0.00     0.134 A 
ATOM     89  F   UNL     1       7.791 -10.929 -13.328  1.00  0.00    -0.206 F 
ATOM     90  C   UNL     1       9.519 -12.279 -14.164  1.00  0.00     0.040 A 
ATOM     91  C   UNL     1      11.572 -11.277 -14.926  1.00  0.00     0.040 A 
ATOM     92  F   UNL     1      11.864  -8.954 -14.798  1.00  0.00    -0.206 F 
ATOM     93  C   UNL     1      10.794 -12.413 -14.710  1.00  0.00     0.006 A 
ENDBRANCH  69  86
ENDBRANCH  43  44
ENDBRANCH  35  38
ENDBRANCH  33  34
ENDBRANCH  32  33
ENDBRANCH   1  32
TORSDOF 16
