REMARK SMILES O=CN[C@@H](CCS[C@@H]1CCO[C@]2(CCOC2)C1)C(=O)NCCCNC(=O)c1ccc(-c2c3nc(c(-c4c(F)cccc4F)c4ccc([nH]4)c(-c4c(F)cccc4F)c4nc(c(-c5c(F)cccc5F)c5ccc2[nH]5)C=C4)C=C3)cc1
REMARK SMILES IDX 21 1 20 2 18 3 19 4 4 6 3 7 1 8 2 9 5 11 6 12 7 13 8 14 9 15
REMARK SMILES IDX 17 16 10 17 12 18 11 19 13 20 16 21 14 22 15 23 22 24 23 25
REMARK SMILES IDX 24 26 25 27 26 29 27 30 28 31 80 32 29 33 79 34 30 35 31 36
REMARK SMILES IDX 32 37 73 38 33 39 78 40 72 41 74 42 34 43 77 44 71 45 70 46
REMARK SMILES IDX 35 48 61 49 44 50 60 51 45 52 48 53 59 54 75 55 46 56 47 57
REMARK SMILES IDX 58 59 76 60 49 61 36 62 37 63 42 64 38 65 39 66 41 67 43 68
REMARK SMILES IDX 40 69 62 70 63 71 68 72 64 73 65 74 67 75 69 76 66 77 50 78
REMARK SMILES IDX 51 79 56 80 52 81 53 82 55 83 57 84 54 85
REMARK H PARENT 20 5 3 10 24 28 74 47 48 58
REMARK Flexibility Score: inf
ROOT
ATOM      1  C   UNL     1       3.844   1.533   2.773  1.00  0.00     0.117 C 
ENDROOT
BRANCH   1   2
ATOM      2  N   UNL     1       4.236   0.161   1.946  1.00  0.00    -0.354 N 
ATOM      3  C   UNL     1       4.846  -0.215   0.801  1.00  0.00     0.242 C 
ATOM      4  O   UNL     1       5.020  -1.414   0.582  1.00  0.00    -0.273 OA
ATOM      5  H   UNL     1       3.928  -0.632   2.441  1.00  0.00     0.163 HD
BRANCH   3   6
ATOM      6  C   UNL     1       5.378   0.830  -0.104  1.00  0.00     0.171 C 
BRANCH   6   7
ATOM      7  N   UNL     1       4.169   1.317  -0.757  1.00  0.00    -0.347 N 
ATOM      8  O   UNL     1       2.330   0.634  -1.921  1.00  0.00    -0.279 OA
ATOM      9  C   UNL     1       3.528   0.536  -1.692  1.00  0.00     0.337 C 
ATOM     10  H   UNL     1       3.810   2.205  -0.529  1.00  0.00     0.164 HD
ENDBRANCH   6   7
BRANCH   6  11
ATOM     11  C   UNL     1       6.187   1.821   0.742  1.00  0.00     0.046 C 
BRANCH  11  12
ATOM     12  C   UNL     1       6.948   1.335   2.059  1.00  0.00     0.072 C 
BRANCH  12  13
ATOM     13  S   UNL     1       6.495   0.003   3.457  1.00  0.00    -0.158 SA
BRANCH  13  14
ATOM     14  C   UNL     1       4.769   0.528   4.383  1.00  0.00     0.052 C 
ATOM     15  C   UNL     1       3.049  -0.229   3.792  1.00  0.00     0.043 C 
ATOM     16  C   UNL     1       4.896   2.404   4.564  1.00  0.00     0.052 C 
ATOM     17  C   UNL     1       1.840   0.990   2.800  1.00  0.00     0.162 C 
ATOM     18  C   UNL     1       3.565   3.539   3.785  1.00  0.00     0.095 C 
ATOM     19  O   UNL     1       2.181   2.809   2.880  1.00  0.00    -0.372 OA
ATOM     20  C   UNL     1       4.356   4.619   3.016  1.00  0.00     0.066 C 
ATOM     21  C   UNL     1       2.900   4.586   4.758  1.00  0.00     0.195 C 
ATOM     22  C   UNL     1       4.904   5.484   4.166  1.00  0.00     0.163 C 
ATOM     23  O   UNL     1       3.960   5.402   5.237  1.00  0.00    -0.378 OA
ENDBRANCH  13  14
ENDBRANCH  12  13
ENDBRANCH  11  12
ENDBRANCH   6  11
ENDBRANCH   3   6
ENDBRANCH   1   2
BRANCH   1  24
ATOM     24  C   UNL     1       2.800   1.681   4.604  1.00  0.00     0.042 C 
BRANCH  24  25
ATOM     25  C   UNL     1       3.048   1.470   6.226  1.00  0.00     0.118 C 
BRANCH  25  26
ATOM     26  N   UNL     1       3.409   2.608   7.069  1.00  0.00    -0.352 N 
ATOM     27  C   UNL     1       3.037   2.966   8.343  1.00  0.00     0.251 C 
ATOM     28  H   UNL     1       4.035   3.238   6.644  1.00  0.00     0.163 HD
ATOM     29  O   UNL     1       3.616   3.878   8.896  1.00  0.00    -0.269 OA
BRANCH  27  30
ATOM     30  C   UNL     1       1.859   2.353   8.978  1.00  0.00     0.039 A 
ATOM     31  C   UNL     1       0.961   3.236   9.588  1.00  0.00     0.014 A 
ATOM     32  C   UNL     1       1.597   0.985   8.938  1.00  0.00     0.014 A 
ATOM     33  C   UNL     1      -0.235   2.754  10.102  1.00  0.00     0.010 A 
ATOM     34  C   UNL     1       0.364   0.516   9.370  1.00  0.00     0.010 A 
ATOM     35  C   UNL     1      -0.553   1.398   9.960  1.00  0.00    -0.014 A 
BRANCH  35  36
ATOM     36  C   UNL     1      -1.837   0.883  10.472  1.00  0.00     0.031 A 
ATOM     37  C   UNL     1      -1.837  -0.047  11.645  1.00  0.00     0.074 A 
ATOM     38  C   UNL     1      -2.980   1.244   9.862  1.00  0.00     0.049 A 
ATOM     39  N   UNL     1      -2.845  -0.627  12.239  1.00  0.00    -0.248 NA
ATOM     40  C   UNL     1      -0.522  -0.395  12.207  1.00  0.00     0.031 C 
ATOM     41  C   UNL     1      -3.075   2.123   8.693  1.00  0.00     0.029 A 
ATOM     42  N   UNL     1      -4.280   0.925  10.146  1.00  0.00    -0.354 N 
ATOM     43  C   UNL     1      -2.286  -1.418  13.233  1.00  0.00     0.074 A 
ATOM     44  C   UNL     1      -0.850  -1.293  13.122  1.00  0.00     0.031 C 
ATOM     45  C   UNL     1      -4.370   2.306   8.387  1.00  0.00     0.029 A 
ATOM     46  C   UNL     1      -5.188   1.535   9.317  1.00  0.00     0.049 A 
ATOM     47  H   UNL     1      -4.540   0.317  10.876  1.00  0.00     0.167 HD
ATOM     48  C   UNL     1      -2.918  -2.159  14.172  1.00  0.00     0.037 A 
ATOM     49  C   UNL     1      -6.532   1.482   9.323  1.00  0.00     0.037 A 
ATOM     50  C   UNL     1      -4.348  -2.251  14.280  1.00  0.00     0.049 A 
ATOM     51  C   UNL     1      -7.213   0.656  10.376  1.00  0.00     0.074 A 
ATOM     52  C   UNL     1      -5.105  -2.943  15.206  1.00  0.00     0.029 A 
ATOM     53  N   UNL     1      -5.240  -1.617  13.423  1.00  0.00    -0.354 N 
ATOM     54  N   UNL     1      -6.678  -0.056  11.340  1.00  0.00    -0.248 NA
ATOM     55  C   UNL     1      -8.680   0.628  10.348  1.00  0.00     0.031 C 
ATOM     56  C   UNL     1      -6.456  -2.753  14.890  1.00  0.00     0.029 A 
ATOM     57  C   UNL     1      -6.540  -1.911  13.791  1.00  0.00     0.049 A 
ATOM     58  H   UNL     1      -4.983  -1.043  12.665  1.00  0.00     0.167 HD
ATOM     59  C   UNL     1      -7.741  -0.596  12.050  1.00  0.00     0.074 A 
ATOM     60  C   UNL     1      -8.952  -0.118  11.410  1.00  0.00     0.031 C 
ATOM     61  C   UNL     1      -7.722  -1.412  13.133  1.00  0.00     0.037 A 
BRANCH  48  62
ATOM     62  C   UNL     1      -2.051  -2.920  15.131  1.00  0.00     0.057 A 
ATOM     63  C   UNL     1      -1.271  -2.269  16.098  1.00  0.00     0.134 A 
ATOM     64  C   UNL     1      -1.960  -4.315  15.062  1.00  0.00     0.134 A 
ATOM     65  F   UNL     1      -1.294  -0.932  16.203  1.00  0.00    -0.206 F 
ATOM     66  C   UNL     1      -0.400  -2.974  16.931  1.00  0.00     0.040 A 
ATOM     67  C   UNL     1      -1.114  -5.034  15.909  1.00  0.00     0.040 A 
ATOM     68  F   UNL     1      -2.677  -5.001  14.160  1.00  0.00    -0.206 F 
ATOM     69  C   UNL     1      -0.322  -4.362  16.838  1.00  0.00     0.006 A 
ENDBRANCH  48  62
BRANCH  49  70
ATOM     70  C   UNL     1      -7.309   2.278   8.341  1.00  0.00     0.057 A 
ATOM     71  C   UNL     1      -8.022   3.413   8.743  1.00  0.00     0.134 A 
ATOM     72  C   UNL     1      -7.339   1.945   6.982  1.00  0.00     0.134 A 
ATOM     73  F   UNL     1      -8.040   3.776  10.034  1.00  0.00    -0.206 F 
ATOM     74  C   UNL     1      -8.746   4.183   7.832  1.00  0.00     0.040 A 
ATOM     75  C   UNL     1      -8.043   2.717   6.056  1.00  0.00     0.040 A 
ATOM     76  F   UNL     1      -6.668   0.875   6.532  1.00  0.00    -0.206 F 
ATOM     77  C   UNL     1      -8.753   3.838   6.481  1.00  0.00     0.006 A 
ENDBRANCH  49  70
BRANCH  61  78
ATOM     78  C   UNL     1      -9.050  -1.810  13.702  1.00  0.00     0.057 A 
ATOM     79  C   UNL     1      -9.870  -2.751  13.068  1.00  0.00     0.134 A 
ATOM     80  C   UNL     1      -9.489  -1.276  14.919  1.00  0.00     0.134 A 
ATOM     81  F   UNL     1      -9.508  -3.287  11.892  1.00  0.00    -0.206 F 
ATOM     82  C   UNL     1     -11.095  -3.132  13.617  1.00  0.00     0.040 A 
ATOM     83  C   UNL     1     -10.700  -1.668  15.489  1.00  0.00     0.040 A 
ATOM     84  F   UNL     1      -8.743  -0.377  15.578  1.00  0.00    -0.206 F 
ATOM     85  C   UNL     1     -11.509  -2.595  14.835  1.00  0.00     0.006 A 
ENDBRANCH  61  78
ENDBRANCH  35  36
ENDBRANCH  27  30
ENDBRANCH  25  26
ENDBRANCH  24  25
ENDBRANCH   1  24
TORSDOF 15
