REMARK SMILES COc1c(Cl)cc(C(=O)NCCCNC(=O)c2ccc(-c3c4nc(c(-c5c(F)cccc5F)c5ccc([nH]5)c(-c5c(F)cccc5F)c5nc(c(-c6c(F)cccc6F)c6ccc3[nH]6)C=C5)C=C4)cc2)cc1NC(=S)NC(=O)c1ccccc1F
REMARK SMILES IDX 11 1 10 2 8 3 9 4 7 6 3 7 4 8 72 9 5 10 6 11 71 12 2 13 1 14
REMARK SMILES IDX 73 15 74 17 75 18 76 19 77 20 78 22 79 23 80 24 84 25 81 26
REMARK SMILES IDX 83 27 85 28 82 29 12 30 13 31 14 32 15 33 16 35 17 36 18 37
REMARK SMILES IDX 70 38 19 39 69 40 20 41 21 42 22 43 63 44 23 45 68 46 62 47
REMARK SMILES IDX 64 48 24 49 67 50 61 51 60 52 25 54 51 55 34 56 50 57 35 58
REMARK SMILES IDX 38 59 49 60 65 61 36 62 37 63 48 65 66 66 39 67 26 68 27 69
REMARK SMILES IDX 32 70 28 71 29 72 31 73 33 74 30 75 52 76 53 77 58 78 54 79
REMARK SMILES IDX 55 80 57 81 59 82 56 83 40 84 41 85 46 86 42 87 43 88 45 89
REMARK SMILES IDX 47 90 44 91
REMARK H PARENT 10 5 73 16 76 21 14 34 64 53 38 64
REMARK Flexibility Score: inf
ROOT
ATOM      1  C   UNL     1       0.567  -5.200  -6.672  1.00  0.00     0.118 C 
ENDROOT
BRANCH   1   2
ATOM      2  N   UNL     1       1.804  -4.511  -6.245  1.00  0.00    -0.352 N 
ATOM      3  C   UNL     1       2.391  -3.766  -5.237  1.00  0.00     0.251 C 
ATOM      4  O   UNL     1       3.620  -3.683  -5.408  1.00  0.00    -0.269 OA
ATOM      5  H   UNL     1       2.473  -4.628  -6.958  1.00  0.00     0.163 HD
BRANCH   3   6
ATOM      6  C   UNL     1       1.850  -2.945  -4.003  1.00  0.00     0.043 A 
ATOM      7  C   UNL     1       1.347  -0.642  -1.228  1.00  0.00     0.160 A 
ATOM      8  C   UNL     1       2.962  -0.813  -2.022  1.00  0.00     0.086 A 
ATOM      9  C   UNL     1      -0.064  -1.523  -1.742  1.00  0.00     0.085 A 
ATOM     10  Cl  UNL     1       4.308   0.036  -1.353  1.00  0.00    -0.080 Cl
ATOM     11  C   UNL     1       3.257  -1.916  -3.414  1.00  0.00     0.038 A 
ATOM     12  C   UNL     1       0.160  -2.662  -2.938  1.00  0.00     0.044 A 
BRANCH   7  13
ATOM     13  O   UNL     1       1.347  -0.383   0.137  1.00  0.00    -0.493 OA
ATOM     14  C   UNL     1       1.146   0.977   0.463  1.00  0.00     0.278 C 
ENDBRANCH   7  13
BRANCH   9  15
ATOM     15  N   UNL     1      -1.447  -1.440  -1.465  1.00  0.00    -0.329 N 
ATOM     16  H   UNL     1      -1.694  -0.858  -0.710  1.00  0.00     0.169 HD
BRANCH  15  17
ATOM     17  C   UNL     1      -2.512  -2.068  -2.114  1.00  0.00     0.177 C 
ATOM     18  S   UNL     1      -3.966  -2.186  -1.282  1.00  0.00    -0.040 S 
BRANCH  17  19
ATOM     19  N   UNL     1      -2.535  -2.606  -3.451  1.00  0.00    -0.299 N 
ATOM     20  C   UNL     1      -1.883  -2.914  -4.736  1.00  0.00     0.260 C 
ATOM     21  H   UNL     1      -3.456  -2.935  -3.563  1.00  0.00     0.172 HD
ATOM     22  O   UNL     1      -2.520  -2.752  -5.777  1.00  0.00    -0.269 OA
BRANCH  20  23
ATOM     23  C   UNL     1      -0.393  -3.205  -4.844  1.00  0.00     0.075 A 
ATOM     24  C   UNL     1       0.260  -1.589  -4.767  1.00  0.00     0.017 A 
ATOM     25  C   UNL     1       0.187  -4.589  -3.817  1.00  0.00     0.135 A 
ATOM     26  C   UNL     1       1.295  -1.216  -3.389  1.00  0.00     0.001 A 
ATOM     27  C   UNL     1       1.279  -4.368  -2.438  1.00  0.00     0.040 A 
ATOM     28  F   UNL     1      -0.621  -5.663  -3.727  1.00  0.00    -0.206 F 
ATOM     29  C   UNL     1       1.823  -2.689  -2.096  1.00  0.00     0.003 A 
ENDBRANCH  20  23
ENDBRANCH  17  19
ENDBRANCH  15  17
ENDBRANCH   9  15
ENDBRANCH   3   6
ENDBRANCH   1   2
BRANCH   1  30
ATOM     30  C   UNL     1      -0.452  -4.341  -7.420  1.00  0.00     0.042 C 
BRANCH  30  31
ATOM     31  C   UNL     1      -0.693  -4.731  -8.862  1.00  0.00     0.118 C 
BRANCH  31  32
ATOM     32  N   UNL     1      -1.305  -6.050  -8.957  1.00  0.00    -0.352 N 
ATOM     33  C   UNL     1      -2.543  -6.420  -9.421  1.00  0.00     0.251 C 
ATOM     34  H   UNL     1      -0.743  -6.792  -8.639  1.00  0.00     0.163 HD
ATOM     35  O   UNL     1      -2.984  -7.527  -9.125  1.00  0.00    -0.269 OA
BRANCH  33  36
ATOM     36  C   UNL     1      -3.346  -5.509 -10.269  1.00  0.00     0.039 A 
ATOM     37  C   UNL     1      -4.740  -5.581 -10.201  1.00  0.00     0.014 A 
ATOM     38  C   UNL     1      -2.742  -4.620 -11.162  1.00  0.00     0.014 A 
ATOM     39  C   UNL     1      -5.519  -4.722 -10.977  1.00  0.00     0.010 A 
ATOM     40  C   UNL     1      -3.513  -3.691 -11.851  1.00  0.00     0.010 A 
ATOM     41  C   UNL     1      -4.909  -3.736 -11.769  1.00  0.00    -0.014 A 
BRANCH  41  42
ATOM     42  C   UNL     1      -5.717  -2.721 -12.487  1.00  0.00     0.031 A 
ATOM     43  C   UNL     1      -5.658  -2.620 -13.985  1.00  0.00     0.074 A 
ATOM     44  C   UNL     1      -6.461  -1.856 -11.771  1.00  0.00     0.049 A 
ATOM     45  N   UNL     1      -6.242  -1.755 -14.774  1.00  0.00    -0.248 NA
ATOM     46  C   UNL     1      -4.821  -3.605 -14.691  1.00  0.00     0.031 C 
ATOM     47  C   UNL     1      -6.561  -1.837 -10.310  1.00  0.00     0.029 A 
ATOM     48  N   UNL     1      -7.267  -0.821 -12.171  1.00  0.00    -0.354 N 
ATOM     49  C   UNL     1      -5.849  -2.092 -16.063  1.00  0.00     0.074 A 
ATOM     50  C   UNL     1      -4.927  -3.201 -15.948  1.00  0.00     0.031 C 
ATOM     51  C   UNL     1      -7.407  -0.864  -9.939  1.00  0.00     0.029 A 
ATOM     52  C   UNL     1      -7.855  -0.148 -11.127  1.00  0.00     0.049 A 
ATOM     53  H   UNL     1      -7.412  -0.583 -13.116  1.00  0.00     0.167 HD
ATOM     54  C   UNL     1      -6.243  -1.541 -17.234  1.00  0.00     0.037 A 
ATOM     55  C   UNL     1      -8.645   0.942 -11.126  1.00  0.00     0.037 A 
ATOM     56  C   UNL     1      -7.160  -0.436 -17.336  1.00  0.00     0.049 A 
ATOM     57  C   UNL     1      -9.003   1.576 -12.443  1.00  0.00     0.074 A 
ATOM     58  C   UNL     1      -7.646   0.174 -18.479  1.00  0.00     0.029 A 
ATOM     59  N   UNL     1      -7.719   0.231 -16.256  1.00  0.00    -0.354 N 
ATOM     60  N   UNL     1      -8.685   1.198 -13.658  1.00  0.00    -0.248 NA
ATOM     61  C   UNL     1      -9.829   2.789 -12.390  1.00  0.00     0.031 C 
ATOM     62  C   UNL     1      -8.441   1.254 -18.091  1.00  0.00     0.029 A 
ATOM     63  C   UNL     1      -8.513   1.272 -16.708  1.00  0.00     0.049 A 
ATOM     64  H   UNL     1      -7.574  -0.002 -15.311  1.00  0.00     0.167 HD
ATOM     65  C   UNL     1      -9.295   2.109 -14.510  1.00  0.00     0.074 A 
ATOM     66  C   UNL     1     -10.029   3.036 -13.676  1.00  0.00     0.031 C 
ATOM     67  C   UNL     1      -9.245   2.180 -15.863  1.00  0.00     0.037 A 
BRANCH  54  68
ATOM     68  C   UNL     1      -5.692  -2.120 -18.506  1.00  0.00     0.057 A 
ATOM     69  C   UNL     1      -6.057  -3.397 -18.953  1.00  0.00     0.134 A 
ATOM     70  C   UNL     1      -4.853  -1.363 -19.333  1.00  0.00     0.134 A 
ATOM     71  F   UNL     1      -6.854  -4.178 -18.207  1.00  0.00    -0.206 F 
ATOM     72  C   UNL     1      -5.594  -3.906 -20.167  1.00  0.00     0.040 A 
ATOM     73  C   UNL     1      -4.409  -1.848 -20.564  1.00  0.00     0.040 A 
ATOM     74  F   UNL     1      -4.471  -0.129 -18.971  1.00  0.00    -0.206 F 
ATOM     75  C   UNL     1      -4.776  -3.126 -20.982  1.00  0.00     0.006 A 
ENDBRANCH  54  68
BRANCH  55  76
ATOM     76  C   UNL     1      -9.132   1.525  -9.848  1.00  0.00     0.057 A 
ATOM     77  C   UNL     1     -10.499   1.591  -9.555  1.00  0.00     0.134 A 
ATOM     78  C   UNL     1      -8.249   2.084  -8.915  1.00  0.00     0.134 A 
ATOM     79  F   UNL     1     -11.399   1.085 -10.411  1.00  0.00    -0.206 F 
ATOM     80  C   UNL     1     -10.973   2.235  -8.410  1.00  0.00     0.040 A 
ATOM     81  C   UNL     1      -8.706   2.693  -7.746  1.00  0.00     0.040 A 
ATOM     82  F   UNL     1      -6.924   2.047  -9.125  1.00  0.00    -0.206 F 
ATOM     83  C   UNL     1     -10.074   2.787  -7.501  1.00  0.00     0.006 A 
ENDBRANCH  55  76
BRANCH  67  84
ATOM     84  C   UNL     1     -10.027   3.277 -16.525  1.00  0.00     0.057 A 
ATOM     85  C   UNL     1      -9.661   4.624 -16.404  1.00  0.00     0.134 A 
ATOM     86  C   UNL     1     -11.133   2.979 -17.332  1.00  0.00     0.134 A 
ATOM     87  F   UNL     1      -8.618   4.980 -15.639  1.00  0.00    -0.206 F 
ATOM     88  C   UNL     1     -10.384   5.636 -17.037  1.00  0.00     0.040 A 
ATOM     89  C   UNL     1     -11.840   3.978 -18.001  1.00  0.00     0.040 A 
ATOM     90  F   UNL     1     -11.531   1.709 -17.503  1.00  0.00    -0.206 F 
ATOM     91  C   UNL     1     -11.471   5.313 -17.846  1.00  0.00     0.006 A 
ENDBRANCH  67  84
ENDBRANCH  41  42
ENDBRANCH  33  36
ENDBRANCH  31  32
ENDBRANCH  30  31
ENDBRANCH   1  30
TORSDOF 15
