REMARK SMILES C=CCCC[C@@]1(C(=O)NCCCNC(=O)c2ccc(-c3c4nc(c(-c5c(F)cccc5F)c5ccc([nH]5)c(-c5c(F)cccc5F)c5nc(c(-c6c(F)cccc6F)c6ccc3[nH]6)C=C5)C=C4)cc2)CCCN(C(=O)OC(C)(C)C)C1
REMARK SMILES IDX 10 1 9 2 7 3 8 4 6 6 70 7 81 8 71 9 73 10 72 11 5 12 4 13
REMARK SMILES IDX 3 14 2 15 1 16 74 17 75 18 76 19 77 20 78 21 79 22 80 23
REMARK SMILES IDX 11 24 12 25 13 26 14 27 15 29 16 30 17 31 69 32 18 33 68 34
REMARK SMILES IDX 19 35 20 36 21 37 62 38 22 39 67 40 61 41 63 42 23 43 66 44
REMARK SMILES IDX 60 45 59 46 24 48 50 49 33 50 49 51 34 52 37 53 48 54 64 55
REMARK SMILES IDX 35 56 36 57 47 59 65 60 38 61 25 62 26 63 31 64 27 65 28 66
REMARK SMILES IDX 30 67 32 68 29 69 51 70 52 71 57 72 53 73 54 74 56 75 58 76
REMARK SMILES IDX 55 77 39 78 40 79 45 80 41 81 42 82 44 83 46 84 43 85
REMARK H PARENT 9 5 13 28 63 47 37 58
REMARK Flexibility Score: inf
ROOT
ATOM      1  C   UNL     1       1.327   1.623  -2.678  1.00  0.00     0.117 C 
ENDROOT
BRANCH   1   2
ATOM      2  N   UNL     1       0.182   2.468  -2.471  1.00  0.00    -0.355 N 
ATOM      3  C   UNL     1      -1.134   2.195  -2.654  1.00  0.00     0.228 C 
ATOM      4  O   UNL     1      -1.898   2.982  -2.076  1.00  0.00    -0.274 OA
ATOM      5  H   UNL     1       0.382   3.377  -2.150  1.00  0.00     0.163 HD
BRANCH   3   6
ATOM      6  C   UNL     1      -1.706   1.139  -3.656  1.00  0.00     0.067 C 
ATOM      7  C   UNL     1      -3.104   0.741  -3.089  1.00  0.00     0.020 C 
ATOM      8  C   UNL     1      -0.972  -0.204  -3.866  1.00  0.00     0.140 C 
ATOM      9  C   UNL     1      -2.960  -0.058  -1.779  1.00  0.00     0.023 C 
ATOM     10  N   UNL     1      -0.817  -0.968  -2.633  1.00  0.00    -0.307 N 
ATOM     11  C   UNL     1      -2.056  -1.282  -1.929  1.00  0.00     0.123 C 
BRANCH   6  12
ATOM     12  C   UNL     1      -1.819   1.960  -4.984  1.00  0.00     0.019 C 
BRANCH  12  13
ATOM     13  C   UNL     1      -1.935   1.242  -6.336  1.00  0.00     0.005 C 
BRANCH  13  14
ATOM     14  C   UNL     1      -3.187   0.401  -6.585  1.00  0.00     0.027 C 
BRANCH  14  15
ATOM     15  C   UNL     1      -4.469   1.178  -6.517  1.00  0.00    -0.035 C 
ATOM     16  C   UNL     1      -5.407   1.146  -7.472  1.00  0.00     0.004 C 
ENDBRANCH  14  15
ENDBRANCH  13  14
ENDBRANCH  12  13
ENDBRANCH   6  12
BRANCH  10  17
ATOM     17  C   UNL     1       0.424  -1.484  -2.284  1.00  0.00     0.410 C 
ATOM     18  O   UNL     1       1.424  -1.346  -2.980  1.00  0.00    -0.224 OA
BRANCH  17  19
ATOM     19  O   UNL     1       0.431  -2.072  -1.062  1.00  0.00    -0.444 OA
BRANCH  19  20
ATOM     20  C   UNL     1       1.679  -2.313  -0.350  1.00  0.00     0.106 C 
ATOM     21  C   UNL     1       2.719  -3.103  -1.155  1.00  0.00     0.056 C 
ATOM     22  C   UNL     1       2.261  -0.980   0.130  1.00  0.00     0.056 C 
ATOM     23  C   UNL     1       1.276  -3.142   0.877  1.00  0.00     0.056 C 
ENDBRANCH  19  20
ENDBRANCH  17  19
ENDBRANCH  10  17
ENDBRANCH   3   6
ENDBRANCH   1   2
BRANCH   1  24
ATOM     24  C   UNL     1       2.593   2.336  -3.085  1.00  0.00     0.042 C 
BRANCH  24  25
ATOM     25  C   UNL     1       3.230   3.132  -1.965  1.00  0.00     0.118 C 
BRANCH  25  26
ATOM     26  N   UNL     1       3.724   2.286  -0.881  1.00  0.00    -0.352 N 
ATOM     27  C   UNL     1       4.991   1.821  -0.614  1.00  0.00     0.251 C 
ATOM     28  H   UNL     1       3.038   2.003  -0.235  1.00  0.00     0.163 HD
ATOM     29  O   UNL     1       5.158   0.921   0.205  1.00  0.00    -0.269 OA
BRANCH  27  30
ATOM     30  C   UNL     1       6.155   2.403  -1.312  1.00  0.00     0.039 A 
ATOM     31  C   UNL     1       7.214   1.583  -1.716  1.00  0.00     0.014 A 
ATOM     32  C   UNL     1       6.208   3.775  -1.549  1.00  0.00     0.014 A 
ATOM     33  C   UNL     1       8.284   2.137  -2.426  1.00  0.00     0.010 A 
ATOM     34  C   UNL     1       7.197   4.298  -2.365  1.00  0.00     0.010 A 
ATOM     35  C   UNL     1       8.261   3.492  -2.791  1.00  0.00    -0.014 A 
BRANCH  35  36
ATOM     36  C   UNL     1       9.346   4.132  -3.575  1.00  0.00     0.031 A 
ATOM     37  C   UNL     1      10.078   5.311  -2.988  1.00  0.00     0.074 A 
ATOM     38  C   UNL     1       9.580   3.742  -4.843  1.00  0.00     0.049 A 
ATOM     39  N   UNL     1      10.915   6.137  -3.561  1.00  0.00    -0.248 NA
ATOM     40  C   UNL     1       9.787   5.638  -1.580  1.00  0.00     0.031 C 
ATOM     41  C   UNL     1       8.893   2.653  -5.540  1.00  0.00     0.029 A 
ATOM     42  N   UNL     1      10.451   4.237  -5.780  1.00  0.00    -0.354 N 
ATOM     43  C   UNL     1      11.205   7.102  -2.603  1.00  0.00     0.074 A 
ATOM     44  C   UNL     1      10.420   6.791  -1.431  1.00  0.00     0.031 C 
ATOM     45  C   UNL     1       9.386   2.546  -6.785  1.00  0.00     0.029 A 
ATOM     46  C   UNL     1      10.388   3.586  -6.989  1.00  0.00     0.049 A 
ATOM     47  H   UNL     1      11.062   4.988  -5.603  1.00  0.00     0.167 HD
ATOM     48  C   UNL     1      12.069   8.140  -2.686  1.00  0.00     0.037 A 
ATOM     49  C   UNL     1      11.060   3.814  -8.132  1.00  0.00     0.037 A 
ATOM     50  C   UNL     1      12.903   8.394  -3.829  1.00  0.00     0.049 A 
ATOM     51  C   UNL     1      12.050   4.946  -8.181  1.00  0.00     0.074 A 
ATOM     52  C   UNL     1      13.888   9.352  -3.981  1.00  0.00     0.029 A 
ATOM     53  N   UNL     1      12.854   7.673  -5.013  1.00  0.00    -0.354 N 
ATOM     54  N   UNL     1      12.369   5.806  -7.244  1.00  0.00    -0.248 NA
ATOM     55  C   UNL     1      12.775   5.137  -9.444  1.00  0.00     0.031 C 
ATOM     56  C   UNL     1      14.413   9.233  -5.272  1.00  0.00     0.029 A 
ATOM     57  C   UNL     1      13.783   8.175  -5.907  1.00  0.00     0.049 A 
ATOM     58  H   UNL     1      12.248   6.917  -5.190  1.00  0.00     0.167 HD
ATOM     59  C   UNL     1      13.355   6.616  -7.791  1.00  0.00     0.074 A 
ATOM     60  C   UNL     1      13.589   6.137  -9.138  1.00  0.00     0.031 C 
ATOM     61  C   UNL     1      14.010   7.663  -7.233  1.00  0.00     0.037 A 
BRANCH  48  62
ATOM     62  C   UNL     1      12.173   9.063  -1.507  1.00  0.00     0.057 A 
ATOM     63  C   UNL     1      12.756   8.661  -0.298  1.00  0.00     0.134 A 
ATOM     64  C   UNL     1      11.723  10.386  -1.597  1.00  0.00     0.134 A 
ATOM     65  F   UNL     1      13.194   7.403  -0.140  1.00  0.00    -0.206 F 
ATOM     66  C   UNL     1      12.867   9.534   0.786  1.00  0.00     0.040 A 
ATOM     67  C   UNL     1      11.855  11.277  -0.530  1.00  0.00     0.040 A 
ATOM     68  F   UNL     1      11.158  10.839  -2.726  1.00  0.00    -0.206 F 
ATOM     69  C   UNL     1      12.424  10.849   0.668  1.00  0.00     0.006 A 
ENDBRANCH  48  62
BRANCH  49  70
ATOM     70  C   UNL     1      10.851   2.941  -9.315  1.00  0.00     0.057 A 
ATOM     71  C   UNL     1      11.857   2.067  -9.745  1.00  0.00     0.134 A 
ATOM     72  C   UNL     1       9.664   2.969 -10.055  1.00  0.00     0.134 A 
ATOM     73  F   UNL     1      13.024   2.006  -9.087  1.00  0.00    -0.206 F 
ATOM     74  C   UNL     1      11.702   1.273 -10.883  1.00  0.00     0.040 A 
ATOM     75  C   UNL     1       9.485   2.162 -11.181  1.00  0.00     0.040 A 
ATOM     76  F   UNL     1       8.657   3.777  -9.691  1.00  0.00    -0.206 F 
ATOM     77  C   UNL     1      10.511   1.318 -11.603  1.00  0.00     0.006 A 
ENDBRANCH  49  70
BRANCH  61  78
ATOM     78  C   UNL     1      15.071   8.324  -8.059  1.00  0.00     0.057 A 
ATOM     79  C   UNL     1      14.756   9.150  -9.144  1.00  0.00     0.134 A 
ATOM     80  C   UNL     1      16.424   8.164  -7.733  1.00  0.00     0.134 A 
ATOM     81  F   UNL     1      13.479   9.332  -9.512  1.00  0.00    -0.206 F 
ATOM     82  C   UNL     1      15.752   9.778  -9.892  1.00  0.00     0.040 A 
ATOM     83  C   UNL     1      17.427   8.808  -8.457  1.00  0.00     0.040 A 
ATOM     84  F   UNL     1      16.790   7.394  -6.698  1.00  0.00    -0.206 F 
ATOM     85  C   UNL     1      17.092   9.613  -9.544  1.00  0.00     0.006 A 
ENDBRANCH  61  78
ENDBRANCH  35  36
ENDBRANCH  27  30
ENDBRANCH  25  26
ENDBRANCH  24  25
ENDBRANCH   1  24
TORSDOF 17
