REMARK SMILES Cc1ccc2[nH]c3c(=O)n(CC(=O)NCCCNC(=O)c4ccc(-c5c6nc(c(-c7c(F)cccc7F)c7ccc([nH]7)c(-c7c(F)cccc7F)c7nc(c(-c8c(F)cccc8F)c8ccc5[nH]8)C=C7)C=C6)cc4)cnc3c2c1
REMARK SMILES IDX 16 1 15 2 14 3 12 4 13 5 11 7 10 8 1 9 2 10 3 11 79 12 4 13
REMARK SMILES IDX 78 14 5 15 77 16 6 17 7 18 76 19 8 21 75 22 9 23 17 24 18 25
REMARK SMILES IDX 19 26 20 28 21 29 22 30 74 31 23 32 73 33 24 34 25 35 26 36
REMARK SMILES IDX 67 37 27 38 72 39 66 40 68 41 28 42 71 43 65 44 64 45 29 47
REMARK SMILES IDX 55 48 38 49 54 50 39 51 42 52 53 53 69 54 40 55 41 56 52 58
REMARK SMILES IDX 70 59 43 60 30 61 31 62 36 63 32 64 33 65 35 66 37 67 34 68
REMARK SMILES IDX 56 69 57 70 62 71 58 72 59 73 61 74 63 75 60 76 44 77 45 78
REMARK SMILES IDX 50 79 46 80 47 81 49 82 51 83 48 84
REMARK H PARENT 14 6 6 20 18 27 68 46 42 57
REMARK Flexibility Score: inf
ROOT
ATOM      1  C   UNL     1      -1.598  -7.739   1.059  1.00  0.00     0.042 C 
ENDROOT
BRANCH   1   2
ATOM      2  C   UNL     1      -0.704  -8.955   0.818  1.00  0.00     0.117 C 
BRANCH   2   3
ATOM      3  N   UNL     1      -0.941  -9.593  -0.462  1.00  0.00    -0.354 N 
ATOM      4  C   UNL     1      -0.135  -9.728  -1.552  1.00  0.00     0.240 C 
ATOM      5  O   UNL     1      -0.459 -10.580  -2.385  1.00  0.00    -0.273 OA
ATOM      6  H   UNL     1      -1.834  -9.996  -0.560  1.00  0.00     0.163 HD
BRANCH   4   7
ATOM      7  C   UNL     1       1.197  -8.983  -1.671  1.00  0.00     0.226 C 
BRANCH   7   8
ATOM      8  N   UNL     1       1.067  -7.544  -1.517  1.00  0.00    -0.288 N 
ATOM      9  C   UNL     1       1.006   0.063   0.154  1.00  0.00     0.044 C 
ATOM     10  C   UNL     1       0.606  -1.100  -0.707  1.00  0.00    -0.050 A 
ATOM     11  C   UNL     1      -0.173  -0.906  -1.853  1.00  0.00     0.005 A 
ATOM     12  C   UNL     1       1.027  -2.395  -0.359  1.00  0.00     0.016 A 
ATOM     13  C   UNL     1      -0.543  -1.975  -2.677  1.00  0.00     0.027 A 
ATOM     14  C   UNL     1       0.673  -3.486  -1.174  1.00  0.00     0.026 A 
ATOM     15  C   UNL     1      -0.103  -3.252  -2.317  1.00  0.00     0.048 A 
ATOM     16  C   UNL     1       0.919  -4.875  -1.149  1.00  0.00     0.103 A 
ATOM     17  N   UNL     1      -0.298  -4.469  -2.943  1.00  0.00    -0.349 N 
ATOM     18  C   UNL     1       0.324  -5.454  -2.231  1.00  0.00     0.132 A 
ATOM     19  N   UNL     1       1.661  -5.604  -0.218  1.00  0.00    -0.236 NA
ATOM     20  H   UNL     1      -0.807  -4.604  -3.774  1.00  0.00     0.167 HD
ATOM     21  C   UNL     1       0.386  -6.847  -2.508  1.00  0.00     0.278 A 
ATOM     22  C   UNL     1       1.692  -6.877  -0.473  1.00  0.00     0.203 A 
ATOM     23  O   UNL     1      -0.113  -7.358  -3.506  1.00  0.00    -0.267 OA
ENDBRANCH   7   8
ENDBRANCH   4   7
ENDBRANCH   2   3
ENDBRANCH   1   2
BRANCH   1  24
ATOM     24  C   UNL     1      -3.095  -8.058   1.088  1.00  0.00     0.118 C 
BRANCH  24  25
ATOM     25  N   UNL     1      -3.468  -9.095   2.033  1.00  0.00    -0.352 N 
ATOM     26  C   UNL     1      -3.836  -9.134   3.347  1.00  0.00     0.251 C 
ATOM     27  H   UNL     1      -3.452  -9.991   1.625  1.00  0.00     0.163 HD
ATOM     28  O   UNL     1      -4.220 -10.232   3.761  1.00  0.00    -0.269 OA
BRANCH  26  29
ATOM     29  C   UNL     1      -3.746  -8.006   4.313  1.00  0.00     0.039 A 
ATOM     30  C   UNL     1      -3.338  -6.708   4.016  1.00  0.00     0.014 A 
ATOM     31  C   UNL     1      -4.042  -8.327   5.655  1.00  0.00     0.014 A 
ATOM     32  C   UNL     1      -3.128  -5.790   5.043  1.00  0.00     0.010 A 
ATOM     33  C   UNL     1      -3.849  -7.411   6.682  1.00  0.00     0.010 A 
ATOM     34  C   UNL     1      -3.340  -6.156   6.379  1.00  0.00    -0.014 A 
BRANCH  34  35
ATOM     35  C   UNL     1      -3.123  -5.144   7.412  1.00  0.00     0.031 A 
ATOM     36  C   UNL     1      -3.987  -3.943   7.263  1.00  0.00     0.074 A 
ATOM     37  C   UNL     1      -2.281  -5.288   8.457  1.00  0.00     0.049 A 
ATOM     38  N   UNL     1      -3.622  -2.748   6.938  1.00  0.00    -0.248 NA
ATOM     39  C   UNL     1      -5.444  -4.121   7.342  1.00  0.00     0.031 C 
ATOM     40  C   UNL     1      -1.587  -6.508   8.882  1.00  0.00     0.029 A 
ATOM     41  N   UNL     1      -1.921  -4.382   9.418  1.00  0.00    -0.354 N 
ATOM     42  C   UNL     1      -4.779  -1.968   6.977  1.00  0.00     0.074 A 
ATOM     43  C   UNL     1      -5.878  -2.889   7.064  1.00  0.00     0.031 C 
ATOM     44  C   UNL     1      -1.071  -6.326  10.119  1.00  0.00     0.029 A 
ATOM     45  C   UNL     1      -1.260  -4.938  10.508  1.00  0.00     0.049 A 
ATOM     46  H   UNL     1      -2.114  -3.419   9.344  1.00  0.00     0.167 HD
ATOM     47  C   UNL     1      -4.696  -0.629   7.214  1.00  0.00     0.037 A 
ATOM     48  C   UNL     1      -0.898  -4.313  11.656  1.00  0.00     0.037 A 
ATOM     49  C   UNL     1      -3.343  -0.168   7.023  1.00  0.00     0.049 A 
ATOM     50  C   UNL     1      -0.834  -2.862  11.387  1.00  0.00     0.074 A 
ATOM     51  C   UNL     1      -2.507   0.141   5.973  1.00  0.00     0.029 A 
ATOM     52  N   UNL     1      -2.564  -0.307   8.138  1.00  0.00    -0.354 N 
ATOM     53  N   UNL     1       0.076  -2.310  10.636  1.00  0.00    -0.248 NA
ATOM     54  C   UNL     1      -1.984  -2.020  11.696  1.00  0.00     0.031 C 
ATOM     55  C   UNL     1      -1.176   0.010   6.476  1.00  0.00     0.029 A 
ATOM     56  C   UNL     1      -1.238  -0.344   7.821  1.00  0.00     0.049 A 
ATOM     57  H   UNL     1      -2.917  -0.372   9.055  1.00  0.00     0.167 HD
ATOM     58  C   UNL     1      -0.578  -1.258  10.029  1.00  0.00     0.074 A 
ATOM     59  C   UNL     1      -1.757  -1.011  10.850  1.00  0.00     0.031 C 
ATOM     60  C   UNL     1      -0.284  -0.911   8.744  1.00  0.00     0.037 A 
BRANCH  47  61
ATOM     61  C   UNL     1      -5.622   0.141   8.149  1.00  0.00     0.057 A 
ATOM     62  C   UNL     1      -6.512  -0.449   9.068  1.00  0.00     0.134 A 
ATOM     63  C   UNL     1      -5.332   1.500   8.403  1.00  0.00     0.134 A 
ATOM     64  F   UNL     1      -6.907  -1.722   8.980  1.00  0.00    -0.206 F 
ATOM     65  C   UNL     1      -6.986   0.219  10.203  1.00  0.00     0.040 A 
ATOM     66  C   UNL     1      -5.770   2.165   9.556  1.00  0.00     0.040 A 
ATOM     67  F   UNL     1      -4.529   2.199   7.586  1.00  0.00    -0.206 F 
ATOM     68  C   UNL     1      -6.580   1.515  10.475  1.00  0.00     0.006 A 
ENDBRANCH  47  61
BRANCH  48  69
ATOM     69  C   UNL     1      -0.764  -4.848  13.028  1.00  0.00     0.057 A 
ATOM     70  C   UNL     1      -1.629  -5.852  13.492  1.00  0.00     0.134 A 
ATOM     71  C   UNL     1       0.003  -4.193  14.003  1.00  0.00     0.134 A 
ATOM     72  F   UNL     1      -2.453  -6.492  12.650  1.00  0.00    -0.206 F 
ATOM     73  C   UNL     1      -1.750  -6.165  14.851  1.00  0.00     0.040 A 
ATOM     74  C   UNL     1      -0.109  -4.496  15.367  1.00  0.00     0.040 A 
ATOM     75  F   UNL     1       0.834  -3.197  13.662  1.00  0.00    -0.206 F 
ATOM     76  C   UNL     1      -1.000  -5.474  15.796  1.00  0.00     0.006 A 
ENDBRANCH  48  69
BRANCH  60  77
ATOM     77  C   UNL     1       1.057  -1.316   8.224  1.00  0.00     0.057 A 
ATOM     78  C   UNL     1       1.972  -0.308   7.905  1.00  0.00     0.134 A 
ATOM     79  C   UNL     1       1.449  -2.640   7.987  1.00  0.00     0.134 A 
ATOM     80  F   UNL     1       1.641   0.983   8.069  1.00  0.00    -0.206 F 
ATOM     81  C   UNL     1       3.233  -0.599   7.389  1.00  0.00     0.040 A 
ATOM     82  C   UNL     1       2.723  -2.947   7.501  1.00  0.00     0.040 A 
ATOM     83  F   UNL     1       0.606  -3.661   8.193  1.00  0.00    -0.206 F 
ATOM     84  C   UNL     1       3.618  -1.924   7.198  1.00  0.00     0.006 A 
ENDBRANCH  60  77
ENDBRANCH  34  35
ENDBRANCH  26  29
ENDBRANCH  24  25
ENDBRANCH   1  24
TORSDOF 11
