REMARK SMILES CC[C@H](C)[C@@H](NC(=O)c1csc(NC(C)=O)n1)C(=O)NCCCNC(=O)c1ccc(-c2c3nc(c(-c4c(F)cccc4F)c4ccc([nH]4)c(-c4c(F)cccc4F)c4nc(c(-c5c(F)cccc5F)c5ccc2[nH]5)C=C4)C=C3)cc1
REMARK SMILES IDX 21 1 20 2 18 3 19 4 5 6 3 7 4 8 2 9 1 10 6 11 7 12 8 14 9 15
REMARK SMILES IDX 10 16 17 17 11 18 12 19 13 20 14 21 15 23 16 24 22 25 23 26
REMARK SMILES IDX 24 27 25 28 26 30 27 31 28 32 80 33 29 34 79 35 30 36 31 37
REMARK SMILES IDX 32 38 73 39 33 40 78 41 72 42 74 43 34 44 77 45 71 46 70 47
REMARK SMILES IDX 35 49 61 50 44 51 60 52 45 53 48 54 59 55 75 56 46 57 47 58
REMARK SMILES IDX 58 60 76 61 49 62 36 63 37 64 42 65 38 66 39 67 41 68 43 69
REMARK SMILES IDX 40 70 62 71 63 72 68 73 64 74 65 75 67 76 69 77 66 78 50 79
REMARK SMILES IDX 51 80 56 81 52 82 53 83 55 84 57 85 54 86
REMARK H PARENT 20 5 6 13 13 22 24 29 74 48 48 59
REMARK Flexibility Score: inf
ROOT
ATOM      1  C   UNL     1       3.536   2.032   3.698  1.00  0.00     0.117 C 
ENDROOT
BRANCH   1   2
ATOM      2  N   UNL     1       2.517   3.056   3.832  1.00  0.00    -0.354 N 
ATOM      3  C   UNL     1       1.160   2.944   3.850  1.00  0.00     0.242 C 
ATOM      4  O   UNL     1       0.506   3.993   3.890  1.00  0.00    -0.273 OA
ATOM      5  H   UNL     1       2.860   3.974   3.924  1.00  0.00     0.163 HD
BRANCH   3   6
ATOM      6  C   UNL     1       0.466   1.574   3.657  1.00  0.00     0.174 C 
BRANCH   6   7
ATOM      7  C   UNL     1       0.503   1.238   2.115  1.00  0.00     0.018 C 
ATOM      8  C   UNL     1      -0.184  -0.096   1.790  1.00  0.00     0.010 C 
BRANCH   7   9
ATOM      9  C   UNL     1      -0.101   2.384   1.259  1.00  0.00     0.002 C 
ATOM     10  C   UNL     1      -0.014   2.162  -0.247  1.00  0.00     0.004 C 
ENDBRANCH   7   9
ENDBRANCH   6   7
BRANCH   6  11
ATOM     11  N   UNL     1       1.049   0.468   4.451  1.00  0.00    -0.339 N 
ATOM     12  C   UNL     1       1.399   0.368   5.779  1.00  0.00     0.271 C 
ATOM     13  H   UNL     1       1.217  -0.351   3.932  1.00  0.00     0.164 HD
ATOM     14  O   UNL     1       1.690  -0.750   6.205  1.00  0.00    -0.267 OA
BRANCH  12  15
ATOM     15  C   UNL     1       1.596   1.569   6.587  1.00  0.00     0.141 A 
ATOM     16  C   UNL     1       2.674   1.716   7.446  1.00  0.00     0.102 A 
ATOM     17  N   UNL     1       0.772   2.684   6.521  1.00  0.00    -0.215 NA
ATOM     18  S   UNL     1       2.749   3.326   8.021  1.00  0.00    -0.104 S 
ATOM     19  C   UNL     1       1.339   3.693   7.142  1.00  0.00     0.190 A 
BRANCH  19  20
ATOM     20  N   UNL     1       0.810   4.954   7.059  1.00  0.00    -0.302 N 
ATOM     21  C   UNL     1       1.408   6.126   7.455  1.00  0.00     0.223 C 
ATOM     22  H   UNL     1      -0.093   5.028   6.674  1.00  0.00     0.172 HD
ATOM     23  C   UNL     1       0.513   7.328   7.282  1.00  0.00     0.114 C 
ATOM     24  O   UNL     1       2.545   6.267   7.893  1.00  0.00    -0.275 OA
ENDBRANCH  19  20
ENDBRANCH  12  15
ENDBRANCH   6  11
ENDBRANCH   3   6
ENDBRANCH   1   2
BRANCH   1  25
ATOM     25  C   UNL     1       4.598   2.440   2.696  1.00  0.00     0.042 C 
BRANCH  25  26
ATOM     26  C   UNL     1       5.396   3.655   3.134  1.00  0.00     0.118 C 
BRANCH  26  27
ATOM     27  N   UNL     1       6.227   3.401   4.305  1.00  0.00    -0.352 N 
ATOM     28  C   UNL     1       7.565   3.678   4.463  1.00  0.00     0.251 C 
ATOM     29  H   UNL     1       5.777   2.982   5.073  1.00  0.00     0.163 HD
ATOM     30  O   UNL     1       8.189   3.286   5.441  1.00  0.00    -0.269 OA
BRANCH  28  31
ATOM     31  C   UNL     1       8.241   4.434   3.393  1.00  0.00     0.039 A 
ATOM     32  C   UNL     1       9.352   3.877   2.759  1.00  0.00     0.014 A 
ATOM     33  C   UNL     1       7.678   5.632   2.945  1.00  0.00     0.014 A 
ATOM     34  C   UNL     1       9.855   4.486   1.609  1.00  0.00     0.010 A 
ATOM     35  C   UNL     1       8.126   6.185   1.755  1.00  0.00     0.010 A 
ATOM     36  C   UNL     1       9.216   5.616   1.075  1.00  0.00    -0.014 A 
BRANCH  36  37
ATOM     37  C   UNL     1       9.662   6.251  -0.188  1.00  0.00     0.031 A 
ATOM     38  C   UNL     1      10.129   7.677  -0.162  1.00  0.00     0.074 A 
ATOM     39  C   UNL     1       9.523   5.600  -1.358  1.00  0.00     0.049 A 
ATOM     40  N   UNL     1      10.362   8.491  -1.157  1.00  0.00    -0.248 NA
ATOM     41  C   UNL     1      10.306   8.282   1.169  1.00  0.00     0.031 C 
ATOM     42  C   UNL     1       9.025   4.233  -1.518  1.00  0.00     0.029 A 
ATOM     43  N   UNL     1       9.758   6.021  -2.643  1.00  0.00    -0.354 N 
ATOM     44  C   UNL     1      10.665   9.714  -0.575  1.00  0.00     0.074 A 
ATOM     45  C   UNL     1      10.547   9.545   0.857  1.00  0.00     0.031 C 
ATOM     46  C   UNL     1       8.995   3.927  -2.826  1.00  0.00     0.029 A 
ATOM     47  C   UNL     1       9.433   5.087  -3.596  1.00  0.00     0.049 A 
ATOM     48  H   UNL     1      10.126   6.908  -2.861  1.00  0.00     0.167 HD
ATOM     49  C   UNL     1      11.026  10.870  -1.179  1.00  0.00     0.037 A 
ATOM     50  C   UNL     1       9.466   5.166  -4.939  1.00  0.00     0.037 A 
ATOM     51  C   UNL     1      11.199  11.014  -2.598  1.00  0.00     0.049 A 
ATOM     52  C   UNL     1       9.926   6.439  -5.589  1.00  0.00     0.074 A 
ATOM     53  C   UNL     1      11.650  12.113  -3.305  1.00  0.00     0.029 A 
ATOM     54  N   UNL     1      10.935  10.017  -3.526  1.00  0.00    -0.354 N 
ATOM     55  N   UNL     1      10.268   7.573  -5.027  1.00  0.00    -0.248 NA
ATOM     56  C   UNL     1      10.009   6.446  -7.057  1.00  0.00     0.031 C 
ATOM     57  C   UNL     1      11.636  11.789  -4.666  1.00  0.00     0.029 A 
ATOM     58  C   UNL     1      11.205  10.479  -4.802  1.00  0.00     0.049 A 
ATOM     59  H   UNL     1      10.605   9.115  -3.309  1.00  0.00     0.167 HD
ATOM     60  C   UNL     1      10.626   8.421  -6.066  1.00  0.00     0.074 A 
ATOM     61  C   UNL     1      10.465   7.669  -7.294  1.00  0.00     0.031 C 
ATOM     62  C   UNL     1      11.050   9.707  -6.008  1.00  0.00     0.037 A 
BRANCH  49  63
ATOM     63  C   UNL     1      11.257  12.059  -0.296  1.00  0.00     0.057 A 
ATOM     64  C   UNL     1      12.364  12.142   0.559  1.00  0.00     0.134 A 
ATOM     65  C   UNL     1      10.354  13.129  -0.291  1.00  0.00     0.134 A 
ATOM     66  F   UNL     1      13.256  11.141   0.614  1.00  0.00    -0.206 F 
ATOM     67  C   UNL     1      12.545  13.229   1.415  1.00  0.00     0.040 A 
ATOM     68  C   UNL     1      10.539  14.234   0.540  1.00  0.00     0.040 A 
ATOM     69  F   UNL     1       9.275  13.114  -1.087  1.00  0.00    -0.206 F 
ATOM     70  C   UNL     1      11.632  14.281   1.404  1.00  0.00     0.006 A 
ENDBRANCH  49  63
BRANCH  50  71
ATOM     71  C   UNL     1       9.066   3.992  -5.753  1.00  0.00     0.057 A 
ATOM     72  C   UNL     1      10.026   3.204  -6.397  1.00  0.00     0.134 A 
ATOM     73  C   UNL     1       7.725   3.613  -5.880  1.00  0.00     0.134 A 
ATOM     74  F   UNL     1      11.325   3.528  -6.322  1.00  0.00    -0.206 F 
ATOM     75  C   UNL     1       9.667   2.082  -7.146  1.00  0.00     0.040 A 
ATOM     76  C   UNL     1       7.353   2.483  -6.611  1.00  0.00     0.040 A 
ATOM     77  F   UNL     1       6.761   4.323  -5.277  1.00  0.00    -0.206 F 
ATOM     78  C   UNL     1       8.326   1.716  -7.249  1.00  0.00     0.006 A 
ENDBRANCH  50  71
BRANCH  62  79
ATOM     79  C   UNL     1      11.401  10.375  -7.301  1.00  0.00     0.057 A 
ATOM     80  C   UNL     1      10.416  10.862  -8.167  1.00  0.00     0.134 A 
ATOM     81  C   UNL     1      12.740  10.598  -7.644  1.00  0.00     0.134 A 
ATOM     82  F   UNL     1       9.116  10.668  -7.896  1.00  0.00    -0.206 F 
ATOM     83  C   UNL     1      10.751  11.547  -9.336  1.00  0.00     0.040 A 
ATOM     84  C   UNL     1      13.088  11.297  -8.801  1.00  0.00     0.040 A 
ATOM     85  F   UNL     1      13.729  10.160  -6.850  1.00  0.00    -0.206 F 
ATOM     86  C   UNL     1      12.091  11.774  -9.650  1.00  0.00     0.006 A 
ENDBRANCH  62  79
ENDBRANCH  36  37
ENDBRANCH  28  31
ENDBRANCH  26  27
ENDBRANCH  25  26
ENDBRANCH   1  25
TORSDOF 15
