REMARK SMILES CC[C@@H](C)[C@H](NC(=O)[C@H](C)N1C(=O)N2CCC3=c4cc(OC)ccc4=N[C@H]3[C@@]2(C)C1=O)C(=O)NCCCNC(=O)c1ccc(-c2c3nc(c(-c4c(F)cccc4F)c4ccc([nH]4)c(-c4c(F)cccc4F)c4nc(c(-c5c(F)cccc5F)c5ccc2[nH]5)C=C4)C=C3)cc1
REMARK SMILES IDX 35 1 34 2 32 3 33 4 5 6 3 7 4 8 2 9 1 10 6 11 7 12 8 14 9 15
REMARK SMILES IDX 10 16 11 17 12 18 30 19 14 20 13 21 28 22 31 23 15 24 27 25
REMARK SMILES IDX 29 26 16 27 17 28 26 29 18 30 25 31 19 32 24 33 20 34 23 35
REMARK SMILES IDX 21 36 22 37 36 38 37 39 38 40 39 41 40 43 41 44 42 45 94 46
REMARK SMILES IDX 43 47 93 48 44 49 45 50 46 51 87 52 47 53 92 54 86 55 88 56
REMARK SMILES IDX 48 57 91 58 85 59 84 60 49 62 75 63 58 64 74 65 59 66 62 67
REMARK SMILES IDX 73 68 89 69 60 70 61 71 72 73 90 74 63 75 50 76 51 77 56 78
REMARK SMILES IDX 52 79 53 80 55 81 57 82 54 83 76 84 77 85 82 86 78 87 79 88
REMARK SMILES IDX 81 89 83 90 80 91 64 92 65 93 70 94 66 95 67 96 69 97 71 98
REMARK SMILES IDX 68 99
REMARK H PARENT 34 5 6 13 38 42 88 61 62 72
REMARK Flexibility Score: inf
ROOT
ATOM      1  C   UNL     1       1.721   2.847   6.342  1.00  0.00     0.117 C 
ENDROOT
BRANCH   1   2
ATOM      2  N   UNL     1       3.086   3.263   6.020  1.00  0.00    -0.354 N 
ATOM      3  C   UNL     1       3.630   4.471   5.659  1.00  0.00     0.242 C 
ATOM      4  O   UNL     1       4.861   4.581   5.696  1.00  0.00    -0.273 OA
ATOM      5  H   UNL     1       3.745   2.534   6.074  1.00  0.00     0.163 HD
BRANCH   3   6
ATOM      6  C   UNL     1       2.772   5.701   5.274  1.00  0.00     0.174 C 
BRANCH   6   7
ATOM      7  C   UNL     1       2.555   6.650   6.483  1.00  0.00     0.018 C 
ATOM      8  C   UNL     1       3.859   7.409   6.780  1.00  0.00     0.010 C 
BRANCH   7   9
ATOM      9  C   UNL     1       1.989   5.897   7.701  1.00  0.00     0.002 C 
ATOM     10  C   UNL     1       2.220   6.506   9.067  1.00  0.00     0.004 C 
ENDBRANCH   7   9
ENDBRANCH   6   7
BRANCH   6  11
ATOM     11  N   UNL     1       1.545   5.308   4.590  1.00  0.00    -0.342 N 
ATOM     12  C   UNL     1       1.460   4.732   3.346  1.00  0.00     0.243 C 
ATOM     13  H   UNL     1       0.699   5.471   5.066  1.00  0.00     0.164 HD
ATOM     14  O   UNL     1       0.337   4.476   2.909  1.00  0.00    -0.273 OA
BRANCH  12  15
ATOM     15  C   UNL     1       2.737   4.560   2.509  1.00  0.00     0.181 C 
ATOM     16  C   UNL     1       2.463   4.651   0.997  1.00  0.00     0.042 C 
BRANCH  15  17
ATOM     17  N   UNL     1       3.836   3.673   2.951  1.00  0.00    -0.250 N 
ATOM     18  C   UNL     1       3.953   2.395   3.528  1.00  0.00     0.328 C 
ATOM     19  C   UNL     1       5.048   3.989   2.433  1.00  0.00     0.259 C 
ATOM     20  N   UNL     1       5.387   2.147   3.813  1.00  0.00    -0.307 N 
ATOM     21  O   UNL     1       3.081   1.544   3.605  1.00  0.00    -0.248 OA
ATOM     22  C   UNL     1       5.933   2.848   2.715  1.00  0.00     0.147 C 
ATOM     23  O   UNL     1       5.345   4.941   1.724  1.00  0.00    -0.271 OA
ATOM     24  C   UNL     1       6.243   0.799   4.003  1.00  0.00     0.127 C 
ATOM     25  C   UNL     1       5.663   1.772   1.618  1.00  0.00     0.168 C 
ATOM     26  C   UNL     1       7.295   3.422   3.120  1.00  0.00     0.048 C 
ATOM     27  C   UNL     1       7.298   0.418   2.555  1.00  0.00     0.055 C 
ATOM     28  C   UNL     1       6.835   1.096   1.107  1.00  0.00    -0.032 C 
ATOM     29  N   UNL     1       4.416   1.025   1.148  1.00  0.00    -0.274 NA
ATOM     30  C   UNL     1       6.334   0.724  -0.121  1.00  0.00     0.005 A 
ATOM     31  C   UNL     1       5.037   0.145   0.371  1.00  0.00     0.066 A 
ATOM     32  C   UNL     1       5.639   1.778  -1.127  1.00  0.00     0.056 A 
ATOM     33  C   UNL     1       4.386  -0.758  -0.580  1.00  0.00     0.032 A 
ATOM     34  C   UNL     1       4.378   1.428  -1.585  1.00  0.00     0.119 A 
ATOM     35  C   UNL     1       4.029   0.002  -1.627  1.00  0.00     0.048 A 
BRANCH  34  36
ATOM     36  O   UNL     1       3.268   2.281  -1.488  1.00  0.00    -0.497 OA
ATOM     37  C   UNL     1       2.211   1.837  -0.574  1.00  0.00     0.278 C 
ENDBRANCH  34  36
ENDBRANCH  15  17
ENDBRANCH  12  15
ENDBRANCH   6  11
ENDBRANCH   3   6
ENDBRANCH   1   2
BRANCH   1  38
ATOM     38  C   UNL     1       1.011   1.897   5.376  1.00  0.00     0.042 C 
BRANCH  38  39
ATOM     39  C   UNL     1       1.238   0.379   5.519  1.00  0.00     0.118 C 
BRANCH  39  40
ATOM     40  N   UNL     1       2.584  -0.110   5.766  1.00  0.00    -0.352 N 
ATOM     41  C   UNL     1       3.184  -1.254   5.259  1.00  0.00     0.251 C 
ATOM     42  H   UNL     1       3.138   0.439   6.366  1.00  0.00     0.163 HD
ATOM     43  O   UNL     1       4.265  -1.631   5.649  1.00  0.00    -0.269 OA
BRANCH  41  44
ATOM     44  C   UNL     1       2.473  -2.018   4.205  1.00  0.00     0.039 A 
ATOM     45  C   UNL     1       2.657  -1.658   2.870  1.00  0.00     0.014 A 
ATOM     46  C   UNL     1       1.586  -3.037   4.547  1.00  0.00     0.014 A 
ATOM     47  C   UNL     1       1.851  -2.224   1.878  1.00  0.00     0.010 A 
ATOM     48  C   UNL     1       0.803  -3.628   3.547  1.00  0.00     0.010 A 
ATOM     49  C   UNL     1       0.881  -3.178   2.213  1.00  0.00    -0.014 A 
BRANCH  49  50
ATOM     50  C   UNL     1      -0.197  -3.534   1.243  1.00  0.00     0.031 A 
ATOM     51  C   UNL     1      -1.603  -3.072   1.540  1.00  0.00     0.074 A 
ATOM     52  C   UNL     1       0.041  -4.194   0.094  1.00  0.00     0.049 A 
ATOM     53  N   UNL     1      -2.735  -3.419   0.982  1.00  0.00    -0.248 NA
ATOM     54  C   UNL     1      -1.747  -2.088   2.625  1.00  0.00     0.031 C 
ATOM     55  C   UNL     1       1.353  -4.614  -0.394  1.00  0.00     0.029 A 
ATOM     56  N   UNL     1      -0.831  -4.627  -0.878  1.00  0.00    -0.354 N 
ATOM     57  C   UNL     1      -3.725  -2.747   1.690  1.00  0.00     0.074 A 
ATOM     58  C   UNL     1      -3.063  -1.973   2.717  1.00  0.00     0.031 C 
ATOM     59  C   UNL     1       1.201  -5.234  -1.578  1.00  0.00     0.029 A 
ATOM     60  C   UNL     1      -0.223  -5.319  -1.897  1.00  0.00     0.049 A 
ATOM     61  H   UNL     1      -1.800  -4.456  -0.847  1.00  0.00     0.167 HD
ATOM     62  C   UNL     1      -5.067  -2.769   1.504  1.00  0.00     0.037 A 
ATOM     63  C   UNL     1      -0.757  -5.986  -2.941  1.00  0.00     0.037 A 
ATOM     64  C   UNL     1      -5.726  -3.476   0.438  1.00  0.00     0.049 A 
ATOM     65  C   UNL     1      -2.256  -6.060  -3.091  1.00  0.00     0.074 A 
ATOM     66  C   UNL     1      -7.079  -3.550   0.158  1.00  0.00     0.029 A 
ATOM     67  N   UNL     1      -5.073  -4.212  -0.537  1.00  0.00    -0.354 N 
ATOM     68  N   UNL     1      -3.191  -5.491  -2.369  1.00  0.00    -0.248 NA
ATOM     69  C   UNL     1      -2.772  -6.895  -4.187  1.00  0.00     0.031 C 
ATOM     70  C   UNL     1      -7.248  -4.361  -0.970  1.00  0.00     0.029 A 
ATOM     71  C   UNL     1      -5.997  -4.759  -1.412  1.00  0.00     0.049 A 
ATOM     72  H   UNL     1      -4.098  -4.330  -0.599  1.00  0.00     0.167 HD
ATOM     73  C   UNL     1      -4.400  -5.885  -2.932  1.00  0.00     0.074 A 
ATOM     74  C   UNL     1      -4.081  -6.726  -4.066  1.00  0.00     0.031 C 
ATOM     75  C   UNL     1      -5.663  -5.585  -2.542  1.00  0.00     0.037 A 
BRANCH  62  76
ATOM     76  C   UNL     1      -5.915  -2.040   2.503  1.00  0.00     0.057 A 
ATOM     77  C   UNL     1      -6.676  -2.758   3.436  1.00  0.00     0.134 A 
ATOM     78  C   UNL     1      -5.995  -0.643   2.542  1.00  0.00     0.134 A 
ATOM     79  F   UNL     1      -6.647  -4.099   3.450  1.00  0.00    -0.206 F 
ATOM     80  C   UNL     1      -7.486  -2.112   4.370  1.00  0.00     0.040 A 
ATOM     81  C   UNL     1      -6.782   0.016   3.489  1.00  0.00     0.040 A 
ATOM     82  F   UNL     1      -5.277   0.103   1.689  1.00  0.00    -0.206 F 
ATOM     83  C   UNL     1      -7.534  -0.720   4.403  1.00  0.00     0.006 A 
ENDBRANCH  62  76
BRANCH  63  84
ATOM     84  C   UNL     1       0.118  -6.705  -3.905  1.00  0.00     0.057 A 
ATOM     85  C   UNL     1       0.838  -7.845  -3.526  1.00  0.00     0.134 A 
ATOM     86  C   UNL     1       0.209  -6.304  -5.243  1.00  0.00     0.134 A 
ATOM     87  F   UNL     1       0.785  -8.290  -2.262  1.00  0.00    -0.206 F 
ATOM     88  C   UNL     1       1.623  -8.553  -4.437  1.00  0.00     0.040 A 
ATOM     89  C   UNL     1       0.969  -7.018  -6.172  1.00  0.00     0.040 A 
ATOM     90  F   UNL     1      -0.484  -5.241  -5.678  1.00  0.00    -0.206 F 
ATOM     91  C   UNL     1       1.684  -8.144  -5.767  1.00  0.00     0.006 A 
ENDBRANCH  63  84
BRANCH  75  92
ATOM     92  C   UNL     1      -6.788  -6.138  -3.365  1.00  0.00     0.057 A 
ATOM     93  C   UNL     1      -7.534  -5.305  -4.208  1.00  0.00     0.134 A 
ATOM     94  C   UNL     1      -7.155  -7.488  -3.297  1.00  0.00     0.134 A 
ATOM     95  F   UNL     1      -7.238  -4.000  -4.311  1.00  0.00    -0.206 F 
ATOM     96  C   UNL     1      -8.607  -5.794  -4.954  1.00  0.00     0.040 A 
ATOM     97  C   UNL     1      -8.213  -7.994  -4.055  1.00  0.00     0.040 A 
ATOM     98  F   UNL     1      -6.472  -8.340  -2.518  1.00  0.00    -0.206 F 
ATOM     99  C   UNL     1      -8.945  -7.144  -4.882  1.00  0.00     0.006 A 
ENDBRANCH  75  92
ENDBRANCH  49  50
ENDBRANCH  41  44
ENDBRANCH  39  40
ENDBRANCH  38  39
ENDBRANCH   1  38
TORSDOF 16
