REMARK SMILES CC(C)Cc1noc(CCCCC(=O)NCCCNC(=O)c2ccc(-c3c4nc(c(-c5c(F)cccc5F)c5ccc([nH]5)c(-c5c(F)cccc5F)c5nc(c(-c6c(F)cccc6F)c6ccc3[nH]6)C=C5)C=C4)cc2)n1
REMARK SMILES IDX 13 1 14 2 15 3 12 5 11 6 10 7 9 8 8 9 5 10 6 11 76 12 7 13
REMARK SMILES IDX 4 14 2 15 1 16 3 17 16 18 17 19 18 20 19 21 20 22 21 24
REMARK SMILES IDX 22 25 23 26 75 27 24 28 74 29 25 30 26 31 27 32 68 33 28 34
REMARK SMILES IDX 73 35 67 36 69 37 29 38 72 39 66 40 65 41 30 43 56 44 39 45
REMARK SMILES IDX 55 46 40 47 43 48 54 49 70 50 41 51 42 52 53 54 71 55 44 56
REMARK SMILES IDX 31 57 32 58 37 59 33 60 34 61 36 62 38 63 35 64 57 65 58 66
REMARK SMILES IDX 63 67 59 68 60 69 62 70 64 71 61 72 45 73 46 74 51 75 47 76
REMARK SMILES IDX 48 77 50 78 52 79 49 80
REMARK H PARENT 15 4 19 23 69 42 43 53
REMARK Flexibility Score: inf
ROOT
ATOM      1  C   UNL     1      -2.926   6.446   3.375  1.00  0.00     0.219 C 
ATOM      2  O   UNL     1      -2.358   7.456   3.793  1.00  0.00    -0.275 OA
ATOM      3  N   UNL     1      -3.841   5.846   4.186  1.00  0.00    -0.356 N 
ATOM      4  H   UNL     1      -4.042   6.338   5.015  1.00  0.00     0.163 HD
ENDROOT
BRANCH   1   5
ATOM      5  C   UNL     1      -2.630   5.902   1.989  1.00  0.00     0.100 C 
BRANCH   5   6
ATOM      6  C   UNL     1      -1.349   5.068   1.897  1.00  0.00     0.010 C 
BRANCH   6   7
ATOM      7  C   UNL     1      -1.447   3.598   2.317  1.00  0.00     0.010 C 
BRANCH   7   8
ATOM      8  C   UNL     1      -2.532   2.766   1.629  1.00  0.00     0.100 C 
BRANCH   8   9
ATOM      9  C   UNL     1      -2.079   2.178   0.355  1.00  0.00     0.226 A 
ATOM     10  C   UNL     1      -1.379   1.000  -1.208  1.00  0.00     0.172 A 
ATOM     11  N   UNL     1      -1.459   2.217  -1.764  1.00  0.00    -0.063 NA
ATOM     12  N   UNL     1      -1.780   0.928   0.098  1.00  0.00    -0.196 NA
ATOM     13  O   UNL     1      -1.937   3.010  -0.715  1.00  0.00    -0.339 OA
BRANCH  10  14
ATOM     14  C   UNL     1      -0.790  -0.173  -1.895  1.00  0.00     0.084 C 
BRANCH  14  15
ATOM     15  C   UNL     1       0.741  -0.237  -1.740  1.00  0.00    -0.010 C 
ATOM     16  C   UNL     1       1.182  -0.307  -0.273  1.00  0.00     0.008 C 
ATOM     17  C   UNL     1       1.288  -1.445  -2.499  1.00  0.00     0.008 C 
ENDBRANCH  14  15
ENDBRANCH  10  14
ENDBRANCH   8   9
ENDBRANCH   7   8
ENDBRANCH   6   7
ENDBRANCH   5   6
ENDBRANCH   1   5
BRANCH   3  18
ATOM     18  C   UNL     1      -4.566   4.600   4.026  1.00  0.00     0.117 C 
BRANCH  18  19
ATOM     19  C   UNL     1      -3.941   3.491   4.866  1.00  0.00     0.042 C 
BRANCH  19  20
ATOM     20  C   UNL     1      -4.450   3.443   6.297  1.00  0.00     0.118 C 
BRANCH  20  21
ATOM     21  N   UNL     1      -5.789   2.889   6.386  1.00  0.00    -0.352 N 
ATOM     22  C   UNL     1      -6.268   1.837   7.128  1.00  0.00     0.251 C 
ATOM     23  H   UNL     1      -6.461   3.339   5.825  1.00  0.00     0.163 HD
ATOM     24  O   UNL     1      -7.404   1.428   6.910  1.00  0.00    -0.269 OA
BRANCH  22  25
ATOM     25  C   UNL     1      -5.436   1.178   8.165  1.00  0.00     0.039 A 
ATOM     26  C   UNL     1      -5.602  -0.196   8.373  1.00  0.00     0.014 A 
ATOM     27  C   UNL     1      -4.539   1.889   8.967  1.00  0.00     0.014 A 
ATOM     28  C   UNL     1      -4.847  -0.854   9.347  1.00  0.00     0.010 A 
ATOM     29  C   UNL     1      -3.716   1.216   9.868  1.00  0.00     0.010 A 
ATOM     30  C   UNL     1      -3.878  -0.158  10.087  1.00  0.00    -0.014 A 
BRANCH  30  31
ATOM     31  C   UNL     1      -3.057  -0.855  11.109  1.00  0.00     0.031 A 
ATOM     32  C   UNL     1      -3.163  -0.478  12.562  1.00  0.00     0.074 A 
ATOM     33  C   UNL     1      -2.194  -1.816  10.727  1.00  0.00     0.049 A 
ATOM     34  N   UNL     1      -2.549  -0.993  13.599  1.00  0.00    -0.248 NA
ATOM     35  C   UNL     1      -4.053   0.645  12.893  1.00  0.00     0.031 C 
ATOM     36  C   UNL     1      -1.955  -2.236   9.345  1.00  0.00     0.029 A 
ATOM     37  N   UNL     1      -1.368  -2.622  11.468  1.00  0.00    -0.354 N 
ATOM     38  C   UNL     1      -2.970  -0.251  14.696  1.00  0.00     0.074 A 
ATOM     39  C   UNL     1      -3.836   0.791  14.191  1.00  0.00     0.031 C 
ATOM     40  C   UNL     1      -1.085  -3.259   9.342  1.00  0.00     0.029 A 
ATOM     41  C   UNL     1      -0.684  -3.545  10.716  1.00  0.00     0.049 A 
ATOM     42  H   UNL     1      -1.274  -2.546  12.445  1.00  0.00     0.167 HD
ATOM     43  C   UNL     1      -2.689  -0.437  16.008  1.00  0.00     0.037 A 
ATOM     44  C   UNL     1       0.157  -4.526  11.094  1.00  0.00     0.037 A 
ATOM     45  C   UNL     1      -1.843  -1.487  16.512  1.00  0.00     0.049 A 
ATOM     46  C   UNL     1       0.450  -4.720  12.554  1.00  0.00     0.074 A 
ATOM     47  C   UNL     1      -1.538  -1.799  17.825  1.00  0.00     0.029 A 
ATOM     48  N   UNL     1      -1.162  -2.398  15.717  1.00  0.00    -0.354 N 
ATOM     49  N   UNL     1      -0.011  -4.057  13.586  1.00  0.00    -0.248 NA
ATOM     50  C   UNL     1       1.376  -5.807  12.899  1.00  0.00     0.031 C 
ATOM     51  C   UNL     1      -0.640  -2.873  17.823  1.00  0.00     0.029 A 
ATOM     52  C   UNL     1      -0.421  -3.260  16.511  1.00  0.00     0.049 A 
ATOM     53  H   UNL     1      -1.199  -2.428  14.734  1.00  0.00     0.167 HD
ATOM     54  C   UNL     1       0.550  -4.658  14.705  1.00  0.00     0.074 A 
ATOM     55  C   UNL     1       1.369  -5.752  14.223  1.00  0.00     0.031 C 
ATOM     56  C   UNL     1       0.399  -4.336  16.014  1.00  0.00     0.037 A 
BRANCH  43  57
ATOM     57  C   UNL     1      -3.310   0.525  16.982  1.00  0.00     0.057 A 
ATOM     58  C   UNL     1      -4.691   0.543  17.225  1.00  0.00     0.134 A 
ATOM     59  C   UNL     1      -2.523   1.454  17.674  1.00  0.00     0.134 A 
ATOM     60  F   UNL     1      -5.505  -0.310  16.585  1.00  0.00    -0.206 F 
ATOM     61  C   UNL     1      -5.271   1.477  18.086  1.00  0.00     0.040 A 
ATOM     62  C   UNL     1      -3.088   2.373  18.561  1.00  0.00     0.040 A 
ATOM     63  F   UNL     1      -1.194   1.490  17.495  1.00  0.00    -0.206 F 
ATOM     64  C   UNL     1      -4.468   2.394  18.759  1.00  0.00     0.006 A 
ENDBRANCH  43  57
BRANCH  44  65
ATOM     65  C   UNL     1       0.727  -5.440  10.074  1.00  0.00     0.057 A 
ATOM     66  C   UNL     1       0.283  -6.764   9.974  1.00  0.00     0.134 A 
ATOM     67  C   UNL     1       1.705  -5.016   9.168  1.00  0.00     0.134 A 
ATOM     68  F   UNL     1      -0.641  -7.232  10.826  1.00  0.00    -0.206 F 
ATOM     69  C   UNL     1       0.797  -7.638   9.015  1.00  0.00     0.040 A 
ATOM     70  C   UNL     1       2.213  -5.873   8.190  1.00  0.00     0.040 A 
ATOM     71  F   UNL     1       2.164  -3.757   9.207  1.00  0.00    -0.206 F 
ATOM     72  C   UNL     1       1.762  -7.189   8.115  1.00  0.00     0.006 A 
ENDBRANCH  44  65
BRANCH  56  73
ATOM     73  C   UNL     1       1.126  -5.191  17.010  1.00  0.00     0.057 A 
ATOM     74  C   UNL     1       2.519  -5.136  17.154  1.00  0.00     0.134 A 
ATOM     75  C   UNL     1       0.425  -6.078  17.836  1.00  0.00     0.134 A 
ATOM     76  F   UNL     1       3.250  -4.318  16.382  1.00  0.00    -0.206 F 
ATOM     77  C   UNL     1       3.191  -5.957  18.061  1.00  0.00     0.040 A 
ATOM     78  C   UNL     1       1.083  -6.884  18.766  1.00  0.00     0.040 A 
ATOM     79  F   UNL     1      -0.911  -6.175  17.755  1.00  0.00    -0.206 F 
ATOM     80  C   UNL     1       2.471  -6.832  18.873  1.00  0.00     0.006 A 
ENDBRANCH  56  73
ENDBRANCH  30  31
ENDBRANCH  22  25
ENDBRANCH  20  21
ENDBRANCH  19  20
ENDBRANCH  18  19
ENDBRANCH   3  18
TORSDOF 16
