REMARK SMILES O=C(NCCCNC(=O)c1ccccc1C(=O)Nc1ccc(N2C(=O)[C@H]3[C@@H]4CC[C@@H](C4)[C@@H]3C2=O)cc1)c1ccc(-c2c3nc(c(-c4c(F)cccc4F)c4ccc([nH]4)c(-c4c(F)cccc4F)c4nc(c(-c5c(F)cccc5F)c5ccc2[nH]5)C=C4)C=C3)cc1
REMARK SMILES IDX 5 1 4 2 3 3 1 4 2 5 37 7 38 8 90 9 39 10 89 11 40 12 41 13
REMARK SMILES IDX 42 14 83 15 43 16 88 17 82 18 84 19 44 20 87 21 81 22 80 23
REMARK SMILES IDX 45 25 71 26 54 27 70 28 55 29 58 30 69 31 85 32 56 33 57 34
REMARK SMILES IDX 68 36 86 37 59 38 46 39 47 40 52 41 48 42 49 43 51 44 53 45
REMARK SMILES IDX 50 46 72 47 73 48 78 49 74 50 75 51 77 52 79 53 76 54 60 55
REMARK SMILES IDX 61 56 66 57 62 58 63 59 65 60 67 61 64 62 6 63 7 64 8 65
REMARK SMILES IDX 9 67 10 68 11 69 15 70 12 71 14 72 13 73 16 74 17 75 18 76
REMARK SMILES IDX 19 78 20 79 36 80 21 81 35 82 22 83 23 84 24 85 33 86 25 87
REMARK SMILES IDX 26 88 32 89 34 90 27 91 30 92 28 93 31 94 29 95
REMARK H PARENT 3 6 84 24 58 35 7 66 18 77
REMARK Flexibility Score: inf
ROOT
ATOM      1  C   UNL     1       5.459  -2.581   0.638  1.00  0.00     0.042 C 
ENDROOT
BRANCH   1   2
ATOM      2  C   UNL     1       4.920  -1.255   0.117  1.00  0.00     0.118 C 
BRANCH   2   3
ATOM      3  N   UNL     1       3.479  -1.229  -0.118  1.00  0.00    -0.352 N 
ATOM      4  O   UNL     1       1.389  -0.343  -0.063  1.00  0.00    -0.269 OA
ATOM      5  C   UNL     1       2.578  -0.235   0.209  1.00  0.00     0.251 C 
ATOM      6  H   UNL     1       3.102  -2.020  -0.566  1.00  0.00     0.163 HD
BRANCH   5   7
ATOM      7  C   UNL     1       3.071   0.928   0.976  1.00  0.00     0.039 A 
ATOM      8  C   UNL     1       4.185   1.635   0.527  1.00  0.00     0.014 A 
ATOM      9  C   UNL     1       2.533   1.171   2.242  1.00  0.00     0.014 A 
ATOM     10  C   UNL     1       4.905   2.398   1.437  1.00  0.00     0.010 A 
ATOM     11  C   UNL     1       3.203   2.029   3.118  1.00  0.00     0.010 A 
ATOM     12  C   UNL     1       4.439   2.581   2.752  1.00  0.00    -0.014 A 
BRANCH  12  13
ATOM     13  C   UNL     1       5.286   3.319   3.728  1.00  0.00     0.031 A 
ATOM     14  C   UNL     1       5.825   2.643   4.964  1.00  0.00     0.074 A 
ATOM     15  C   UNL     1       5.626   4.594   3.459  1.00  0.00     0.049 A 
ATOM     16  N   UNL     1       6.603   3.132   5.900  1.00  0.00    -0.248 NA
ATOM     17  C   UNL     1       5.438   1.241   5.190  1.00  0.00     0.031 C 
ATOM     18  C   UNL     1       5.172   5.358   2.296  1.00  0.00     0.029 A 
ATOM     19  N   UNL     1       6.454   5.460   4.125  1.00  0.00    -0.354 N 
ATOM     20  C   UNL     1       6.765   2.117   6.837  1.00  0.00     0.074 A 
ATOM     21  C   UNL     1       5.992   0.987   6.368  1.00  0.00     0.031 C 
ATOM     22  C   UNL     1       5.776   6.554   2.293  1.00  0.00     0.029 A 
ATOM     23  C   UNL     1       6.603   6.668   3.489  1.00  0.00     0.049 A 
ATOM     24  H   UNL     1       6.898   5.239   4.975  1.00  0.00     0.167 HD
ATOM     25  C   UNL     1       7.494   2.124   7.980  1.00  0.00     0.037 A 
ATOM     26  C   UNL     1       7.316   7.755   3.833  1.00  0.00     0.037 A 
ATOM     27  C   UNL     1       8.296   3.236   8.425  1.00  0.00     0.049 A 
ATOM     28  C   UNL     1       8.118   7.734   5.100  1.00  0.00     0.074 A 
ATOM     29  C   UNL     1       9.103   3.325   9.547  1.00  0.00     0.029 A 
ATOM     30  N   UNL     1       8.397   4.453   7.766  1.00  0.00    -0.354 N 
ATOM     31  N   UNL     1       8.270   6.761   5.965  1.00  0.00    -0.248 NA
ATOM     32  C   UNL     1       8.843   8.965   5.440  1.00  0.00     0.031 C 
ATOM     33  C   UNL     1       9.660   4.608   9.588  1.00  0.00     0.029 A 
ATOM     34  C   UNL     1       9.238   5.303   8.467  1.00  0.00     0.049 A 
ATOM     35  H   UNL     1       7.939   4.679   6.924  1.00  0.00     0.167 HD
ATOM     36  C   UNL     1       9.124   7.254   6.942  1.00  0.00     0.074 A 
ATOM     37  C   UNL     1       9.470   8.606   6.551  1.00  0.00     0.031 C 
ATOM     38  C   UNL     1       9.578   6.643   8.063  1.00  0.00     0.037 A 
BRANCH  25  39
ATOM     39  C   UNL     1       7.447   0.900   8.850  1.00  0.00     0.057 A 
ATOM     40  C   UNL     1       8.087  -0.294   8.495  1.00  0.00     0.134 A 
ATOM     41  C   UNL     1       6.794   0.936  10.090  1.00  0.00     0.134 A 
ATOM     42  F   UNL     1       8.722  -0.401   7.318  1.00  0.00    -0.206 F 
ATOM     43  C   UNL     1       8.063  -1.414   9.332  1.00  0.00     0.040 A 
ATOM     44  C   UNL     1       6.784  -0.168  10.945  1.00  0.00     0.040 A 
ATOM     45  F   UNL     1       6.169   2.050  10.498  1.00  0.00    -0.206 F 
ATOM     46  C   UNL     1       7.415  -1.349  10.564  1.00  0.00     0.006 A 
ENDBRANCH  25  39
BRANCH  26  47
ATOM     47  C   UNL     1       7.303   8.950   2.954  1.00  0.00     0.057 A 
ATOM     48  C   UNL     1       8.438   9.325   2.228  1.00  0.00     0.134 A 
ATOM     49  C   UNL     1       6.150   9.730   2.803  1.00  0.00     0.134 A 
ATOM     50  F   UNL     1       9.576   8.625   2.344  1.00  0.00    -0.206 F 
ATOM     51  C   UNL     1       8.432  10.442   1.392  1.00  0.00     0.040 A 
ATOM     52  C   UNL     1       6.121  10.832   1.949  1.00  0.00     0.040 A 
ATOM     53  F   UNL     1       5.027   9.414   3.465  1.00  0.00    -0.206 F 
ATOM     54  C   UNL     1       7.268  11.194   1.245  1.00  0.00     0.006 A 
ENDBRANCH  26  47
BRANCH  38  55
ATOM     55  C   UNL     1      10.528   7.423   8.922  1.00  0.00     0.057 A 
ATOM     56  C   UNL     1      10.102   8.503   9.705  1.00  0.00     0.134 A 
ATOM     57  C   UNL     1      11.886   7.082   8.970  1.00  0.00     0.134 A 
ATOM     58  F   UNL     1       8.817   8.888   9.691  1.00  0.00    -0.206 F 
ATOM     59  C   UNL     1      11.000   9.237  10.482  1.00  0.00     0.040 A 
ATOM     60  C   UNL     1      12.788   7.792   9.763  1.00  0.00     0.040 A 
ATOM     61  F   UNL     1      12.356   6.053   8.249  1.00  0.00    -0.206 F 
ATOM     62  C   UNL     1      12.346   8.879  10.516  1.00  0.00     0.006 A 
ENDBRANCH  38  55
ENDBRANCH  12  13
ENDBRANCH   5   7
ENDBRANCH   2   3
ENDBRANCH   1   2
BRANCH   1  63
ATOM     63  C   UNL     1       5.480  -3.688  -0.400  1.00  0.00     0.118 C 
BRANCH  63  64
ATOM     64  N   UNL     1       6.368  -3.398  -1.508  1.00  0.00    -0.352 N 
ATOM     65  C   UNL     1       6.835  -4.239  -2.478  1.00  0.00     0.252 C 
ATOM     66  H   UNL     1       6.676  -2.465  -1.572  1.00  0.00     0.163 HD
ATOM     67  O   UNL     1       7.686  -3.841  -3.272  1.00  0.00    -0.269 OA
BRANCH  65  68
ATOM     68  C   UNL     1       6.453  -5.662  -2.512  1.00  0.00     0.052 A 
ATOM     69  C   UNL     1       7.583  -6.513  -2.461  1.00  0.00     0.014 A 
ATOM     70  C   UNL     1       5.161  -6.211  -2.549  1.00  0.00     0.052 A 
ATOM     71  C   UNL     1       7.449  -7.892  -2.359  1.00  0.00     0.001 A 
ATOM     72  C   UNL     1       5.057  -7.617  -2.419  1.00  0.00     0.014 A 
ATOM     73  C   UNL     1       6.180  -8.445  -2.315  1.00  0.00     0.001 A 
BRANCH  70  74
ATOM     74  C   UNL     1       3.837  -5.515  -2.562  1.00  0.00     0.256 C 
ATOM     75  O   UNL     1       2.937  -6.016  -1.875  1.00  0.00    -0.269 OA
ATOM     76  N   UNL     1       3.534  -4.319  -3.168  1.00  0.00    -0.322 N 
ATOM     77  H   UNL     1       2.633  -3.980  -2.960  1.00  0.00     0.170 HD
BRANCH  76  78
ATOM     78  C   UNL     1       4.266  -3.498  -4.020  1.00  0.00     0.041 A 
ATOM     79  C   UNL     1       4.288  -2.135  -3.710  1.00  0.00     0.028 A 
ATOM     80  C   UNL     1       5.014  -3.989  -5.083  1.00  0.00     0.028 A 
ATOM     81  C   UNL     1       5.261  -1.318  -4.279  1.00  0.00     0.029 A 
ATOM     82  C   UNL     1       5.896  -3.134  -5.747  1.00  0.00     0.029 A 
ATOM     83  C   UNL     1       6.099  -1.829  -5.270  1.00  0.00     0.052 A 
BRANCH  83  84
ATOM     84  N   UNL     1       7.261  -1.137  -5.654  1.00  0.00    -0.250 N 
ATOM     85  C   UNL     1       7.766  -1.134  -6.957  1.00  0.00     0.237 C 
ATOM     86  C   UNL     1       8.190  -0.631  -4.719  1.00  0.00     0.237 C 
ATOM     87  O   UNL     1       7.200  -1.324  -8.023  1.00  0.00    -0.274 OA
ATOM     88  C   UNL     1       9.230  -1.019  -6.742  1.00  0.00     0.095 C 
ATOM     89  C   UNL     1       9.252  -0.031  -5.588  1.00  0.00     0.095 C 
ATOM     90  O   UNL     1       8.134  -0.563  -3.503  1.00  0.00    -0.274 OA
ATOM     91  C   UNL     1      10.425  -0.565  -7.583  1.00  0.00     0.002 C 
ATOM     92  C   UNL     1      10.747   0.252  -5.493  1.00  0.00     0.002 C 
ATOM     93  C   UNL     1      11.588  -1.439  -7.066  1.00  0.00     0.005 C 
ATOM     94  C   UNL     1      10.886   0.769  -6.948  1.00  0.00     0.009 C 
ATOM     95  C   UNL     1      11.663  -1.005  -5.572  1.00  0.00     0.005 C 
ENDBRANCH  83  84
ENDBRANCH  76  78
ENDBRANCH  70  74
ENDBRANCH  65  68
ENDBRANCH  63  64
ENDBRANCH   1  63
TORSDOF 13
