REMARK SMILES CC1(C)S[C@H](c2ccc(-c3ccccc3)o2)[NH2+][C@H]1C(=O)NCCCNC(=O)c1ccc(-c2c3nc(c(-c4c(F)cccc4F)c4ccc([nH]4)c(-c4c(F)cccc4F)c4nc(c(-c5c(F)cccc5F)c5ccc2[nH]5)C=C4)C=C3)cc1
REMARK SMILES IDX 23 1 22 2 21 3 19 4 20 5 18 7 1 8 2 9 3 10 4 11 5 12 17 13
REMARK SMILES IDX 6 16 7 17 16 18 8 19 9 20 10 21 11 22 15 23 12 24 14 25
REMARK SMILES IDX 13 26 24 27 25 28 26 29 27 31 28 32 29 33 81 34 30 35 80 36
REMARK SMILES IDX 31 37 32 38 33 39 74 40 34 41 79 42 73 43 75 44 35 45 78 46
REMARK SMILES IDX 72 47 71 48 36 50 62 51 45 52 61 53 46 54 49 55 60 56 76 57
REMARK SMILES IDX 47 58 48 59 59 61 77 62 50 63 37 64 38 65 43 66 39 67 40 68
REMARK SMILES IDX 42 69 44 70 41 71 63 72 64 73 69 74 65 75 66 76 68 77 70 78
REMARK SMILES IDX 67 79 51 80 52 81 57 82 53 83 54 84 56 85 58 86 55 87
REMARK H PARENT 21 6 17 14 17 15 25 30 75 49 49 60
REMARK Flexibility Score: inf
ROOT
ATOM      1  C   UNL     1       1.130   2.225   3.413  1.00  0.00     0.042 C 
ENDROOT
BRANCH   1   2
ATOM      2  C   UNL     1       0.002   2.419   2.401  1.00  0.00     0.118 C 
BRANCH   2   3
ATOM      3  N   UNL     1       0.470   2.934   1.120  1.00  0.00    -0.351 N 
ATOM      4  C   UNL     1       0.501   2.472  -0.161  1.00  0.00     0.279 C 
ATOM      5  O   UNL     1       1.087   3.206  -0.968  1.00  0.00    -0.268 OA
ATOM      6  H   UNL     1       0.859   3.835   1.201  1.00  0.00     0.163 HD
BRANCH   4   7
ATOM      7  C   UNL     1      -0.059   1.114  -0.636  1.00  0.00     0.289 C 
ATOM      8  C   UNL     1       1.655  -0.138   0.899  1.00  0.00     0.030 C 
ATOM      9  C   UNL     1       0.906  -0.072  -0.428  1.00  0.00     0.078 C 
ATOM     10  C   UNL     1       1.913  -0.178  -1.580  1.00  0.00     0.030 C 
ATOM     11  S   UNL     1      -0.192  -1.524  -0.469  1.00  0.00    -0.078 SA
ATOM     12  C   UNL     1      -1.723  -0.570  -0.317  1.00  0.00     0.311 C 
ATOM     13  N   UNL     1      -1.423   0.850  -0.136  1.00  0.00    -0.317 N 
ATOM     14  H   UNL     1      -1.478   1.088   0.854  1.00  0.00     0.348 HD
ATOM     15  H   UNL     1      -2.098   1.415  -0.652  1.00  0.00     0.348 HD
BRANCH  12  16
ATOM     16  C   UNL     1      -2.636  -0.892  -1.454  1.00  0.00     0.172 A 
ATOM     17  C   UNL     1      -3.409  -2.014  -1.694  1.00  0.00     0.054 A 
ATOM     18  O   UNL     1      -2.781  -0.002  -2.486  1.00  0.00    -0.454 OA
ATOM     19  C   UNL     1      -4.076  -1.792  -2.916  1.00  0.00     0.051 A 
ATOM     20  C   UNL     1      -3.676  -0.550  -3.363  1.00  0.00     0.134 A 
BRANCH  20  21
ATOM     21  C   UNL     1      -4.034   0.237  -4.532  1.00  0.00     0.017 A 
ATOM     22  C   UNL     1      -3.067   0.929  -5.269  1.00  0.00     0.012 A 
ATOM     23  C   UNL     1      -5.367   0.267  -4.969  1.00  0.00     0.012 A 
ATOM     24  C   UNL     1      -3.423   1.619  -6.432  1.00  0.00     0.001 A 
ATOM     25  C   UNL     1      -5.726   0.966  -6.122  1.00  0.00     0.001 A 
ATOM     26  C   UNL     1      -4.751   1.636  -6.858  1.00  0.00     0.000 A 
ENDBRANCH  20  21
ENDBRANCH  12  16
ENDBRANCH   4   7
ENDBRANCH   2   3
ENDBRANCH   1   2
BRANCH   1  27
ATOM     27  C   UNL     1       1.842   3.504   3.828  1.00  0.00     0.118 C 
BRANCH  27  28
ATOM     28  N   UNL     1       1.123   4.224   4.865  1.00  0.00    -0.352 N 
ATOM     29  C   UNL     1       1.395   4.350   6.207  1.00  0.00     0.251 C 
ATOM     30  H   UNL     1       0.314   4.695   4.559  1.00  0.00     0.163 HD
ATOM     31  O   UNL     1       0.538   4.820   6.951  1.00  0.00    -0.269 OA
BRANCH  29  32
ATOM     32  C   UNL     1       2.693   3.911   6.776  1.00  0.00     0.039 A 
ATOM     33  C   UNL     1       2.703   3.295   8.032  1.00  0.00     0.014 A 
ATOM     34  C   UNL     1       3.904   4.153   6.121  1.00  0.00     0.014 A 
ATOM     35  C   UNL     1       3.911   2.879   8.601  1.00  0.00     0.010 A 
ATOM     36  C   UNL     1       5.098   3.661   6.647  1.00  0.00     0.010 A 
ATOM     37  C   UNL     1       5.118   3.034   7.902  1.00  0.00    -0.014 A 
BRANCH  37  38
ATOM     38  C   UNL     1       6.412   2.586   8.482  1.00  0.00     0.031 A 
ATOM     39  C   UNL     1       7.491   3.589   8.793  1.00  0.00     0.074 A 
ATOM     40  C   UNL     1       6.641   1.274   8.686  1.00  0.00     0.049 A 
ATOM     41  N   UNL     1       8.707   3.388   9.237  1.00  0.00    -0.248 NA
ATOM     42  C   UNL     1       7.170   5.004   8.548  1.00  0.00     0.031 C 
ATOM     43  C   UNL     1       5.699   0.192   8.390  1.00  0.00     0.029 A 
ATOM     44  N   UNL     1       7.744   0.626   9.186  1.00  0.00    -0.354 N 
ATOM     45  C   UNL     1       9.299   4.644   9.301  1.00  0.00     0.074 A 
ATOM     46  C   UNL     1       8.328   5.595   8.806  1.00  0.00     0.031 C 
ATOM     47  C   UNL     1       6.254  -0.980   8.739  1.00  0.00     0.029 A 
ATOM     48  C   UNL     1       7.600  -0.739   9.250  1.00  0.00     0.049 A 
ATOM     49  H   UNL     1       8.560   1.095   9.471  1.00  0.00     0.167 HD
ATOM     50  C   UNL     1      10.530   4.980   9.754  1.00  0.00     0.037 A 
ATOM     51  C   UNL     1       8.456  -1.689   9.671  1.00  0.00     0.037 A 
ATOM     52  C   UNL     1      11.485   4.044  10.284  1.00  0.00     0.049 A 
ATOM     53  C   UNL     1       9.812  -1.289  10.181  1.00  0.00     0.074 A 
ATOM     54  C   UNL     1      12.735   4.297  10.822  1.00  0.00     0.029 A 
ATOM     55  N   UNL     1      11.291   2.673  10.351  1.00  0.00    -0.354 N 
ATOM     56  N   UNL     1      10.337  -0.093  10.282  1.00  0.00    -0.248 NA
ATOM     57  C   UNL     1      10.693  -2.374  10.639  1.00  0.00     0.031 C 
ATOM     58  C   UNL     1      13.311   3.075  11.186  1.00  0.00     0.029 A 
ATOM     59  C   UNL     1      12.404   2.065  10.909  1.00  0.00     0.049 A 
ATOM     60  H   UNL     1      10.482   2.201  10.046  1.00  0.00     0.167 HD
ATOM     61  C   UNL     1      11.597  -0.277  10.837  1.00  0.00     0.074 A 
ATOM     62  C   UNL     1      11.753  -1.699  11.062  1.00  0.00     0.031 C 
ATOM     63  C   UNL     1      12.540   0.650  11.134  1.00  0.00     0.037 A 
BRANCH  50  64
ATOM     64  C   UNL     1      10.911   6.431   9.703  1.00  0.00     0.057 A 
ATOM     65  C   UNL     1      10.341   7.372  10.571  1.00  0.00     0.134 A 
ATOM     66  C   UNL     1      11.876   6.888   8.798  1.00  0.00     0.134 A 
ATOM     67  F   UNL     1       9.401   7.001  11.454  1.00  0.00    -0.206 F 
ATOM     68  C   UNL     1      10.699   8.720  10.523  1.00  0.00     0.040 A 
ATOM     69  C   UNL     1      12.260   8.230   8.757  1.00  0.00     0.040 A 
ATOM     70  F   UNL     1      12.465   6.039   7.942  1.00  0.00    -0.206 F 
ATOM     71  C   UNL     1      11.666   9.151   9.617  1.00  0.00     0.006 A 
ENDBRANCH  50  64
BRANCH  51  72
ATOM     72  C   UNL     1       8.045  -3.114   9.660  1.00  0.00     0.057 A 
ATOM     73  C   UNL     1       7.771  -3.792  10.854  1.00  0.00     0.134 A 
ATOM     74  C   UNL     1       7.922  -3.833   8.465  1.00  0.00     0.134 A 
ATOM     75  F   UNL     1       7.890  -3.160  12.030  1.00  0.00    -0.206 F 
ATOM     76  C   UNL     1       7.404  -5.138  10.862  1.00  0.00     0.040 A 
ATOM     77  C   UNL     1       7.536  -5.174   8.457  1.00  0.00     0.040 A 
ATOM     78  F   UNL     1       8.166  -3.238   7.289  1.00  0.00    -0.206 F 
ATOM     79  C   UNL     1       7.281  -5.832   9.660  1.00  0.00     0.006 A 
ENDBRANCH  51  72
BRANCH  63  80
ATOM     80  C   UNL     1      13.809   0.159  11.762  1.00  0.00     0.057 A 
ATOM     81  C   UNL     1      14.785  -0.518  11.020  1.00  0.00     0.134 A 
ATOM     82  C   UNL     1      14.073   0.397  13.117  1.00  0.00     0.134 A 
ATOM     83  F   UNL     1      14.585  -0.788   9.721  1.00  0.00    -0.206 F 
ATOM     84  C   UNL     1      15.972  -0.959  11.609  1.00  0.00     0.040 A 
ATOM     85  C   UNL     1      15.265  -0.019  13.711  1.00  0.00     0.040 A 
ATOM     86  F   UNL     1      13.182   1.046  13.880  1.00  0.00    -0.206 F 
ATOM     87  C   UNL     1      16.216  -0.703  12.957  1.00  0.00     0.006 A 
ENDBRANCH  63  80
ENDBRANCH  37  38
ENDBRANCH  29  32
ENDBRANCH  27  28
ENDBRANCH   1  27
TORSDOF 12
