REMARK SMILES O=C(CN(CC(F)(F)F)C(=O)[C@H]1C[C@H]2CC[C@@H]1[NH2+]2)NCCCNC(=O)c1ccc(-c2c3nc(c(-c4c(F)cccc4F)c4ccc([nH]4)c(-c4c(F)cccc4F)c4nc(c(-c5c(F)cccc5F)c5ccc2[nH]5)C=C4)C=C3)cc1
REMARK SMILES IDX 20 1 19 2 1 3 2 4 3 6 4 7 5 8 6 9 7 10 8 11 9 12 10 13 11 14
REMARK SMILES IDX 12 15 13 16 17 17 14 18 16 19 18 20 15 21 21 24 22 25 23 26
REMARK SMILES IDX 24 27 25 29 26 30 27 31 79 32 28 33 78 34 29 35 30 36 31 37
REMARK SMILES IDX 72 38 32 39 77 40 71 41 73 42 33 43 76 44 70 45 69 46 34 48
REMARK SMILES IDX 60 49 43 50 59 51 44 52 47 53 58 54 74 55 45 56 46 57 57 59
REMARK SMILES IDX 75 60 48 61 35 62 36 63 41 64 37 65 38 66 40 67 42 68 39 69
REMARK SMILES IDX 61 70 62 71 67 72 63 73 64 74 66 75 68 76 65 77 49 78 50 79
REMARK SMILES IDX 55 80 51 81 52 82 54 83 56 84 53 85
REMARK H PARENT 19 5 18 22 18 23 23 28 73 47 47 58
REMARK Flexibility Score: inf
ROOT
ATOM      1  C   UNL     1       7.882   0.218   0.316  1.00  0.00     0.117 C 
ENDROOT
BRANCH   1   2
ATOM      2  N   UNL     1       7.696   1.061  -0.848  1.00  0.00    -0.354 N 
ATOM      3  O   UNL     1       9.468   0.205  -2.020  1.00  0.00    -0.273 OA
ATOM      4  C   UNL     1       8.480   0.935  -1.977  1.00  0.00     0.239 C 
ATOM      5  H   UNL     1       6.989   1.745  -0.833  1.00  0.00     0.163 HD
BRANCH   4   6
ATOM      6  C   UNL     1       8.116   1.871  -3.142  1.00  0.00     0.219 C 
BRANCH   6   7
ATOM      7  N   UNL     1       6.821   2.574  -3.000  1.00  0.00    -0.324 N 
BRANCH   7   8
ATOM      8  C   UNL     1       6.907   3.955  -2.499  1.00  0.00     0.235 C 
BRANCH   8   9
ATOM      9  C   UNL     1       7.200   5.002  -3.588  1.00  0.00     0.406 C 
ATOM     10  F   UNL     1       6.634   4.669  -4.769  1.00  0.00    -0.169 F 
ATOM     11  F   UNL     1       6.716   6.212  -3.232  1.00  0.00    -0.169 F 
ATOM     12  F   UNL     1       8.528   5.131  -3.793  1.00  0.00    -0.169 F 
ENDBRANCH   8   9
ENDBRANCH   7   8
BRANCH   7  13
ATOM     13  C   UNL     1       5.712   1.961  -3.561  1.00  0.00     0.232 C 
ATOM     14  O   UNL     1       5.852   0.838  -4.064  1.00  0.00    -0.274 OA
BRANCH  13  15
ATOM     15  C   UNL     1       4.279   2.511  -3.481  1.00  0.00     0.142 C 
ATOM     16  C   UNL     1       3.847   3.969  -3.265  1.00  0.00     0.084 C 
ATOM     17  C   UNL     1       3.531   2.178  -4.796  1.00  0.00     0.195 C 
ATOM     18  C   UNL     1       2.838   4.223  -4.393  1.00  0.00     0.183 C 
ATOM     19  C   UNL     1       4.092   2.977  -5.986  1.00  0.00     0.072 C 
ATOM     20  N   UNL     1       2.255   2.885  -4.552  1.00  0.00    -0.341 N 
ATOM     21  C   UNL     1       3.590   4.397  -5.712  1.00  0.00     0.071 C 
ATOM     22  H   UNL     1       1.615   2.826  -5.344  1.00  0.00     0.346 HD
ATOM     23  H   UNL     1       1.674   2.539  -3.787  1.00  0.00     0.346 HD
ENDBRANCH  13  15
ENDBRANCH   7  13
ENDBRANCH   6   7
ENDBRANCH   4   6
ENDBRANCH   1   2
BRANCH   1  24
ATOM     24  C   UNL     1       8.958   0.717   1.278  1.00  0.00     0.042 C 
BRANCH  24  25
ATOM     25  C   UNL     1       8.685   2.078   1.915  1.00  0.00     0.118 C 
BRANCH  25  26
ATOM     26  N   UNL     1       7.463   2.114   2.705  1.00  0.00    -0.352 N 
ATOM     27  C   UNL     1       7.226   2.510   3.996  1.00  0.00     0.251 C 
ATOM     28  H   UNL     1       6.663   1.796   2.228  1.00  0.00     0.163 HD
ATOM     29  O   UNL     1       6.099   2.330   4.467  1.00  0.00    -0.269 OA
BRANCH  27  30
ATOM     30  C   UNL     1       8.273   3.124   4.847  1.00  0.00     0.039 A 
ATOM     31  C   UNL     1       8.275   2.814   6.213  1.00  0.00     0.014 A 
ATOM     32  C   UNL     1       9.204   4.042   4.353  1.00  0.00     0.014 A 
ATOM     33  C   UNL     1       9.232   3.376   7.063  1.00  0.00     0.010 A 
ATOM     34  C   UNL     1      10.203   4.550   5.189  1.00  0.00     0.010 A 
ATOM     35  C   UNL     1      10.227   4.226   6.554  1.00  0.00    -0.014 A 
BRANCH  35  36
ATOM     36  C   UNL     1      11.293   4.761   7.445  1.00  0.00     0.031 A 
ATOM     37  C   UNL     1      11.404   6.236   7.723  1.00  0.00     0.074 A 
ATOM     38  C   UNL     1      12.188   3.912   7.987  1.00  0.00     0.049 A 
ATOM     39  N   UNL     1      12.262   6.871   8.483  1.00  0.00    -0.248 NA
ATOM     40  C   UNL     1      10.441   7.115   7.044  1.00  0.00     0.031 C 
ATOM     41  C   UNL     1      12.232   2.467   7.756  1.00  0.00     0.029 A 
ATOM     42  N   UNL     1      13.235   4.142   8.846  1.00  0.00    -0.354 N 
ATOM     43  C   UNL     1      11.950   8.220   8.366  1.00  0.00     0.074 A 
ATOM     44  C   UNL     1      10.857   8.316   7.422  1.00  0.00     0.031 C 
ATOM     45  C   UNL     1      13.229   1.935   8.480  1.00  0.00     0.029 A 
ATOM     46  C   UNL     1      13.914   3.002   9.204  1.00  0.00     0.049 A 
ATOM     47  H   UNL     1      13.476   5.038   9.175  1.00  0.00     0.167 HD
ATOM     48  C   UNL     1      12.506   9.280   9.002  1.00  0.00     0.037 A 
ATOM     49  C   UNL     1      14.964   2.831  10.028  1.00  0.00     0.037 A 
ATOM     50  C   UNL     1      13.579   9.187   9.958  1.00  0.00     0.049 A 
ATOM     51  C   UNL     1      15.549   4.020  10.737  1.00  0.00     0.074 A 
ATOM     52  C   UNL     1      14.168  10.199  10.697  1.00  0.00     0.029 A 
ATOM     53  N   UNL     1      14.226   8.011  10.309  1.00  0.00    -0.354 N 
ATOM     54  N   UNL     1      15.194   5.280  10.672  1.00  0.00    -0.248 NA
ATOM     55  C   UNL     1      16.675   3.760  11.646  1.00  0.00     0.031 C 
ATOM     56  C   UNL     1      15.197   9.643  11.465  1.00  0.00     0.029 A 
ATOM     57  C   UNL     1      15.218   8.276  11.240  1.00  0.00     0.049 A 
ATOM     58  H   UNL     1      14.012   7.120   9.949  1.00  0.00     0.167 HD
ATOM     59  C   UNL     1      16.031   5.957  11.548  1.00  0.00     0.074 A 
ATOM     60  C   UNL     1      16.900   4.965  12.147  1.00  0.00     0.031 C 
ATOM     61  C   UNL     1      16.077   7.282  11.831  1.00  0.00     0.037 A 
BRANCH  48  62
ATOM     62  C   UNL     1      11.953  10.641   8.689  1.00  0.00     0.057 A 
ATOM     63  C   UNL     1      10.681  11.038   9.122  1.00  0.00     0.134 A 
ATOM     64  C   UNL     1      12.715  11.580   7.982  1.00  0.00     0.134 A 
ATOM     65  F   UNL     1       9.895  10.184   9.795  1.00  0.00    -0.206 F 
ATOM     66  C   UNL     1      10.176  12.309   8.840  1.00  0.00     0.040 A 
ATOM     67  C   UNL     1      12.232  12.863   7.717  1.00  0.00     0.040 A 
ATOM     68  F   UNL     1      13.945  11.270   7.545  1.00  0.00    -0.206 F 
ATOM     69  C   UNL     1      10.956  13.228   8.141  1.00  0.00     0.006 A 
ENDBRANCH  48  62
BRANCH  49  70
ATOM     70  C   UNL     1      15.510   1.470  10.262  1.00  0.00     0.057 A 
ATOM     71  C   UNL     1      15.334   0.825  11.491  1.00  0.00     0.134 A 
ATOM     72  C   UNL     1      16.225   0.789   9.271  1.00  0.00     0.134 A 
ATOM     73  F   UNL     1      14.674   1.436  12.486  1.00  0.00    -0.206 F 
ATOM     74  C   UNL     1      15.867  -0.442  11.735  1.00  0.00     0.040 A 
ATOM     75  C   UNL     1      16.742  -0.488   9.492  1.00  0.00     0.040 A 
ATOM     76  F   UNL     1      16.421   1.351   8.069  1.00  0.00    -0.206 F 
ATOM     77  C   UNL     1      16.570  -1.104  10.730  1.00  0.00     0.006 A 
ENDBRANCH  49  70
BRANCH  61  78
ATOM     78  C   UNL     1      17.079   7.727  12.856  1.00  0.00     0.057 A 
ATOM     79  C   UNL     1      18.454   7.740  12.590  1.00  0.00     0.134 A 
ATOM     80  C   UNL     1      16.661   8.156  14.122  1.00  0.00     0.134 A 
ATOM     81  F   UNL     1      18.921   7.328  11.402  1.00  0.00    -0.206 F 
ATOM     82  C   UNL     1      19.381   8.134  13.558  1.00  0.00     0.040 A 
ATOM     83  C   UNL     1      17.576   8.578  15.088  1.00  0.00     0.040 A 
ATOM     84  F   UNL     1      15.358   8.176  14.440  1.00  0.00    -0.206 F 
ATOM     85  C   UNL     1      18.941   8.558  14.810  1.00  0.00     0.006 A 
ENDBRANCH  61  78
ENDBRANCH  35  36
ENDBRANCH  27  30
ENDBRANCH  25  26
ENDBRANCH  24  25
ENDBRANCH   1  24
TORSDOF 15
