REMARK SMILES O=C(NCCCNC(=O)[C@H](c1ccccc1)N1C(=O)/C(=C/c2ccc(-c3nc4ccccc4s3)o2)SC1=S)c1ccc(-c2c3nc(c(-c4c(F)cccc4F)c4ccc([nH]4)c(-c4c(F)cccc4F)c4nc(c(-c5c(F)cccc5F)c5ccc2[nH]5)C=C4)C=C3)cc1
REMARK SMILES IDX 5 1 4 2 3 3 1 4 2 5 39 7 40 8 92 9 41 10 91 11 42 12 43 13
REMARK SMILES IDX 44 14 85 15 45 16 90 17 84 18 86 19 46 20 89 21 83 22 82 23
REMARK SMILES IDX 47 25 73 26 56 27 72 28 57 29 60 30 71 31 87 32 58 33 59 34
REMARK SMILES IDX 70 36 88 37 61 38 48 39 49 40 54 41 50 42 51 43 53 44 55 45
REMARK SMILES IDX 52 46 74 47 75 48 80 49 76 50 77 51 79 52 81 53 78 54 62 55
REMARK SMILES IDX 63 56 68 57 64 58 65 59 67 60 69 61 66 62 6 63 7 64 8 65
REMARK SMILES IDX 9 67 10 68 17 69 18 70 37 71 19 72 20 73 36 74 38 75 21 76
REMARK SMILES IDX 22 77 23 78 35 79 24 80 25 81 26 82 27 83 34 84 28 85 33 86
REMARK SMILES IDX 29 87 32 88 30 89 31 90 11 91 12 92 16 93 13 94 15 95 14 96
REMARK H PARENT 3 6 86 24 60 35 7 66
REMARK Flexibility Score: inf
ROOT
ATOM      1  C   UNL     1       8.975   4.163  -3.913  1.00  0.00     0.042 C 
ENDROOT
BRANCH   1   2
ATOM      2  C   UNL     1      10.218   3.489  -3.360  1.00  0.00     0.118 C 
BRANCH   2   3
ATOM      3  N   UNL     1      11.422   3.910  -4.069  1.00  0.00    -0.352 N 
ATOM      4  O   UNL     1      13.213   5.216  -4.486  1.00  0.00    -0.269 OA
ATOM      5  C   UNL     1      12.427   4.755  -3.665  1.00  0.00     0.251 C 
ATOM      6  H   UNL     1      11.530   3.532  -4.972  1.00  0.00     0.163 HD
BRANCH   5   7
ATOM      7  C   UNL     1      12.553   5.099  -2.236  1.00  0.00     0.039 A 
ATOM      8  C   UNL     1      12.313   4.123  -1.271  1.00  0.00     0.014 A 
ATOM      9  C   UNL     1      12.927   6.390  -1.850  1.00  0.00     0.014 A 
ATOM     10  C   UNL     1      12.252   4.476   0.063  1.00  0.00     0.010 A 
ATOM     11  C   UNL     1      13.017   6.705  -0.490  1.00  0.00     0.010 A 
ATOM     12  C   UNL     1      12.659   5.754   0.476  1.00  0.00    -0.014 A 
BRANCH  12  13
ATOM     13  C   UNL     1      12.799   5.990   1.934  1.00  0.00     0.031 A 
ATOM     14  C   UNL     1      11.982   7.023   2.651  1.00  0.00     0.074 A 
ATOM     15  C   UNL     1      13.632   5.178   2.617  1.00  0.00     0.049 A 
ATOM     16  N   UNL     1      11.939   7.285   3.933  1.00  0.00    -0.248 NA
ATOM     17  C   UNL     1      11.110   7.880   1.834  1.00  0.00     0.031 C 
ATOM     18  C   UNL     1      14.490   4.153   2.010  1.00  0.00     0.029 A 
ATOM     19  N   UNL     1      13.865   5.047   3.959  1.00  0.00    -0.354 N 
ATOM     20  C   UNL     1      11.045   8.338   4.077  1.00  0.00     0.074 A 
ATOM     21  C   UNL     1      10.594   8.692   2.748  1.00  0.00     0.031 C 
ATOM     22  C   UNL     1      15.088   3.448   2.977  1.00  0.00     0.029 A 
ATOM     23  C   UNL     1      14.736   4.028   4.264  1.00  0.00     0.049 A 
ATOM     24  H   UNL     1      13.450   5.625   4.639  1.00  0.00     0.167 HD
ATOM     25  C   UNL     1      10.633   8.940   5.219  1.00  0.00     0.037 A 
ATOM     26  C   UNL     1      15.221   3.619   5.449  1.00  0.00     0.037 A 
ATOM     27  C   UNL     1      11.094   8.575   6.536  1.00  0.00     0.049 A 
ATOM     28  C   UNL     1      14.764   4.325   6.689  1.00  0.00     0.074 A 
ATOM     29  C   UNL     1      10.740   9.124   7.757  1.00  0.00     0.029 A 
ATOM     30  N   UNL     1      12.011   7.568   6.805  1.00  0.00    -0.354 N 
ATOM     31  N   UNL     1      13.905   5.308   6.810  1.00  0.00    -0.248 NA
ATOM     32  C   UNL     1      15.346   3.870   7.956  1.00  0.00     0.031 C 
ATOM     33  C   UNL     1      11.476   8.481   8.758  1.00  0.00     0.029 A 
ATOM     34  C   UNL     1      12.246   7.491   8.169  1.00  0.00     0.049 A 
ATOM     35  H   UNL     1      12.432   6.992   6.126  1.00  0.00     0.167 HD
ATOM     36  C   UNL     1      13.837   5.586   8.166  1.00  0.00     0.074 A 
ATOM     37  C   UNL     1      14.711   4.638   8.829  1.00  0.00     0.031 C 
ATOM     38  C   UNL     1      13.126   6.545   8.807  1.00  0.00     0.037 A 
BRANCH  25  39
ATOM     39  C   UNL     1       9.644  10.065   5.098  1.00  0.00     0.057 A 
ATOM     40  C   UNL     1       8.308   9.839   4.742  1.00  0.00     0.134 A 
ATOM     41  C   UNL     1      10.016  11.382   5.399  1.00  0.00     0.134 A 
ATOM     42  F   UNL     1       7.887   8.604   4.428  1.00  0.00    -0.206 F 
ATOM     43  C   UNL     1       7.382  10.883   4.675  1.00  0.00     0.040 A 
ATOM     44  C   UNL     1       9.094  12.430   5.361  1.00  0.00     0.040 A 
ATOM     45  F   UNL     1      11.277  11.670   5.753  1.00  0.00    -0.206 F 
ATOM     46  C   UNL     1       7.773  12.182   4.995  1.00  0.00     0.006 A 
ENDBRANCH  25  39
BRANCH  26  47
ATOM     47  C   UNL     1      16.216   2.518   5.505  1.00  0.00     0.057 A 
ATOM     48  C   UNL     1      15.926   1.297   6.122  1.00  0.00     0.134 A 
ATOM     49  C   UNL     1      17.492   2.669   4.944  1.00  0.00     0.134 A 
ATOM     50  F   UNL     1      14.728   1.094   6.689  1.00  0.00    -0.206 F 
ATOM     51  C   UNL     1      16.875   0.276   6.203  1.00  0.00     0.040 A 
ATOM     52  C   UNL     1      18.437   1.645   4.984  1.00  0.00     0.040 A 
ATOM     53  F   UNL     1      17.830   3.810   4.325  1.00  0.00    -0.206 F 
ATOM     54  C   UNL     1      18.133   0.447   5.627  1.00  0.00     0.006 A 
ENDBRANCH  26  47
BRANCH  38  55
ATOM     55  C   UNL     1      13.258   6.589  10.302  1.00  0.00     0.057 A 
ATOM     56  C   UNL     1      14.445   6.993  10.928  1.00  0.00     0.134 A 
ATOM     57  C   UNL     1      12.188   6.213  11.123  1.00  0.00     0.134 A 
ATOM     58  F   UNL     1      15.512   7.349  10.198  1.00  0.00    -0.206 F 
ATOM     59  C   UNL     1      14.576   6.979  12.318  1.00  0.00     0.040 A 
ATOM     60  C   UNL     1      12.296   6.228  12.514  1.00  0.00     0.040 A 
ATOM     61  F   UNL     1      11.021   5.824  10.588  1.00  0.00    -0.206 F 
ATOM     62  C   UNL     1      13.498   6.599  13.114  1.00  0.00     0.006 A 
ENDBRANCH  38  55
ENDBRANCH  12  13
ENDBRANCH   5   7
ENDBRANCH   2   3
ENDBRANCH   1   2
BRANCH   1  63
ATOM     63  C   UNL     1       8.662   3.707  -5.329  1.00  0.00     0.117 C 
BRANCH  63  64
ATOM     64  N   UNL     1       8.182   2.337  -5.330  1.00  0.00    -0.354 N 
ATOM     65  C   UNL     1       6.901   1.861  -5.203  1.00  0.00     0.247 C 
ATOM     66  H   UNL     1       8.877   1.649  -5.438  1.00  0.00     0.163 HD
ATOM     67  O   UNL     1       6.801   0.653  -4.996  1.00  0.00    -0.272 OA
BRANCH  65  68
ATOM     68  C   UNL     1       5.705   2.847  -5.327  1.00  0.00     0.211 C 
BRANCH  68  69
ATOM     69  N   UNL     1       4.562   2.476  -6.183  1.00  0.00    -0.276 N 
ATOM     70  C   UNL     1       3.961   1.232  -6.111  1.00  0.00     0.267 C 
ATOM     71  C   UNL     1       3.909   3.412  -6.972  1.00  0.00     0.149 C 
ATOM     72  O   UNL     1       4.221   0.309  -5.349  1.00  0.00    -0.268 OA
ATOM     73  C   UNL     1       2.860   1.134  -7.104  1.00  0.00     0.084 C 
ATOM     74  S   UNL     1       2.522   2.687  -7.749  1.00  0.00    -0.054 SA
ATOM     75  S   UNL     1       4.272   5.021  -7.249  1.00  0.00    -0.052 S 
ATOM     76  C   UNL     1       2.257  -0.024  -7.405  1.00  0.00     0.068 C 
BRANCH  76  77
ATOM     77  C   UNL     1       1.220  -0.103  -8.373  1.00  0.00     0.129 A 
ATOM     78  C   UNL     1       1.223   0.306  -9.700  1.00  0.00     0.051 A 
ATOM     79  O   UNL     1      -0.028  -0.613  -8.094  1.00  0.00    -0.454 OA
ATOM     80  C   UNL     1      -0.066   0.086 -10.218  1.00  0.00     0.054 A 
ATOM     81  C   UNL     1      -0.817  -0.483  -9.207  1.00  0.00     0.163 A 
BRANCH  81  82
ATOM     82  C   UNL     1      -2.195  -0.869  -9.296  1.00  0.00     0.160 A 
ATOM     83  N   UNL     1      -2.747  -1.103 -10.467  1.00  0.00    -0.233 NA
ATOM     84  S   UNL     1      -3.233  -0.976  -7.941  1.00  0.00    -0.111 S 
ATOM     85  C   UNL     1      -4.091  -1.361 -10.307  1.00  0.00     0.082 A 
ATOM     86  C   UNL     1      -4.561  -1.307  -8.993  1.00  0.00     0.055 A 
ATOM     87  C   UNL     1      -4.992  -1.648 -11.349  1.00  0.00     0.030 A 
ATOM     88  C   UNL     1      -5.919  -1.504  -8.691  1.00  0.00     0.021 A 
ATOM     89  C   UNL     1      -6.343  -1.849 -11.059  1.00  0.00     0.002 A 
ATOM     90  C   UNL     1      -6.799  -1.770  -9.747  1.00  0.00     0.002 A 
ENDBRANCH  81  82
ENDBRANCH  76  77
ENDBRANCH  68  69
BRANCH  68  91
ATOM     91  C   UNL     1       5.281   3.468  -4.002  1.00  0.00    -0.016 A 
ATOM     92  C   UNL     1       4.616   2.733  -3.015  1.00  0.00     0.006 A 
ATOM     93  C   UNL     1       5.536   4.835  -3.763  1.00  0.00     0.006 A 
ATOM     94  C   UNL     1       4.206   3.354  -1.831  1.00  0.00     0.000 A 
ATOM     95  C   UNL     1       5.141   5.447  -2.577  1.00  0.00     0.000 A 
ATOM     96  C   UNL     1       4.469   4.706  -1.612  1.00  0.00     0.000 A 
ENDBRANCH  68  91
ENDBRANCH  65  68
ENDBRANCH  63  64
ENDBRANCH   1  63
TORSDOF 14
