REMARK SMILES Cc1ccc(C(=O)NCCCNC(=O)c2ccc(-c3c4nc(c(-c5c(F)cccc5F)c5ccc([nH]5)c(-c5c(F)cccc5F)c5nc(c(-c6c(F)cccc6F)c6ccc3[nH]6)C=C5)C=C4)cc2)c(Oc2cccc(F)c2C(N)=O)c1
REMARK SMILES IDX 9 1 8 2 6 3 7 4 5 6 1 7 2 8 3 9 81 10 4 11 69 12 70 13 71 14
REMARK SMILES IDX 72 15 77 16 73 17 75 18 74 19 76 20 78 21 79 22 80 23 10 26
REMARK SMILES IDX 11 27 12 28 13 29 14 31 15 32 16 33 68 34 17 35 67 36 18 37
REMARK SMILES IDX 19 38 20 39 61 40 21 41 66 42 60 43 62 44 22 45 65 46 59 47
REMARK SMILES IDX 58 48 23 50 49 51 32 52 48 53 33 54 36 55 47 56 63 57 34 58
REMARK SMILES IDX 35 59 46 61 64 62 37 63 24 64 25 65 30 66 26 67 27 68 29 69
REMARK SMILES IDX 31 70 28 71 50 72 51 73 56 74 52 75 53 76 55 77 57 78 54 79
REMARK SMILES IDX 38 80 39 81 44 82 40 83 41 84 43 85 45 86 42 87
REMARK H PARENT 8 5 79 24 79 25 12 30 62 49 36 60
REMARK Flexibility Score: inf
ROOT
ATOM      1  C   UNL     1      -3.603   2.719   0.051  1.00  0.00     0.118 C 
ENDROOT
BRANCH   1   2
ATOM      2  N   UNL     1      -3.676   1.272   0.140  1.00  0.00    -0.352 N 
ATOM      3  C   UNL     1      -2.839   0.202   0.295  1.00  0.00     0.255 C 
ATOM      4  O   UNL     1      -3.436  -0.873   0.439  1.00  0.00    -0.269 OA
ATOM      5  H   UNL     1      -4.610   0.970   0.065  1.00  0.00     0.163 HD
BRANCH   3   6
ATOM      6  C   UNL     1      -1.344   0.149   0.238  1.00  0.00     0.082 A 
ATOM      7  C   UNL     1       2.924  -0.657   0.010  1.00  0.00     0.044 C 
ATOM      8  C   UNL     1       1.452  -0.387   0.093  1.00  0.00    -0.047 A 
ATOM      9  C   UNL     1       0.532  -1.373  -0.246  1.00  0.00     0.004 A 
ATOM     10  C   UNL     1       0.975   0.844   0.551  1.00  0.00     0.051 A 
ATOM     11  C   UNL     1      -0.839  -1.109  -0.166  1.00  0.00     0.018 A 
ATOM     12  C   UNL     1      -0.405   1.132   0.577  1.00  0.00     0.140 A 
BRANCH  12  13
ATOM     13  O   UNL     1      -0.811   2.341   1.052  1.00  0.00    -0.456 OA
BRANCH  13  14
ATOM     14  C   UNL     1      -0.303   3.532   0.572  1.00  0.00     0.143 A 
ATOM     15  C   UNL     1      -0.540   4.579   1.489  1.00  0.00     0.048 A 
ATOM     16  C   UNL     1       0.263   3.837  -0.677  1.00  0.00     0.117 A 
ATOM     17  C   UNL     1      -0.237   5.903   1.181  1.00  0.00     0.007 A 
ATOM     18  C   UNL     1       0.566   5.177  -0.966  1.00  0.00     0.139 A 
ATOM     19  C   UNL     1       0.314   6.202  -0.056  1.00  0.00     0.040 A 
ATOM     20  F   UNL     1       1.059   5.526  -2.164  1.00  0.00    -0.206 F 
BRANCH  16  21
ATOM     21  C   UNL     1       0.598   2.888  -1.759  1.00  0.00     0.255 C 
ATOM     22  N   UNL     1      -0.391   2.087  -2.253  1.00  0.00    -0.365 N 
ATOM     23  O   UNL     1       1.732   2.835  -2.219  1.00  0.00    -0.269 OA
ATOM     24  H   UNL     1      -1.299   2.138  -1.876  1.00  0.00     0.159 HD
ATOM     25  H   UNL     1      -0.196   1.460  -2.986  1.00  0.00     0.159 HD
ENDBRANCH  16  21
ENDBRANCH  13  14
ENDBRANCH  12  13
ENDBRANCH   3   6
ENDBRANCH   1   2
BRANCH   1  26
ATOM     26  C   UNL     1      -3.467   3.239  -1.372  1.00  0.00     0.042 C 
BRANCH  26  27
ATOM     27  C   UNL     1      -4.554   4.237  -1.731  1.00  0.00     0.118 C 
BRANCH  27  28
ATOM     28  N   UNL     1      -4.387   5.576  -1.169  1.00  0.00    -0.352 N 
ATOM     29  C   UNL     1      -5.288   6.638  -1.248  1.00  0.00     0.251 C 
ATOM     30  H   UNL     1      -3.548   5.747  -0.682  1.00  0.00     0.163 HD
ATOM     31  O   UNL     1      -5.090   7.688  -0.675  1.00  0.00    -0.269 OA
BRANCH  29  32
ATOM     32  C   UNL     1      -6.564   6.379  -1.964  1.00  0.00     0.039 A 
ATOM     33  C   UNL     1      -7.716   6.299  -1.182  1.00  0.00     0.014 A 
ATOM     34  C   UNL     1      -6.503   5.788  -3.223  1.00  0.00     0.014 A 
ATOM     35  C   UNL     1      -8.686   5.362  -1.523  1.00  0.00     0.010 A 
ATOM     36  C   UNL     1      -7.412   4.784  -3.504  1.00  0.00     0.010 A 
ATOM     37  C   UNL     1      -8.456   4.514  -2.610  1.00  0.00    -0.014 A 
BRANCH  37  38
ATOM     38  C   UNL     1      -9.202   3.271  -2.792  1.00  0.00     0.031 A 
ATOM     39  C   UNL     1     -10.214   3.179  -3.862  1.00  0.00     0.074 A 
ATOM     40  C   UNL     1      -9.047   2.215  -1.959  1.00  0.00     0.049 A 
ATOM     41  N   UNL     1     -11.352   2.586  -3.724  1.00  0.00    -0.248 NA
ATOM     42  C   UNL     1     -10.028   3.792  -5.169  1.00  0.00     0.031 C 
ATOM     43  C   UNL     1      -9.652   0.892  -2.102  1.00  0.00     0.029 A 
ATOM     44  N   UNL     1      -8.466   2.195  -0.686  1.00  0.00    -0.354 N 
ATOM     45  C   UNL     1     -11.932   2.513  -4.969  1.00  0.00     0.074 A 
ATOM     46  C   UNL     1     -11.099   3.333  -5.821  1.00  0.00     0.031 C 
ATOM     47  C   UNL     1      -9.674   0.292  -0.902  1.00  0.00     0.029 A 
ATOM     48  C   UNL     1      -9.168   1.236   0.076  1.00  0.00     0.049 A 
ATOM     49  H   UNL     1      -7.710   2.746  -0.380  1.00  0.00     0.167 HD
ATOM     50  C   UNL     1     -12.973   1.660  -5.191  1.00  0.00     0.037 A 
ATOM     51  C   UNL     1      -9.765   1.550   1.261  1.00  0.00     0.037 A 
ATOM     52  C   UNL     1     -13.301   0.890  -3.995  1.00  0.00     0.049 A 
ATOM     53  C   UNL     1     -11.262   1.359   1.260  1.00  0.00     0.074 A 
ATOM     54  C   UNL     1     -12.930  -0.382  -3.588  1.00  0.00     0.029 A 
ATOM     55  N   UNL     1     -13.851   1.514  -2.881  1.00  0.00    -0.354 N 
ATOM     56  N   UNL     1     -11.963   1.136   0.184  1.00  0.00    -0.248 NA
ATOM     57  C   UNL     1     -12.098   1.475   2.455  1.00  0.00     0.031 C 
ATOM     58  C   UNL     1     -13.225  -0.510  -2.211  1.00  0.00     0.029 A 
ATOM     59  C   UNL     1     -13.783   0.680  -1.779  1.00  0.00     0.049 A 
ATOM     60  H   UNL     1     -14.235   2.421  -2.876  1.00  0.00     0.167 HD
ATOM     61  C   UNL     1     -13.298   1.176   0.495  1.00  0.00     0.074 A 
ATOM     62  C   UNL     1     -13.330   1.340   1.935  1.00  0.00     0.031 C 
ATOM     63  C   UNL     1     -14.260   1.109  -0.472  1.00  0.00     0.037 A 
BRANCH  50  64
ATOM     64  C   UNL     1     -13.442   1.299  -6.582  1.00  0.00     0.057 A 
ATOM     65  C   UNL     1     -13.908   0.006  -6.885  1.00  0.00     0.134 A 
ATOM     66  C   UNL     1     -13.405   2.174  -7.681  1.00  0.00     0.134 A 
ATOM     67  F   UNL     1     -14.137  -0.905  -5.931  1.00  0.00    -0.206 F 
ATOM     68  C   UNL     1     -14.163  -0.424  -8.193  1.00  0.00     0.040 A 
ATOM     69  C   UNL     1     -13.599   1.745  -9.002  1.00  0.00     0.040 A 
ATOM     70  F   UNL     1     -13.217   3.491  -7.516  1.00  0.00    -0.206 F 
ATOM     71  C   UNL     1     -13.960   0.432  -9.264  1.00  0.00     0.006 A 
ENDBRANCH  50  64
BRANCH  51  72
ATOM     72  C   UNL     1      -9.041   2.612   2.002  1.00  0.00     0.057 A 
ATOM     73  C   UNL     1      -7.754   2.321   2.485  1.00  0.00     0.134 A 
ATOM     74  C   UNL     1      -9.389   3.957   1.870  1.00  0.00     0.134 A 
ATOM     75  F   UNL     1      -7.365   1.046   2.644  1.00  0.00    -0.206 F 
ATOM     76  C   UNL     1      -6.800   3.321   2.684  1.00  0.00     0.040 A 
ATOM     77  C   UNL     1      -8.445   4.968   2.080  1.00  0.00     0.040 A 
ATOM     78  F   UNL     1     -10.598   4.309   1.410  1.00  0.00    -0.206 F 
ATOM     79  C   UNL     1      -7.135   4.649   2.437  1.00  0.00     0.006 A 
ENDBRANCH  51  72
BRANCH  63  80
ATOM     80  C   UNL     1     -15.733   1.350  -0.262  1.00  0.00     0.057 A 
ATOM     81  C   UNL     1     -16.262   2.221   0.701  1.00  0.00     0.134 A 
ATOM     82  C   UNL     1     -16.681   0.781  -1.141  1.00  0.00     0.134 A 
ATOM     83  F   UNL     1     -15.469   2.923   1.522  1.00  0.00    -0.206 F 
ATOM     84  C   UNL     1     -17.638   2.454   0.830  1.00  0.00     0.040 A 
ATOM     85  C   UNL     1     -18.051   1.047  -1.055  1.00  0.00     0.040 A 
ATOM     86  F   UNL     1     -16.314  -0.043  -2.134  1.00  0.00    -0.206 F 
ATOM     87  C   UNL     1     -18.538   1.872  -0.054  1.00  0.00     0.006 A 
ENDBRANCH  63  80
ENDBRANCH  37  38
ENDBRANCH  29  32
ENDBRANCH  27  28
ENDBRANCH  26  27
ENDBRANCH   1  26
TORSDOF 13
