REMARK SMILES C[C@H](NC(=O)N1CC[C@H](C(=O)NCCCNC(=O)c2ccc(-c3c4nc(c(-c5c(F)cccc5F)c5ccc([nH]5)c(-c5c(F)cccc5F)c5nc(c(-c6c(F)cccc6F)c6ccc3[nH]6)C=C5)C=C4)cc2)[C@@H]1C)[C@@H]1CCCO1
REMARK SMILES IDX 13 1 12 2 10 3 11 4 9 6 6 7 7 8 73 9 8 10 74 11 4 12 3 13
REMARK SMILES IDX 5 15 2 16 1 17 75 18 76 19 79 20 77 21 78 22 14 23 15 24
REMARK SMILES IDX 16 25 17 26 18 28 19 29 20 30 72 31 21 32 71 33 22 34 23 35
REMARK SMILES IDX 24 36 65 37 25 38 70 39 64 40 66 41 26 42 69 43 63 44 62 45
REMARK SMILES IDX 27 47 53 48 36 49 52 50 37 51 40 52 51 53 67 54 38 55 39 56
REMARK SMILES IDX 50 58 68 59 41 60 28 61 29 62 34 63 30 64 31 65 33 66 35 67
REMARK SMILES IDX 32 68 54 69 55 70 60 71 56 72 57 73 59 74 61 75 58 76 42 77
REMARK SMILES IDX 43 78 48 79 44 80 45 81 47 82 49 83 46 84
REMARK H PARENT 12 5 3 14 16 27 66 46 40 57
REMARK Flexibility Score: inf
ROOT
ATOM      1  C   UNL     1       5.981   5.380  -0.090  1.00  0.00     0.117 C 
ENDROOT
BRANCH   1   2
ATOM      2  N   UNL     1       6.251   4.431   0.978  1.00  0.00    -0.356 N 
ATOM      3  C   UNL     1       5.506   3.371   1.410  1.00  0.00     0.225 C 
ATOM      4  O   UNL     1       5.934   2.739   2.370  1.00  0.00    -0.275 OA
ATOM      5  H   UNL     1       7.096   4.575   1.461  1.00  0.00     0.163 HD
BRANCH   3   6
ATOM      6  C   UNL     1       4.204   3.080   0.683  1.00  0.00     0.102 C 
ATOM      7  N   UNL     1       3.116   1.067   0.038  1.00  0.00    -0.321 N 
ATOM      8  C   UNL     1       4.223   1.227  -0.867  1.00  0.00     0.122 C 
ATOM      9  C   UNL     1       3.271   1.957   1.194  1.00  0.00     0.096 C 
ATOM     10  C   UNL     1       4.482   2.712  -0.792  1.00  0.00     0.037 C 
ATOM     11  C   UNL     1       3.693   1.156   2.422  1.00  0.00     0.032 C 
BRANCH   7  12
ATOM     12  C   UNL     1       2.219   0.071  -0.158  1.00  0.00     0.317 C 
ATOM     13  N   UNL     1       0.934   0.235   0.226  1.00  0.00    -0.333 N 
ATOM     14  H   UNL     1       0.457  -0.598   0.442  1.00  0.00     0.165 HD
ATOM     15  O   UNL     1       2.505  -0.965  -0.757  1.00  0.00    -0.249 OA
BRANCH  13  16
ATOM     16  C   UNL     1       0.134   1.460   0.374  1.00  0.00     0.109 C 
ATOM     17  C   UNL     1       0.421   2.494  -0.730  1.00  0.00     0.034 C 
BRANCH  16  18
ATOM     18  C   UNL     1      -1.383   1.127   0.439  1.00  0.00     0.140 C 
ATOM     19  C   UNL     1      -1.884   0.224  -0.692  1.00  0.00     0.036 C 
ATOM     20  O   UNL     1      -2.174   2.335   0.386  1.00  0.00    -0.376 OA
ATOM     21  C   UNL     1      -3.228   0.812  -1.037  1.00  0.00     0.031 C 
ATOM     22  C   UNL     1      -2.988   2.281  -0.793  1.00  0.00     0.160 C 
ENDBRANCH  16  18
ENDBRANCH  13  16
ENDBRANCH   7  12
ENDBRANCH   3   6
ENDBRANCH   1   2
BRANCH   1  23
ATOM     23  C   UNL     1       6.003   6.816   0.398  1.00  0.00     0.042 C 
BRANCH  23  24
ATOM     24  C   UNL     1       7.295   7.209   1.094  1.00  0.00     0.118 C 
BRANCH  24  25
ATOM     25  N   UNL     1       8.473   7.026   0.255  1.00  0.00    -0.352 N 
ATOM     26  C   UNL     1       9.414   7.942  -0.145  1.00  0.00     0.251 C 
ATOM     27  H   UNL     1       8.614   6.109  -0.074  1.00  0.00     0.163 HD
ATOM     28  O   UNL     1      10.247   7.638  -0.994  1.00  0.00    -0.269 OA
BRANCH  26  29
ATOM     29  C   UNL     1       9.398   9.303   0.426  1.00  0.00     0.039 A 
ATOM     30  C   UNL     1       9.571  10.396  -0.425  1.00  0.00     0.014 A 
ATOM     31  C   UNL     1       9.184   9.500   1.793  1.00  0.00     0.014 A 
ATOM     32  C   UNL     1       9.454  11.688   0.086  1.00  0.00     0.010 A 
ATOM     33  C   UNL     1       8.961  10.782   2.277  1.00  0.00     0.010 A 
ATOM     34  C   UNL     1       9.104  11.891   1.431  1.00  0.00    -0.014 A 
BRANCH  34  35
ATOM     35  C   UNL     1       8.885  13.254   1.973  1.00  0.00     0.031 A 
ATOM     36  C   UNL     1       9.744  13.767   3.095  1.00  0.00     0.074 A 
ATOM     37  C   UNL     1       7.865  14.000   1.508  1.00  0.00     0.049 A 
ATOM     38  N   UNL     1       9.669  14.902   3.742  1.00  0.00    -0.248 NA
ATOM     39  C   UNL     1      10.805  12.870   3.581  1.00  0.00     0.031 C 
ATOM     40  C   UNL     1       6.918  13.586   0.470  1.00  0.00     0.029 A 
ATOM     41  N   UNL     1       7.444  15.258   1.857  1.00  0.00    -0.354 N 
ATOM     42  C   UNL     1      10.654  14.845   4.719  1.00  0.00     0.074 A 
ATOM     43  C   UNL     1      11.272  13.542   4.622  1.00  0.00     0.031 C 
ATOM     44  C   UNL     1       6.042  14.580   0.253  1.00  0.00     0.029 A 
ATOM     45  C   UNL     1       6.339  15.683   1.161  1.00  0.00     0.049 A 
ATOM     46  H   UNL     1       7.893  15.805   2.543  1.00  0.00     0.167 HD
ATOM     47  C   UNL     1      11.026  15.801   5.603  1.00  0.00     0.037 A 
ATOM     48  C   UNL     1       5.637  16.828   1.251  1.00  0.00     0.037 A 
ATOM     49  C   UNL     1      10.423  17.106   5.677  1.00  0.00     0.049 A 
ATOM     50  C   UNL     1       6.078  17.883   2.226  1.00  0.00     0.074 A 
ATOM     51  C   UNL     1      10.782  18.177   6.475  1.00  0.00     0.029 A 
ATOM     52  N   UNL     1       9.325  17.512   4.932  1.00  0.00    -0.354 N 
ATOM     53  N   UNL     1       7.072  17.854   3.080  1.00  0.00    -0.248 NA
ATOM     54  C   UNL     1       5.306  19.133   2.243  1.00  0.00     0.031 C 
ATOM     55  C   UNL     1       9.865  19.210   6.258  1.00  0.00     0.029 A 
ATOM     56  C   UNL     1       8.973  18.807   5.277  1.00  0.00     0.049 A 
ATOM     57  H   UNL     1       8.865  16.962   4.257  1.00  0.00     0.167 HD
ATOM     58  C   UNL     1       7.061  19.086   3.720  1.00  0.00     0.074 A 
ATOM     59  C   UNL     1       5.970  19.845   3.142  1.00  0.00     0.031 C 
ATOM     60  C   UNL     1       7.880  19.548   4.698  1.00  0.00     0.037 A 
BRANCH  47  61
ATOM     61  C   UNL     1      12.129  15.462   6.566  1.00  0.00     0.057 A 
ATOM     62  C   UNL     1      13.451  15.260   6.144  1.00  0.00     0.134 A 
ATOM     63  C   UNL     1      11.866  15.348   7.937  1.00  0.00     0.134 A 
ATOM     64  F   UNL     1      13.771  15.343   4.844  1.00  0.00    -0.206 F 
ATOM     65  C   UNL     1      14.461  14.919   7.045  1.00  0.00     0.040 A 
ATOM     66  C   UNL     1      12.875  15.040   8.851  1.00  0.00     0.040 A 
ATOM     67  F   UNL     1      10.626  15.534   8.412  1.00  0.00    -0.206 F 
ATOM     68  C   UNL     1      14.175  14.814   8.405  1.00  0.00     0.006 A 
ENDBRANCH  47  61
BRANCH  48  69
ATOM     69  C   UNL     1       4.455  17.035   0.377  1.00  0.00     0.057 A 
ATOM     70  C   UNL     1       4.481  17.959  -0.674  1.00  0.00     0.134 A 
ATOM     71  C   UNL     1       3.277  16.298   0.558  1.00  0.00     0.134 A 
ATOM     72  F   UNL     1       5.574  18.705  -0.889  1.00  0.00    -0.206 F 
ATOM     73  C   UNL     1       3.376  18.153  -1.504  1.00  0.00     0.040 A 
ATOM     74  C   UNL     1       2.174  16.463  -0.280  1.00  0.00     0.040 A 
ATOM     75  F   UNL     1       3.193  15.388   1.540  1.00  0.00    -0.206 F 
ATOM     76  C   UNL     1       2.220  17.398  -1.312  1.00  0.00     0.006 A 
ENDBRANCH  48  69
BRANCH  60  77
ATOM     77  C   UNL     1       7.644  20.948   5.188  1.00  0.00     0.057 A 
ATOM     78  C   UNL     1       6.526  21.285   5.962  1.00  0.00     0.134 A 
ATOM     79  C   UNL     1       8.570  21.963   4.914  1.00  0.00     0.134 A 
ATOM     80  F   UNL     1       5.595  20.363   6.250  1.00  0.00    -0.206 F 
ATOM     81  C   UNL     1       6.325  22.587   6.424  1.00  0.00     0.040 A 
ATOM     82  C   UNL     1       8.396  23.261   5.396  1.00  0.00     0.040 A 
ATOM     83  F   UNL     1       9.668  21.706   4.187  1.00  0.00    -0.206 F 
ATOM     84  C   UNL     1       7.266  23.577   6.147  1.00  0.00     0.006 A 
ENDBRANCH  60  77
ENDBRANCH  34  35
ENDBRANCH  26  29
ENDBRANCH  24  25
ENDBRANCH  23  24
ENDBRANCH   1  23
TORSDOF 13
