REMARK SMILES C[C@H]1CC[C@H](CNC(=O)NCc2ccc(C(=O)NCCCNC(=O)c3ccc(-c4c5nc(c(-c6c(F)cccc6F)c6ccc([nH]6)c(-c6c(F)cccc6F)c6nc(c(-c7c(F)cccc7F)c7ccc4[nH]7)C=C6)C=C5)cc3)o2)CC1
REMARK SMILES IDX 19 1 18 2 16 3 17 4 15 6 12 7 13 8 79 9 14 10 11 11 10 12
REMARK SMILES IDX 7 13 8 14 9 16 6 18 5 19 1 20 2 21 81 22 3 23 80 24 4 25
REMARK SMILES IDX 20 26 21 27 22 28 23 29 24 31 25 32 26 33 78 34 27 35 77 36
REMARK SMILES IDX 28 37 29 38 30 39 71 40 31 41 76 42 70 43 72 44 32 45 75 46
REMARK SMILES IDX 69 47 68 48 33 50 59 51 42 52 58 53 43 54 46 55 57 56 73 57
REMARK SMILES IDX 44 58 45 59 56 61 74 62 47 63 34 64 35 65 40 66 36 67 37 68
REMARK SMILES IDX 39 69 41 70 38 71 60 72 61 73 66 74 62 75 63 76 65 77 67 78
REMARK SMILES IDX 64 79 48 80 49 81 54 82 50 83 51 84 53 85 55 86 52 87
REMARK H PARENT 18 5 7 15 10 17 22 30 72 49 46 60
REMARK Flexibility Score: inf
ROOT
ATOM      1  C   UNL     1      -9.026  -5.293   1.984  1.00  0.00     0.118 C 
ENDROOT
BRANCH   1   2
ATOM      2  N   UNL     1      -9.097  -3.877   2.283  1.00  0.00    -0.349 N 
ATOM      3  C   UNL     1      -8.375  -2.817   1.782  1.00  0.00     0.286 C 
ATOM      4  O   UNL     1      -8.791  -1.696   2.089  1.00  0.00    -0.266 OA
ATOM      5  H   UNL     1      -9.773  -3.632   2.956  1.00  0.00     0.163 HD
BRANCH   3   6
ATOM      6  C   UNL     1      -7.210  -3.027   0.943  1.00  0.00     0.191 A 
ATOM      7  C   UNL     1      -5.742  -2.375  -0.592  1.00  0.00     0.124 A 
ATOM      8  C   UNL     1      -5.344  -3.627  -0.178  1.00  0.00     0.048 A 
ATOM      9  O   UNL     1      -6.874  -2.014   0.080  1.00  0.00    -0.454 OA
ATOM     10  C   UNL     1      -6.272  -4.038   0.813  1.00  0.00     0.056 A 
BRANCH   7  11
ATOM     11  C   UNL     1      -5.188  -1.424  -1.595  1.00  0.00     0.193 C 
BRANCH  11  12
ATOM     12  N   UNL     1      -5.744  -0.102  -1.434  1.00  0.00    -0.331 N 
ATOM     13  N   UNL     1      -4.109   1.155  -0.290  1.00  0.00    -0.338 N 
ATOM     14  C   UNL     1      -5.249   1.054  -0.984  1.00  0.00     0.315 C 
ATOM     15  H   UNL     1      -3.745   2.069  -0.265  1.00  0.00     0.165 HD
ATOM     16  O   UNL     1      -5.870   2.091  -1.228  1.00  0.00    -0.249 OA
ATOM     17  H   UNL     1      -6.685  -0.039  -1.715  1.00  0.00     0.165 HD
BRANCH  13  18
ATOM     18  C   UNL     1      -3.300   0.192   0.432  1.00  0.00     0.121 C 
BRANCH  18  19
ATOM     19  C   UNL     1      -1.874   0.112  -0.135  1.00  0.00     0.008 C 
ATOM     20  C   UNL     1       2.515  -0.079  -0.188  1.00  0.00     0.007 C 
ATOM     21  C   UNL     1       1.073   0.004   0.308  1.00  0.00    -0.014 C 
ATOM     22  C   UNL     1       0.278  -1.238  -0.111  1.00  0.00     0.003 C 
ATOM     23  C   UNL     1       0.392   1.275  -0.213  1.00  0.00     0.003 C 
ATOM     24  C   UNL     1      -1.173  -1.160   0.364  1.00  0.00     0.006 C 
ATOM     25  C   UNL     1      -1.062   1.363   0.246  1.00  0.00     0.006 C 
ENDBRANCH  18  19
ENDBRANCH  13  18
ENDBRANCH  11  12
ENDBRANCH   7  11
ENDBRANCH   3   6
ENDBRANCH   1   2
BRANCH   1  26
ATOM     26  C   UNL     1      -8.357  -6.087   3.105  1.00  0.00     0.042 C 
BRANCH  26  27
ATOM     27  C   UNL     1      -9.230  -6.267   4.348  1.00  0.00     0.118 C 
BRANCH  27  28
ATOM     28  N   UNL     1     -10.373  -7.134   4.101  1.00  0.00    -0.352 N 
ATOM     29  C   UNL     1     -10.768  -8.298   4.709  1.00  0.00     0.251 C 
ATOM     30  H   UNL     1     -10.963  -6.833   3.373  1.00  0.00     0.163 HD
ATOM     31  O   UNL     1     -11.665  -8.961   4.193  1.00  0.00    -0.269 OA
BRANCH  29  32
ATOM     32  C   UNL     1     -10.140  -8.780   5.962  1.00  0.00     0.039 A 
ATOM     33  C   UNL     1      -9.966 -10.160   6.128  1.00  0.00     0.014 A 
ATOM     34  C   UNL     1      -9.800  -7.913   7.004  1.00  0.00     0.014 A 
ATOM     35  C   UNL     1      -9.416 -10.663   7.309  1.00  0.00     0.010 A 
ATOM     36  C   UNL     1      -9.196  -8.411   8.162  1.00  0.00     0.010 A 
ATOM     37  C   UNL     1      -9.005  -9.790   8.329  1.00  0.00    -0.014 A 
BRANCH  37  38
ATOM     38  C   UNL     1      -8.379 -10.315   9.570  1.00  0.00     0.031 A 
ATOM     39  C   UNL     1      -9.083 -10.200  10.893  1.00  0.00     0.074 A 
ATOM     40  C   UNL     1      -7.151 -10.864   9.511  1.00  0.00     0.049 A 
ATOM     41  N   UNL     1      -8.678 -10.575  12.081  1.00  0.00    -0.248 NA
ATOM     42  C   UNL     1     -10.408  -9.561  10.885  1.00  0.00     0.031 C 
ATOM     43  C   UNL     1      -6.341 -10.998   8.299  1.00  0.00     0.029 A 
ATOM     44  N   UNL     1      -6.367 -11.410  10.496  1.00  0.00    -0.354 N 
ATOM     45  C   UNL     1      -9.687 -10.205  12.961  1.00  0.00     0.074 A 
ATOM     46  C   UNL     1     -10.706  -9.540  12.176  1.00  0.00     0.031 C 
ATOM     47  C   UNL     1      -5.186 -11.609   8.608  1.00  0.00     0.029 A 
ATOM     48  C   UNL     1      -5.163 -11.887  10.040  1.00  0.00     0.049 A 
ATOM     49  H   UNL     1      -6.642 -11.456  11.441  1.00  0.00     0.167 HD
ATOM     50  C   UNL     1      -9.768 -10.414  14.297  1.00  0.00     0.037 A 
ATOM     51  C   UNL     1      -4.154 -12.484  10.701  1.00  0.00     0.037 A 
ATOM     52  C   UNL     1      -8.769 -11.099  15.077  1.00  0.00     0.049 A 
ATOM     53  C   UNL     1      -4.277 -12.727  12.178  1.00  0.00     0.074 A 
ATOM     54  C   UNL     1      -8.787 -11.404  16.427  1.00  0.00     0.029 A 
ATOM     55  N   UNL     1      -7.574 -11.588  14.573  1.00  0.00    -0.354 N 
ATOM     56  N   UNL     1      -5.261 -12.418  12.986  1.00  0.00    -0.248 NA
ATOM     57  C   UNL     1      -3.152 -13.411  12.831  1.00  0.00     0.031 C 
ATOM     58  C   UNL     1      -7.589 -12.055  16.746  1.00  0.00     0.029 A 
ATOM     59  C   UNL     1      -6.841 -12.183  15.587  1.00  0.00     0.049 A 
ATOM     60  H   UNL     1      -7.288 -11.522  13.634  1.00  0.00     0.167 HD
ATOM     61  C   UNL     1      -4.885 -12.887  14.238  1.00  0.00     0.074 A 
ATOM     62  C   UNL     1      -3.590 -13.515  14.078  1.00  0.00     0.031 C 
ATOM     63  C   UNL     1      -5.554 -12.805  15.414  1.00  0.00     0.037 A 
BRANCH  50  64
ATOM     64  C   UNL     1     -10.986  -9.895  15.002  1.00  0.00     0.057 A 
ATOM     65  C   UNL     1     -12.239 -10.506  14.852  1.00  0.00     0.134 A 
ATOM     66  C   UNL     1     -10.904  -8.790  15.858  1.00  0.00     0.134 A 
ATOM     67  F   UNL     1     -12.387 -11.561  14.036  1.00  0.00    -0.206 F 
ATOM     68  C   UNL     1     -13.371 -10.020  15.508  1.00  0.00     0.040 A 
ATOM     69  C   UNL     1     -12.024  -8.309  16.538  1.00  0.00     0.040 A 
ATOM     70  F   UNL     1      -9.734  -8.164  16.051  1.00  0.00    -0.206 F 
ATOM     71  C   UNL     1     -13.264  -8.921  16.359  1.00  0.00     0.006 A 
ENDBRANCH  50  64
BRANCH  51  72
ATOM     72  C   UNL     1      -2.950 -12.932   9.960  1.00  0.00     0.057 A 
ATOM     73  C   UNL     1      -2.725 -14.290   9.711  1.00  0.00     0.134 A 
ATOM     74  C   UNL     1      -2.003 -12.019   9.482  1.00  0.00     0.134 A 
ATOM     75  F   UNL     1      -3.590 -15.211  10.162  1.00  0.00    -0.206 F 
ATOM     76  C   UNL     1      -1.592 -14.729   9.025  1.00  0.00     0.040 A 
ATOM     77  C   UNL     1      -0.876 -12.442   8.777  1.00  0.00     0.040 A 
ATOM     78  F   UNL     1      -2.169 -10.704   9.683  1.00  0.00    -0.206 F 
ATOM     79  C   UNL     1      -0.665 -13.801   8.552  1.00  0.00     0.006 A 
ENDBRANCH  51  72
BRANCH  63  80
ATOM     80  C   UNL     1      -4.903 -13.431  16.610  1.00  0.00     0.057 A 
ATOM     81  C   UNL     1      -3.806 -12.837  17.247  1.00  0.00     0.134 A 
ATOM     82  C   UNL     1      -5.387 -14.634  17.138  1.00  0.00     0.134 A 
ATOM     83  F   UNL     1      -3.287 -11.692  16.779  1.00  0.00    -0.206 F 
ATOM     84  C   UNL     1      -3.198 -13.431  18.354  1.00  0.00     0.040 A 
ATOM     85  C   UNL     1      -4.801 -15.226  18.258  1.00  0.00     0.040 A 
ATOM     86  F   UNL     1      -6.438 -15.250  16.577  1.00  0.00    -0.206 F 
ATOM     87  C   UNL     1      -3.699 -14.627  18.865  1.00  0.00     0.006 A 
ENDBRANCH  63  80
ENDBRANCH  37  38
ENDBRANCH  29  32
ENDBRANCH  27  28
ENDBRANCH  26  27
ENDBRANCH   1  26
TORSDOF 14
