REMARK SMILES O=C(NCCCNC(=O)c1c(S(=O)(=O)N2CCO[C@@H](CCO)C2)sc2c1CC[NH2+]C2)c1ccc(-c2c3nc(c(-c4c(F)cccc4F)c4ccc([nH]4)c(-c4c(F)cccc4F)c4nc(c(-c5c(F)cccc5F)c5ccc2[nH]5)C=C4)C=C3)cc1
REMARK SMILES IDX 7 1 8 2 9 3 6 5 5 6 4 7 3 8 1 9 2 10 31 12 32 13 84 14 33 15
REMARK SMILES IDX 83 16 34 17 35 18 36 19 77 20 37 21 82 22 76 23 78 24 38 25
REMARK SMILES IDX 81 26 75 27 74 28 39 30 65 31 48 32 64 33 49 34 52 35 63 36
REMARK SMILES IDX 79 37 50 38 51 39 62 41 80 42 53 43 40 44 41 45 46 46 42 47
REMARK SMILES IDX 43 48 45 49 47 50 44 51 66 52 67 53 72 54 68 55 69 56 71 57
REMARK SMILES IDX 73 58 70 59 54 60 55 61 60 62 56 63 57 64 59 65 61 66 58 67
REMARK SMILES IDX 10 68 11 69 26 70 24 71 25 72 27 73 30 74 28 75 29 76 12 79
REMARK SMILES IDX 13 80 14 81 15 82 16 83 23 84 17 85 19 86 18 87 20 88 21 89
REMARK SMILES IDX 22 90
REMARK H PARENT 7 4 3 11 78 29 52 40 29 77 29 78 22 91
REMARK Flexibility Score: inf
ROOT
ATOM      1  N   UNL     1       5.074   2.843  -2.989  1.00  0.00    -0.352 N 
ATOM      2  C   UNL     1       5.781   3.600  -3.886  1.00  0.00     0.253 C 
ATOM      3  O   UNL     1       6.045   4.763  -3.590  1.00  0.00    -0.269 OA
ATOM      4  H   UNL     1       4.823   3.313  -2.161  1.00  0.00     0.163 HD
ENDROOT
BRANCH   1   5
ATOM      5  C   UNL     1       4.635   1.463  -3.060  1.00  0.00     0.118 C 
BRANCH   5   6
ATOM      6  C   UNL     1       5.159   0.581  -1.937  1.00  0.00     0.042 C 
BRANCH   6   7
ATOM      7  C   UNL     1       4.697   0.960  -0.529  1.00  0.00     0.118 C 
BRANCH   7   8
ATOM      8  N   UNL     1       3.272   1.190  -0.370  1.00  0.00    -0.352 N 
ATOM      9  O   UNL     1       1.131   1.017   0.131  1.00  0.00    -0.269 OA
ATOM     10  C   UNL     1       2.173   0.411  -0.130  1.00  0.00     0.251 C 
ATOM     11  H   UNL     1       3.039   2.143  -0.456  1.00  0.00     0.163 HD
BRANCH  10  12
ATOM     12  C   UNL     1       2.129  -1.078  -0.198  1.00  0.00     0.039 A 
ATOM     13  C   UNL     1       3.212  -1.911  -0.468  1.00  0.00     0.014 A 
ATOM     14  C   UNL     1       0.867  -1.677  -0.009  1.00  0.00     0.014 A 
ATOM     15  C   UNL     1       3.035  -3.286  -0.628  1.00  0.00     0.010 A 
ATOM     16  C   UNL     1       0.690  -3.056  -0.132  1.00  0.00     0.010 A 
ATOM     17  C   UNL     1       1.772  -3.864  -0.477  1.00  0.00    -0.014 A 
BRANCH  17  18
ATOM     18  C   UNL     1       1.665  -5.322  -0.609  1.00  0.00     0.031 A 
ATOM     19  C   UNL     1       2.416  -6.156   0.381  1.00  0.00     0.074 A 
ATOM     20  C   UNL     1       0.815  -5.952  -1.444  1.00  0.00     0.049 A 
ATOM     21  N   UNL     1       3.241  -7.132   0.160  1.00  0.00    -0.248 NA
ATOM     22  C   UNL     1       2.204  -5.862   1.806  1.00  0.00     0.031 C 
ATOM     23  C   UNL     1      -0.256  -5.364  -2.249  1.00  0.00     0.029 A 
ATOM     24  N   UNL     1       0.670  -7.297  -1.656  1.00  0.00    -0.354 N 
ATOM     25  C   UNL     1       3.528  -7.687   1.408  1.00  0.00     0.074 A 
ATOM     26  C   UNL     1       2.921  -6.823   2.390  1.00  0.00     0.031 C 
ATOM     27  C   UNL     1      -1.067  -6.351  -2.690  1.00  0.00     0.029 A 
ATOM     28  C   UNL     1      -0.502  -7.637  -2.309  1.00  0.00     0.049 A 
ATOM     29  H   UNL     1       1.338  -7.962  -1.371  1.00  0.00     0.167 HD
ATOM     30  C   UNL     1       4.113  -8.907   1.561  1.00  0.00     0.037 A 
ATOM     31  C   UNL     1      -1.017  -8.877  -2.479  1.00  0.00     0.037 A 
ATOM     32  C   UNL     1       4.810  -9.340   0.383  1.00  0.00     0.049 A 
ATOM     33  C   UNL     1       0.053  -9.877  -2.268  1.00  0.00     0.074 A 
ATOM     34  C   UNL     1       5.843  -8.844  -0.389  1.00  0.00     0.029 A 
ATOM     35  N   UNL     1       4.308 -10.399  -0.327  1.00  0.00    -0.354 N 
ATOM     36  N   UNL     1       1.036 -10.108  -3.091  1.00  0.00    -0.248 NA
ATOM     37  C   UNL     1       0.190 -10.476  -0.949  1.00  0.00     0.031 C 
ATOM     38  C   UNL     1       5.598  -9.326  -1.708  1.00  0.00     0.029 A 
ATOM     39  C   UNL     1       4.418 -10.067  -1.651  1.00  0.00     0.049 A 
ATOM     40  H   UNL     1       3.941 -11.235   0.042  1.00  0.00     0.167 HD
ATOM     41  C   UNL     1       2.078 -10.536  -2.285  1.00  0.00     0.074 A 
ATOM     42  C   UNL     1       1.458 -10.884  -1.015  1.00  0.00     0.031 C 
ATOM     43  C   UNL     1       3.378 -10.296  -2.624  1.00  0.00     0.037 A 
BRANCH  30  44
ATOM     44  C   UNL     1       3.828  -9.848   2.707  1.00  0.00     0.057 A 
ATOM     45  C   UNL     1       4.657 -10.964   2.926  1.00  0.00     0.134 A 
ATOM     46  C   UNL     1       2.614  -9.853   3.422  1.00  0.00     0.134 A 
ATOM     47  F   UNL     1       5.823 -11.094   2.276  1.00  0.00    -0.206 F 
ATOM     48  C   UNL     1       4.285 -12.027   3.759  1.00  0.00     0.040 A 
ATOM     49  C   UNL     1       2.255 -10.885   4.296  1.00  0.00     0.040 A 
ATOM     50  F   UNL     1       1.680  -8.911   3.239  1.00  0.00    -0.206 F 
ATOM     51  C   UNL     1       3.079 -11.990   4.447  1.00  0.00     0.006 A 
ENDBRANCH  30  44
BRANCH  31  52
ATOM     52  C   UNL     1      -2.432  -9.272  -2.639  1.00  0.00     0.057 A 
ATOM     53  C   UNL     1      -2.789 -10.490  -3.230  1.00  0.00     0.134 A 
ATOM     54  C   UNL     1      -3.466  -8.564  -2.003  1.00  0.00     0.134 A 
ATOM     55  F   UNL     1      -1.863 -11.264  -3.813  1.00  0.00    -0.206 F 
ATOM     56  C   UNL     1      -4.102 -10.976  -3.194  1.00  0.00     0.040 A 
ATOM     57  C   UNL     1      -4.783  -9.030  -1.971  1.00  0.00     0.040 A 
ATOM     58  F   UNL     1      -3.217  -7.435  -1.323  1.00  0.00    -0.206 F 
ATOM     59  C   UNL     1      -5.104 -10.246  -2.561  1.00  0.00     0.006 A 
ENDBRANCH  31  52
BRANCH  43  60
ATOM     60  C   UNL     1       3.672  -9.904  -4.040  1.00  0.00     0.057 A 
ATOM     61  C   UNL     1       3.214  -8.715  -4.624  1.00  0.00     0.134 A 
ATOM     62  C   UNL     1       4.559 -10.684  -4.791  1.00  0.00     0.134 A 
ATOM     63  F   UNL     1       2.451  -7.855  -3.935  1.00  0.00    -0.206 F 
ATOM     64  C   UNL     1       3.579  -8.348  -5.921  1.00  0.00     0.040 A 
ATOM     65  C   UNL     1       4.957 -10.311  -6.077  1.00  0.00     0.040 A 
ATOM     66  F   UNL     1       5.088 -11.802  -4.269  1.00  0.00    -0.206 F 
ATOM     67  C   UNL     1       4.456  -9.145  -6.651  1.00  0.00     0.006 A 
ENDBRANCH  43  60
ENDBRANCH  17  18
ENDBRANCH  10  12
ENDBRANCH   7   8
ENDBRANCH   6   7
ENDBRANCH   5   6
ENDBRANCH   1   5
BRANCH   2  68
ATOM     68  C   UNL     1       6.306   2.995  -5.103  1.00  0.00     0.074 A 
ATOM     69  C   UNL     1       5.527   2.557  -6.177  1.00  0.00     0.148 A 
ATOM     70  C   UNL     1       7.720   2.928  -5.428  1.00  0.00    -0.009 A 
ATOM     71  S   UNL     1       6.511   1.939  -7.423  1.00  0.00    -0.120 S 
ATOM     72  C   UNL     1       7.943   2.359  -6.662  1.00  0.00     0.064 A 
ATOM     73  C   UNL     1       8.892   3.399  -4.613  1.00  0.00     0.099 C 
ATOM     74  C   UNL     1       9.275   2.187  -7.326  1.00  0.00     0.308 C 
ATOM     75  C   UNL     1      10.167   3.493  -5.491  1.00  0.00     0.265 C 
ATOM     76  N   UNL     1      10.370   2.304  -6.347  1.00  0.00    -0.342 N 
ATOM     77  H   UNL     1      10.389   1.468  -5.762  1.00  0.00     0.346 HD
ATOM     78  H   UNL     1      11.254   2.401  -6.846  1.00  0.00     0.346 HD
BRANCH  69  79
ATOM     79  S   UNL     1       3.766   2.603  -6.529  1.00  0.00     0.253 S 
ATOM     80  O   UNL     1       3.144   1.973  -5.385  1.00  0.00    -0.206 OA
ATOM     81  O   UNL     1       3.515   3.992  -6.845  1.00  0.00    -0.206 OA
BRANCH  79  82
ATOM     82  N   UNL     1       3.330   1.668  -7.851  1.00  0.00    -0.192 NA
ATOM     83  C   UNL     1       3.481   0.200  -7.898  1.00  0.00     0.131 C 
ATOM     84  C   UNL     1       3.071   2.274  -9.165  1.00  0.00     0.134 C 
ATOM     85  C   UNL     1       4.376  -0.252  -9.079  1.00  0.00     0.177 C 
ATOM     86  C   UNL     1       4.217   1.889 -10.100  1.00  0.00     0.135 C 
ATOM     87  O   UNL     1       4.153   0.463 -10.314  1.00  0.00    -0.375 OA
BRANCH  86  88
ATOM     88  C   UNL     1       4.220   2.651 -11.422  1.00  0.00     0.061 C 
BRANCH  88  89
ATOM     89  C   UNL     1       4.167   4.168 -11.235  1.00  0.00     0.159 C 
BRANCH  89  90
ATOM     90  O   UNL     1       5.010   4.565 -10.159  1.00  0.00    -0.396 OA
ATOM     91  H   UNL     1       4.710   4.140  -9.340  1.00  0.00     0.210 HD
ENDBRANCH  89  90
ENDBRANCH  88  89
ENDBRANCH  86  88
ENDBRANCH  79  82
ENDBRANCH  69  79
ENDBRANCH   2  68
TORSDOF 15
