REMARK SMILES COc1ccc(C(=O)C[C@H](C)CC(=O)NCCCNC(=O)c2ccc(-c3c4nc(c(-c5c(F)cccc5F)c5ccc([nH]5)c(-c5c(F)cccc5F)c5nc(c(-c6c(F)cccc6F)c6ccc3[nH]6)C=C5)C=C4)cc2)c(OC)c1
REMARK SMILES IDX 13 1 14 2 15 3 12 5 10 6 11 7 9 8 7 9 8 10 6 11 3 12 4 13
REMARK SMILES IDX 79 14 5 15 76 16 2 17 1 18 77 19 78 20 16 21 17 22 18 23
REMARK SMILES IDX 19 24 20 25 21 27 22 28 23 29 75 30 24 31 74 32 25 33 26 34
REMARK SMILES IDX 27 35 68 36 28 37 73 38 67 39 69 40 29 41 72 42 66 43 65 44
REMARK SMILES IDX 30 46 56 47 39 48 55 49 40 50 43 51 54 52 70 53 41 54 42 55
REMARK SMILES IDX 53 57 71 58 44 59 31 60 32 61 37 62 33 63 34 64 36 65 38 66
REMARK SMILES IDX 35 67 57 68 58 69 63 70 59 71 60 72 62 73 64 74 61 75 45 76
REMARK SMILES IDX 46 77 51 78 47 79 48 80 50 81 52 82 49 83
REMARK H PARENT 15 4 19 26 69 45 43 56
REMARK Flexibility Score: inf
ROOT
ATOM      1  C   UNL     1       4.630  -5.157  -6.817  1.00  0.00     0.220 C 
ATOM      2  O   UNL     1       4.583  -4.652  -7.939  1.00  0.00    -0.275 OA
ATOM      3  N   UNL     1       4.542  -6.516  -6.710  1.00  0.00    -0.356 N 
ATOM      4  H   UNL     1       4.504  -6.995  -7.569  1.00  0.00     0.163 HD
ENDROOT
BRANCH   1   5
ATOM      5  C   UNL     1       4.772  -4.304  -5.571  1.00  0.00     0.103 C 
BRANCH   5   6
ATOM      6  C   UNL     1       3.472  -3.614  -5.122  1.00  0.00     0.003 C 
ATOM      7  C   UNL     1       2.241  -4.521  -5.165  1.00  0.00     0.008 C 
BRANCH   6   8
ATOM      8  C   UNL     1       3.548  -2.904  -3.747  1.00  0.00     0.085 C 
BRANCH   8   9
ATOM      9  C   UNL     1       4.811  -3.055  -2.910  1.00  0.00     0.166 C 
ATOM     10  O   UNL     1       5.573  -2.092  -2.786  1.00  0.00    -0.294 OA
BRANCH   9  11
ATOM     11  C   UNL     1       5.206  -4.354  -2.267  1.00  0.00     0.060 A 
ATOM     12  C   UNL     1       6.234  -6.751  -1.243  1.00  0.00     0.122 A 
ATOM     13  C   UNL     1       7.099  -5.704  -1.523  1.00  0.00     0.047 A 
ATOM     14  C   UNL     1       4.856  -6.594  -1.407  1.00  0.00     0.093 A 
ATOM     15  C   UNL     1       6.588  -4.516  -2.039  1.00  0.00     0.019 A 
ATOM     16  C   UNL     1       4.326  -5.397  -1.921  1.00  0.00     0.133 A 
BRANCH  12  17
ATOM     17  O   UNL     1       6.773  -7.895  -0.723  1.00  0.00    -0.497 OA
ATOM     18  C   UNL     1       6.571  -9.015  -1.586  1.00  0.00     0.278 C 
ENDBRANCH  12  17
BRANCH  16  19
ATOM     19  O   UNL     1       2.986  -5.183  -2.079  1.00  0.00    -0.496 OA
ATOM     20  C   UNL     1       2.092  -6.250  -1.778  1.00  0.00     0.278 C 
ENDBRANCH  16  19
ENDBRANCH   9  11
ENDBRANCH   8   9
ENDBRANCH   6   8
ENDBRANCH   5   6
ENDBRANCH   1   5
BRANCH   3  21
ATOM     21  C   UNL     1       4.493  -7.371  -5.533  1.00  0.00     0.117 C 
BRANCH  21  22
ATOM     22  C   UNL     1       3.124  -8.024  -5.358  1.00  0.00     0.042 C 
BRANCH  22  23
ATOM     23  C   UNL     1       2.848  -9.141  -6.355  1.00  0.00     0.118 C 
BRANCH  23  24
ATOM     24  N   UNL     1       3.444 -10.400  -5.935  1.00  0.00    -0.352 N 
ATOM     25  C   UNL     1       2.873 -11.520  -5.384  1.00  0.00     0.251 C 
ATOM     26  H   UNL     1       4.417 -10.458  -6.068  1.00  0.00     0.163 HD
ATOM     27  O   UNL     1       3.609 -12.361  -4.862  1.00  0.00    -0.269 OA
BRANCH  25  28
ATOM     28  C   UNL     1       1.405 -11.739  -5.382  1.00  0.00     0.039 A 
ATOM     29  C   UNL     1       0.829 -12.418  -4.301  1.00  0.00     0.014 A 
ATOM     30  C   UNL     1       0.595 -11.364  -6.457  1.00  0.00     0.014 A 
ATOM     31  C   UNL     1      -0.546 -12.676  -4.278  1.00  0.00     0.010 A 
ATOM     32  C   UNL     1      -0.788 -11.542  -6.395  1.00  0.00     0.010 A 
ATOM     33  C   UNL     1      -1.374 -12.216  -5.314  1.00  0.00    -0.014 A 
BRANCH  33  34
ATOM     34  C   UNL     1      -2.841 -12.469  -5.311  1.00  0.00     0.031 A 
ATOM     35  C   UNL     1      -3.468 -13.298  -6.402  1.00  0.00     0.074 A 
ATOM     36  C   UNL     1      -3.623 -11.912  -4.365  1.00  0.00     0.049 A 
ATOM     37  N   UNL     1      -4.734 -13.534  -6.641  1.00  0.00    -0.248 NA
ATOM     38  C   UNL     1      -2.551 -13.920  -7.371  1.00  0.00     0.031 C 
ATOM     39  C   UNL     1      -3.156 -11.058  -3.272  1.00  0.00     0.029 A 
ATOM     40  N   UNL     1      -4.983 -11.971  -4.181  1.00  0.00    -0.354 N 
ATOM     41  C   UNL     1      -4.766 -14.307  -7.795  1.00  0.00     0.074 A 
ATOM     42  C   UNL     1      -3.396 -14.464  -8.235  1.00  0.00     0.031 C 
ATOM     43  C   UNL     1      -4.208 -10.684  -2.525  1.00  0.00     0.029 A 
ATOM     44  C   UNL     1      -5.426 -11.240  -3.106  1.00  0.00     0.049 A 
ATOM     45  H   UNL     1      -5.583 -12.487  -4.766  1.00  0.00     0.167 HD
ATOM     46  C   UNL     1      -5.833 -14.857  -8.422  1.00  0.00     0.037 A 
ATOM     47  C   UNL     1      -6.674 -11.031  -2.644  1.00  0.00     0.037 A 
ATOM     48  C   UNL     1      -7.193 -14.742  -7.967  1.00  0.00     0.049 A 
ATOM     49  C   UNL     1      -7.841 -11.672  -3.344  1.00  0.00     0.074 A 
ATOM     50  C   UNL     1      -8.336 -15.299  -8.514  1.00  0.00     0.029 A 
ATOM     51  N   UNL     1      -7.591 -14.030  -6.846  1.00  0.00    -0.354 N 
ATOM     52  N   UNL     1      -7.848 -12.426  -4.416  1.00  0.00    -0.248 NA
ATOM     53  C   UNL     1      -9.172 -11.437  -2.766  1.00  0.00     0.031 C 
ATOM     54  C   UNL     1      -9.431 -14.907  -7.735  1.00  0.00     0.029 A 
ATOM     55  C   UNL     1      -8.963 -14.133  -6.686  1.00  0.00     0.049 A 
ATOM     56  H   UNL     1      -6.989 -13.527  -6.252  1.00  0.00     0.167 HD
ATOM     57  C   UNL     1      -9.176 -12.773  -4.627  1.00  0.00     0.074 A 
ATOM     58  C   UNL     1      -9.945 -12.160  -3.564  1.00  0.00     0.031 C 
ATOM     59  C   UNL     1      -9.711 -13.529  -5.615  1.00  0.00     0.037 A 
BRANCH  46  60
ATOM     60  C   UNL     1      -5.570 -15.654  -9.666  1.00  0.00     0.057 A 
ATOM     61  C   UNL     1      -4.977 -16.922  -9.614  1.00  0.00     0.134 A 
ATOM     62  C   UNL     1      -5.950 -15.168 -10.923  1.00  0.00     0.134 A 
ATOM     63  F   UNL     1      -4.578 -17.438  -8.441  1.00  0.00    -0.206 F 
ATOM     64  C   UNL     1      -4.751 -17.670 -10.770  1.00  0.00     0.040 A 
ATOM     65  C   UNL     1      -5.751 -15.917 -12.084  1.00  0.00     0.040 A 
ATOM     66  F   UNL     1      -6.528 -13.963 -11.042  1.00  0.00    -0.206 F 
ATOM     67  C   UNL     1      -5.146 -17.170 -12.010  1.00  0.00     0.006 A 
ENDBRANCH  46  60
BRANCH  47  68
ATOM     68  C   UNL     1      -6.891 -10.184  -1.446  1.00  0.00     0.057 A 
ATOM     69  C   UNL     1      -7.278 -10.746  -0.224  1.00  0.00     0.134 A 
ATOM     70  C   UNL     1      -6.733  -8.794  -1.497  1.00  0.00     0.134 A 
ATOM     71  F   UNL     1      -7.463 -12.070  -0.121  1.00  0.00    -0.206 F 
ATOM     72  C   UNL     1      -7.521  -9.956   0.900  1.00  0.00     0.040 A 
ATOM     73  C   UNL     1      -6.951  -7.993  -0.375  1.00  0.00     0.040 A 
ATOM     74  F   UNL     1      -6.357  -8.196  -2.637  1.00  0.00    -0.206 F 
ATOM     75  C   UNL     1      -7.354  -8.574   0.827  1.00  0.00     0.006 A 
ENDBRANCH  47  68
BRANCH  59  76
ATOM     76  C   UNL     1     -11.191 -13.765  -5.574  1.00  0.00     0.057 A 
ATOM     77  C   UNL     1     -12.105 -12.767  -5.932  1.00  0.00     0.134 A 
ATOM     78  C   UNL     1     -11.703 -15.016  -5.207  1.00  0.00     0.134 A 
ATOM     79  F   UNL     1     -11.677 -11.545  -6.279  1.00  0.00    -0.206 F 
ATOM     80  C   UNL     1     -13.481 -13.001  -5.909  1.00  0.00     0.040 A 
ATOM     81  C   UNL     1     -13.075 -15.267  -5.201  1.00  0.00     0.040 A 
ATOM     82  F   UNL     1     -10.877 -16.015  -4.860  1.00  0.00    -0.206 F 
ATOM     83  C   UNL     1     -13.969 -14.256  -5.549  1.00  0.00     0.006 A 
ENDBRANCH  59  76
ENDBRANCH  33  34
ENDBRANCH  25  28
ENDBRANCH  23  24
ENDBRANCH  22  23
ENDBRANCH  21  22
ENDBRANCH   3  21
TORSDOF 16
