REMARK SMILES Cc1ccnc(C(=O)c2[nH]c3ccc(F)cc3c2CC(=O)NCCCNC(=O)c2ccc(-c3c4nc(c(-c5c(F)cccc5F)c5ccc([nH]5)c(-c5c(F)cccc5F)c5nc(c(-c6c(F)cccc6F)c6ccc3[nH]6)C=C5)C=C4)cc2)c1
REMARK SMILES IDX 23 1 22 2 20 3 21 4 19 6 18 7 9 8 10 9 11 10 17 12 12 13
REMARK SMILES IDX 16 14 13 15 14 16 15 17 7 18 8 19 6 20 1 21 2 22 3 23 83 24
REMARK SMILES IDX 4 25 5 26 24 27 25 28 26 29 27 30 28 32 29 33 30 34 82 35
REMARK SMILES IDX 31 36 81 37 32 38 33 39 34 40 75 41 35 42 80 43 74 44 76 45
REMARK SMILES IDX 36 46 79 47 73 48 72 49 37 51 63 52 46 53 62 54 47 55 50 56
REMARK SMILES IDX 61 57 77 58 48 59 49 60 60 62 78 63 51 64 38 65 39 66 44 67
REMARK SMILES IDX 40 68 41 69 43 70 45 71 42 72 64 73 65 74 70 75 66 76 67 77
REMARK SMILES IDX 69 78 71 79 68 80 52 81 53 82 58 83 54 84 55 85 57 86 59 87
REMARK SMILES IDX 56 88
REMARK H PARENT 22 5 10 11 26 31 76 50 50 61
REMARK Flexibility Score: inf
ROOT
ATOM      1  C   UNL     1      -3.099  -3.662  -0.902  1.00  0.00     0.117 C 
ENDROOT
BRANCH   1   2
ATOM      2  N   UNL     1      -2.441  -2.504  -1.472  1.00  0.00    -0.356 N 
ATOM      3  C   UNL     1      -1.253  -2.391  -2.134  1.00  0.00     0.224 C 
ATOM      4  O   UNL     1      -1.035  -1.320  -2.708  1.00  0.00    -0.275 OA
ATOM      5  H   UNL     1      -2.932  -1.658  -1.364  1.00  0.00     0.163 HD
BRANCH   3   6
ATOM      6  C   UNL     1      -0.251  -3.526  -2.228  1.00  0.00     0.138 C 
BRANCH   6   7
ATOM      7  C   UNL     1       0.194  -4.139  -0.929  1.00  0.00    -0.002 A 
ATOM      8  C   UNL     1       1.048  -3.626   0.052  1.00  0.00     0.093 A 
ATOM      9  N   UNL     1       1.256  -4.643   0.965  1.00  0.00    -0.352 N 
ATOM     10  C   UNL     1       0.484  -5.740   0.687  1.00  0.00     0.046 A 
ATOM     11  H   UNL     1       1.882  -4.586   1.722  1.00  0.00     0.167 HD
ATOM     12  C   UNL     1      -0.138  -5.490  -0.532  1.00  0.00     0.007 A 
ATOM     13  C   UNL     1       0.319  -6.933   1.404  1.00  0.00     0.030 A 
ATOM     14  C   UNL     1      -0.930  -6.516  -1.093  1.00  0.00     0.049 A 
ATOM     15  C   UNL     1      -0.521  -7.905   0.856  1.00  0.00     0.041 A 
ATOM     16  C   UNL     1      -1.124  -7.695  -0.375  1.00  0.00     0.123 A 
ATOM     17  F   UNL     1      -1.927  -8.641  -0.882  1.00  0.00    -0.207 F 
BRANCH   8  18
ATOM     18  C   UNL     1       1.799  -2.385   0.223  1.00  0.00     0.227 C 
ATOM     19  O   UNL     1       2.976  -2.443   0.581  1.00  0.00    -0.285 OA
BRANCH  18  20
ATOM     20  C   UNL     1       1.150  -1.030   0.127  1.00  0.00     0.113 A 
ATOM     21  C   UNL     1      -2.230   0.702   0.277  1.00  0.00     0.044 C 
ATOM     22  C   UNL     1      -0.756   0.443   0.203  1.00  0.00    -0.047 A 
ATOM     23  C   UNL     1       0.114   1.509  -0.014  1.00  0.00     0.023 A 
ATOM     24  C   UNL     1      -0.213  -0.842   0.336  1.00  0.00     0.036 A 
ATOM     25  C   UNL     1       1.467   1.247  -0.138  1.00  0.00     0.112 A 
ATOM     26  N   UNL     1       2.000   0.009  -0.083  1.00  0.00    -0.253 NA
ENDBRANCH  18  20
ENDBRANCH   8  18
ENDBRANCH   6   7
ENDBRANCH   3   6
ENDBRANCH   1   2
BRANCH   1  27
ATOM     27  C   UNL     1      -2.934  -3.837   0.609  1.00  0.00     0.042 C 
BRANCH  27  28
ATOM     28  C   UNL     1      -3.566  -2.785   1.516  1.00  0.00     0.118 C 
BRANCH  28  29
ATOM     29  N   UNL     1      -4.959  -2.508   1.230  1.00  0.00    -0.352 N 
ATOM     30  C   UNL     1      -6.009  -2.348   2.100  1.00  0.00     0.251 C 
ATOM     31  H   UNL     1      -5.185  -2.423   0.275  1.00  0.00     0.163 HD
ATOM     32  O   UNL     1      -7.149  -2.240   1.664  1.00  0.00    -0.269 OA
BRANCH  30  33
ATOM     33  C   UNL     1      -5.774  -2.325   3.560  1.00  0.00     0.039 A 
ATOM     34  C   UNL     1      -6.590  -3.111   4.378  1.00  0.00     0.014 A 
ATOM     35  C   UNL     1      -4.786  -1.514   4.126  1.00  0.00     0.014 A 
ATOM     36  C   UNL     1      -6.384  -3.123   5.759  1.00  0.00     0.010 A 
ATOM     37  C   UNL     1      -4.548  -1.566   5.500  1.00  0.00     0.010 A 
ATOM     38  C   UNL     1      -5.343  -2.372   6.330  1.00  0.00    -0.014 A 
BRANCH  38  39
ATOM     39  C   UNL     1      -5.067  -2.442   7.789  1.00  0.00     0.031 A 
ATOM     40  C   UNL     1      -5.258  -1.235   8.665  1.00  0.00     0.074 A 
ATOM     41  C   UNL     1      -4.595  -3.587   8.320  1.00  0.00     0.049 A 
ATOM     42  N   UNL     1      -5.025  -1.099   9.947  1.00  0.00    -0.248 NA
ATOM     43  C   UNL     1      -5.757  -0.016   8.013  1.00  0.00     0.031 C 
ATOM     44  C   UNL     1      -4.333  -4.819   7.573  1.00  0.00     0.029 A 
ATOM     45  N   UNL     1      -4.244  -3.901   9.609  1.00  0.00    -0.354 N 
ATOM     46  C   UNL     1      -5.341   0.219  10.253  1.00  0.00     0.074 A 
ATOM     47  C   UNL     1      -5.735   0.854   9.013  1.00  0.00     0.031 C 
ATOM     48  C   UNL     1      -3.880  -5.758   8.418  1.00  0.00     0.029 A 
ATOM     49  C   UNL     1      -3.782  -5.186   9.758  1.00  0.00     0.049 A 
ATOM     50  H   UNL     1      -4.316  -3.264  10.357  1.00  0.00     0.167 HD
ATOM     51  C   UNL     1      -5.324   0.838  11.458  1.00  0.00     0.037 A 
ATOM     52  C   UNL     1      -3.321  -5.831  10.847  1.00  0.00     0.037 A 
ATOM     53  C   UNL     1      -4.941   0.201  12.693  1.00  0.00     0.049 A 
ATOM     54  C   UNL     1      -3.287  -5.113  12.168  1.00  0.00     0.074 A 
ATOM     55  C   UNL     1      -4.941   0.731  13.972  1.00  0.00     0.029 A 
ATOM     56  N   UNL     1      -4.482  -1.103  12.802  1.00  0.00    -0.354 N 
ATOM     57  N   UNL     1      -3.654  -3.887  12.454  1.00  0.00    -0.248 NA
ATOM     58  C   UNL     1      -2.780  -5.871  13.321  1.00  0.00     0.031 C 
ATOM     59  C   UNL     1      -4.431  -0.234  14.847  1.00  0.00     0.029 A 
ATOM     60  C   UNL     1      -4.169  -1.385  14.123  1.00  0.00     0.049 A 
ATOM     61  H   UNL     1      -4.391  -1.735  12.053  1.00  0.00     0.167 HD
ATOM     62  C   UNL     1      -3.452  -3.738  13.820  1.00  0.00     0.074 A 
ATOM     63  C   UNL     1      -2.944  -5.003  14.308  1.00  0.00     0.031 C 
ATOM     64  C   UNL     1      -3.669  -2.650  14.600  1.00  0.00     0.037 A 
BRANCH  51  65
ATOM     65  C   UNL     1      -5.727   2.285  11.503  1.00  0.00     0.057 A 
ATOM     66  C   UNL     1      -7.050   2.692  11.287  1.00  0.00     0.134 A 
ATOM     67  C   UNL     1      -4.789   3.280  11.807  1.00  0.00     0.134 A 
ATOM     68  F   UNL     1      -7.997   1.792  10.983  1.00  0.00    -0.206 F 
ATOM     69  C   UNL     1      -7.421   4.037  11.346  1.00  0.00     0.040 A 
ATOM     70  C   UNL     1      -5.153   4.625  11.898  1.00  0.00     0.040 A 
ATOM     71  F   UNL     1      -3.506   2.962  12.035  1.00  0.00    -0.206 F 
ATOM     72  C   UNL     1      -6.471   5.007  11.659  1.00  0.00     0.006 A 
ENDBRANCH  51  65
BRANCH  52  73
ATOM     73  C   UNL     1      -2.866  -7.240  10.740  1.00  0.00     0.057 A 
ATOM     74  C   UNL     1      -3.583  -8.280  11.343  1.00  0.00     0.134 A 
ATOM     75  C   UNL     1      -1.699  -7.581  10.044  1.00  0.00     0.134 A 
ATOM     76  F   UNL     1      -4.698  -8.016  12.039  1.00  0.00    -0.206 F 
ATOM     77  C   UNL     1      -3.145  -9.604  11.280  1.00  0.00     0.040 A 
ATOM     78  C   UNL     1      -1.265  -8.904   9.949  1.00  0.00     0.040 A 
ATOM     79  F   UNL     1      -0.972  -6.633   9.436  1.00  0.00    -0.206 F 
ATOM     80  C   UNL     1      -1.984  -9.919  10.576  1.00  0.00     0.006 A 
ENDBRANCH  52  73
BRANCH  64  81
ATOM     81  C   UNL     1      -3.396  -2.790  16.070  1.00  0.00     0.057 A 
ATOM     82  C   UNL     1      -2.095  -2.892  16.579  1.00  0.00     0.134 A 
ATOM     83  C   UNL     1      -4.451  -2.787  16.993  1.00  0.00     0.134 A 
ATOM     84  F   UNL     1      -1.040  -2.915  15.749  1.00  0.00    -0.206 F 
ATOM     85  C   UNL     1      -1.854  -3.011  17.949  1.00  0.00     0.040 A 
ATOM     86  C   UNL     1      -4.221  -2.875  18.367  1.00  0.00     0.040 A 
ATOM     87  F   UNL     1      -5.721  -2.684  16.576  1.00  0.00    -0.206 F 
ATOM     88  C   UNL     1      -2.919  -2.995  18.848  1.00  0.00     0.006 A 
ENDBRANCH  64  81
ENDBRANCH  38  39
ENDBRANCH  30  33
ENDBRANCH  28  29
ENDBRANCH  27  28
ENDBRANCH   1  27
TORSDOF 13
