REMARK SMILES C[NH2+]C[C@@H](C)C(=O)Nc1ccc(Cl)cc1C(=O)NCCCNC(=O)c1ccc(-c2c3nc(c(-c4c(F)cccc4F)c4ccc([nH]4)c(-c4c(F)cccc4F)c4nc(c(-c5c(F)cccc5F)c5ccc2[nH]5)C=C4)C=C3)cc1
REMARK SMILES IDX 19 1 18 2 16 3 17 4 15 6 9 7 10 8 11 9 14 10 12 11 13 12
REMARK SMILES IDX 8 13 6 14 7 15 4 17 5 18 3 19 2 20 1 21 20 24 21 25 22 26
REMARK SMILES IDX 23 27 24 29 25 30 26 31 78 32 27 33 77 34 28 35 29 36 30 37
REMARK SMILES IDX 71 38 31 39 76 40 70 41 72 42 32 43 75 44 69 45 68 46 33 48
REMARK SMILES IDX 59 49 42 50 58 51 43 52 46 53 57 54 73 55 44 56 45 57 56 59
REMARK SMILES IDX 74 60 47 61 34 62 35 63 40 64 36 65 37 66 39 67 41 68 38 69
REMARK SMILES IDX 60 70 61 71 66 72 62 73 63 74 65 75 67 76 64 77 48 78 49 79
REMARK SMILES IDX 54 80 50 81 51 82 53 83 55 84 52 85
REMARK H PARENT 18 5 8 16 2 22 2 23 22 28 72 47 46 58
REMARK Flexibility Score: inf
ROOT
ATOM      1  C   UNL     1      -4.697  -2.730   1.347  1.00  0.00     0.118 C 
ENDROOT
BRANCH   1   2
ATOM      2  N   UNL     1      -5.032  -3.202   2.666  1.00  0.00    -0.352 N 
ATOM      3  C   UNL     1      -4.514  -2.926   3.904  1.00  0.00     0.253 C 
ATOM      4  O   UNL     1      -5.074  -3.504   4.843  1.00  0.00    -0.269 OA
ATOM      5  H   UNL     1      -5.777  -3.846   2.680  1.00  0.00     0.163 HD
BRANCH   3   6
ATOM      6  C   UNL     1      -3.346  -2.040   4.233  1.00  0.00     0.064 A 
ATOM      7  C   UNL     1      -2.860  -0.891   3.577  1.00  0.00     0.054 A 
ATOM      8  C   UNL     1      -1.885  -0.092   4.200  1.00  0.00     0.028 A 
ATOM      9  C   UNL     1      -1.261  -0.486   5.378  1.00  0.00     0.023 A 
ATOM     10  C   UNL     1      -2.680  -2.430   5.422  1.00  0.00     0.036 A 
ATOM     11  C   UNL     1      -1.639  -1.678   5.968  1.00  0.00     0.041 A 
ATOM     12  Cl  UNL     1      -0.842  -2.211   7.394  1.00  0.00    -0.084 Cl
BRANCH   7  13
ATOM     13  N   UNL     1      -3.338  -0.397   2.362  1.00  0.00    -0.325 N 
ATOM     14  C   UNL     1      -2.666  -0.264   1.169  1.00  0.00     0.232 C 
ATOM     15  O   UNL     1      -3.302   0.234   0.231  1.00  0.00    -0.274 OA
ATOM     16  H   UNL     1      -4.278  -0.106   2.358  1.00  0.00     0.169 HD
BRANCH  14  17
ATOM     17  C   UNL     1      -1.237  -0.798   0.904  1.00  0.00     0.130 C 
ATOM     18  C   UNL     1      -0.986  -2.254   1.307  1.00  0.00     0.024 C 
BRANCH  17  19
ATOM     19  C   UNL     1      -0.157   0.171   1.399  1.00  0.00     0.273 C 
BRANCH  19  20
ATOM     20  N   UNL     1       1.224  -0.103   0.990  1.00  0.00    -0.348 N 
ATOM     21  C   UNL     1       1.445   0.041  -0.439  1.00  0.00     0.330 C 
ATOM     22  H   UNL     1       1.840   0.546   1.479  1.00  0.00     0.346 HD
ATOM     23  H   UNL     1       1.419  -1.076   1.226  1.00  0.00     0.346 HD
ENDBRANCH  19  20
ENDBRANCH  17  19
ENDBRANCH  14  17
ENDBRANCH   7  13
ENDBRANCH   3   6
ENDBRANCH   1   2
BRANCH   1  24
ATOM     24  C   UNL     1      -4.825  -3.736   0.219  1.00  0.00     0.042 C 
BRANCH  24  25
ATOM     25  C   UNL     1      -6.231  -4.255  -0.016  1.00  0.00     0.118 C 
BRANCH  25  26
ATOM     26  N   UNL     1      -7.157  -3.249  -0.521  1.00  0.00    -0.352 N 
ATOM     27  C   UNL     1      -7.538  -2.891  -1.796  1.00  0.00     0.251 C 
ATOM     28  H   UNL     1      -7.595  -2.723   0.186  1.00  0.00     0.163 HD
ATOM     29  O   UNL     1      -8.273  -1.923  -1.948  1.00  0.00    -0.269 OA
BRANCH  27  30
ATOM     30  C   UNL     1      -7.035  -3.616  -2.988  1.00  0.00     0.039 A 
ATOM     31  C   UNL     1      -6.713  -2.883  -4.136  1.00  0.00     0.014 A 
ATOM     32  C   UNL     1      -6.887  -5.000  -3.002  1.00  0.00     0.014 A 
ATOM     33  C   UNL     1      -6.132  -3.522  -5.237  1.00  0.00     0.010 A 
ATOM     34  C   UNL     1      -6.197  -5.616  -4.042  1.00  0.00     0.010 A 
ATOM     35  C   UNL     1      -5.799  -4.883  -5.168  1.00  0.00    -0.014 A 
BRANCH  35  36
ATOM     36  C   UNL     1      -5.012  -5.560  -6.234  1.00  0.00     0.031 A 
ATOM     37  C   UNL     1      -5.562  -6.776  -6.931  1.00  0.00     0.074 A 
ATOM     38  C   UNL     1      -3.754  -5.149  -6.495  1.00  0.00     0.049 A 
ATOM     39  N   UNL     1      -4.969  -7.588  -7.771  1.00  0.00    -0.248 NA
ATOM     40  C   UNL     1      -6.949  -7.151  -6.615  1.00  0.00     0.031 C 
ATOM     41  C   UNL     1      -3.081  -4.017  -5.853  1.00  0.00     0.029 A 
ATOM     42  N   UNL     1      -2.808  -5.648  -7.356  1.00  0.00    -0.354 N 
ATOM     43  C   UNL     1      -5.900  -8.578  -8.061  1.00  0.00     0.074 A 
ATOM     44  C   UNL     1      -7.076  -8.298  -7.267  1.00  0.00     0.031 C 
ATOM     45  C   UNL     1      -1.843  -3.895  -6.357  1.00  0.00     0.029 A 
ATOM     46  C   UNL     1      -1.613  -4.969  -7.316  1.00  0.00     0.049 A 
ATOM     47  H   UNL     1      -2.969  -6.420  -7.945  1.00  0.00     0.167 HD
ATOM     48  C   UNL     1      -5.794  -9.613  -8.928  1.00  0.00     0.037 A 
ATOM     49  C   UNL     1      -0.453  -5.196  -7.962  1.00  0.00     0.037 A 
ATOM     50  C   UNL     1      -4.635  -9.869  -9.743  1.00  0.00     0.049 A 
ATOM     51  C   UNL     1      -0.354  -6.363  -8.905  1.00  0.00     0.074 A 
ATOM     52  C   UNL     1      -4.461 -10.844 -10.710  1.00  0.00     0.029 A 
ATOM     53  N   UNL     1      -3.452  -9.148  -9.683  1.00  0.00    -0.354 N 
ATOM     54  N   UNL     1      -1.268  -7.247  -9.223  1.00  0.00    -0.248 NA
ATOM     55  C   UNL     1       0.938  -6.566  -9.575  1.00  0.00     0.031 C 
ATOM     56  C   UNL     1      -3.154 -10.747 -11.197  1.00  0.00     0.029 A 
ATOM     57  C   UNL     1      -2.531  -9.679 -10.571  1.00  0.00     0.049 A 
ATOM     58  H   UNL     1      -3.291  -8.374  -9.096  1.00  0.00     0.167 HD
ATOM     59  C   UNL     1      -0.670  -8.098 -10.143  1.00  0.00     0.074 A 
ATOM     60  C   UNL     1       0.679  -7.612 -10.347  1.00  0.00     0.031 C 
ATOM     61  C   UNL     1      -1.191  -9.185 -10.762  1.00  0.00     0.037 A 
BRANCH  48  62
ATOM     62  C   UNL     1      -6.966 -10.545  -9.046  1.00  0.00     0.057 A 
ATOM     63  C   UNL     1      -8.174 -10.146  -9.632  1.00  0.00     0.134 A 
ATOM     64  C   UNL     1      -6.872 -11.871  -8.604  1.00  0.00     0.134 A 
ATOM     65  F   UNL     1      -8.335  -8.887 -10.067  1.00  0.00    -0.206 F 
ATOM     66  C   UNL     1      -9.255 -11.021  -9.748  1.00  0.00     0.040 A 
ATOM     67  C   UNL     1      -7.936 -12.765  -8.742  1.00  0.00     0.040 A 
ATOM     68  F   UNL     1      -5.741 -12.324  -8.041  1.00  0.00    -0.206 F 
ATOM     69  C   UNL     1      -9.135 -12.338  -9.309  1.00  0.00     0.006 A 
ENDBRANCH  48  62
BRANCH  49  70
ATOM     70  C   UNL     1       0.711  -4.299  -7.741  1.00  0.00     0.057 A 
ATOM     71  C   UNL     1       1.164  -3.446  -8.754  1.00  0.00     0.134 A 
ATOM     72  C   UNL     1       1.400  -4.275  -6.523  1.00  0.00     0.134 A 
ATOM     73  F   UNL     1       0.558  -3.437  -9.950  1.00  0.00    -0.206 F 
ATOM     74  C   UNL     1       2.271  -2.615  -8.571  1.00  0.00     0.040 A 
ATOM     75  C   UNL     1       2.492  -3.430  -6.316  1.00  0.00     0.040 A 
ATOM     76  F   UNL     1       1.012  -5.062  -5.508  1.00  0.00    -0.206 F 
ATOM     77  C   UNL     1       2.935  -2.602  -7.346  1.00  0.00     0.006 A 
ENDBRANCH  49  70
BRANCH  61  78
ATOM     78  C   UNL     1      -0.308  -9.916 -11.729  1.00  0.00     0.057 A 
ATOM     79  C   UNL     1       0.762 -10.708 -11.295  1.00  0.00     0.134 A 
ATOM     80  C   UNL     1      -0.563  -9.871 -13.105  1.00  0.00     0.134 A 
ATOM     81  F   UNL     1       1.068 -10.783  -9.991  1.00  0.00    -0.206 F 
ATOM     82  C   UNL     1       1.557 -11.417 -12.197  1.00  0.00     0.040 A 
ATOM     83  C   UNL     1       0.207 -10.596 -14.015  1.00  0.00     0.040 A 
ATOM     84  F   UNL     1      -1.578  -9.137 -13.586  1.00  0.00    -0.206 F 
ATOM     85  C   UNL     1       1.274 -11.369 -13.561  1.00  0.00     0.006 A 
ENDBRANCH  61  78
ENDBRANCH  35  36
ENDBRANCH  27  30
ENDBRANCH  25  26
ENDBRANCH  24  25
ENDBRANCH   1  24
TORSDOF 14
