REMARK SMILES CC(=O)NS(=O)(=O)c1ccc(-c2ccn(C(F)F)c(=O)c2)cc1C(=O)NCCCNC(=O)c1ccc(-c2c3nc(c(-c4c(F)cccc4F)c4ccc([nH]4)c(-c4c(F)cccc4F)c4nc(c(-c5c(F)cccc5F)c5ccc2[nH]5)C=C4)C=C3)cc1
REMARK SMILES IDX 28 1 27 2 26 3 24 4 25 5 23 7 8 8 9 9 10 10 22 11 11 12 5 13
REMARK SMILES IDX 6 14 7 15 4 16 1 17 2 18 3 19 12 21 13 22 21 23 14 24 19 25
REMARK SMILES IDX 15 26 20 27 16 28 17 29 18 30 29 31 30 32 31 33 32 35 33 36
REMARK SMILES IDX 34 37 86 38 35 39 85 40 36 41 37 42 38 43 79 44 39 45 84 46
REMARK SMILES IDX 78 47 80 48 40 49 83 50 77 51 76 52 41 54 67 55 50 56 66 57
REMARK SMILES IDX 51 58 54 59 65 60 81 61 52 62 53 63 64 65 82 66 55 67 42 68
REMARK SMILES IDX 43 69 48 70 44 71 45 72 47 73 49 74 46 75 68 76 69 77 74 78
REMARK SMILES IDX 70 79 71 80 73 81 75 82 72 83 56 84 57 85 62 86 58 87 59 88
REMARK SMILES IDX 61 89 63 90 60 91
REMARK H PARENT 26 6 4 20 30 34 80 53 54 64
REMARK Flexibility Score: inf
ROOT
ATOM      1  C   UNL     1       2.583   5.413  -0.678  1.00  0.00     0.042 C 
ENDROOT
BRANCH   1   2
ATOM      2  C   UNL     1       2.881   4.691   0.641  1.00  0.00     0.118 C 
BRANCH   2   3
ATOM      3  N   UNL     1       1.681   4.384   1.402  1.00  0.00    -0.352 N 
ATOM      4  C   UNL     1       1.277   3.233   2.022  1.00  0.00     0.252 C 
ATOM      5  O   UNL     1       0.302   3.245   2.771  1.00  0.00    -0.269 OA
ATOM      6  H   UNL     1       1.048   5.135   1.485  1.00  0.00     0.163 HD
BRANCH   4   7
ATOM      7  C   UNL     1       2.015   1.964   1.877  1.00  0.00     0.060 A 
ATOM      8  C   UNL     1       2.170   1.274   0.675  1.00  0.00     0.100 A 
ATOM      9  C   UNL     1       2.844   0.044   0.657  1.00  0.00     0.024 A 
ATOM     10  C   UNL     1       3.255  -0.551   1.852  1.00  0.00     0.010 A 
ATOM     11  C   UNL     1       2.434   1.354   3.077  1.00  0.00     0.024 A 
ATOM     12  C   UNL     1       3.021   0.078   3.082  1.00  0.00    -0.017 A 
BRANCH   8  13
ATOM     13  S   UNL     1       1.401   1.816  -0.823  1.00  0.00     0.264 S 
ATOM     14  O   UNL     1       2.468   2.284  -1.677  1.00  0.00    -0.201 OA
ATOM     15  O   UNL     1       0.243   2.627  -0.535  1.00  0.00    -0.201 OA
BRANCH  13  16
ATOM     16  N   UNL     1       0.845   0.412  -1.511  1.00  0.00    -0.249 N 
ATOM     17  C   UNL     1      -0.871  -0.232   0.202  1.00  0.00     0.115 C 
ATOM     18  C   UNL     1      -0.320  -0.301  -1.195  1.00  0.00     0.230 C 
ATOM     19  O   UNL     1      -0.776  -1.069  -2.033  1.00  0.00    -0.274 OA
ATOM     20  H   UNL     1       1.401   0.034  -2.229  1.00  0.00     0.183 HD
ENDBRANCH  13  16
ENDBRANCH   8  13
BRANCH  12  21
ATOM     21  C   UNL     1       3.245  -0.651   4.355  1.00  0.00    -0.011 A 
ATOM     22  C   UNL     1       2.212  -0.746   5.376  1.00  0.00     0.027 A 
ATOM     23  C   UNL     1       4.395  -1.323   4.551  1.00  0.00     0.080 A 
ATOM     24  C   UNL     1       2.377  -1.518   6.456  1.00  0.00     0.095 A 
ATOM     25  C   UNL     1       4.596  -2.188   5.752  1.00  0.00     0.255 A 
ATOM     26  N   UNL     1       3.539  -2.239   6.645  1.00  0.00    -0.258 N 
ATOM     27  O   UNL     1       5.652  -2.804   5.855  1.00  0.00    -0.269 OA
BRANCH  26  28
ATOM     28  C   UNL     1       3.676  -3.121   7.777  1.00  0.00     0.451 C 
ATOM     29  F   UNL     1       3.793  -4.409   7.373  1.00  0.00    -0.185 F 
ATOM     30  F   UNL     1       4.768  -2.811   8.516  1.00  0.00    -0.185 F 
ENDBRANCH  26  28
ENDBRANCH  12  21
ENDBRANCH   4   7
ENDBRANCH   2   3
ENDBRANCH   1   2
BRANCH   1  31
ATOM     31  C   UNL     1       1.958   6.800  -0.491  1.00  0.00     0.118 C 
BRANCH  31  32
ATOM     32  N   UNL     1       2.681   7.809  -1.249  1.00  0.00    -0.352 N 
ATOM     33  C   UNL     1       2.345   8.524  -2.368  1.00  0.00     0.251 C 
ATOM     34  H   UNL     1       3.575   8.016  -0.892  1.00  0.00     0.163 HD
ATOM     35  O   UNL     1       3.226   9.154  -2.951  1.00  0.00    -0.269 OA
BRANCH  33  36
ATOM     36  C   UNL     1       0.961   8.584  -2.892  1.00  0.00     0.039 A 
ATOM     37  C   UNL     1       0.784   8.601  -4.282  1.00  0.00     0.014 A 
ATOM     38  C   UNL     1      -0.141   8.788  -2.056  1.00  0.00     0.014 A 
ATOM     39  C   UNL     1      -0.484   8.813  -4.834  1.00  0.00     0.010 A 
ATOM     40  C   UNL     1      -1.415   8.973  -2.607  1.00  0.00     0.010 A 
ATOM     41  C   UNL     1      -1.593   9.008  -4.000  1.00  0.00    -0.014 A 
BRANCH  41  42
ATOM     42  C   UNL     1      -2.925   9.328  -4.572  1.00  0.00     0.031 A 
ATOM     43  C   UNL     1      -3.471  10.726  -4.469  1.00  0.00     0.074 A 
ATOM     44  C   UNL     1      -3.663   8.373  -5.167  1.00  0.00     0.049 A 
ATOM     45  N   UNL     1      -4.660  11.175  -4.784  1.00  0.00    -0.248 NA
ATOM     46  C   UNL     1      -2.564  11.749  -3.927  1.00  0.00     0.031 C 
ATOM     47  C   UNL     1      -3.264   6.977  -5.341  1.00  0.00     0.029 A 
ATOM     48  N   UNL     1      -4.914   8.438  -5.729  1.00  0.00    -0.354 N 
ATOM     49  C   UNL     1      -4.664  12.516  -4.427  1.00  0.00     0.074 A 
ATOM     50  C   UNL     1      -3.350  12.817  -3.897  1.00  0.00     0.031 C 
ATOM     51  C   UNL     1      -4.250   6.318  -5.974  1.00  0.00     0.029 A 
ATOM     52  C   UNL     1      -5.355   7.239  -6.227  1.00  0.00     0.049 A 
ATOM     53  H   UNL     1      -5.443   9.267  -5.770  1.00  0.00     0.167 HD
ATOM     54  C   UNL     1      -5.673  13.414  -4.518  1.00  0.00     0.037 A 
ATOM     55  C   UNL     1      -6.524   6.915  -6.811  1.00  0.00     0.037 A 
ATOM     56  C   UNL     1      -6.964  13.150  -5.093  1.00  0.00     0.049 A 
ATOM     57  C   UNL     1      -7.593   7.952  -6.986  1.00  0.00     0.074 A 
ATOM     58  C   UNL     1      -8.042  14.008  -5.231  1.00  0.00     0.029 A 
ATOM     59  N   UNL     1      -7.341  11.940  -5.649  1.00  0.00    -0.354 N 
ATOM     60  N   UNL     1      -7.597   9.204  -6.605  1.00  0.00    -0.248 NA
ATOM     61  C   UNL     1      -8.825   7.526  -7.669  1.00  0.00     0.031 C 
ATOM     62  C   UNL     1      -9.074  13.315  -5.878  1.00  0.00     0.029 A 
ATOM     63  C   UNL     1      -8.631  12.030  -6.144  1.00  0.00     0.049 A 
ATOM     64  H   UNL     1      -6.776  11.134  -5.687  1.00  0.00     0.167 HD
ATOM     65  C   UNL     1      -8.827   9.714  -6.994  1.00  0.00     0.074 A 
ATOM     66  C   UNL     1      -9.541   8.642  -7.655  1.00  0.00     0.031 C 
ATOM     67  C   UNL     1      -9.324  10.960  -6.808  1.00  0.00     0.037 A 
BRANCH  54  68
ATOM     68  C   UNL     1      -5.424  14.773  -3.948  1.00  0.00     0.057 A 
ATOM     69  C   UNL     1      -4.788  15.775  -4.688  1.00  0.00     0.134 A 
ATOM     70  C   UNL     1      -5.847  15.085  -2.651  1.00  0.00     0.134 A 
ATOM     71  F   UNL     1      -4.348  15.528  -5.931  1.00  0.00    -0.206 F 
ATOM     72  C   UNL     1      -4.574  17.046  -4.151  1.00  0.00     0.040 A 
ATOM     73  C   UNL     1      -5.646  16.353  -2.106  1.00  0.00     0.040 A 
ATOM     74  F   UNL     1      -6.459  14.161  -1.895  1.00  0.00    -0.206 F 
ATOM     75  C   UNL     1      -5.007  17.337  -2.858  1.00  0.00     0.006 A 
ENDBRANCH  54  68
BRANCH  55  76
ATOM     76  C   UNL     1      -6.750   5.529  -7.272  1.00  0.00     0.057 A 
ATOM     77  C   UNL     1      -6.545   5.175  -8.609  1.00  0.00     0.134 A 
ATOM     78  C   UNL     1      -7.178   4.534  -6.389  1.00  0.00     0.134 A 
ATOM     79  F   UNL     1      -6.153   6.098  -9.499  1.00  0.00    -0.206 F 
ATOM     80  C   UNL     1      -6.763   3.872  -9.056  1.00  0.00     0.040 A 
ATOM     81  C   UNL     1      -7.394   3.225  -6.821  1.00  0.00     0.040 A 
ATOM     82  F   UNL     1      -7.396   4.823  -5.098  1.00  0.00    -0.206 F 
ATOM     83  C   UNL     1      -7.186   2.892  -8.159  1.00  0.00     0.006 A 
ENDBRANCH  55  76
BRANCH  67  84
ATOM     84  C   UNL     1     -10.697  11.229  -7.331  1.00  0.00     0.057 A 
ATOM     85  C   UNL     1     -11.833  10.938  -6.567  1.00  0.00     0.134 A 
ATOM     86  C   UNL     1     -10.885  11.809  -8.590  1.00  0.00     0.134 A 
ATOM     87  F   UNL     1     -11.712  10.373  -5.357  1.00  0.00    -0.206 F 
ATOM     88  C   UNL     1     -13.116  11.212  -7.043  1.00  0.00     0.040 A 
ATOM     89  C   UNL     1     -12.163  12.091  -9.075  1.00  0.00     0.040 A 
ATOM     90  F   UNL     1      -9.833  12.105  -9.367  1.00  0.00    -0.206 F 
ATOM     91  C   UNL     1     -13.283  11.793  -8.299  1.00  0.00     0.006 A 
ENDBRANCH  67  84
ENDBRANCH  41  42
ENDBRANCH  33  36
ENDBRANCH  31  32
ENDBRANCH   1  31
TORSDOF 14
