REMARK SMILES Cc1ccc(C(N)=O)c(NCc2ccc(C(=O)NCCCNC(=O)c3ccc(-c4c5nc(c(-c6c(F)cccc6F)c6ccc([nH]6)c(-c6c(F)cccc6F)c6nc(c(-c7c(F)cccc7F)c7ccc4[nH]7)C=C6)C=C5)cc3)o2)n1
REMARK SMILES IDX 19 1 18 2 16 3 17 4 15 6 12 7 13 8 79 9 14 10 11 11 10 12
REMARK SMILES IDX 9 14 1 15 2 16 3 17 80 18 4 19 5 20 6 21 7 22 8 23 20 26
REMARK SMILES IDX 21 27 22 28 23 29 24 31 25 32 26 33 78 34 27 35 77 36 28 37
REMARK SMILES IDX 29 38 30 39 71 40 31 41 76 42 70 43 72 44 32 45 75 46 69 47
REMARK SMILES IDX 68 48 33 50 59 51 42 52 58 53 43 54 46 55 57 56 73 57 44 58
REMARK SMILES IDX 45 59 56 61 74 62 47 63 34 64 35 65 40 66 36 67 37 68 39 69
REMARK SMILES IDX 41 70 38 71 60 72 61 73 66 74 62 75 63 76 65 77 67 78 64 79
REMARK SMILES IDX 48 80 49 81 54 82 50 83 51 84 53 85 55 86 52 87
REMARK H PARENT 18 5 10 13 7 24 7 25 22 30 72 49 46 60
REMARK Flexibility Score: inf
ROOT
ATOM      1  C   UNL     1      -0.974   7.032  -5.469  1.00  0.00     0.118 C 
ENDROOT
BRANCH   1   2
ATOM      2  N   UNL     1      -0.988   7.796  -4.239  1.00  0.00    -0.349 N 
ATOM      3  C   UNL     1      -1.042   7.392  -2.924  1.00  0.00     0.286 C 
ATOM      4  O   UNL     1      -0.916   8.289  -2.086  1.00  0.00    -0.266 OA
ATOM      5  H   UNL     1      -0.954   8.772  -4.364  1.00  0.00     0.163 HD
BRANCH   3   6
ATOM      6  C   UNL     1      -1.219   5.996  -2.567  1.00  0.00     0.191 A 
ATOM      7  C   UNL     1      -1.079   4.304  -1.140  1.00  0.00     0.124 A 
ATOM      8  C   UNL     1      -1.591   3.785  -2.308  1.00  0.00     0.048 A 
ATOM      9  O   UNL     1      -0.853   5.638  -1.290  1.00  0.00    -0.454 OA
ATOM     10  C   UNL     1      -1.717   4.873  -3.205  1.00  0.00     0.056 A 
BRANCH   7  11
ATOM     11  C   UNL     1      -0.766   3.719   0.197  1.00  0.00     0.190 C 
BRANCH  11  12
ATOM     12  N   UNL     1      -1.545   2.527   0.500  1.00  0.00    -0.362 N 
ATOM     13  H   UNL     1      -2.455   2.619   0.864  1.00  0.00     0.162 HD
BRANCH  12  14
ATOM     14  C   UNL     1      -1.019   1.263   0.280  1.00  0.00     0.139 A 
ATOM     15  C   UNL     1       2.391  -0.100  -0.050  1.00  0.00     0.067 C 
ATOM     16  C   UNL     1       0.895  -0.063   0.026  1.00  0.00     0.040 A 
ATOM     17  C   UNL     1       0.146  -1.226  -0.054  1.00  0.00     0.024 A 
ATOM     18  N   UNL     1       0.327   1.159   0.172  1.00  0.00    -0.236 NA
ATOM     19  C   UNL     1      -1.238  -1.124   0.021  1.00  0.00     0.019 A 
ATOM     20  C   UNL     1      -1.839   0.131   0.180  1.00  0.00     0.081 A 
BRANCH  20  21
ATOM     21  C   UNL     1      -3.327   0.167   0.191  1.00  0.00     0.252 C 
ATOM     22  N   UNL     1      -3.943   1.336  -0.154  1.00  0.00    -0.365 N 
ATOM     23  O   UNL     1      -3.990  -0.829   0.457  1.00  0.00    -0.269 OA
ATOM     24  H   UNL     1      -3.404   2.132  -0.366  1.00  0.00     0.159 HD
ATOM     25  H   UNL     1      -4.926   1.383  -0.190  1.00  0.00     0.159 HD
ENDBRANCH  20  21
ENDBRANCH  12  14
ENDBRANCH  11  12
ENDBRANCH   7  11
ENDBRANCH   3   6
ENDBRANCH   1   2
BRANCH   1  26
ATOM     26  C   UNL     1      -2.344   7.020  -6.144  1.00  0.00     0.042 C 
BRANCH  26  27
ATOM     27  C   UNL     1      -2.688   8.337  -6.840  1.00  0.00     0.118 C 
BRANCH  27  28
ATOM     28  N   UNL     1      -1.838   8.582  -7.997  1.00  0.00    -0.352 N 
ATOM     29  C   UNL     1      -2.160   8.766  -9.318  1.00  0.00     0.251 C 
ATOM     30  H   UNL     1      -0.874   8.623  -7.799  1.00  0.00     0.163 HD
ATOM     31  O   UNL     1      -1.269   8.738 -10.163  1.00  0.00    -0.269 OA
BRANCH  29  32
ATOM     32  C   UNL     1      -3.559   8.993  -9.739  1.00  0.00     0.039 A 
ATOM     33  C   UNL     1      -4.006   8.400 -10.925  1.00  0.00     0.014 A 
ATOM     34  C   UNL     1      -4.411   9.832  -9.017  1.00  0.00     0.014 A 
ATOM     35  C   UNL     1      -5.319   8.606 -11.357  1.00  0.00     0.010 A 
ATOM     36  C   UNL     1      -5.738   9.986  -9.414  1.00  0.00     0.010 A 
ATOM     37  C   UNL     1      -6.204   9.378 -10.590  1.00  0.00    -0.014 A 
BRANCH  37  38
ATOM     38  C   UNL     1      -7.619   9.561 -10.999  1.00  0.00     0.031 A 
ATOM     39  C   UNL     1      -8.132  10.923 -11.376  1.00  0.00     0.074 A 
ATOM     40  C   UNL     1      -8.461   8.510 -10.964  1.00  0.00     0.049 A 
ATOM     41  N   UNL     1      -9.351  11.295 -11.674  1.00  0.00    -0.248 NA
ATOM     42  C   UNL     1      -7.149  12.018 -11.393  1.00  0.00     0.031 C 
ATOM     43  C   UNL     1      -8.096   7.146 -10.575  1.00  0.00     0.029 A 
ATOM     44  N   UNL     1      -9.801   8.427 -11.245  1.00  0.00    -0.354 N 
ATOM     45  C   UNL     1      -9.286  12.665 -11.893  1.00  0.00     0.074 A 
ATOM     46  C   UNL     1      -7.916  13.066 -11.654  1.00  0.00     0.031 C 
ATOM     47  C   UNL     1      -9.181   6.361 -10.655  1.00  0.00     0.029 A 
ATOM     48  C   UNL     1     -10.325   7.170 -11.066  1.00  0.00     0.049 A 
ATOM     49  H   UNL     1     -10.337   9.196 -11.546  1.00  0.00     0.167 HD
ATOM     50  C   UNL     1     -10.275  13.509 -12.274  1.00  0.00     0.037 A 
ATOM     51  C   UNL     1     -11.586   6.722 -11.207  1.00  0.00     0.037 A 
ATOM     52  C   UNL     1     -11.629  13.101 -12.544  1.00  0.00     0.049 A 
ATOM     53  C   UNL     1     -12.662   7.676 -11.640  1.00  0.00     0.074 A 
ATOM     54  C   UNL     1     -12.685  13.869 -13.005  1.00  0.00     0.029 A 
ATOM     55  N   UNL     1     -12.114  11.813 -12.378  1.00  0.00    -0.354 N 
ATOM     56  N   UNL     1     -12.573   8.957 -11.907  1.00  0.00    -0.248 NA
ATOM     57  C   UNL     1     -14.015   7.123 -11.798  1.00  0.00     0.031 C 
ATOM     58  C   UNL     1     -13.818  13.053 -13.081  1.00  0.00     0.029 A 
ATOM     59  C   UNL     1     -13.458  11.768 -12.708  1.00  0.00     0.049 A 
ATOM     60  H   UNL     1     -11.581  11.044 -12.070  1.00  0.00     0.167 HD
ATOM     61  C   UNL     1     -13.847   9.356 -12.287  1.00  0.00     0.074 A 
ATOM     62  C   UNL     1     -14.689   8.179 -12.229  1.00  0.00     0.031 C 
ATOM     63  C   UNL     1     -14.280  10.587 -12.652  1.00  0.00     0.037 A 
BRANCH  50  64
ATOM     64  C   UNL     1      -9.928  14.961 -12.425  1.00  0.00     0.057 A 
ATOM     65  C   UNL     1      -9.136  15.425 -13.483  1.00  0.00     0.134 A 
ATOM     66  C   UNL     1     -10.422  15.912 -11.523  1.00  0.00     0.134 A 
ATOM     67  F   UNL     1      -8.621  14.565 -14.376  1.00  0.00    -0.206 F 
ATOM     68  C   UNL     1      -8.828  16.780 -13.626  1.00  0.00     0.040 A 
ATOM     69  C   UNL     1     -10.143  17.272 -11.669  1.00  0.00     0.040 A 
ATOM     70  F   UNL     1     -11.193  15.536 -10.491  1.00  0.00    -0.206 F 
ATOM     71  C   UNL     1      -9.338  17.708 -12.720  1.00  0.00     0.006 A 
ENDBRANCH  50  64
BRANCH  51  72
ATOM     72  C   UNL     1     -11.898   5.293 -10.954  1.00  0.00     0.057 A 
ATOM     73  C   UNL     1     -12.212   4.428 -12.008  1.00  0.00     0.134 A 
ATOM     74  C   UNL     1     -11.894   4.761  -9.660  1.00  0.00     0.134 A 
ATOM     75  F   UNL     1     -12.249   4.885 -13.268  1.00  0.00    -0.206 F 
ATOM     76  C   UNL     1     -12.529   3.087 -11.784  1.00  0.00     0.040 A 
ATOM     77  C   UNL     1     -12.186   3.417  -9.423  1.00  0.00     0.040 A 
ATOM     78  F   UNL     1     -11.593   5.537  -8.609  1.00  0.00    -0.206 F 
ATOM     79  C   UNL     1     -12.512   2.578 -10.487  1.00  0.00     0.006 A 
ENDBRANCH  51  72
BRANCH  63  80
ATOM     80  C   UNL     1     -15.721  10.716 -13.047  1.00  0.00     0.057 A 
ATOM     81  C   UNL     1     -16.752  10.682 -12.101  1.00  0.00     0.134 A 
ATOM     82  C   UNL     1     -16.076  10.912 -14.388  1.00  0.00     0.134 A 
ATOM     83  F   UNL     1     -16.477  10.482 -10.803  1.00  0.00    -0.206 F 
ATOM     84  C   UNL     1     -18.089  10.819 -12.476  1.00  0.00     0.040 A 
ATOM     85  C   UNL     1     -17.408  11.075 -14.772  1.00  0.00     0.040 A 
ATOM     86  F   UNL     1     -15.135  10.961 -15.342  1.00  0.00    -0.206 F 
ATOM     87  C   UNL     1     -18.419  11.023 -13.815  1.00  0.00     0.006 A 
ENDBRANCH  63  80
ENDBRANCH  37  38
ENDBRANCH  29  32
ENDBRANCH  27  28
ENDBRANCH  26  27
ENDBRANCH   1  26
TORSDOF 14
