REMARK SMILES O=C(NCCCNC(=O)c1cc(NC(=S)NC(=O)c2ccccc2F)ccc1Cl)c1ccc(-c2c3nc(c(-c4c(F)cccc4F)c4ccc([nH]4)c(-c4c(F)cccc4F)c4nc(c(-c5c(F)cccc5F)c5ccc2[nH]5)C=C4)C=C3)cc1
REMARK SMILES IDX 6 1 5 2 4 3 3 4 1 5 2 6 30 8 31 9 83 10 32 11 82 12 33 13
REMARK SMILES IDX 34 14 35 15 76 16 36 17 81 18 75 19 77 20 37 21 80 22 74 23
REMARK SMILES IDX 73 24 38 26 64 27 47 28 63 29 48 30 51 31 62 32 78 33 49 34
REMARK SMILES IDX 50 35 61 37 79 38 52 39 39 40 40 41 45 42 41 43 42 44 44 45
REMARK SMILES IDX 46 46 43 47 65 48 66 49 71 50 67 51 68 52 70 53 72 54 69 55
REMARK SMILES IDX 53 56 54 57 59 58 55 59 56 60 58 61 60 62 57 63 7 64 8 65
REMARK SMILES IDX 9 67 10 68 11 69 28 70 12 71 27 72 29 73 26 74 13 75 14 77
REMARK SMILES IDX 15 78 16 79 17 80 18 82 19 83 20 84 24 85 21 86 23 87 25 88
REMARK SMILES IDX 22 89
REMARK H PARENT 3 7 77 25 51 36 7 66 13 76 16 81
REMARK Flexibility Score: inf
ROOT
ATOM      1  C   UNL     1       4.457  -3.361  -0.976  1.00  0.00     0.118 C 
ENDROOT
BRANCH   1   2
ATOM      2  C   UNL     1       5.021  -2.072  -0.405  1.00  0.00     0.042 C 
BRANCH   2   3
ATOM      3  C   UNL     1       4.524  -0.804  -1.083  1.00  0.00     0.118 C 
BRANCH   3   4
ATOM      4  N   UNL     1       3.082  -0.595  -0.981  1.00  0.00    -0.352 N 
ATOM      5  O   UNL     1       1.104   0.124  -0.173  1.00  0.00    -0.269 OA
ATOM      6  C   UNL     1       2.329   0.198  -0.146  1.00  0.00     0.251 C 
ATOM      7  H   UNL     1       2.553  -1.116  -1.627  1.00  0.00     0.163 HD
BRANCH   6   8
ATOM      8  C   UNL     1       2.985   1.101   0.823  1.00  0.00     0.039 A 
ATOM      9  C   UNL     1       4.109   1.833   0.461  1.00  0.00     0.014 A 
ATOM     10  C   UNL     1       2.478   1.205   2.122  1.00  0.00     0.014 A 
ATOM     11  C   UNL     1       4.871   2.449   1.442  1.00  0.00     0.010 A 
ATOM     12  C   UNL     1       3.168   1.956   3.080  1.00  0.00     0.010 A 
ATOM     13  C   UNL     1       4.406   2.532   2.763  1.00  0.00    -0.014 A 
BRANCH  13  14
ATOM     14  C   UNL     1       5.230   3.257   3.767  1.00  0.00     0.031 A 
ATOM     15  C   UNL     1       5.759   2.563   4.993  1.00  0.00     0.074 A 
ATOM     16  C   UNL     1       5.561   4.541   3.523  1.00  0.00     0.049 A 
ATOM     17  N   UNL     1       6.531   3.040   5.938  1.00  0.00    -0.248 NA
ATOM     18  C   UNL     1       5.369   1.159   5.196  1.00  0.00     0.031 C 
ATOM     19  C   UNL     1       5.107   5.320   2.368  1.00  0.00     0.029 A 
ATOM     20  N   UNL     1       6.381   5.405   4.202  1.00  0.00    -0.354 N 
ATOM     21  C   UNL     1       6.703   2.007   6.851  1.00  0.00     0.074 A 
ATOM     22  C   UNL     1       5.926   0.886   6.368  1.00  0.00     0.031 C 
ATOM     23  C   UNL     1       5.713   6.514   2.376  1.00  0.00     0.029 A 
ATOM     24  C   UNL     1       6.528   6.621   3.579  1.00  0.00     0.049 A 
ATOM     25  H   UNL     1       6.822   5.176   5.052  1.00  0.00     0.167 HD
ATOM     26  C   UNL     1       7.452   1.992   7.980  1.00  0.00     0.037 A 
ATOM     27  C   UNL     1       7.226   7.713   3.939  1.00  0.00     0.037 A 
ATOM     28  C   UNL     1       8.235   3.109   8.445  1.00  0.00     0.049 A 
ATOM     29  C   UNL     1       8.021   7.681   5.209  1.00  0.00     0.074 A 
ATOM     30  C   UNL     1       9.037   3.188   9.571  1.00  0.00     0.029 A 
ATOM     31  N   UNL     1       8.317   4.341   7.811  1.00  0.00    -0.354 N 
ATOM     32  N   UNL     1       8.176   6.695   6.059  1.00  0.00    -0.248 NA
ATOM     33  C   UNL     1       8.734   8.911   5.575  1.00  0.00     0.031 C 
ATOM     34  C   UNL     1       9.560   4.481   9.647  1.00  0.00     0.029 A 
ATOM     35  C   UNL     1       9.140   5.191   8.533  1.00  0.00     0.049 A 
ATOM     36  H   UNL     1       7.858   4.576   6.973  1.00  0.00     0.167 HD
ATOM     37  C   UNL     1       9.019   7.176   7.050  1.00  0.00     0.074 A 
ATOM     38  C   UNL     1       9.356   8.537   6.686  1.00  0.00     0.031 C 
ATOM     39  C   UNL     1       9.472   6.543   8.159  1.00  0.00     0.037 A 
BRANCH  26  40
ATOM     40  C   UNL     1       7.456   0.735   8.805  1.00  0.00     0.057 A 
ATOM     41  C   UNL     1       6.877   0.716  10.081  1.00  0.00     0.134 A 
ATOM     42  C   UNL     1       8.089  -0.437   8.369  1.00  0.00     0.134 A 
ATOM     43  F   UNL     1       6.261   1.804  10.566  1.00  0.00    -0.206 F 
ATOM     44  C   UNL     1       6.938  -0.416  10.897  1.00  0.00     0.040 A 
ATOM     45  C   UNL     1       8.131  -1.585   9.165  1.00  0.00     0.040 A 
ATOM     46  F   UNL     1       8.655  -0.493   7.154  1.00  0.00    -0.206 F 
ATOM     47  C   UNL     1       7.563  -1.572  10.437  1.00  0.00     0.006 A 
ENDBRANCH  26  40
BRANCH  27  48
ATOM     48  C   UNL     1       7.196   8.915   3.068  1.00  0.00     0.057 A 
ATOM     49  C   UNL     1       6.020   9.655   2.890  1.00  0.00     0.134 A 
ATOM     50  C   UNL     1       8.325   9.315   2.346  1.00  0.00     0.134 A 
ATOM     51  F   UNL     1       4.899   9.314   3.544  1.00  0.00    -0.206 F 
ATOM     52  C   UNL     1       5.958  10.730   2.004  1.00  0.00     0.040 A 
ATOM     53  C   UNL     1       8.286  10.408   1.478  1.00  0.00     0.040 A 
ATOM     54  F   UNL     1       9.484   8.655   2.483  1.00  0.00    -0.206 F 
ATOM     55  C   UNL     1       7.096  11.111   1.297  1.00  0.00     0.006 A 
ENDBRANCH  27  48
BRANCH  39  56
ATOM     56  C   UNL     1      10.412   7.301   9.051  1.00  0.00     0.057 A 
ATOM     57  C   UNL     1      11.755   6.916   9.157  1.00  0.00     0.134 A 
ATOM     58  C   UNL     1       9.981   8.368   9.848  1.00  0.00     0.134 A 
ATOM     59  F   UNL     1      12.231   5.895   8.428  1.00  0.00    -0.206 F 
ATOM     60  C   UNL     1      12.632   7.556  10.033  1.00  0.00     0.040 A 
ATOM     61  C   UNL     1      10.856   9.036  10.707  1.00  0.00     0.040 A 
ATOM     62  F   UNL     1       8.710   8.795   9.786  1.00  0.00    -0.206 F 
ATOM     63  C   UNL     1      12.183   8.623  10.808  1.00  0.00     0.006 A 
ENDBRANCH  39  56
ENDBRANCH  13  14
ENDBRANCH   6   8
ENDBRANCH   3   4
ENDBRANCH   2   3
ENDBRANCH   1   2
BRANCH   1  64
ATOM     64  N   UNL     1       4.427  -3.413  -2.430  1.00  0.00    -0.352 N 
ATOM     65  C   UNL     1       4.701  -4.411  -3.336  1.00  0.00     0.252 C 
ATOM     66  H   UNL     1       4.156  -2.564  -2.849  1.00  0.00     0.163 HD
ATOM     67  O   UNL     1       4.233  -4.252  -4.461  1.00  0.00    -0.269 OA
BRANCH  65  68
ATOM     68  C   UNL     1       5.535  -5.640  -2.913  1.00  0.00     0.060 A 
ATOM     69  C   UNL     1       7.262  -6.524  -3.487  1.00  0.00     0.041 A 
ATOM     70  C   UNL     1       4.641  -6.524  -1.595  1.00  0.00     0.053 A 
ATOM     71  C   UNL     1       7.928  -7.875  -2.686  1.00  0.00     0.041 A 
ATOM     72  C   UNL     1       5.384  -7.992  -0.902  1.00  0.00     0.023 A 
ATOM     73  Cl  UNL     1       2.996  -6.215  -1.180  1.00  0.00    -0.083 Cl
ATOM     74  C   UNL     1       6.976  -8.628  -1.430  1.00  0.00     0.028 A 
BRANCH  71  75
ATOM     75  N   UNL     1       9.322  -7.890  -2.843  1.00  0.00    -0.332 N 
ATOM     76  H   UNL     1       9.771  -8.689  -2.484  1.00  0.00     0.169 HD
BRANCH  75  77
ATOM     77  C   UNL     1      10.163  -6.961  -3.421  1.00  0.00     0.177 C 
ATOM     78  S   UNL     1      11.780  -7.415  -3.539  1.00  0.00    -0.040 S 
BRANCH  77  79
ATOM     79  N   UNL     1       9.852  -5.649  -3.921  1.00  0.00    -0.299 N 
ATOM     80  C   UNL     1       8.953  -4.484  -4.240  1.00  0.00     0.260 C 
ATOM     81  H   UNL     1      10.729  -5.330  -4.234  1.00  0.00     0.172 HD
ATOM     82  O   UNL     1       9.397  -3.559  -4.917  1.00  0.00    -0.269 OA
BRANCH  80  83
ATOM     83  C   UNL     1       7.477  -4.452  -3.832  1.00  0.00     0.075 A 
ATOM     84  C   UNL     1       6.469  -5.305  -5.062  1.00  0.00     0.017 A 
ATOM     85  C   UNL     1       7.517  -4.904  -2.155  1.00  0.00     0.135 A 
ATOM     86  C   UNL     1       5.619  -6.844  -4.725  1.00  0.00     0.001 A 
ATOM     87  C   UNL     1       6.747  -6.423  -1.670  1.00  0.00     0.040 A 
ATOM     88  F   UNL     1       8.411  -4.351  -1.323  1.00  0.00    -0.206 F 
ATOM     89  C   UNL     1       5.763  -7.534  -3.055  1.00  0.00     0.003 A 
ENDBRANCH  80  83
ENDBRANCH  77  79
ENDBRANCH  75  77
ENDBRANCH  71  75
ENDBRANCH  65  68
ENDBRANCH   1  64
TORSDOF 14
