REMARK SMILES Cc1ccc(C2=NN(C(=O)CCC(=O)NCCCNC(=O)c3ccc(-c4c5nc(c(-c6c(F)cccc6F)c6ccc([nH]6)c(-c6c(F)cccc6F)c6nc(c(-c7c(F)cccc7F)c7ccc4[nH]7)C=C6)C=C5)cc3)[C@H](C[C@@H]3C=c4cccc(C)c4=NC3=O)C2)cc1
REMARK SMILES IDX 13 1 14 2 15 3 12 5 11 6 9 7 10 8 8 9 6 10 7 11 90 12 76 13
REMARK SMILES IDX 5 14 1 15 2 16 3 17 92 18 4 19 91 20 77 21 78 22 79 23 88 24
REMARK SMILES IDX 80 25 87 26 89 27 81 28 86 29 82 30 84 31 83 32 85 33 16 34
REMARK SMILES IDX 17 35 18 36 19 37 20 38 21 40 22 41 23 42 75 43 24 44 74 45
REMARK SMILES IDX 25 46 26 47 27 48 68 49 28 50 73 51 67 52 69 53 29 54 72 55
REMARK SMILES IDX 66 56 65 57 30 59 56 60 39 61 55 62 40 63 43 64 54 65 70 66
REMARK SMILES IDX 41 67 42 68 53 70 71 71 44 72 31 73 32 74 37 75 33 76 34 77
REMARK SMILES IDX 36 78 38 79 35 80 57 81 58 82 63 83 59 84 60 85 62 86 64 87
REMARK SMILES IDX 61 88 45 89 46 90 51 91 47 92 48 93 50 94 52 95 49 96
REMARK H PARENT 15 4 19 39 69 58 43 69
REMARK Flexibility Score: inf
ROOT
ATOM      1  C   UNL     1      -7.615   2.422   0.219  1.00  0.00     0.220 C 
ATOM      2  O   UNL     1      -8.250   3.177  -0.529  1.00  0.00    -0.275 OA
ATOM      3  N   UNL     1      -6.304   2.235  -0.126  1.00  0.00    -0.356 N 
ATOM      4  H   UNL     1      -6.048   2.819  -0.875  1.00  0.00     0.163 HD
ENDROOT
BRANCH   1   5
ATOM      5  C   UNL     1      -8.340   1.806   1.411  1.00  0.00     0.110 C 
BRANCH   5   6
ATOM      6  C   UNL     1      -8.322   0.308   1.592  1.00  0.00     0.112 C 
BRANCH   6   7
ATOM      7  C   UNL     1      -6.970  -0.112   2.080  1.00  0.00     0.243 C 
ATOM      8  O   UNL     1      -6.750  -0.405   3.249  1.00  0.00    -0.273 OA
BRANCH   7   9
ATOM      9  N   UNL     1      -6.021  -0.101   1.081  1.00  0.00    -0.230 N 
ATOM     10  C   UNL     1      -3.275   0.489   0.341  1.00  0.00     0.070 C 
ATOM     11  N   UNL     1      -4.228   0.256   1.634  1.00  0.00    -0.174 NA
ATOM     12  C   UNL     1      -4.277   0.607  -1.364  1.00  0.00     0.086 C 
ATOM     13  C   UNL     1      -6.090   0.027  -0.876  1.00  0.00     0.118 C 
BRANCH  10  14
ATOM     14  C   UNL     1      -1.891   0.007   0.222  1.00  0.00    -0.002 A 
ATOM     15  C   UNL     1       3.034  -0.245   1.498  1.00  0.00     0.044 C 
ATOM     16  C   UNL     1       1.546  -0.341   1.236  1.00  0.00    -0.051 A 
ATOM     17  C   UNL     1       0.658  -1.848   0.839  1.00  0.00     0.004 A 
ATOM     18  C   UNL     1       0.753   1.258   1.094  1.00  0.00     0.004 A 
ATOM     19  C   UNL     1      -1.092  -1.738   0.322  1.00  0.00     0.010 A 
ATOM     20  C   UNL     1      -0.918   1.437   0.601  1.00  0.00     0.010 A 
ENDBRANCH  10  14
BRANCH  13  21
ATOM     21  C   UNL     1      -6.512  -1.151  -1.833  1.00  0.00     0.045 C 
BRANCH  21  22
ATOM     22  C   UNL     1      -7.893  -1.706  -1.506  1.00  0.00     0.106 C 
ATOM     23  C   UNL     1      -7.784  -2.395  -0.205  1.00  0.00    -0.003 C 
ATOM     24  C   UNL     1      -8.465  -2.616  -2.600  1.00  0.00     0.253 C 
ATOM     25  C   UNL     1      -8.295  -3.573   0.089  1.00  0.00    -0.003 A 
ATOM     26  N   UNL     1      -9.044  -3.820  -2.245  1.00  0.00    -0.212 NA
ATOM     27  O   UNL     1      -8.441  -2.233  -3.769  1.00  0.00    -0.272 OA
ATOM     28  C   UNL     1      -8.226  -4.091   1.425  1.00  0.00     0.010 A 
ATOM     29  C   UNL     1      -8.963  -4.264  -1.029  1.00  0.00     0.077 A 
ATOM     30  C   UNL     1      -8.823  -5.250   1.703  1.00  0.00     0.001 A 
ATOM     31  C   UNL     1      -9.527  -5.595  -0.632  1.00  0.00    -0.025 A 
ATOM     32  C   UNL     1      -9.454  -6.010   0.649  1.00  0.00     0.005 A 
ATOM     33  C   UNL     1     -10.078  -6.423  -1.742  1.00  0.00     0.047 C 
ENDBRANCH  21  22
ENDBRANCH  13  21
ENDBRANCH   7   9
ENDBRANCH   6   7
ENDBRANCH   5   6
ENDBRANCH   1   5
BRANCH   3  34
ATOM     34  C   UNL     1      -5.082   1.339   0.345  1.00  0.00     0.117 C 
BRANCH  34  35
ATOM     35  C   UNL     1      -4.575  -0.825   0.129  1.00  0.00     0.042 C 
BRANCH  35  36
ATOM     36  C   UNL     1      -3.477  -1.749   1.380  1.00  0.00     0.118 C 
BRANCH  36  37
ATOM     37  N   UNL     1      -2.083  -1.059   2.130  1.00  0.00    -0.352 N 
ATOM     38  C   UNL     1      -0.573  -0.392   1.613  1.00  0.00     0.251 C 
ATOM     39  H   UNL     1      -2.171  -1.040   3.110  1.00  0.00     0.163 HD
ATOM     40  O   UNL     1      -0.154  -0.047   2.758  1.00  0.00    -0.269 OA
BRANCH  38  41
ATOM     41  C   UNL     1       0.051  -0.237  -0.437  1.00  0.00     0.039 A 
ATOM     42  C   UNL     1       1.224   0.270  -1.149  1.00  0.00     0.014 A 
ATOM     43  C   UNL     1      -0.749  -0.679  -1.635  1.00  0.00     0.014 A 
ATOM     44  C   UNL     1       1.169   0.964  -2.359  1.00  0.00     0.010 A 
ATOM     45  C   UNL     1      -1.053   0.189  -2.614  1.00  0.00     0.010 A 
ATOM     46  C   UNL     1      -0.064   1.066  -2.946  1.00  0.00    -0.014 A 
BRANCH  46  47
ATOM     47  C   UNL     1      -0.369   1.577  -4.244  1.00  0.00     0.031 A 
ATOM     48  C   UNL     1       0.139   0.637  -5.277  1.00  0.00     0.074 A 
ATOM     49  C   UNL     1      -1.288   2.568  -4.172  1.00  0.00     0.049 A 
ATOM     50  N   UNL     1       0.849   0.957  -6.299  1.00  0.00    -0.248 NA
ATOM     51  C   UNL     1       0.129  -0.846  -5.095  1.00  0.00     0.031 C 
ATOM     52  C   UNL     1      -2.207   3.123  -5.144  1.00  0.00     0.029 A 
ATOM     53  N   UNL     1      -1.465   3.410  -3.054  1.00  0.00    -0.354 N 
ATOM     54  C   UNL     1       0.771  -0.160  -7.113  1.00  0.00     0.074 A 
ATOM     55  C   UNL     1       0.677  -1.281  -6.228  1.00  0.00     0.031 C 
ATOM     56  C   UNL     1      -2.530   4.378  -4.762  1.00  0.00     0.029 A 
ATOM     57  C   UNL     1      -1.808   4.689  -3.533  1.00  0.00     0.049 A 
ATOM     58  H   UNL     1      -1.366   3.150  -2.109  1.00  0.00     0.167 HD
ATOM     59  C   UNL     1       0.232  -0.020  -8.360  1.00  0.00     0.037 A 
ATOM     60  C   UNL     1      -0.863   5.670  -3.398  1.00  0.00     0.037 A 
ATOM     61  C   UNL     1      -0.262   1.353  -8.510  1.00  0.00     0.049 A 
ATOM     62  C   UNL     1       0.012   5.769  -4.634  1.00  0.00     0.074 A 
ATOM     63  C   UNL     1      -1.510   1.951  -8.449  1.00  0.00     0.029 A 
ATOM     64  N   UNL     1       0.637   2.377  -8.310  1.00  0.00    -0.354 N 
ATOM     65  N   UNL     1      -0.113   5.005  -5.685  1.00  0.00    -0.248 NA
ATOM     66  C   UNL     1       1.138   6.691  -4.741  1.00  0.00     0.031 C 
ATOM     67  C   UNL     1      -1.315   3.356  -8.222  1.00  0.00     0.029 A 
ATOM     68  C   UNL     1       0.041   3.599  -8.113  1.00  0.00     0.049 A 
ATOM     69  H   UNL     1       1.613   2.245  -8.307  1.00  0.00     0.167 HD
ATOM     70  C   UNL     1       0.858   5.303  -6.593  1.00  0.00     0.074 A 
ATOM     71  C   UNL     1       1.659   6.319  -5.921  1.00  0.00     0.031 C 
ATOM     72  C   UNL     1       0.932   4.714  -7.827  1.00  0.00     0.037 A 
BRANCH  59  73
ATOM     73  C   UNL     1      -0.096  -1.148  -9.306  1.00  0.00     0.057 A 
ATOM     74  C   UNL     1      -0.932  -0.912 -10.412  1.00  0.00     0.134 A 
ATOM     75  C   UNL     1       0.442  -2.451  -9.251  1.00  0.00     0.134 A 
ATOM     76  F   UNL     1      -1.466   0.294 -10.644  1.00  0.00    -0.206 F 
ATOM     77  C   UNL     1      -1.244  -1.894 -11.359  1.00  0.00     0.040 A 
ATOM     78  C   UNL     1       0.110  -3.455 -10.175  1.00  0.00     0.040 A 
ATOM     79  F   UNL     1       1.358  -2.804  -8.340  1.00  0.00    -0.206 F 
ATOM     80  C   UNL     1      -0.733  -3.175 -11.238  1.00  0.00     0.006 A 
ENDBRANCH  59  73
BRANCH  60  81
ATOM     81  C   UNL     1      -0.338   5.692  -1.998  1.00  0.00     0.057 A 
ATOM     82  C   UNL     1      -1.238   6.007  -0.960  1.00  0.00     0.134 A 
ATOM     83  C   UNL     1       0.809   4.970  -1.657  1.00  0.00     0.134 A 
ATOM     84  F   UNL     1      -2.357   6.702  -1.222  1.00  0.00    -0.206 F 
ATOM     85  C   UNL     1      -1.088   5.485   0.325  1.00  0.00     0.040 A 
ATOM     86  C   UNL     1       0.971   4.450  -0.375  1.00  0.00     0.040 A 
ATOM     87  F   UNL     1       1.711   4.627  -2.588  1.00  0.00    -0.206 F 
ATOM     88  C   UNL     1       0.009   4.680   0.610  1.00  0.00     0.006 A 
ENDBRANCH  60  81
BRANCH  72  89
ATOM     89  C   UNL     1       1.951   5.127  -8.859  1.00  0.00     0.057 A 
ATOM     90  C   UNL     1       2.375   6.453  -8.984  1.00  0.00     0.134 A 
ATOM     91  C   UNL     1       2.494   4.242  -9.819  1.00  0.00     0.134 A 
ATOM     92  F   UNL     1       1.776   7.443  -8.305  1.00  0.00    -0.206 F 
ATOM     93  C   UNL     1       3.409   6.828  -9.842  1.00  0.00     0.040 A 
ATOM     94  C   UNL     1       3.481   4.616 -10.725  1.00  0.00     0.040 A 
ATOM     95  F   UNL     1       2.114   2.967  -9.950  1.00  0.00    -0.206 F 
ATOM     96  C   UNL     1       3.979   5.903 -10.704  1.00  0.00     0.006 A 
ENDBRANCH  72  89
ENDBRANCH  46  47
ENDBRANCH  38  41
ENDBRANCH  36  37
ENDBRANCH  35  36
ENDBRANCH  34  35
ENDBRANCH   3  34
TORSDOF 16
