REMARK SMILES C[N@@H+]1CCC[C@@H](NC(=O)N(CC(=O)NCCCNC(=O)c2ccc(-c3c4nc(c(-c5c(F)cccc5F)c5ccc([nH]5)c(-c5c(F)cccc5F)c5nc(c(-c6c(F)cccc6F)c6ccc3[nH]6)C=C5)C=C4)cc2)C(C)(C)C)C1
REMARK SMILES IDX 15 1 14 2 12 3 13 4 11 6 10 7 8 8 7 9 9 11 6 12 1 13 2 14
REMARK SMILES IDX 3 15 79 16 4 18 5 19 75 20 76 21 77 22 78 23 16 24 17 25
REMARK SMILES IDX 18 26 19 27 20 29 21 30 22 31 74 32 23 33 73 34 24 35 25 36
REMARK SMILES IDX 26 37 67 38 27 39 72 40 66 41 68 42 28 43 71 44 65 45 64 46
REMARK SMILES IDX 29 48 55 49 38 50 54 51 39 52 42 53 53 54 69 55 40 56 41 57
REMARK SMILES IDX 52 59 70 60 43 61 30 62 31 63 36 64 32 65 33 66 35 67 37 68
REMARK SMILES IDX 34 69 56 70 57 71 62 72 58 73 59 74 61 75 63 76 60 77 44 78
REMARK SMILES IDX 45 79 50 80 46 81 47 82 49 83 51 84 48 85
REMARK H PARENT 14 5 7 10 2 17 18 28 68 47 42 58
REMARK Flexibility Score: inf
ROOT
ATOM      1  C   UNL     1       4.514  -1.407   0.329  1.00  0.00     0.117 C 
ENDROOT
BRANCH   1   2
ATOM      2  N   UNL     1       4.806  -2.645  -0.350  1.00  0.00    -0.354 N 
ATOM      3  C   UNL     1       3.955  -3.657  -0.685  1.00  0.00     0.239 C 
ATOM      4  O   UNL     1       4.295  -4.361  -1.643  1.00  0.00    -0.273 OA
ATOM      5  H   UNL     1       5.747  -2.778  -0.606  1.00  0.00     0.163 HD
BRANCH   3   6
ATOM      6  C   UNL     1       2.573  -3.873  -0.030  1.00  0.00     0.221 C 
BRANCH   6   7
ATOM      7  N   UNL     1       2.447  -3.671   1.417  1.00  0.00    -0.311 N 
BRANCH   7   8
ATOM      8  C   UNL     1       1.820  -2.599   2.023  1.00  0.00     0.318 C 
ATOM      9  N   UNL     1       1.241  -1.558   1.385  1.00  0.00    -0.330 N 
ATOM     10  H   UNL     1       0.837  -0.957   2.051  1.00  0.00     0.165 HD
ATOM     11  O   UNL     1       1.757  -2.500   3.254  1.00  0.00    -0.249 OA
BRANCH   9  12
ATOM     12  C   UNL     1       1.005  -1.009   0.032  1.00  0.00     0.139 C 
ATOM     13  C   UNL     1      -2.659   0.046  -0.043  1.00  0.00     0.332 C 
ATOM     14  N   UNL     1      -1.242   0.107   0.319  1.00  0.00    -0.336 N 
ATOM     15  C   UNL     1      -0.682   1.401  -0.091  1.00  0.00     0.262 C 
ATOM     16  C   UNL     1      -0.505  -1.009  -0.306  1.00  0.00     0.287 C 
ATOM     17  H   UNL     1      -1.150   0.019   1.331  1.00  0.00     0.347 HD
ATOM     18  C   UNL     1       0.750   1.521   0.406  1.00  0.00     0.064 C 
ATOM     19  C   UNL     1       1.615   0.399  -0.141  1.00  0.00     0.037 C 
ENDBRANCH   9  12
ENDBRANCH   7   8
BRANCH   7  20
ATOM     20  C   UNL     1       3.014  -4.792   2.302  1.00  0.00     0.037 C 
ATOM     21  C   UNL     1       4.178  -4.294   3.183  1.00  0.00     0.034 C 
ATOM     22  C   UNL     1       1.910  -5.398   3.200  1.00  0.00     0.034 C 
ATOM     23  C   UNL     1       3.603  -6.004   1.516  1.00  0.00     0.034 C 
ENDBRANCH   7  20
ENDBRANCH   6   7
ENDBRANCH   3   6
ENDBRANCH   1   2
BRANCH   1  24
ATOM     24  C   UNL     1       5.283  -1.147   1.609  1.00  0.00     0.042 C 
BRANCH  24  25
ATOM     25  C   UNL     1       6.775  -0.995   1.400  1.00  0.00     0.118 C 
BRANCH  25  26
ATOM     26  N   UNL     1       7.107   0.249   0.720  1.00  0.00    -0.352 N 
ATOM     27  C   UNL     1       7.909   1.284   1.137  1.00  0.00     0.251 C 
ATOM     28  H   UNL     1       6.696   0.366  -0.167  1.00  0.00     0.163 HD
ATOM     29  O   UNL     1       7.895   2.349   0.529  1.00  0.00    -0.269 OA
BRANCH  27  30
ATOM     30  C   UNL     1       8.774   1.119   2.326  1.00  0.00     0.039 A 
ATOM     31  C   UNL     1       8.908   2.184   3.219  1.00  0.00     0.014 A 
ATOM     32  C   UNL     1       9.460  -0.077   2.556  1.00  0.00     0.014 A 
ATOM     33  C   UNL     1       9.683   2.028   4.370  1.00  0.00     0.010 A 
ATOM     34  C   UNL     1      10.148  -0.264   3.749  1.00  0.00     0.010 A 
ATOM     35  C   UNL     1      10.281   0.791   4.663  1.00  0.00    -0.014 A 
BRANCH  35  36
ATOM     36  C   UNL     1      11.063   0.586   5.908  1.00  0.00     0.031 A 
ATOM     37  C   UNL     1      12.525   0.237   5.832  1.00  0.00     0.074 A 
ATOM     38  C   UNL     1      10.446   0.659   7.103  1.00  0.00     0.049 A 
ATOM     39  N   UNL     1      13.362  -0.034   6.801  1.00  0.00    -0.248 NA
ATOM     40  C   UNL     1      13.119   0.150   4.488  1.00  0.00     0.031 C 
ATOM     41  C   UNL     1       9.023   0.938   7.307  1.00  0.00     0.029 A 
ATOM     42  N   UNL     1      10.937   0.496   8.374  1.00  0.00    -0.354 N 
ATOM     43  C   UNL     1      14.570  -0.333   6.185  1.00  0.00     0.074 A 
ATOM     44  C   UNL     1      14.344  -0.273   4.758  1.00  0.00     0.031 C 
ATOM     45  C   UNL     1       8.763   0.957   8.624  1.00  0.00     0.029 A 
ATOM     46  C   UNL     1       9.987   0.650   9.355  1.00  0.00     0.049 A 
ATOM     47  H   UNL     1      11.880   0.288   8.565  1.00  0.00     0.167 HD
ATOM     48  C   UNL     1      15.768  -0.605   6.755  1.00  0.00     0.037 A 
ATOM     49  C   UNL     1      10.092   0.548  10.694  1.00  0.00     0.037 A 
ATOM     50  C   UNL     1      15.995  -0.642   8.176  1.00  0.00     0.049 A 
ATOM     51  C   UNL     1      11.431   0.232  11.302  1.00  0.00     0.074 A 
ATOM     52  C   UNL     1      17.183  -0.852   8.854  1.00  0.00     0.029 A 
ATOM     53  N   UNL     1      15.010  -0.468   9.137  1.00  0.00    -0.354 N 
ATOM     54  N   UNL     1      12.581   0.024  10.709  1.00  0.00    -0.248 NA
ATOM     55  C   UNL     1      11.487   0.144  12.768  1.00  0.00     0.031 C 
ATOM     56  C   UNL     1      16.908  -0.857  10.225  1.00  0.00     0.029 A 
ATOM     57  C   UNL     1      15.560  -0.591  10.403  1.00  0.00     0.049 A 
ATOM     58  H   UNL     1      14.062  -0.284   8.948  1.00  0.00     0.167 HD
ATOM     59  C   UNL     1      13.502  -0.188  11.727  1.00  0.00     0.074 A 
ATOM     60  C   UNL     1      12.778  -0.067  12.975  1.00  0.00     0.031 C 
ATOM     61  C   UNL     1      14.827  -0.459  11.637  1.00  0.00     0.037 A 
BRANCH  48  62
ATOM     62  C   UNL     1      16.927  -0.881   5.839  1.00  0.00     0.057 A 
ATOM     63  C   UNL     1      17.494   0.122   5.041  1.00  0.00     0.134 A 
ATOM     64  C   UNL     1      17.504  -2.155   5.779  1.00  0.00     0.134 A 
ATOM     65  F   UNL     1      16.982   1.363   5.040  1.00  0.00    -0.206 F 
ATOM     66  C   UNL     1      18.575  -0.139   4.196  1.00  0.00     0.040 A 
ATOM     67  C   UNL     1      18.605  -2.421   4.961  1.00  0.00     0.040 A 
ATOM     68  F   UNL     1      17.016  -3.161   6.520  1.00  0.00    -0.206 F 
ATOM     69  C   UNL     1      19.138  -1.413   4.161  1.00  0.00     0.006 A 
ENDBRANCH  48  62
BRANCH  49  70
ATOM     70  C   UNL     1       8.900   0.767  11.554  1.00  0.00     0.057 A 
ATOM     71  C   UNL     1       8.810   1.885  12.392  1.00  0.00     0.134 A 
ATOM     72  C   UNL     1       7.833  -0.138  11.571  1.00  0.00     0.134 A 
ATOM     73  F   UNL     1       9.808   2.779  12.435  1.00  0.00    -0.206 F 
ATOM     74  C   UNL     1       7.713   2.082  13.234  1.00  0.00     0.040 A 
ATOM     75  C   UNL     1       6.717   0.061  12.386  1.00  0.00     0.040 A 
ATOM     76  F   UNL     1       7.854  -1.225  10.785  1.00  0.00    -0.206 F 
ATOM     77  C   UNL     1       6.660   1.169  13.228  1.00  0.00     0.006 A 
ENDBRANCH  49  70
BRANCH  61  78
ATOM     78  C   UNL     1      15.588  -0.602  12.923  1.00  0.00     0.057 A 
ATOM     79  C   UNL     1      15.420  -1.706  13.768  1.00  0.00     0.134 A 
ATOM     80  C   UNL     1      16.530   0.364  13.302  1.00  0.00     0.134 A 
ATOM     81  F   UNL     1      14.525  -2.661  13.469  1.00  0.00    -0.206 F 
ATOM     82  C   UNL     1      16.140  -1.831  14.957  1.00  0.00     0.040 A 
ATOM     83  C   UNL     1      17.278   0.235  14.472  1.00  0.00     0.040 A 
ATOM     84  F   UNL     1      16.749   1.441  12.533  1.00  0.00    -0.206 F 
ATOM     85  C   UNL     1      17.078  -0.862  15.308  1.00  0.00     0.006 A 
ENDBRANCH  61  78
ENDBRANCH  35  36
ENDBRANCH  27  30
ENDBRANCH  25  26
ENDBRANCH  24  25
ENDBRANCH   1  24
TORSDOF 14
