REMARK SMILES O=C(NCCCNC(=O)c1ccc(N2C(=O)/C(=C/C3=c4ccccc4=NC3)SC2=S)cc1O)c1ccc(-c2c3nc(c(-c4c(F)cccc4F)c4ccc([nH]4)c(-c4c(F)cccc4F)c4nc(c(-c5c(F)cccc5F)c5ccc2[nH]5)C=C4)C=C3)cc1
REMARK SMILES IDX 5 1 4 2 3 3 1 4 2 5 34 7 35 8 87 9 36 10 86 11 37 12 38 13
REMARK SMILES IDX 39 14 80 15 40 16 85 17 79 18 81 19 41 20 84 21 78 22 77 23
REMARK SMILES IDX 42 25 68 26 51 27 67 28 52 29 55 30 66 31 82 32 53 33 54 34
REMARK SMILES IDX 65 36 83 37 56 38 43 39 44 40 49 41 45 42 46 43 48 44 50 45
REMARK SMILES IDX 47 46 69 47 70 48 75 49 71 50 72 51 74 52 76 53 73 54 57 55
REMARK SMILES IDX 58 56 63 57 59 58 60 59 62 60 64 61 61 62 6 63 7 64 8 65
REMARK SMILES IDX 9 67 10 68 11 69 32 70 12 71 31 72 13 73 33 74 14 76 15 77
REMARK SMILES IDX 29 78 16 79 17 80 28 81 30 82 18 83 19 84 20 85 27 86 21 87
REMARK SMILES IDX 25 88 26 89 22 90 24 91 23 92
REMARK H PARENT 3 6 81 24 55 35 7 66 33 75
REMARK Flexibility Score: inf
ROOT
ATOM      1  C   UNL     1       5.065  -0.362   2.290  1.00  0.00     0.042 C 
ENDROOT
BRANCH   1   2
ATOM      2  C   UNL     1       4.601  -0.771   0.901  1.00  0.00     0.118 C 
BRANCH   2   3
ATOM      3  N   UNL     1       3.153  -0.738   0.768  1.00  0.00    -0.352 N 
ATOM      4  O   UNL     1       1.137   0.097   0.240  1.00  0.00    -0.269 OA
ATOM      5  C   UNL     1       2.348   0.092   0.034  1.00  0.00     0.251 C 
ATOM      6  H   UNL     1       2.675  -1.422   1.290  1.00  0.00     0.163 HD
BRANCH   5   7
ATOM      7  C   UNL     1       2.914   0.978  -1.008  1.00  0.00     0.039 A 
ATOM      8  C   UNL     1       2.335   2.236  -1.210  1.00  0.00     0.014 A 
ATOM      9  C   UNL     1       3.944   0.547  -1.847  1.00  0.00     0.014 A 
ATOM     10  C   UNL     1       2.792   3.058  -2.244  1.00  0.00     0.010 A 
ATOM     11  C   UNL     1       4.460   1.401  -2.816  1.00  0.00     0.010 A 
ATOM     12  C   UNL     1       3.858   2.646  -3.055  1.00  0.00    -0.014 A 
BRANCH  12  13
ATOM     13  C   UNL     1       4.278   3.422  -4.249  1.00  0.00     0.031 A 
ATOM     14  C   UNL     1       4.094   2.807  -5.614  1.00  0.00     0.074 A 
ATOM     15  C   UNL     1       4.857   4.630  -4.121  1.00  0.00     0.049 A 
ATOM     16  N   UNL     1       4.523   3.223  -6.777  1.00  0.00    -0.248 NA
ATOM     17  C   UNL     1       3.349   1.537  -5.671  1.00  0.00     0.031 C 
ATOM     18  C   UNL     1       5.085   5.337  -2.861  1.00  0.00     0.029 A 
ATOM     19  N   UNL     1       5.380   5.470  -5.073  1.00  0.00    -0.354 N 
ATOM     20  C   UNL     1       4.133   2.252  -7.692  1.00  0.00     0.074 A 
ATOM     21  C   UNL     1       3.468   1.207  -6.947  1.00  0.00     0.031 C 
ATOM     22  C   UNL     1       5.697   6.505  -3.117  1.00  0.00     0.029 A 
ATOM     23  C   UNL     1       5.952   6.606  -4.551  1.00  0.00     0.049 A 
ATOM     24  H   UNL     1       5.348   5.277  -6.038  1.00  0.00     0.167 HD
ATOM     25  C   UNL     1       4.300   2.239  -9.034  1.00  0.00     0.037 A 
ATOM     26  C   UNL     1       6.632   7.596  -5.162  1.00  0.00     0.037 A 
ATOM     27  C   UNL     1       4.919   3.302  -9.777  1.00  0.00     0.049 A 
ATOM     28  C   UNL     1       6.844   7.530  -6.654  1.00  0.00     0.074 A 
ATOM     29  C   UNL     1       5.077   3.416 -11.147  1.00  0.00     0.029 A 
ATOM     30  N   UNL     1       5.483   4.434  -9.211  1.00  0.00    -0.354 N 
ATOM     31  N   UNL     1       6.426   6.632  -7.513  1.00  0.00    -0.248 NA
ATOM     32  C   UNL     1       7.628   8.616  -7.261  1.00  0.00     0.031 C 
ATOM     33  C   UNL     1       5.790   4.589 -11.406  1.00  0.00     0.029 A 
ATOM     34  C   UNL     1       6.020   5.236 -10.203  1.00  0.00     0.049 A 
ATOM     35  H   UNL     1       5.499   4.637  -8.248  1.00  0.00     0.167 HD
ATOM     36  C   UNL     1       6.860   7.067  -8.761  1.00  0.00     0.074 A 
ATOM     37  C   UNL     1       7.565   8.312  -8.549  1.00  0.00     0.031 C 
ATOM     38  C   UNL     1       6.690   6.488  -9.974  1.00  0.00     0.037 A 
BRANCH  25  39
ATOM     39  C   UNL     1       3.819   1.035  -9.791  1.00  0.00     0.057 A 
ATOM     40  C   UNL     1       4.738   0.169 -10.399  1.00  0.00     0.134 A 
ATOM     41  C   UNL     1       2.458   0.760  -9.968  1.00  0.00     0.134 A 
ATOM     42  F   UNL     1       6.057   0.378 -10.274  1.00  0.00    -0.206 F 
ATOM     43  C   UNL     1       4.319  -0.920 -11.163  1.00  0.00     0.040 A 
ATOM     44  C   UNL     1       2.026  -0.343 -10.706  1.00  0.00     0.040 A 
ATOM     45  F   UNL     1       1.526   1.543  -9.401  1.00  0.00    -0.206 F 
ATOM     46  C   UNL     1       2.958  -1.182 -11.314  1.00  0.00     0.006 A 
ENDBRANCH  25  39
BRANCH  26  47
ATOM     47  C   UNL     1       7.198   8.728  -4.382  1.00  0.00     0.057 A 
ATOM     48  C   UNL     1       8.258   8.541  -3.487  1.00  0.00     0.134 A 
ATOM     49  C   UNL     1       6.743  10.038  -4.575  1.00  0.00     0.134 A 
ATOM     50  F   UNL     1       8.739   7.312  -3.250  1.00  0.00    -0.206 F 
ATOM     51  C   UNL     1       8.854   9.616  -2.824  1.00  0.00     0.040 A 
ATOM     52  C   UNL     1       7.351  11.125  -3.943  1.00  0.00     0.040 A 
ATOM     53  F   UNL     1       5.744  10.286  -5.435  1.00  0.00    -0.206 F 
ATOM     54  C   UNL     1       8.411  10.914  -3.064  1.00  0.00     0.006 A 
ENDBRANCH  26  47
BRANCH  38  55
ATOM     55  C   UNL     1       7.215   7.223 -11.173  1.00  0.00     0.057 A 
ATOM     56  C   UNL     1       6.328   7.790 -12.098  1.00  0.00     0.134 A 
ATOM     57  C   UNL     1       8.584   7.317 -11.448  1.00  0.00     0.134 A 
ATOM     58  F   UNL     1       5.002   7.725 -11.899  1.00  0.00    -0.206 F 
ATOM     59  C   UNL     1       6.784   8.414 -13.259  1.00  0.00     0.040 A 
ATOM     60  C   UNL     1       9.054   7.966 -12.591  1.00  0.00     0.040 A 
ATOM     61  F   UNL     1       9.486   6.806 -10.596  1.00  0.00    -0.206 F 
ATOM     62  C   UNL     1       8.152   8.508 -13.505  1.00  0.00     0.006 A 
ENDBRANCH  38  55
ENDBRANCH  12  13
ENDBRANCH   5   7
ENDBRANCH   2   3
ENDBRANCH   1   2
BRANCH   1  63
ATOM     63  C   UNL     1       4.589  -1.288   3.397  1.00  0.00     0.118 C 
BRANCH  63  64
ATOM     64  N   UNL     1       5.095  -2.641   3.244  1.00  0.00    -0.352 N 
ATOM     65  C   UNL     1       5.775  -3.408   4.155  1.00  0.00     0.255 C 
ATOM     66  H   UNL     1       4.928  -3.063   2.371  1.00  0.00     0.163 HD
ATOM     67  O   UNL     1       6.226  -4.501   3.825  1.00  0.00    -0.269 OA
BRANCH  65  68
ATOM     68  C   UNL     1       6.027  -2.896   5.516  1.00  0.00     0.081 A 
ATOM     69  C   UNL     1       7.354  -2.868   5.960  1.00  0.00     0.020 A 
ATOM     70  C   UNL     1       5.002  -2.464   6.361  1.00  0.00     0.130 A 
ATOM     71  C   UNL     1       7.657  -2.376   7.233  1.00  0.00     0.028 A 
ATOM     72  C   UNL     1       5.305  -1.974   7.630  1.00  0.00     0.073 A 
ATOM     73  C   UNL     1       6.632  -1.946   8.087  1.00  0.00     0.054 A 
BRANCH  70  74
ATOM     74  O   UNL     1       3.697  -2.501   5.955  1.00  0.00    -0.507 OA
ATOM     75  H   UNL     1       3.480  -2.827   5.105  1.00  0.00     0.293 HD
ENDBRANCH  70  74
BRANCH  73  76
ATOM     76  N   UNL     1       6.922  -1.471   9.399  1.00  0.00    -0.261 N 
ATOM     77  C   UNL     1       7.925  -0.520   9.589  1.00  0.00     0.270 C 
ATOM     78  C   UNL     1       6.236  -1.882  10.535  1.00  0.00     0.152 C 
ATOM     79  O   UNL     1       8.663  -0.032   8.746  1.00  0.00    -0.268 OA
ATOM     80  C   UNL     1       7.951  -0.092  11.017  1.00  0.00     0.081 C 
ATOM     81  S   UNL     1       6.766  -0.942  11.920  1.00  0.00    -0.054 SA
ATOM     82  S   UNL     1       5.129  -3.123  10.733  1.00  0.00    -0.051 S 
ATOM     83  C   UNL     1       8.758   0.880  11.463  1.00  0.00     0.027 C 
BRANCH  83  84
ATOM     84  C   UNL     1       8.808   1.375  12.818  1.00  0.00    -0.016 C 
ATOM     85  C   UNL     1       8.483   2.598  13.229  1.00  0.00     0.005 A 
ATOM     86  C   UNL     1       9.237   0.524  13.982  1.00  0.00     0.179 C 
ATOM     87  C   UNL     1       8.022   3.796  12.603  1.00  0.00     0.011 A 
ATOM     88  C   UNL     1       8.679   2.513  14.687  1.00  0.00     0.065 A 
ATOM     89  N   UNL     1       9.109   1.391  15.180  1.00  0.00    -0.280 NA
ATOM     90  C   UNL     1       7.756   4.864  13.373  1.00  0.00     0.001 A 
ATOM     91  C   UNL     1       8.354   3.726  15.467  1.00  0.00     0.028 A 
ATOM     92  C   UNL     1       7.919   4.819  14.818  1.00  0.00     0.002 A 
ENDBRANCH  83  84
ENDBRANCH  73  76
ENDBRANCH  65  68
ENDBRANCH  63  64
ENDBRANCH   1  63
TORSDOF 13
