REMARK SMILES C[C@]1(C(=O)N2CCC(CC(=O)NCCCNC(=O)c3ccc(-c4c5nc(c(-c6c(F)cccc6F)c6ccc([nH]6)c(-c6c(F)cccc6F)c6nc(c(-c7c(F)cccc7F)c7ccc4[nH]7)C=C6)C=C5)cc3)CC2)CCC[NH2+]C1
REMARK SMILES IDX 14 1 13 2 12 3 10 4 11 5 9 7 8 8 3 9 4 10 5 11 6 12 74 13
REMARK SMILES IDX 7 14 73 15 2 16 1 17 75 18 79 19 76 20 78 21 77 22 15 25
REMARK SMILES IDX 16 26 17 27 18 29 19 30 20 31 72 32 21 33 71 34 22 35 23 36
REMARK SMILES IDX 24 37 65 38 25 39 70 40 64 41 66 42 26 43 69 44 63 45 62 46
REMARK SMILES IDX 27 48 53 49 36 50 52 51 37 52 40 53 51 54 67 55 38 56 39 57
REMARK SMILES IDX 50 59 68 60 41 61 28 62 29 63 34 64 30 65 31 66 33 67 35 68
REMARK SMILES IDX 32 69 54 70 55 71 60 72 56 73 57 74 59 75 61 76 58 77 42 78
REMARK SMILES IDX 43 79 48 80 44 81 45 82 47 83 49 84 46 85
REMARK H PARENT 12 6 78 23 78 24 16 28 66 47 40 58
REMARK Flexibility Score: inf
ROOT
ATOM      1  C   UNL     1       6.055   1.828  -2.303  1.00  0.00     0.042 C 
ENDROOT
BRANCH   1   2
ATOM      2  C   UNL     1       6.407   0.509  -2.998  1.00  0.00     0.117 C 
BRANCH   2   3
ATOM      3  N   UNL     1       7.264  -0.342  -2.181  1.00  0.00    -0.356 N 
ATOM      4  C   UNL     1       7.021  -1.520  -1.536  1.00  0.00     0.220 C 
ATOM      5  O   UNL     1       7.936  -2.017  -0.876  1.00  0.00    -0.275 OA
ATOM      6  H   UNL     1       8.184  -0.007  -2.076  1.00  0.00     0.163 HD
BRANCH   4   7
ATOM      7  C   UNL     1       5.666  -2.198  -1.614  1.00  0.00     0.103 C 
BRANCH   7   8
ATOM      8  C   UNL     1       4.766  -1.935  -0.387  1.00  0.00     0.002 C 
ATOM      9  C   UNL     1       0.946  -0.212   0.248  1.00  0.00     0.234 C 
ATOM     10  O   UNL     1       0.168  -0.454   1.172  1.00  0.00    -0.274 OA
ATOM     11  N   UNL     1       2.187  -0.810   0.199  1.00  0.00    -0.342 N 
ATOM     12  C   UNL     1       2.323  -2.243   0.370  1.00  0.00     0.120 C 
ATOM     13  C   UNL     1       3.341  -0.065   0.650  1.00  0.00     0.120 C 
ATOM     14  C   UNL     1       3.450  -2.739  -0.535  1.00  0.00     0.026 C 
ATOM     15  C   UNL     1       4.521  -0.427  -0.225  1.00  0.00     0.026 C 
BRANCH   9  16
ATOM     16  C   UNL     1       0.484   0.530  -1.037  1.00  0.00     0.095 C 
ATOM     17  C   UNL     1      -0.308  -0.530  -1.840  1.00  0.00     0.028 C 
ATOM     18  C   UNL     1      -0.461   1.687  -0.647  1.00  0.00     0.028 C 
ATOM     19  C   UNL     1       1.587   1.080  -1.973  1.00  0.00     0.277 C 
ATOM     20  C   UNL     1       0.325   2.893  -0.129  1.00  0.00     0.063 C 
ATOM     21  N   UNL     1       2.294   2.270  -1.485  1.00  0.00    -0.345 N 
ATOM     22  C   UNL     1       1.366   3.348  -1.147  1.00  0.00     0.260 C 
ATOM     23  H   UNL     1       2.827   2.019  -0.652  1.00  0.00     0.346 HD
ATOM     24  H   UNL     1       2.910   2.601  -2.227  1.00  0.00     0.346 HD
ENDBRANCH   9  16
ENDBRANCH   7   8
ENDBRANCH   4   7
ENDBRANCH   2   3
ENDBRANCH   1   2
BRANCH   1  25
ATOM     25  C   UNL     1       7.222   2.796  -2.151  1.00  0.00     0.118 C 
BRANCH  25  26
ATOM     26  N   UNL     1       7.322   3.699  -3.284  1.00  0.00    -0.352 N 
ATOM     27  C   UNL     1       7.011   5.033  -3.391  1.00  0.00     0.251 C 
ATOM     28  H   UNL     1       7.669   3.288  -4.109  1.00  0.00     0.163 HD
ATOM     29  O   UNL     1       6.923   5.529  -4.512  1.00  0.00    -0.269 OA
BRANCH  27  30
ATOM     30  C   UNL     1       6.768   5.887  -2.199  1.00  0.00     0.039 A 
ATOM     31  C   UNL     1       5.816   6.910  -2.296  1.00  0.00     0.014 A 
ATOM     32  C   UNL     1       7.518   5.766  -1.026  1.00  0.00     0.014 A 
ATOM     33  C   UNL     1       5.591   7.774  -1.219  1.00  0.00     0.010 A 
ATOM     34  C   UNL     1       7.244   6.583   0.075  1.00  0.00     0.010 A 
ATOM     35  C   UNL     1       6.288   7.606  -0.012  1.00  0.00    -0.014 A 
BRANCH  35  36
ATOM     36  C   UNL     1       6.048   8.506   1.149  1.00  0.00     0.031 A 
ATOM     37  C   UNL     1       7.143   9.409   1.657  1.00  0.00     0.074 A 
ATOM     38  C   UNL     1       4.859   8.482   1.785  1.00  0.00     0.049 A 
ATOM     39  N   UNL     1       7.144  10.205   2.697  1.00  0.00    -0.248 NA
ATOM     40  C   UNL     1       8.411   9.399   0.911  1.00  0.00     0.031 C 
ATOM     41  C   UNL     1       3.725   7.629   1.428  1.00  0.00     0.029 A 
ATOM     42  N   UNL     1       4.413   9.189   2.875  1.00  0.00    -0.354 N 
ATOM     43  C   UNL     1       8.414  10.767   2.746  1.00  0.00     0.074 A 
ATOM     44  C   UNL     1       9.168  10.199   1.649  1.00  0.00     0.031 C 
ATOM     45  C   UNL     1       2.709   7.872   2.274  1.00  0.00     0.029 A 
ATOM     46  C   UNL     1       3.130   8.872   3.251  1.00  0.00     0.049 A 
ATOM     47  H   UNL     1       4.961   9.860   3.343  1.00  0.00     0.167 HD
ATOM     48  C   UNL     1       8.904  11.686   3.612  1.00  0.00     0.037 A 
ATOM     49  C   UNL     1       2.379   9.326   4.272  1.00  0.00     0.037 A 
ATOM     50  C   UNL     1       8.146  12.293   4.675  1.00  0.00     0.049 A 
ATOM     51  C   UNL     1       2.941  10.362   5.206  1.00  0.00     0.074 A 
ATOM     52  C   UNL     1       8.539  13.291   5.552  1.00  0.00     0.029 A 
ATOM     53  N   UNL     1       6.840  11.966   5.001  1.00  0.00    -0.354 N 
ATOM     54  N   UNL     1       4.122  10.927   5.198  1.00  0.00    -0.248 NA
ATOM     55  C   UNL     1       2.061  10.825   6.290  1.00  0.00     0.031 C 
ATOM     56  C   UNL     1       7.480  13.545   6.429  1.00  0.00     0.029 A 
ATOM     57  C   UNL     1       6.418  12.729   6.076  1.00  0.00     0.049 A 
ATOM     58  H   UNL     1       6.294  11.290   4.537  1.00  0.00     0.167 HD
ATOM     59  C   UNL     1       4.120  11.826   6.256  1.00  0.00     0.074 A 
ATOM     60  C   UNL     1       2.815  11.743   6.877  1.00  0.00     0.031 C 
ATOM     61  C   UNL     1       5.113  12.646   6.678  1.00  0.00     0.037 A 
BRANCH  48  62
ATOM     62  C   UNL     1      10.334  12.107   3.447  1.00  0.00     0.057 A 
ATOM     63  C   UNL     1      10.736  12.957   2.409  1.00  0.00     0.134 A 
ATOM     64  C   UNL     1      11.306  11.711   4.374  1.00  0.00     0.134 A 
ATOM     65  F   UNL     1       9.854  13.364   1.484  1.00  0.00    -0.206 F 
ATOM     66  C   UNL     1      12.059  13.387   2.291  1.00  0.00     0.040 A 
ATOM     67  C   UNL     1      12.628  12.151   4.278  1.00  0.00     0.040 A 
ATOM     68  F   UNL     1      10.985  10.904   5.396  1.00  0.00    -0.206 F 
ATOM     69  C   UNL     1      13.007  12.990   3.232  1.00  0.00     0.006 A 
ENDBRANCH  48  62
BRANCH  49  70
ATOM     70  C   UNL     1       1.001   8.812   4.468  1.00  0.00     0.057 A 
ATOM     71  C   UNL     1      -0.113   9.618   4.207  1.00  0.00     0.134 A 
ATOM     72  C   UNL     1       0.765   7.516   4.940  1.00  0.00     0.134 A 
ATOM     73  F   UNL     1       0.051  10.877   3.775  1.00  0.00    -0.206 F 
ATOM     74  C   UNL     1      -1.413   9.162   4.429  1.00  0.00     0.040 A 
ATOM     75  C   UNL     1      -0.530   7.038   5.144  1.00  0.00     0.040 A 
ATOM     76  F   UNL     1       1.792   6.695   5.204  1.00  0.00    -0.206 F 
ATOM     77  C   UNL     1      -1.624   7.865   4.895  1.00  0.00     0.006 A 
ENDBRANCH  49  70
BRANCH  61  78
ATOM     78  C   UNL     1       4.818  13.539   7.845  1.00  0.00     0.057 A 
ATOM     79  C   UNL     1       4.759  13.044   9.153  1.00  0.00     0.134 A 
ATOM     80  C   UNL     1       4.625  14.914   7.661  1.00  0.00     0.134 A 
ATOM     81  F   UNL     1       4.922  11.734   9.392  1.00  0.00    -0.206 F 
ATOM     82  C   UNL     1       4.500  13.883  10.238  1.00  0.00     0.040 A 
ATOM     83  C   UNL     1       4.386  15.766   8.739  1.00  0.00     0.040 A 
ATOM     84  F   UNL     1       4.676  15.450   6.433  1.00  0.00    -0.206 F 
ATOM     85  C   UNL     1       4.319  15.250  10.032  1.00  0.00     0.006 A 
ENDBRANCH  61  78
ENDBRANCH  35  36
ENDBRANCH  27  30
ENDBRANCH  25  26
ENDBRANCH   1  25
TORSDOF 12
