REMARK SMILES CCc1c(C)sc(NC(=O)[C@H]2CC(C)=C(C)C[C@H]2C(=O)NCCCNC(=O)c2ccc(-c3c4nc(c(-c5c(F)cccc5F)c5ccc([nH]5)c(-c5c(F)cccc5F)c5nc(c(-c6c(F)cccc6F)c6ccc3[nH]6)C=C5)C=C4)cc2)c1C(=O)NC1CC1
REMARK SMILES IDX 22 1 21 2 19 3 20 4 18 6 11 7 12 8 13 9 17 10 14 11 15 12
REMARK SMILES IDX 16 13 9 14 8 15 10 17 7 18 3 19 4 20 82 21 5 22 6 23 2 24
REMARK SMILES IDX 1 25 83 26 84 27 85 28 86 30 87 31 88 32 23 33 24 34 25 35
REMARK SMILES IDX 26 36 27 38 28 39 29 40 81 41 30 42 80 43 31 44 32 45 33 46
REMARK SMILES IDX 74 47 34 48 79 49 73 50 75 51 35 52 78 53 72 54 71 55 36 57
REMARK SMILES IDX 62 58 45 59 61 60 46 61 49 62 60 63 76 64 47 65 48 66 59 68
REMARK SMILES IDX 77 69 50 70 37 71 38 72 43 73 39 74 40 75 42 76 44 77 41 78
REMARK SMILES IDX 63 79 64 80 69 81 65 82 66 83 68 84 70 85 67 86 51 87 52 88
REMARK SMILES IDX 57 89 53 90 54 91 56 92 58 93 55 94
REMARK H PARENT 21 5 8 16 85 29 25 37 75 56 49 67
REMARK Flexibility Score: inf
ROOT
ATOM      1  C   UNL     1       2.859   3.292   2.840  1.00  0.00     0.117 C 
ENDROOT
BRANCH   1   2
ATOM      2  N   UNL     1       3.451   4.160   3.849  1.00  0.00    -0.356 N 
ATOM      3  C   UNL     1       3.637   4.108   5.188  1.00  0.00     0.224 C 
ATOM      4  O   UNL     1       4.219   5.097   5.659  1.00  0.00    -0.275 OA
ATOM      5  H   UNL     1       3.804   4.993   3.459  1.00  0.00     0.163 HD
BRANCH   3   6
ATOM      6  C   UNL     1       3.279   2.958   6.142  1.00  0.00     0.095 C 
ATOM      7  C   UNL     1       1.807   2.677   6.467  1.00  0.00     0.095 C 
ATOM      8  C   UNL     1       1.607   1.541   7.483  1.00  0.00     0.045 C 
ATOM      9  C   UNL     1       2.600   0.391   7.432  1.00  0.00    -0.074 C 
ATOM     10  C   UNL     1       4.195   1.741   6.005  1.00  0.00     0.045 C 
ATOM     11  C   UNL     1       2.005  -0.899   7.970  1.00  0.00     0.039 C 
ATOM     12  C   UNL     1       3.779   0.487   6.767  1.00  0.00    -0.074 C 
ATOM     13  C   UNL     1       4.737  -0.661   6.542  1.00  0.00     0.039 C 
BRANCH   7  14
ATOM     14  C   UNL     1       0.689   2.865   5.428  1.00  0.00     0.229 C 
ATOM     15  N   UNL     1       0.209   2.027   4.473  1.00  0.00    -0.317 N 
ATOM     16  H   UNL     1      -0.613   2.381   4.064  1.00  0.00     0.170 HD
ATOM     17  O   UNL     1       0.123   3.977   5.432  1.00  0.00    -0.274 OA
BRANCH  15  18
ATOM     18  C   UNL     1       0.567   0.808   3.922  1.00  0.00     0.108 A 
ATOM     19  C   UNL     1       1.058  -0.923   2.415  1.00  0.00    -0.020 A 
ATOM     20  C   UNL     1       1.510  -1.431   3.621  1.00  0.00     0.008 A 
ATOM     21  C   UNL     1       0.184   0.253   2.690  1.00  0.00     0.078 A 
ATOM     22  C   UNL     1       2.081  -2.753   4.001  1.00  0.00     0.057 C 
ATOM     23  S   UNL     1       1.529  -0.225   4.766  1.00  0.00    -0.122 S 
BRANCH  19  24
ATOM     24  C   UNL     1       1.459  -1.619   1.141  1.00  0.00     0.034 C 
ATOM     25  C   UNL     1       2.158  -0.720   0.134  1.00  0.00     0.009 C 
ENDBRANCH  19  24
BRANCH  21  26
ATOM     26  C   UNL     1      -0.871   0.952   1.931  1.00  0.00     0.254 C 
ATOM     27  O   UNL     1      -1.318   2.045   2.318  1.00  0.00    -0.269 OA
ATOM     28  N   UNL     1      -1.501   0.435   0.839  1.00  0.00    -0.349 N 
ATOM     29  H   UNL     1      -2.205   1.011   0.463  1.00  0.00     0.164 HD
BRANCH  28  30
ATOM     30  C   UNL     1      -1.316  -0.781   0.160  1.00  0.00     0.082 C 
ATOM     31  C   UNL     1      -1.987  -2.015   0.697  1.00  0.00     0.027 C 
ATOM     32  C   UNL     1      -2.395  -1.458  -0.631  1.00  0.00     0.027 C 
ENDBRANCH  28  30
ENDBRANCH  21  26
ENDBRANCH  15  18
ENDBRANCH   7  14
ENDBRANCH   3   6
ENDBRANCH   1   2
BRANCH   1  33
ATOM     33  C   UNL     1       1.550   3.881   2.285  1.00  0.00     0.042 C 
BRANCH  33  34
ATOM     34  C   UNL     1       1.554   4.363   0.834  1.00  0.00     0.118 C 
BRANCH  34  35
ATOM     35  N   UNL     1       1.594   3.300  -0.168  1.00  0.00    -0.352 N 
ATOM     36  C   UNL     1       0.722   2.744  -1.076  1.00  0.00     0.251 C 
ATOM     37  H   UNL     1       2.477   2.866  -0.201  1.00  0.00     0.163 HD
ATOM     38  O   UNL     1       1.224   1.947  -1.876  1.00  0.00    -0.269 OA
BRANCH  36  39
ATOM     39  C   UNL     1      -0.763   2.938  -1.140  1.00  0.00     0.039 A 
ATOM     40  C   UNL     1      -1.503   1.970  -1.861  1.00  0.00     0.014 A 
ATOM     41  C   UNL     1      -1.481   3.957  -0.523  1.00  0.00     0.014 A 
ATOM     42  C   UNL     1      -2.908   1.965  -1.877  1.00  0.00     0.010 A 
ATOM     43  C   UNL     1      -2.884   3.944  -0.512  1.00  0.00     0.010 A 
ATOM     44  C   UNL     1      -3.610   2.945  -1.176  1.00  0.00    -0.014 A 
BRANCH  44  45
ATOM     45  C   UNL     1      -5.084   3.084  -1.288  1.00  0.00     0.031 A 
ATOM     46  C   UNL     1      -5.604   4.117  -2.249  1.00  0.00     0.074 A 
ATOM     47  C   UNL     1      -5.936   2.382  -0.514  1.00  0.00     0.049 A 
ATOM     48  N   UNL     1      -6.827   4.530  -2.448  1.00  0.00    -0.248 NA
ATOM     49  C   UNL     1      -4.594   4.794  -3.081  1.00  0.00     0.031 C 
ATOM     50  C   UNL     1      -5.561   1.360   0.462  1.00  0.00     0.029 A 
ATOM     51  N   UNL     1      -7.306   2.447  -0.414  1.00  0.00    -0.354 N 
ATOM     52  C   UNL     1      -6.729   5.530  -3.407  1.00  0.00     0.074 A 
ATOM     53  C   UNL     1      -5.328   5.686  -3.725  1.00  0.00     0.031 C 
ATOM     54  C   UNL     1      -6.673   0.902   1.070  1.00  0.00     0.029 A 
ATOM     55  C   UNL     1      -7.836   1.618   0.549  1.00  0.00     0.049 A 
ATOM     56  H   UNL     1      -7.859   3.034  -0.980  1.00  0.00     0.167 HD
ATOM     57  C   UNL     1      -7.719   6.249  -3.982  1.00  0.00     0.037 A 
ATOM     58  C   UNL     1      -9.111   1.475   0.969  1.00  0.00     0.037 A 
ATOM     59  C   UNL     1      -9.112   6.084  -3.676  1.00  0.00     0.049 A 
ATOM     60  C   UNL     1     -10.193   2.316   0.329  1.00  0.00     0.074 A 
ATOM     61  C   UNL     1     -10.198   6.730  -4.238  1.00  0.00     0.029 A 
ATOM     62  N   UNL     1      -9.607   5.215  -2.718  1.00  0.00    -0.354 N 
ATOM     63  N   UNL     1     -10.097   3.200  -0.635  1.00  0.00    -0.248 NA
ATOM     64  C   UNL     1     -11.563   2.135   0.834  1.00  0.00     0.031 C 
ATOM     65  C   UNL     1     -11.350   6.286  -3.584  1.00  0.00     0.029 A 
ATOM     66  C   UNL     1     -10.985   5.323  -2.656  1.00  0.00     0.049 A 
ATOM     67  H   UNL     1      -9.061   4.611  -2.165  1.00  0.00     0.167 HD
ATOM     68  C   UNL     1     -11.393   3.643  -0.879  1.00  0.00     0.074 A 
ATOM     69  C   UNL     1     -12.259   2.923   0.028  1.00  0.00     0.031 C 
ATOM     70  C   UNL     1     -11.830   4.565  -1.772  1.00  0.00     0.037 A 
BRANCH  57  71
ATOM     71  C   UNL     1      -7.324   7.286  -4.988  1.00  0.00     0.057 A 
ATOM     72  C   UNL     1      -6.839   6.940  -6.256  1.00  0.00     0.134 A 
ATOM     73  C   UNL     1      -7.450   8.649  -4.691  1.00  0.00     0.134 A 
ATOM     74  F   UNL     1      -6.674   5.652  -6.592  1.00  0.00    -0.206 F 
ATOM     75  C   UNL     1      -6.475   7.913  -7.187  1.00  0.00     0.040 A 
ATOM     76  C   UNL     1      -7.114   9.631  -5.624  1.00  0.00     0.040 A 
ATOM     77  F   UNL     1      -7.904   9.046  -3.494  1.00  0.00    -0.206 F 
ATOM     78  C   UNL     1      -6.621   9.264  -6.874  1.00  0.00     0.006 A 
ENDBRANCH  57  71
BRANCH  58  79
ATOM     79  C   UNL     1      -9.470   0.516   2.052  1.00  0.00     0.057 A 
ATOM     80  C   UNL     1     -10.300  -0.585   1.798  1.00  0.00     0.134 A 
ATOM     81  C   UNL     1      -9.082   0.727   3.380  1.00  0.00     0.134 A 
ATOM     82  F   UNL     1     -10.731  -0.831   0.551  1.00  0.00    -0.206 F 
ATOM     83  C   UNL     1     -10.768  -1.409   2.825  1.00  0.00     0.040 A 
ATOM     84  C   UNL     1      -9.518  -0.107   4.414  1.00  0.00     0.040 A 
ATOM     85  F   UNL     1      -8.290   1.760   3.699  1.00  0.00    -0.206 F 
ATOM     86  C   UNL     1     -10.377  -1.169   4.140  1.00  0.00     0.006 A 
ENDBRANCH  58  79
BRANCH  70  87
ATOM     87  C   UNL     1     -13.310   4.800  -1.866  1.00  0.00     0.057 A 
ATOM     88  C   UNL     1     -14.022   5.475  -0.868  1.00  0.00     0.134 A 
ATOM     89  C   UNL     1     -14.016   4.406  -3.011  1.00  0.00     0.134 A 
ATOM     90  F   UNL     1     -13.407   5.870   0.257  1.00  0.00    -0.206 F 
ATOM     91  C   UNL     1     -15.388   5.734  -0.996  1.00  0.00     0.040 A 
ATOM     92  C   UNL     1     -15.373   4.686  -3.165  1.00  0.00     0.040 A 
ATOM     93  F   UNL     1     -13.390   3.767  -4.011  1.00  0.00    -0.206 F 
ATOM     94  C   UNL     1     -16.064   5.348  -2.152  1.00  0.00     0.006 A 
ENDBRANCH  70  87
ENDBRANCH  44  45
ENDBRANCH  36  39
ENDBRANCH  34  35
ENDBRANCH  33  34
ENDBRANCH   1  33
TORSDOF 15
