REMARK SMILES Cc1ccc2c(c1)c(-c1ccnc3c(C)cccc13)c(C)n2CC(=O)NCCCNC(=O)c1ccc(-c2c3nc(c(-c4c(F)cccc4F)c4ccc([nH]4)c(-c4c(F)cccc4F)c4nc(c(-c5c(F)cccc5F)c5ccc2[nH]5)C=C4)C=C3)cc1
REMARK SMILES IDX 28 1 27 2 26 3 24 4 25 5 23 7 22 8 1 9 2 10 3 11 7 12 4 13
REMARK SMILES IDX 6 14 5 15 8 16 20 17 21 18 9 19 10 20 19 21 11 22 13 23
REMARK SMILES IDX 18 24 12 25 14 26 17 27 15 28 16 29 29 30 30 31 31 32 32 34
REMARK SMILES IDX 33 35 34 36 86 37 35 38 85 39 36 40 37 41 38 42 79 43 39 44
REMARK SMILES IDX 84 45 78 46 80 47 40 48 83 49 77 50 76 51 41 53 67 54 50 55
REMARK SMILES IDX 66 56 51 57 54 58 65 59 81 60 52 61 53 62 64 64 82 65 55 66
REMARK SMILES IDX 42 67 43 68 48 69 44 70 45 71 47 72 49 73 46 74 68 75 69 76
REMARK SMILES IDX 74 77 70 78 71 79 73 80 75 81 72 82 56 83 57 84 62 85 58 86
REMARK SMILES IDX 59 87 61 88 63 89 60 90
REMARK H PARENT 26 6 30 33 80 52 54 63
REMARK Flexibility Score: inf
ROOT
ATOM      1  C   UNL     1      -3.892  -1.476  -3.278  1.00  0.00     0.042 C 
ENDROOT
BRANCH   1   2
ATOM      2  C   UNL     1      -3.289  -2.644  -4.060  1.00  0.00     0.117 C 
BRANCH   2   3
ATOM      3  N   UNL     1      -3.388  -2.475  -5.499  1.00  0.00    -0.354 N 
ATOM      4  C   UNL     1      -2.422  -2.205  -6.425  1.00  0.00     0.239 C 
ATOM      5  O   UNL     1      -2.766  -2.154  -7.607  1.00  0.00    -0.273 OA
ATOM      6  H   UNL     1      -4.297  -2.570  -5.865  1.00  0.00     0.163 HD
BRANCH   4   7
ATOM      7  C   UNL     1      -0.970  -2.035  -6.023  1.00  0.00     0.222 C 
BRANCH   7   8
ATOM      8  N   UNL     1      -0.716  -0.822  -5.255  1.00  0.00    -0.335 N 
ATOM      9  C   UNL     1       0.933   0.080   0.082  1.00  0.00     0.044 C 
ATOM     10  C   UNL     1       0.525  -0.225  -1.330  1.00  0.00    -0.050 A 
ATOM     11  C   UNL     1       0.612  -1.529  -1.815  1.00  0.00     0.005 A 
ATOM     12  C   UNL     1       0.103   0.803  -2.186  1.00  0.00     0.014 A 
ATOM     13  C   UNL     1       0.249  -1.842  -3.129  1.00  0.00     0.027 A 
ATOM     14  C   UNL     1      -0.272   0.513  -3.517  1.00  0.00     0.008 A 
ATOM     15  C   UNL     1      -0.216  -0.808  -3.961  1.00  0.00     0.049 A 
ATOM     16  C   UNL     1      -0.734   1.307  -4.606  1.00  0.00     0.011 A 
ATOM     17  C   UNL     1      -0.934   0.472  -5.695  1.00  0.00     0.024 A 
ATOM     18  C   UNL     1      -1.353   0.820  -7.088  1.00  0.00     0.065 C 
BRANCH  16  19
ATOM     19  C   UNL     1      -0.947   2.749  -4.638  1.00  0.00    -0.005 A 
ATOM     20  C   UNL     1       0.180   3.568  -4.632  1.00  0.00     0.029 A 
ATOM     21  C   UNL     1      -2.246   3.322  -4.634  1.00  0.00     0.008 A 
ATOM     22  C   UNL     1      -0.015   4.929  -4.631  1.00  0.00     0.112 A 
ATOM     23  C   UNL     1      -2.335   4.734  -4.632  1.00  0.00     0.074 A 
ATOM     24  C   UNL     1      -3.438   2.557  -4.621  1.00  0.00     0.011 A 
ATOM     25  N   UNL     1      -1.232   5.511  -4.633  1.00  0.00    -0.256 NA
ATOM     26  C   UNL     1      -3.607   5.325  -4.622  1.00  0.00    -0.025 A 
ATOM     27  C   UNL     1      -4.690   3.158  -4.609  1.00  0.00     0.001 A 
ATOM     28  C   UNL     1      -3.780   6.823  -4.619  1.00  0.00     0.047 C 
ATOM     29  C   UNL     1      -4.774   4.540  -4.609  1.00  0.00     0.005 A 
ENDBRANCH  16  19
ENDBRANCH   7   8
ENDBRANCH   4   7
ENDBRANCH   2   3
ENDBRANCH   1   2
BRANCH   1  30
ATOM     30  C   UNL     1      -5.384  -1.260  -3.532  1.00  0.00     0.118 C 
BRANCH  30  31
ATOM     31  N   UNL     1      -6.200  -2.437  -3.301  1.00  0.00    -0.352 N 
ATOM     32  C   UNL     1      -6.812  -3.003  -2.223  1.00  0.00     0.251 C 
ATOM     33  H   UNL     1      -6.348  -2.954  -4.126  1.00  0.00     0.163 HD
ATOM     34  O   UNL     1      -7.513  -3.996  -2.470  1.00  0.00    -0.269 OA
BRANCH  32  35
ATOM     35  C   UNL     1      -6.658  -2.583  -0.806  1.00  0.00     0.039 A 
ATOM     36  C   UNL     1      -5.961  -1.462  -0.353  1.00  0.00     0.014 A 
ATOM     37  C   UNL     1      -7.239  -3.444   0.147  1.00  0.00     0.014 A 
ATOM     38  C   UNL     1      -5.762  -1.269   1.014  1.00  0.00     0.010 A 
ATOM     39  C   UNL     1      -7.054  -3.249   1.509  1.00  0.00     0.010 A 
ATOM     40  C   UNL     1      -6.270  -2.187   1.940  1.00  0.00    -0.014 A 
BRANCH  40  41
ATOM     41  C   UNL     1      -6.062  -1.937   3.364  1.00  0.00     0.031 A 
ATOM     42  C   UNL     1      -6.699  -0.685   3.855  1.00  0.00     0.074 A 
ATOM     43  C   UNL     1      -5.446  -2.804   4.197  1.00  0.00     0.049 A 
ATOM     44  N   UNL     1      -6.112   0.378   4.299  1.00  0.00    -0.248 NA
ATOM     45  C   UNL     1      -8.156  -0.543   3.710  1.00  0.00     0.031 C 
ATOM     46  C   UNL     1      -5.016  -4.173   3.896  1.00  0.00     0.029 A 
ATOM     47  N   UNL     1      -5.139  -2.673   5.524  1.00  0.00    -0.354 N 
ATOM     48  C   UNL     1      -7.132   1.249   4.682  1.00  0.00     0.074 A 
ATOM     49  C   UNL     1      -8.351   0.702   4.151  1.00  0.00     0.031 C 
ATOM     50  C   UNL     1      -4.701  -4.812   5.046  1.00  0.00     0.029 A 
ATOM     51  C   UNL     1      -4.762  -3.861   6.143  1.00  0.00     0.049 A 
ATOM     52  H   UNL     1      -5.182  -1.812   6.000  1.00  0.00     0.167 HD
ATOM     53  C   UNL     1      -6.909   2.204   5.627  1.00  0.00     0.037 A 
ATOM     54  C   UNL     1      -4.519  -4.060   7.463  1.00  0.00     0.037 A 
ATOM     55  C   UNL     1      -5.496   2.391   5.835  1.00  0.00     0.049 A 
ATOM     56  C   UNL     1      -4.225  -2.748   8.072  1.00  0.00     0.074 A 
ATOM     57  C   UNL     1      -4.448   2.993   5.175  1.00  0.00     0.029 A 
ATOM     58  N   UNL     1      -4.962   1.547   6.770  1.00  0.00    -0.354 N 
ATOM     59  N   UNL     1      -3.135  -2.076   7.835  1.00  0.00    -0.248 NA
ATOM     60  C   UNL     1      -5.297  -1.994   8.711  1.00  0.00     0.031 C 
ATOM     61  C   UNL     1      -3.271   2.307   5.603  1.00  0.00     0.029 A 
ATOM     62  C   UNL     1      -3.633   1.335   6.534  1.00  0.00     0.049 A 
ATOM     63  H   UNL     1      -5.468   1.146   7.513  1.00  0.00     0.167 HD
ATOM     64  C   UNL     1      -3.536  -0.756   7.872  1.00  0.00     0.074 A 
ATOM     65  C   UNL     1      -4.801  -0.759   8.595  1.00  0.00     0.031 C 
ATOM     66  C   UNL     1      -2.967   0.158   7.035  1.00  0.00     0.037 A 
BRANCH  53  67
ATOM     67  C   UNL     1      -7.893   2.581   6.723  1.00  0.00     0.057 A 
ATOM     68  C   UNL     1      -8.998   1.798   7.109  1.00  0.00     0.134 A 
ATOM     69  C   UNL     1      -7.515   3.569   7.658  1.00  0.00     0.134 A 
ATOM     70  F   UNL     1      -9.465   0.792   6.363  1.00  0.00    -0.206 F 
ATOM     71  C   UNL     1      -9.633   1.937   8.348  1.00  0.00     0.040 A 
ATOM     72  C   UNL     1      -8.116   3.686   8.918  1.00  0.00     0.040 A 
ATOM     73  F   UNL     1      -6.485   4.394   7.412  1.00  0.00    -0.206 F 
ATOM     74  C   UNL     1      -9.169   2.855   9.274  1.00  0.00     0.006 A 
ENDBRANCH  53  67
BRANCH  54  75
ATOM     75  C   UNL     1      -4.665  -5.275   8.293  1.00  0.00     0.057 A 
ATOM     76  C   UNL     1      -5.716  -6.176   8.062  1.00  0.00     0.134 A 
ATOM     77  C   UNL     1      -3.968  -5.434   9.500  1.00  0.00     0.134 A 
ATOM     78  F   UNL     1      -6.485  -6.067   6.968  1.00  0.00    -0.206 F 
ATOM     79  C   UNL     1      -6.078  -7.157   8.992  1.00  0.00     0.040 A 
ATOM     80  C   UNL     1      -4.319  -6.412  10.441  1.00  0.00     0.040 A 
ATOM     81  F   UNL     1      -2.968  -4.601   9.826  1.00  0.00    -0.206 F 
ATOM     82  C   UNL     1      -5.388  -7.268  10.194  1.00  0.00     0.006 A 
ENDBRANCH  54  75
BRANCH  66  83
ATOM     83  C   UNL     1      -1.628  -0.196   6.469  1.00  0.00     0.057 A 
ATOM     84  C   UNL     1      -0.525   0.573   6.848  1.00  0.00     0.134 A 
ATOM     85  C   UNL     1      -1.405  -1.228   5.547  1.00  0.00     0.134 A 
ATOM     86  F   UNL     1      -0.678   1.604   7.694  1.00  0.00    -0.206 F 
ATOM     87  C   UNL     1       0.753   0.319   6.351  1.00  0.00     0.040 A 
ATOM     88  C   UNL     1      -0.124  -1.515   5.067  1.00  0.00     0.040 A 
ATOM     89  F   UNL     1      -2.417  -1.963   5.069  1.00  0.00    -0.206 F 
ATOM     90  C   UNL     1       0.959  -0.738   5.468  1.00  0.00     0.006 A 
ENDBRANCH  66  83
ENDBRANCH  40  41
ENDBRANCH  32  35
ENDBRANCH  30  31
ENDBRANCH   1  30
TORSDOF 12
