REMARK SMILES O=C(NCCCNC(=O)c1cc(-c2ccc(F)c(C(F)(F)F)c2)cnc1O)c1ccc(-c2c3nc(c(-c4c(F)cccc4F)c4ccc([nH]4)c(-c4c(F)cccc4F)c4nc(c(-c5c(F)cccc5F)c5ccc2[nH]5)C=C4)C=C3)cc1
REMARK SMILES IDX 5 1 4 2 3 3 1 4 2 5 28 7 29 8 81 9 30 10 80 11 31 12 32 13
REMARK SMILES IDX 33 14 74 15 34 16 79 17 73 18 75 19 35 20 78 21 72 22 71 23
REMARK SMILES IDX 36 25 62 26 45 27 61 28 46 29 49 30 60 31 76 32 47 33 48 34
REMARK SMILES IDX 59 36 77 37 50 38 37 39 38 40 43 41 39 42 40 43 42 44 44 45
REMARK SMILES IDX 41 46 63 47 64 48 69 49 65 50 66 51 68 52 70 53 67 54 51 55
REMARK SMILES IDX 52 56 57 57 53 58 54 59 56 60 58 61 55 62 6 63 7 64 8 65
REMARK SMILES IDX 9 67 10 68 11 69 26 70 12 71 25 72 24 73 27 74 13 76 14 77
REMARK SMILES IDX 23 78 15 79 18 80 16 81 17 82 19 83 20 84 21 85 22 86
REMARK H PARENT 3 6 75 24 49 35 7 66 27 75
REMARK Flexibility Score: inf
ROOT
ATOM      1  C   UNL     1       4.904  -2.372   0.731  1.00  0.00     0.042 C 
ENDROOT
BRANCH   1   2
ATOM      2  C   UNL     1       4.527  -1.303  -0.284  1.00  0.00     0.118 C 
BRANCH   2   3
ATOM      3  N   UNL     1       3.090  -1.085  -0.360  1.00  0.00    -0.352 N 
ATOM      4  O   UNL     1       1.101  -0.131   0.037  1.00  0.00    -0.269 OA
ATOM      5  C   UNL     1       2.324  -0.008   0.004  1.00  0.00     0.251 C 
ATOM      6  H   UNL     1       2.582  -1.839  -0.736  1.00  0.00     0.163 HD
BRANCH   5   7
ATOM      7  C   UNL     1       2.938   1.292   0.354  1.00  0.00     0.039 A 
ATOM      8  C   UNL     1       2.328   2.079   1.337  1.00  0.00     0.014 A 
ATOM      9  C   UNL     1       4.051   1.784  -0.331  1.00  0.00     0.014 A 
ATOM     10  C   UNL     1       2.843   3.341   1.642  1.00  0.00     0.010 A 
ATOM     11  C   UNL     1       4.626   2.994   0.045  1.00  0.00     0.010 A 
ATOM     12  C   UNL     1       4.003   3.806   1.004  1.00  0.00    -0.014 A 
BRANCH  12  13
ATOM     13  C   UNL     1       4.515   5.180   1.238  1.00  0.00     0.031 A 
ATOM     14  C   UNL     1       4.533   6.166   0.097  1.00  0.00     0.074 A 
ATOM     15  C   UNL     1       4.981   5.541   2.448  1.00  0.00     0.049 A 
ATOM     16  N   UNL     1       5.011   7.384   0.058  1.00  0.00    -0.248 NA
ATOM     17  C   UNL     1       3.961   5.709  -1.181  1.00  0.00     0.031 C 
ATOM     18  C   UNL     1       5.034   4.679   3.630  1.00  0.00     0.029 A 
ATOM     19  N   UNL     1       5.503   6.733   2.883  1.00  0.00    -0.354 N 
ATOM     20  C   UNL     1       4.809   7.827  -1.245  1.00  0.00     0.074 A 
ATOM     21  C   UNL     1       4.232   6.726  -1.983  1.00  0.00     0.031 C 
ATOM     22  C   UNL     1       5.534   5.380   4.662  1.00  0.00     0.029 A 
ATOM     23  C   UNL     1       5.875   6.723   4.205  1.00  0.00     0.049 A 
ATOM     24  H   UNL     1       5.601   7.522   2.301  1.00  0.00     0.167 HD
ATOM     25  C   UNL     1       5.048   9.050  -1.774  1.00  0.00     0.037 A 
ATOM     26  C   UNL     1       6.438   7.689   4.956  1.00  0.00     0.037 A 
ATOM     27  C   UNL     1       5.592  10.156  -1.034  1.00  0.00     0.049 A 
ATOM     28  C   UNL     1       6.736   9.026   4.330  1.00  0.00     0.074 A 
ATOM     29  C   UNL     1       5.841  11.446  -1.467  1.00  0.00     0.029 A 
ATOM     30  N   UNL     1       5.967  10.101   0.300  1.00  0.00    -0.354 N 
ATOM     31  N   UNL     1       6.502   9.442   3.109  1.00  0.00    -0.248 NA
ATOM     32  C   UNL     1       7.378  10.028   5.193  1.00  0.00     0.031 C 
ATOM     33  C   UNL     1       6.406  12.161  -0.406  1.00  0.00     0.029 A 
ATOM     34  C   UNL     1       6.464  11.329   0.701  1.00  0.00     0.049 A 
ATOM     35  H   UNL     1       5.891   9.306   0.876  1.00  0.00     0.167 HD
ATOM     36  C   UNL     1       6.941  10.760   3.066  1.00  0.00     0.074 A 
ATOM     37  C   UNL     1       7.433  11.080   4.390  1.00  0.00     0.031 C 
ATOM     38  C   UNL     1       6.942  11.629   2.026  1.00  0.00     0.037 A 
BRANCH  25  39
ATOM     39  C   UNL     1       4.708   9.252  -3.223  1.00  0.00     0.057 A 
ATOM     40  C   UNL     1       5.716   9.437  -4.177  1.00  0.00     0.134 A 
ATOM     41  C   UNL     1       3.380   9.280  -3.672  1.00  0.00     0.134 A 
ATOM     42  F   UNL     1       7.008   9.426  -3.816  1.00  0.00    -0.206 F 
ATOM     43  C   UNL     1       5.415   9.640  -5.526  1.00  0.00     0.040 A 
ATOM     44  C   UNL     1       3.069   9.453  -5.022  1.00  0.00     0.040 A 
ATOM     45  F   UNL     1       2.367   9.094  -2.812  1.00  0.00    -0.206 F 
ATOM     46  C   UNL     1       4.089   9.640  -5.952  1.00  0.00     0.006 A 
ENDBRANCH  25  39
BRANCH  26  47
ATOM     47  C   UNL     1       6.762   7.444   6.386  1.00  0.00     0.057 A 
ATOM     48  C   UNL     1       7.785   6.568   6.765  1.00  0.00     0.134 A 
ATOM     49  C   UNL     1       6.090   8.130   7.405  1.00  0.00     0.134 A 
ATOM     50  F   UNL     1       8.464   5.876   5.838  1.00  0.00    -0.206 F 
ATOM     51  C   UNL     1       8.134   6.388   8.105  1.00  0.00     0.040 A 
ATOM     52  C   UNL     1       6.448   7.982   8.746  1.00  0.00     0.040 A 
ATOM     53  F   UNL     1       5.114   8.999   7.104  1.00  0.00    -0.206 F 
ATOM     54  C   UNL     1       7.473   7.107   9.099  1.00  0.00     0.006 A 
ENDBRANCH  26  47
BRANCH  38  55
ATOM     55  C   UNL     1       7.458  13.013   2.292  1.00  0.00     0.057 A 
ATOM     56  C   UNL     1       6.585  14.108   2.314  1.00  0.00     0.134 A 
ATOM     57  C   UNL     1       8.819  13.266   2.506  1.00  0.00     0.134 A 
ATOM     58  F   UNL     1       5.270  13.936   2.107  1.00  0.00    -0.206 F 
ATOM     59  C   UNL     1       7.046  15.405   2.542  1.00  0.00     0.040 A 
ATOM     60  C   UNL     1       9.288  14.555   2.765  1.00  0.00     0.040 A 
ATOM     61  F   UNL     1       9.706  12.259   2.512  1.00  0.00    -0.206 F 
ATOM     62  C   UNL     1       8.401  15.630   2.777  1.00  0.00     0.006 A 
ENDBRANCH  38  55
ENDBRANCH  12  13
ENDBRANCH   5   7
ENDBRANCH   2   3
ENDBRANCH   1   2
BRANCH   1  63
ATOM     63  C   UNL     1       4.308  -3.742   0.440  1.00  0.00     0.118 C 
BRANCH  63  64
ATOM     64  N   UNL     1       4.781  -4.295  -0.826  1.00  0.00    -0.352 N 
ATOM     65  C   UNL     1       5.667  -5.319  -1.040  1.00  0.00     0.256 C 
ATOM     66  H   UNL     1       4.413  -3.874  -1.637  1.00  0.00     0.163 HD
ATOM     67  O   UNL     1       6.133  -5.516  -2.158  1.00  0.00    -0.269 OA
BRANCH  65  68
ATOM     68  C   UNL     1       6.049  -6.192   0.075  1.00  0.00     0.102 A 
ATOM     69  C   UNL     1       7.406  -6.367   0.359  1.00  0.00     0.029 A 
ATOM     70  C   UNL     1       5.108  -6.858   0.852  1.00  0.00     0.223 A 
ATOM     71  C   UNL     1       7.788  -7.151   1.452  1.00  0.00     0.001 A 
ATOM     72  N   UNL     1       5.435  -7.590   1.931  1.00  0.00    -0.221 NA
ATOM     73  C   UNL     1       6.754  -7.711   2.208  1.00  0.00     0.124 A 
BRANCH  70  74
ATOM     74  O   UNL     1       3.765  -6.817   0.610  1.00  0.00    -0.493 OA
ATOM     75  H   UNL     1       3.436  -6.332  -0.121  1.00  0.00     0.295 HD
ENDBRANCH  70  74
BRANCH  71  76
ATOM     76  C   UNL     1       9.194  -7.389   1.796  1.00  0.00    -0.016 A 
ATOM     77  C   UNL     1       9.679  -8.702   1.925  1.00  0.00     0.012 A 
ATOM     78  C   UNL     1      10.084  -6.325   2.029  1.00  0.00     0.025 A 
ATOM     79  C   UNL     1      11.003  -8.945   2.290  1.00  0.00     0.040 A 
ATOM     80  C   UNL     1      11.420  -6.561   2.401  1.00  0.00     0.092 A 
ATOM     81  C   UNL     1      11.857  -7.876   2.530  1.00  0.00     0.135 A 
ATOM     82  F   UNL     1      13.119  -8.130   2.898  1.00  0.00    -0.206 F 
BRANCH  80  83
ATOM     83  C   UNL     1      12.376  -5.445   2.693  1.00  0.00     0.419 C 
ATOM     84  F   UNL     1      12.748  -5.399   4.002  1.00  0.00    -0.166 F 
ATOM     85  F   UNL     1      13.525  -5.518   1.969  1.00  0.00    -0.166 F 
ATOM     86  F   UNL     1      11.852  -4.214   2.421  1.00  0.00    -0.166 F 
ENDBRANCH  80  83
ENDBRANCH  71  76
ENDBRANCH  65  68
ENDBRANCH  63  64
ENDBRANCH   1  63
TORSDOF 13
