REMARK SMILES CCc1cc2c(-c3ccccc3)cc(=O)oc2cc1OCC(=O)NCCCNC(=O)c1ccc(-c2c3nc(c(-c4c(F)cccc4F)c4ccc([nH]4)c(-c4c(F)cccc4F)c4nc(c(-c5c(F)cccc5F)c5ccc2[nH]5)C=C4)C=C3)cc1
REMARK SMILES IDX 25 1 24 2 22 3 23 4 21 6 20 7 19 8 3 9 4 10 5 11 18 12 6 13
REMARK SMILES IDX 17 14 13 15 16 16 14 17 15 18 2 19 1 20 7 21 8 22 12 23 9 24
REMARK SMILES IDX 11 25 10 26 26 27 27 28 28 29 29 30 30 32 31 33 32 34 84 35
REMARK SMILES IDX 33 36 83 37 34 38 35 39 36 40 77 41 37 42 82 43 76 44 78 45
REMARK SMILES IDX 38 46 81 47 75 48 74 49 39 51 65 52 48 53 64 54 49 55 52 56
REMARK SMILES IDX 63 57 79 58 50 59 51 60 62 62 80 63 53 64 40 65 41 66 46 67
REMARK SMILES IDX 42 68 43 69 45 70 47 71 44 72 66 73 67 74 72 75 68 76 69 77
REMARK SMILES IDX 71 78 73 79 70 80 54 81 55 82 60 83 56 84 57 85 59 86 61 87
REMARK SMILES IDX 58 88
REMARK H PARENT 24 5 28 31 78 50 52 61
REMARK Flexibility Score: inf
ROOT
ATOM      1  C   UNL     1       3.921  -4.287   1.556  1.00  0.00     0.117 C 
ENDROOT
BRANCH   1   2
ATOM      2  N   UNL     1       4.136  -4.239   2.989  1.00  0.00    -0.353 N 
ATOM      3  C   UNL     1       3.207  -4.197   3.988  1.00  0.00     0.257 C 
ATOM      4  O   UNL     1       3.597  -4.202   5.157  1.00  0.00    -0.271 OA
ATOM      5  H   UNL     1       5.076  -4.237   3.280  1.00  0.00     0.163 HD
BRANCH   3   6
ATOM      6  C   UNL     1       1.714  -4.184   3.640  1.00  0.00     0.329 C 
BRANCH   6   7
ATOM      7  O   UNL     1       1.272  -3.131   2.799  1.00  0.00    -0.483 OA
BRANCH   7   8
ATOM      8  C   UNL     1       1.296  -1.848   3.278  1.00  0.00     0.127 A 
ATOM      9  C   UNL     1       0.986  -0.837   2.344  1.00  0.00    -0.005 A 
ATOM     10  C   UNL     1       0.997   0.505   2.770  1.00  0.00     0.020 A 
ATOM     11  C   UNL     1       1.309   0.860   4.088  1.00  0.00     0.026 A 
ATOM     12  C   UNL     1       1.604  -1.501   4.597  1.00  0.00     0.094 A 
ATOM     13  C   UNL     1       1.320   2.258   4.553  1.00  0.00    -0.000 A 
ATOM     14  C   UNL     1       1.613  -0.160   4.978  1.00  0.00     0.142 A 
ATOM     15  C   UNL     1       1.650   2.484   5.835  1.00  0.00     0.103 A 
ATOM     16  O   UNL     1       1.948   0.114   6.316  1.00  0.00    -0.423 OA
ATOM     17  C   UNL     1       1.996   1.415   6.785  1.00  0.00     0.336 A 
ATOM     18  O   UNL     1       2.304   1.684   7.941  1.00  0.00    -0.246 OA
BRANCH   9  19
ATOM     19  C   UNL     1       0.558  -1.183   0.928  1.00  0.00     0.036 C 
ATOM     20  C   UNL     1       1.023  -0.216  -0.157  1.00  0.00     0.009 C 
ENDBRANCH   9  19
BRANCH  13  21
ATOM     21  C   UNL     1       0.973   3.433   3.726  1.00  0.00    -0.017 A 
ATOM     22  C   UNL     1      -0.329   3.572   3.223  1.00  0.00     0.009 A 
ATOM     23  C   UNL     1       1.945   4.380   3.378  1.00  0.00     0.009 A 
ATOM     24  C   UNL     1      -0.645   4.623   2.361  1.00  0.00     0.001 A 
ATOM     25  C   UNL     1       1.622   5.437   2.525  1.00  0.00     0.001 A 
ATOM     26  C   UNL     1       0.331   5.553   2.011  1.00  0.00     0.000 A 
ENDBRANCH  13  21
ENDBRANCH   7   8
ENDBRANCH   6   7
ENDBRANCH   3   6
ENDBRANCH   1   2
BRANCH   1  27
ATOM     27  C   UNL     1       4.288  -2.980   0.865  1.00  0.00     0.042 C 
BRANCH  27  28
ATOM     28  C   UNL     1       5.752  -2.576   1.014  1.00  0.00     0.118 C 
BRANCH  28  29
ATOM     29  N   UNL     1       6.677  -3.540   0.430  1.00  0.00    -0.352 N 
ATOM     30  C   UNL     1       7.641  -3.371  -0.533  1.00  0.00     0.251 C 
ATOM     31  H   UNL     1       6.597  -4.456   0.781  1.00  0.00     0.163 HD
ATOM     32  O   UNL     1       8.217  -4.350  -1.001  1.00  0.00    -0.269 OA
BRANCH  30  33
ATOM     33  C   UNL     1       7.971  -2.019  -1.032  1.00  0.00     0.039 A 
ATOM     34  C   UNL     1       8.127  -1.823  -2.407  1.00  0.00     0.014 A 
ATOM     35  C   UNL     1       8.131  -0.948  -0.150  1.00  0.00     0.014 A 
ATOM     36  C   UNL     1       8.361  -0.537  -2.903  1.00  0.00     0.010 A 
ATOM     37  C   UNL     1       8.285   0.341  -0.649  1.00  0.00     0.010 A 
ATOM     38  C   UNL     1       8.396   0.562  -2.031  1.00  0.00    -0.014 A 
BRANCH  38  39
ATOM     39  C   UNL     1       8.540   1.954  -2.530  1.00  0.00     0.031 A 
ATOM     40  C   UNL     1       9.731   2.778  -2.126  1.00  0.00     0.074 A 
ATOM     41  C   UNL     1       7.556   2.507  -3.267  1.00  0.00     0.049 A 
ATOM     42  N   UNL     1       9.969   4.048  -2.336  1.00  0.00    -0.248 NA
ATOM     43  C   UNL     1      10.780   2.088  -1.359  1.00  0.00     0.031 C 
ATOM     44  C   UNL     1       6.335   1.825  -3.699  1.00  0.00     0.029 A 
ATOM     45  N   UNL     1       7.418   3.780  -3.763  1.00  0.00    -0.354 N 
ATOM     46  C   UNL     1      11.181   4.313  -1.710  1.00  0.00     0.074 A 
ATOM     47  C   UNL     1      11.604   3.085  -1.072  1.00  0.00     0.031 C 
ATOM     48  C   UNL     1       5.580   2.682  -4.405  1.00  0.00     0.029 A 
ATOM     49  C   UNL     1       6.236   3.985  -4.434  1.00  0.00     0.049 A 
ATOM     50  H   UNL     1       8.102   4.479  -3.650  1.00  0.00     0.167 HD
ATOM     51  C   UNL     1      11.886   5.469  -1.685  1.00  0.00     0.037 A 
ATOM     52  C   UNL     1       5.728   5.101  -4.990  1.00  0.00     0.037 A 
ATOM     53  C   UNL     1      11.470   6.683  -2.337  1.00  0.00     0.049 A 
ATOM     54  C   UNL     1       6.518   6.380  -4.926  1.00  0.00     0.074 A 
ATOM     55  C   UNL     1      12.138   7.893  -2.411  1.00  0.00     0.029 A 
ATOM     56  N   UNL     1      10.276   6.843  -3.024  1.00  0.00    -0.354 N 
ATOM     57  N   UNL     1       7.686   6.604  -4.375  1.00  0.00    -0.248 NA
ATOM     58  C   UNL     1       5.920   7.562  -5.563  1.00  0.00     0.031 C 
ATOM     59  C   UNL     1      11.325   8.800  -3.097  1.00  0.00     0.029 A 
ATOM     60  C   UNL     1      10.179   8.139  -3.505  1.00  0.00     0.049 A 
ATOM     61  H   UNL     1       9.598   6.141  -3.151  1.00  0.00     0.167 HD
ATOM     62  C   UNL     1       7.981   7.937  -4.634  1.00  0.00     0.074 A 
ATOM     63  C   UNL     1       6.871   8.470  -5.395  1.00  0.00     0.031 C 
ATOM     64  C   UNL     1       9.076   8.652  -4.278  1.00  0.00     0.037 A 
BRANCH  51  65
ATOM     65  C   UNL     1      13.180   5.476  -0.922  1.00  0.00     0.057 A 
ATOM     66  C   UNL     1      14.303   4.762  -1.361  1.00  0.00     0.134 A 
ATOM     67  C   UNL     1      13.316   6.235   0.248  1.00  0.00     0.134 A 
ATOM     68  F   UNL     1      14.239   4.007  -2.468  1.00  0.00    -0.206 F 
ATOM     69  C   UNL     1      15.504   4.778  -0.649  1.00  0.00     0.040 A 
ATOM     70  C   UNL     1      14.520   6.284   0.952  1.00  0.00     0.040 A 
ATOM     71  F   UNL     1      12.283   6.949   0.721  1.00  0.00    -0.206 F 
ATOM     72  C   UNL     1      15.617   5.547   0.508  1.00  0.00     0.006 A 
ENDBRANCH  51  65
BRANCH  52  73
ATOM     73  C   UNL     1       4.407   5.061  -5.668  1.00  0.00     0.057 A 
ATOM     74  C   UNL     1       4.304   5.213  -7.056  1.00  0.00     0.134 A 
ATOM     75  C   UNL     1       3.218   4.886  -4.950  1.00  0.00     0.134 A 
ATOM     76  F   UNL     1       5.405   5.404  -7.797  1.00  0.00    -0.206 F 
ATOM     77  C   UNL     1       3.067   5.215  -7.703  1.00  0.00     0.040 A 
ATOM     78  C   UNL     1       1.976   4.857  -5.587  1.00  0.00     0.040 A 
ATOM     79  F   UNL     1       3.247   4.727  -3.618  1.00  0.00    -0.206 F 
ATOM     80  C   UNL     1       1.898   5.032  -6.967  1.00  0.00     0.006 A 
ENDBRANCH  52  73
BRANCH  64  81
ATOM     81  C   UNL     1       9.161  10.073  -4.755  1.00  0.00     0.057 A 
ATOM     82  C   UNL     1       8.354  11.088  -4.225  1.00  0.00     0.134 A 
ATOM     83  C   UNL     1      10.105  10.438  -5.724  1.00  0.00     0.134 A 
ATOM     84  F   UNL     1       7.420  10.804  -3.304  1.00  0.00    -0.206 F 
ATOM     85  C   UNL     1       8.470  12.411  -4.657  1.00  0.00     0.040 A 
ATOM     86  C   UNL     1      10.251  11.761  -6.141  1.00  0.00     0.040 A 
ATOM     87  F   UNL     1      10.916   9.517  -6.266  1.00  0.00    -0.206 F 
ATOM     88  C   UNL     1       9.427  12.751  -5.611  1.00  0.00     0.006 A 
ENDBRANCH  64  81
ENDBRANCH  38  39
ENDBRANCH  30  33
ENDBRANCH  28  29
ENDBRANCH  27  28
ENDBRANCH   1  27
TORSDOF 14
