REMARK SMILES CC[C@@H](C(=O)NCCCNC(=O)c1ccc(-c2c3nc(c(-c4c(F)cccc4F)c4ccc([nH]4)c(-c4c(F)cccc4F)c4nc(c(-c5c(F)cccc5F)c5ccc2[nH]5)C=C4)C=C3)cc1)n1c(SCc2cccc(C(F)(F)F)c2)nc2ccncc21
REMARK SMILES IDX 4 1 5 2 6 3 3 5 2 6 1 7 67 8 68 9 87 10 81 11 82 12 86 13
REMARK SMILES IDX 83 14 85 15 84 16 69 17 70 18 71 19 72 20 80 21 73 22 75 23
REMARK SMILES IDX 74 24 76 25 77 26 78 27 79 28 7 29 8 30 9 31 10 32 11 33
REMARK SMILES IDX 12 35 13 36 14 37 66 38 15 39 65 40 16 41 17 42 18 43 59 44
REMARK SMILES IDX 19 45 64 46 58 47 60 48 20 49 63 50 57 51 56 52 21 54 47 55
REMARK SMILES IDX 30 56 46 57 31 58 34 59 45 60 61 61 32 62 33 63 44 65 62 66
REMARK SMILES IDX 35 67 22 68 23 69 28 70 24 71 25 72 27 73 29 74 26 75 48 76
REMARK SMILES IDX 49 77 54 78 50 79 51 80 53 81 55 82 52 83 36 84 37 85 42 86
REMARK SMILES IDX 38 87 39 88 41 89 43 90 40 91
REMARK H PARENT 6 4 10 34 60 53 34 64
REMARK Flexibility Score: inf
ROOT
ATOM      1  C   UNL     1       0.387  -0.807   2.893  1.00  0.00     0.243 C 
ATOM      2  O   UNL     1      -0.355  -0.954   3.865  1.00  0.00    -0.273 OA
ATOM      3  N   UNL     1       1.011   0.406   2.845  1.00  0.00    -0.354 N 
ATOM      4  H   UNL     1       0.736   1.012   3.570  1.00  0.00     0.163 HD
ENDROOT
BRANCH   1   5
ATOM      5  C   UNL     1       0.540  -1.854   1.787  1.00  0.00     0.178 C 
BRANCH   5   6
ATOM      6  C   UNL     1      -0.598  -1.731   0.746  1.00  0.00     0.032 C 
ATOM      7  C   UNL     1      -0.581  -0.450  -0.062  1.00  0.00     0.006 C 
ENDBRANCH   5   6
BRANCH   5   8
ATOM      8  N   UNL     1       0.597  -3.275   2.251  1.00  0.00    -0.305 N 
ATOM      9  C   UNL     1       1.213  -4.249   1.473  1.00  0.00     0.170 A 
ATOM     10  C   UNL     1      -0.449  -3.948   2.885  1.00  0.00     0.088 A 
ATOM     11  N   UNL     1       0.395  -5.245   1.218  1.00  0.00    -0.222 NA
ATOM     12  C   UNL     1      -0.610  -5.114   2.138  1.00  0.00     0.093 A 
ATOM     13  C   UNL     1      -1.272  -3.688   3.973  1.00  0.00     0.139 A 
ATOM     14  C   UNL     1      -1.660  -5.989   2.417  1.00  0.00     0.051 A 
ATOM     15  N   UNL     1      -2.265  -4.561   4.273  1.00  0.00    -0.262 NA
ATOM     16  C   UNL     1      -2.445  -5.656   3.505  1.00  0.00     0.113 A 
BRANCH   9  17
ATOM     17  S   UNL     1       2.923  -4.458   1.333  1.00  0.00    -0.083 SA
BRANCH  17  18
ATOM     18  C   UNL     1       3.578  -3.308   0.135  1.00  0.00     0.113 C 
BRANCH  18  19
ATOM     19  C   UNL     1       2.742  -2.739  -0.984  1.00  0.00    -0.037 A 
ATOM     20  C   UNL     1       3.088  -1.457  -1.453  1.00  0.00     0.004 A 
ATOM     21  C   UNL     1       1.709  -3.426  -1.634  1.00  0.00     0.017 A 
ATOM     22  C   UNL     1       2.386  -0.851  -2.491  1.00  0.00     0.001 A 
ATOM     23  C   UNL     1       0.969  -2.812  -2.663  1.00  0.00     0.056 A 
ATOM     24  C   UNL     1       1.318  -1.518  -3.081  1.00  0.00     0.013 A 
BRANCH  23  25
ATOM     25  C   UNL     1      -0.237  -3.490  -3.272  1.00  0.00     0.416 C 
ATOM     26  F   UNL     1      -1.401  -3.020  -2.740  1.00  0.00    -0.166 F 
ATOM     27  F   UNL     1      -0.334  -3.282  -4.615  1.00  0.00    -0.166 F 
ATOM     28  F   UNL     1      -0.258  -4.838  -3.099  1.00  0.00    -0.166 F 
ENDBRANCH  23  25
ENDBRANCH  18  19
ENDBRANCH  17  18
ENDBRANCH   9  17
ENDBRANCH   5   8
ENDBRANCH   1   5
BRANCH   3  29
ATOM     29  C   UNL     1       1.994   0.994   1.950  1.00  0.00     0.117 C 
BRANCH  29  30
ATOM     30  C   UNL     1       1.462   2.171   1.127  1.00  0.00     0.042 C 
BRANCH  30  31
ATOM     31  C   UNL     1       0.795   3.297   1.916  1.00  0.00     0.118 C 
BRANCH  31  32
ATOM     32  N   UNL     1       1.756   4.203   2.522  1.00  0.00    -0.352 N 
ATOM     33  C   UNL     1       2.011   5.529   2.257  1.00  0.00     0.251 C 
ATOM     34  H   UNL     1       2.311   3.807   3.233  1.00  0.00     0.163 HD
ATOM     35  O   UNL     1       3.008   6.056   2.742  1.00  0.00    -0.269 OA
BRANCH  33  36
ATOM     36  C   UNL     1       1.121   6.326   1.377  1.00  0.00     0.039 A 
ATOM     37  C   UNL     1       1.702   7.207   0.457  1.00  0.00     0.014 A 
ATOM     38  C   UNL     1      -0.271   6.258   1.480  1.00  0.00     0.014 A 
ATOM     39  C   UNL     1       0.894   7.961  -0.401  1.00  0.00     0.010 A 
ATOM     40  C   UNL     1      -1.076   6.962   0.580  1.00  0.00     0.010 A 
ATOM     41  C   UNL     1      -0.502   7.817  -0.373  1.00  0.00    -0.014 A 
BRANCH  41  42
ATOM     42  C   UNL     1      -1.371   8.531  -1.348  1.00  0.00     0.031 A 
ATOM     43  C   UNL     1      -2.351   9.574  -0.887  1.00  0.00     0.074 A 
ATOM     44  C   UNL     1      -1.323   8.194  -2.652  1.00  0.00     0.049 A 
ATOM     45  N   UNL     1      -3.230  10.250  -1.585  1.00  0.00    -0.248 NA
ATOM     46  C   UNL     1      -2.357   9.883   0.550  1.00  0.00     0.031 C 
ATOM     47  C   UNL     1      -0.439   7.182  -3.230  1.00  0.00     0.029 A 
ATOM     48  N   UNL     1      -2.041   8.662  -3.725  1.00  0.00    -0.354 N 
ATOM     49  C   UNL     1      -3.900  11.056  -0.673  1.00  0.00     0.074 A 
ATOM     50  C   UNL     1      -3.358  10.748   0.635  1.00  0.00     0.031 C 
ATOM     51  C   UNL     1      -0.647   7.123  -4.555  1.00  0.00     0.029 A 
ATOM     52  C   UNL     1      -1.707   8.060  -4.914  1.00  0.00     0.049 A 
ATOM     53  H   UNL     1      -2.729   9.362  -3.650  1.00  0.00     0.167 HD
ATOM     54  C   UNL     1      -4.865  11.980  -0.903  1.00  0.00     0.037 A 
ATOM     55  C   UNL     1      -2.204   8.233  -6.153  1.00  0.00     0.037 A 
ATOM     56  C   UNL     1      -5.398  12.295  -2.204  1.00  0.00     0.049 A 
ATOM     57  C   UNL     1      -3.310   9.225  -6.378  1.00  0.00     0.074 A 
ATOM     58  C   UNL     1      -6.329  13.261  -2.545  1.00  0.00     0.029 A 
ATOM     59  N   UNL     1      -5.057  11.639  -3.377  1.00  0.00    -0.354 N 
ATOM     60  N   UNL     1      -3.889  10.025  -5.516  1.00  0.00    -0.248 NA
ATOM     61  C   UNL     1      -3.835   9.333  -7.746  1.00  0.00     0.031 C 
ATOM     62  C   UNL     1      -6.589  13.156  -3.916  1.00  0.00     0.029 A 
ATOM     63  C   UNL     1      -5.785  12.155  -4.438  1.00  0.00     0.049 A 
ATOM     64  H   UNL     1      -4.395  10.914  -3.447  1.00  0.00     0.167 HD
ATOM     65  C   UNL     1      -4.831  10.745  -6.239  1.00  0.00     0.074 A 
ATOM     66  C   UNL     1      -4.738  10.295  -7.612  1.00  0.00     0.031 C 
ATOM     67  C   UNL     1      -5.694  11.695  -5.801  1.00  0.00     0.037 A 
BRANCH  54  68
ATOM     68  C   UNL     1      -5.413  12.711   0.290  1.00  0.00     0.057 A 
ATOM     69  C   UNL     1      -4.649  13.647   1.000  1.00  0.00     0.134 A 
ATOM     70  C   UNL     1      -6.724  12.484   0.728  1.00  0.00     0.134 A 
ATOM     71  F   UNL     1      -3.382  13.905   0.638  1.00  0.00    -0.206 F 
ATOM     72  C   UNL     1      -5.154  14.302   2.125  1.00  0.00     0.040 A 
ATOM     73  C   UNL     1      -7.250  13.153   1.835  1.00  0.00     0.040 A 
ATOM     74  F   UNL     1      -7.515  11.609   0.089  1.00  0.00    -0.206 F 
ATOM     75  C   UNL     1      -6.461  14.057   2.543  1.00  0.00     0.006 A 
ENDBRANCH  54  68
BRANCH  55  76
ATOM     76  C   UNL     1      -1.637   7.462  -7.287  1.00  0.00     0.057 A 
ATOM     77  C   UNL     1      -0.837   8.088  -8.249  1.00  0.00     0.134 A 
ATOM     78  C   UNL     1      -1.859   6.087  -7.425  1.00  0.00     0.134 A 
ATOM     79  F   UNL     1      -0.605   9.407  -8.178  1.00  0.00    -0.206 F 
ATOM     80  C   UNL     1      -0.280   7.376  -9.312  1.00  0.00     0.040 A 
ATOM     81  C   UNL     1      -1.292   5.358  -8.471  1.00  0.00     0.040 A 
ATOM     82  F   UNL     1      -2.612   5.429  -6.532  1.00  0.00    -0.206 F 
ATOM     83  C   UNL     1      -0.501   6.004  -9.420  1.00  0.00     0.006 A 
ENDBRANCH  55  76
BRANCH  67  84
ATOM     84  C   UNL     1      -6.598  12.323  -6.821  1.00  0.00     0.057 A 
ATOM     85  C   UNL     1      -7.690  11.633  -7.361  1.00  0.00     0.134 A 
ATOM     86  C   UNL     1      -6.396  13.645  -7.239  1.00  0.00     0.134 A 
ATOM     87  F   UNL     1      -7.929  10.360  -7.014  1.00  0.00    -0.206 F 
ATOM     88  C   UNL     1      -8.541  12.230  -8.294  1.00  0.00     0.040 A 
ATOM     89  C   UNL     1      -7.253  14.260  -8.152  1.00  0.00     0.040 A 
ATOM     90  F   UNL     1      -5.371  14.363  -6.757  1.00  0.00    -0.206 F 
ATOM     91  C   UNL     1      -8.327  13.551  -8.686  1.00  0.00     0.006 A 
ENDBRANCH  67  84
ENDBRANCH  41  42
ENDBRANCH  33  36
ENDBRANCH  31  32
ENDBRANCH  30  31
ENDBRANCH  29  30
ENDBRANCH   3  29
TORSDOF 16
