REMARK SMILES COc1ccc2c(c1)c(CC(=O)NCCCNC(=O)c1ccc(-c3c4nc(c(-c5c(F)cccc5F)c5ccc([nH]5)c(-c5c(F)cccc5F)c5nc(c(-c6c(F)cccc6F)c6ccc3[nH]6)C=C5)C=C4)cc1)c(C(F)(F)F)n2C(=O)c1ccc(Cl)cc1
REMARK SMILES IDX 14 1 13 2 11 3 12 4 10 6 9 7 3 8 4 9 8 10 5 11 7 12 6 13
REMARK SMILES IDX 79 14 74 15 2 16 1 17 80 18 81 19 82 20 83 21 88 22 84 23
REMARK SMILES IDX 87 24 85 25 86 26 75 27 76 28 77 29 78 30 15 31 16 32 17 33
REMARK SMILES IDX 18 34 19 36 20 37 21 38 73 39 22 40 72 41 23 42 24 43 25 44
REMARK SMILES IDX 66 45 26 46 71 47 65 48 67 49 27 50 70 51 64 52 63 53 28 55
REMARK SMILES IDX 54 56 37 57 53 58 38 59 41 60 52 61 68 62 39 63 40 64 51 66
REMARK SMILES IDX 69 67 42 68 29 69 30 70 35 71 31 72 32 73 34 74 36 75 33 76
REMARK SMILES IDX 55 77 56 78 61 79 57 80 58 81 60 82 62 83 59 84 43 85 44 86
REMARK SMILES IDX 49 87 45 88 46 89 48 90 50 91 47 92
REMARK H PARENT 13 5 17 35 67 54 41 65
REMARK Flexibility Score: inf
ROOT
ATOM      1  C   UNL     1      -0.411   7.991   1.277  1.00  0.00     0.117 C 
ENDROOT
BRANCH   1   2
ATOM      2  N   UNL     1      -1.386   7.034   0.787  1.00  0.00    -0.356 N 
ATOM      3  C   UNL     1      -1.985   5.996   1.440  1.00  0.00     0.224 C 
ATOM      4  O   UNL     1      -2.822   5.328   0.828  1.00  0.00    -0.275 OA
ATOM      5  H   UNL     1      -1.654   7.150  -0.153  1.00  0.00     0.163 HD
BRANCH   3   6
ATOM      6  C   UNL     1      -1.653   5.709   2.895  1.00  0.00     0.138 C 
BRANCH   6   7
ATOM      7  C   UNL     1      -0.241   5.237   3.107  1.00  0.00     0.000 A 
ATOM      8  C   UNL     1       0.772   2.175   1.056  1.00  0.00     0.119 A 
ATOM      9  C   UNL     1       2.028   2.028   1.623  1.00  0.00     0.048 A 
ATOM     10  C   UNL     1      -0.053   3.222   1.472  1.00  0.00     0.057 A 
ATOM     11  C   UNL     1       2.482   2.921   2.601  1.00  0.00     0.031 A 
ATOM     12  C   UNL     1       0.385   4.140   2.452  1.00  0.00     0.008 A 
ATOM     13  C   UNL     1       1.673   4.009   2.981  1.00  0.00     0.057 A 
ATOM     14  N   UNL     1       1.907   5.128   3.796  1.00  0.00    -0.271 N 
ATOM     15  C   UNL     1       0.671   5.725   4.041  1.00  0.00     0.135 A 
BRANCH   8  16
ATOM     16  O   UNL     1       0.247   1.376   0.078  1.00  0.00    -0.497 OA
ATOM     17  C   UNL     1       0.787   0.063  -0.012  1.00  0.00     0.278 C 
ENDBRANCH   8  16
BRANCH  14  18
ATOM     18  C   UNL     1       3.172   5.605   4.235  1.00  0.00     0.262 C 
ATOM     19  O   UNL     1       3.217   6.718   4.764  1.00  0.00    -0.268 OA
BRANCH  18  20
ATOM     20  C   UNL     1       4.453   4.907   4.045  1.00  0.00     0.040 A 
ATOM     21  C   UNL     1       5.049   4.866   2.778  1.00  0.00     0.015 A 
ATOM     22  C   UNL     1       5.026   4.235   5.129  1.00  0.00     0.015 A 
ATOM     23  C   UNL     1       6.182   4.073   2.581  1.00  0.00     0.021 A 
ATOM     24  C   UNL     1       6.166   3.454   4.926  1.00  0.00     0.021 A 
ATOM     25  C   UNL     1       6.726   3.360   3.651  1.00  0.00     0.041 A 
ATOM     26  Cl  UNL     1       8.080   2.331   3.388  1.00  0.00    -0.084 Cl
ENDBRANCH  18  20
ENDBRANCH  14  18
BRANCH  15  27
ATOM     27  C   UNL     1       0.443   6.740   5.111  1.00  0.00     0.432 C 
ATOM     28  F   UNL     1       0.539   8.004   4.632  1.00  0.00    -0.165 F 
ATOM     29  F   UNL     1      -0.824   6.620   5.601  1.00  0.00    -0.165 F 
ATOM     30  F   UNL     1       1.248   6.618   6.189  1.00  0.00    -0.165 F 
ENDBRANCH  15  27
ENDBRANCH   6   7
ENDBRANCH   3   6
ENDBRANCH   1   2
BRANCH   1  31
ATOM     31  C   UNL     1       0.970   7.799   0.646  1.00  0.00     0.042 C 
BRANCH  31  32
ATOM     32  C   UNL     1       1.008   8.099  -0.853  1.00  0.00     0.118 C 
BRANCH  32  33
ATOM     33  N   UNL     1       0.522   9.421  -1.200  1.00  0.00    -0.352 N 
ATOM     34  C   UNL     1       1.069  10.665  -1.323  1.00  0.00     0.251 C 
ATOM     35  H   UNL     1      -0.443   9.420  -1.394  1.00  0.00     0.163 HD
ATOM     36  O   UNL     1       0.313  11.538  -1.758  1.00  0.00    -0.269 OA
BRANCH  34  37
ATOM     37  C   UNL     1       2.447  11.056  -0.922  1.00  0.00     0.039 A 
ATOM     38  C   UNL     1       3.420  10.206  -0.396  1.00  0.00     0.014 A 
ATOM     39  C   UNL     1       2.740  12.431  -1.026  1.00  0.00     0.014 A 
ATOM     40  C   UNL     1       4.603  10.733   0.117  1.00  0.00     0.010 A 
ATOM     41  C   UNL     1       3.924  12.959  -0.530  1.00  0.00     0.010 A 
ATOM     42  C   UNL     1       4.829  12.114   0.097  1.00  0.00    -0.014 A 
BRANCH  42  43
ATOM     43  C   UNL     1       6.077  12.620   0.661  1.00  0.00     0.031 A 
ATOM     44  C   UNL     1       7.306  12.107  -0.004  1.00  0.00     0.074 A 
ATOM     45  C   UNL     1       6.133  13.551   1.637  1.00  0.00     0.049 A 
ATOM     46  N   UNL     1       8.231  11.361   0.506  1.00  0.00    -0.248 NA
ATOM     47  C   UNL     1       7.460  12.344  -1.448  1.00  0.00     0.031 C 
ATOM     48  C   UNL     1       5.036  14.338   2.205  1.00  0.00     0.029 A 
ATOM     49  N   UNL     1       7.226  14.053   2.280  1.00  0.00    -0.354 N 
ATOM     50  C   UNL     1       9.185  11.190  -0.496  1.00  0.00     0.074 A 
ATOM     51  C   UNL     1       8.589  11.685  -1.709  1.00  0.00     0.031 C 
ATOM     52  C   UNL     1       5.544  15.362   2.929  1.00  0.00     0.029 A 
ATOM     53  C   UNL     1       6.990  15.226   2.990  1.00  0.00     0.049 A 
ATOM     54  H   UNL     1       8.110  13.621   2.245  1.00  0.00     0.167 HD
ATOM     55  C   UNL     1      10.472  10.858  -0.196  1.00  0.00     0.037 A 
ATOM     56  C   UNL     1       7.920  16.049   3.538  1.00  0.00     0.037 A 
ATOM     57  C   UNL     1      10.571  10.299   1.129  1.00  0.00     0.049 A 
ATOM     58  C   UNL     1       9.180  15.279   3.679  1.00  0.00     0.074 A 
ATOM     59  C   UNL     1      10.038   9.196   1.768  1.00  0.00     0.029 A 
ATOM     60  N   UNL     1      11.054  11.105   2.130  1.00  0.00    -0.354 N 
ATOM     61  N   UNL     1       9.344  14.309   4.533  1.00  0.00    -0.248 NA
ATOM     62  C   UNL     1      10.103  15.282   2.554  1.00  0.00     0.031 C 
ATOM     63  C   UNL     1       9.779   9.633   3.102  1.00  0.00     0.029 A 
ATOM     64  C   UNL     1      10.227  10.949   3.210  1.00  0.00     0.049 A 
ATOM     65  H   UNL     1      11.847  11.686   2.080  1.00  0.00     0.167 HD
ATOM     66  C   UNL     1      10.052  13.344   3.833  1.00  0.00     0.074 A 
ATOM     67  C   UNL     1      10.568  14.033   2.652  1.00  0.00     0.031 C 
ATOM     68  C   UNL     1       9.912  12.017   4.126  1.00  0.00     0.037 A 
BRANCH  55  69
ATOM     69  C   UNL     1      11.682  11.407  -0.920  1.00  0.00     0.057 A 
ATOM     70  C   UNL     1      11.671  12.574  -1.710  1.00  0.00     0.134 A 
ATOM     71  C   UNL     1      12.962  10.956  -0.543  1.00  0.00     0.134 A 
ATOM     72  F   UNL     1      10.541  13.155  -2.125  1.00  0.00    -0.206 F 
ATOM     73  C   UNL     1      12.834  13.278  -2.037  1.00  0.00     0.040 A 
ATOM     74  C   UNL     1      14.127  11.679  -0.825  1.00  0.00     0.040 A 
ATOM     75  F   UNL     1      13.112   9.846   0.197  1.00  0.00    -0.206 F 
ATOM     76  C   UNL     1      14.063  12.856  -1.558  1.00  0.00     0.006 A 
ENDBRANCH  55  69
BRANCH  56  77
ATOM     77  C   UNL     1       7.889  17.525   3.671  1.00  0.00     0.057 A 
ATOM     78  C   UNL     1       7.177  18.323   2.758  1.00  0.00     0.134 A 
ATOM     79  C   UNL     1       8.777  18.206   4.516  1.00  0.00     0.134 A 
ATOM     80  F   UNL     1       6.361  17.773   1.847  1.00  0.00    -0.206 F 
ATOM     81  C   UNL     1       7.346  19.709   2.680  1.00  0.00     0.040 A 
ATOM     82  C   UNL     1       8.961  19.595   4.444  1.00  0.00     0.040 A 
ATOM     83  F   UNL     1       9.538  17.532   5.391  1.00  0.00    -0.206 F 
ATOM     84  C   UNL     1       8.251  20.349   3.516  1.00  0.00     0.006 A 
ENDBRANCH  56  77
BRANCH  68  85
ATOM     85  C   UNL     1       9.169  11.657   5.382  1.00  0.00     0.057 A 
ATOM     86  C   UNL     1       9.804  10.851   6.333  1.00  0.00     0.134 A 
ATOM     87  C   UNL     1       7.828  11.991   5.631  1.00  0.00     0.134 A 
ATOM     88  F   UNL     1      11.065  10.435   6.134  1.00  0.00    -0.206 F 
ATOM     89  C   UNL     1       9.152  10.423   7.491  1.00  0.00     0.040 A 
ATOM     90  C   UNL     1       7.175  11.601   6.803  1.00  0.00     0.040 A 
ATOM     91  F   UNL     1       7.102  12.663   4.729  1.00  0.00    -0.206 F 
ATOM     92  C   UNL     1       7.838  10.813   7.739  1.00  0.00     0.006 A 
ENDBRANCH  68  85
ENDBRANCH  42  43
ENDBRANCH  34  37
ENDBRANCH  32  33
ENDBRANCH  31  32
ENDBRANCH   1  31
TORSDOF 15
