REMARK SMILES CCOc1ccc(C(=O)NNC(=O)[C@H]2CC=CC[C@H]2C(=O)NCCCNC(=O)c2ccc(-c3c4nc(c(-c5c(F)cccc5F)c5ccc([nH]5)c(-c5c(F)cccc5F)c5nc(c(-c6c(F)cccc6F)c6ccc3[nH]6)C=C5)C=C4)cc2)cc1
REMARK SMILES IDX 20 1 21 2 22 3 19 5 14 6 15 7 16 8 18 9 17 10 12 11 11 12
REMARK SMILES IDX 13 14 10 15 8 16 9 17 7 19 4 20 5 21 84 22 6 23 83 24 3 25
REMARK SMILES IDX 2 26 1 27 23 28 24 29 25 30 26 31 27 32 28 34 29 35 30 36
REMARK SMILES IDX 82 37 31 38 81 39 32 40 33 41 34 42 75 43 35 44 80 45 74 46
REMARK SMILES IDX 76 47 36 48 79 49 73 50 72 51 37 53 63 54 46 55 62 56 47 57
REMARK SMILES IDX 50 58 61 59 77 60 48 61 49 62 60 64 78 65 51 66 38 67 39 68
REMARK SMILES IDX 44 69 40 70 41 71 43 72 45 73 42 74 64 75 65 76 70 77 66 78
REMARK SMILES IDX 67 79 69 80 71 81 68 82 52 83 53 84 58 85 54 86 55 87 57 88
REMARK SMILES IDX 59 89 56 90
REMARK H PARENT 22 4 11 13 10 18 26 33 76 52 50 63
REMARK Flexibility Score: inf
ROOT
ATOM      1  C   UNL     1       9.399   2.440   1.733  1.00  0.00     0.224 C 
ATOM      2  O   UNL     1      10.114   3.066   2.523  1.00  0.00    -0.275 OA
ATOM      3  N   UNL     1       8.100   2.822   1.662  1.00  0.00    -0.356 N 
ATOM      4  H   UNL     1       7.882   3.572   2.262  1.00  0.00     0.163 HD
ENDROOT
BRANCH   1   5
ATOM      5  C   UNL     1      10.004   1.309   0.911  1.00  0.00     0.095 C 
ATOM      6  C   UNL     1       9.841  -0.095   1.536  1.00  0.00     0.097 C 
ATOM      7  C   UNL     1      10.488  -1.171   0.652  1.00  0.00     0.041 C 
ATOM      8  C   UNL     1      10.144  -1.031  -0.800  1.00  0.00    -0.030 C 
ATOM      9  C   UNL     1       9.761   1.433  -0.602  1.00  0.00     0.041 C 
ATOM     10  C   UNL     1       9.805   0.139  -1.355  1.00  0.00    -0.030 C 
BRANCH   6  11
ATOM     11  C   UNL     1       8.433  -0.438   2.016  1.00  0.00     0.242 C 
ATOM     12  N   UNL     1       7.663  -1.256   1.213  1.00  0.00    -0.267 N 
ATOM     13  H   UNL     1       7.200  -0.926   0.409  1.00  0.00     0.191 HD
ATOM     14  O   UNL     1       7.983   0.012   3.069  1.00  0.00    -0.273 OA
BRANCH  12  15
ATOM     15  N   UNL     1       7.590  -2.603   1.632  1.00  0.00    -0.263 N 
ATOM     16  C   UNL     1       6.511  -3.458   1.556  1.00  0.00     0.269 C 
ATOM     17  O   UNL     1       6.699  -4.659   1.753  1.00  0.00    -0.267 OA
ATOM     18  H   UNL     1       8.410  -2.977   2.028  1.00  0.00     0.191 HD
BRANCH  16  19
ATOM     19  C   UNL     1       5.131  -3.000   1.248  1.00  0.00     0.041 A 
ATOM     20  C   UNL     1       2.432  -2.390   0.826  1.00  0.00     0.119 A 
ATOM     21  C   UNL     1       2.947  -3.586   0.339  1.00  0.00     0.047 A 
ATOM     22  C   UNL     1       3.241  -1.509   1.543  1.00  0.00     0.047 A 
ATOM     23  C   UNL     1       4.297  -3.887   0.545  1.00  0.00     0.018 A 
ATOM     24  C   UNL     1       4.588  -1.818   1.766  1.00  0.00     0.018 A 
BRANCH  20  25
ATOM     25  O   UNL     1       1.088  -2.154   0.754  1.00  0.00    -0.494 OA
BRANCH  25  26
ATOM     26  C   UNL     1       0.711  -1.480  -0.451  1.00  0.00     0.226 C 
ATOM     27  C   UNL     1       0.646   0.019  -0.210  1.00  0.00     0.049 C 
ENDBRANCH  25  26
ENDBRANCH  20  25
ENDBRANCH  16  19
ENDBRANCH  12  15
ENDBRANCH   6  11
ENDBRANCH   1   5
BRANCH   3  28
ATOM     28  C   UNL     1       6.963   2.356   0.887  1.00  0.00     0.117 C 
BRANCH  28  29
ATOM     29  C   UNL     1       5.775   1.933   1.744  1.00  0.00     0.042 C 
BRANCH  29  30
ATOM     30  C   UNL     1       5.225   3.011   2.661  1.00  0.00     0.118 C 
BRANCH  30  31
ATOM     31  N   UNL     1       4.335   3.917   1.958  1.00  0.00    -0.352 N 
ATOM     32  C   UNL     1       2.971   4.052   2.049  1.00  0.00     0.251 C 
ATOM     33  H   UNL     1       4.775   4.526   1.321  1.00  0.00     0.163 HD
ATOM     34  O   UNL     1       2.374   4.701   1.196  1.00  0.00    -0.269 OA
BRANCH  32  35
ATOM     35  C   UNL     1       2.210   3.412   3.150  1.00  0.00     0.039 A 
ATOM     36  C   UNL     1       0.939   2.896   2.874  1.00  0.00     0.014 A 
ATOM     37  C   UNL     1       2.697   3.377   4.460  1.00  0.00     0.014 A 
ATOM     38  C   UNL     1       0.178   2.324   3.898  1.00  0.00     0.010 A 
ATOM     39  C   UNL     1       1.978   2.726   5.460  1.00  0.00     0.010 A 
ATOM     40  C   UNL     1       0.697   2.222   5.199  1.00  0.00    -0.014 A 
BRANCH  40  41
ATOM     41  C   UNL     1      -0.116   1.663   6.309  1.00  0.00     0.031 A 
ATOM     42  C   UNL     1      -0.518   2.543   7.465  1.00  0.00     0.074 A 
ATOM     43  C   UNL     1      -0.464   0.362   6.306  1.00  0.00     0.049 A 
ATOM     44  N   UNL     1      -1.182   2.236   8.551  1.00  0.00    -0.248 NA
ATOM     45  C   UNL     1      -0.090   3.950   7.406  1.00  0.00     0.031 C 
ATOM     46  C   UNL     1      -0.099  -0.612   5.276  1.00  0.00     0.029 A 
ATOM     47  N   UNL     1      -1.200  -0.366   7.207  1.00  0.00    -0.354 N 
ATOM     48  C   UNL     1      -1.229   3.400   9.309  1.00  0.00     0.074 A 
ATOM     49  C   UNL     1      -0.483   4.406   8.585  1.00  0.00     0.031 C 
ATOM     50  C   UNL     1      -0.631  -1.804   5.592  1.00  0.00     0.029 A 
ATOM     51  C   UNL     1      -1.352  -1.685   6.856  1.00  0.00     0.049 A 
ATOM     52  H   UNL     1      -1.583   0.021   8.027  1.00  0.00     0.167 HD
ATOM     53  C   UNL     1      -1.858   3.623  10.488  1.00  0.00     0.037 A 
ATOM     54  C   UNL     1      -2.003  -2.683   7.482  1.00  0.00     0.037 A 
ATOM     55  C   UNL     1      -2.637   2.639  11.189  1.00  0.00     0.049 A 
ATOM     56  C   UNL     1      -2.729  -2.403   8.768  1.00  0.00     0.074 A 
ATOM     57  C   UNL     1      -3.358   2.783  12.362  1.00  0.00     0.029 A 
ATOM     58  N   UNL     1      -2.804   1.327  10.775  1.00  0.00    -0.354 N 
ATOM     59  N   UNL     1      -2.812  -1.282   9.443  1.00  0.00    -0.248 NA
ATOM     60  C   UNL     1      -3.463  -3.524   9.372  1.00  0.00     0.031 C 
ATOM     61  C   UNL     1      -3.943   1.550  12.670  1.00  0.00     0.029 A 
ATOM     62  C   UNL     1      -3.613   0.648  11.671  1.00  0.00     0.049 A 
ATOM     63  H   UNL     1      -2.406   0.935   9.964  1.00  0.00     0.167 HD
ATOM     64  C   UNL     1      -3.625  -1.555  10.535  1.00  0.00     0.074 A 
ATOM     65  C   UNL     1      -4.021  -2.944  10.426  1.00  0.00     0.031 C 
ATOM     66  C   UNL     1      -4.008  -0.730  11.539  1.00  0.00     0.037 A 
BRANCH  53  67
ATOM     67  C   UNL     1      -1.736   4.995  11.083  1.00  0.00     0.057 A 
ATOM     68  C   UNL     1      -2.391   6.101  10.525  1.00  0.00     0.134 A 
ATOM     69  C   UNL     1      -0.970   5.211  12.236  1.00  0.00     0.134 A 
ATOM     70  F   UNL     1      -3.128   5.963   9.412  1.00  0.00    -0.206 F 
ATOM     71  C   UNL     1      -2.266   7.377  11.075  1.00  0.00     0.040 A 
ATOM     72  C   UNL     1      -0.859   6.479  12.809  1.00  0.00     0.040 A 
ATOM     73  F   UNL     1      -0.321   4.195  12.824  1.00  0.00    -0.206 F 
ATOM     74  C   UNL     1      -1.502   7.568  12.225  1.00  0.00     0.006 A 
ENDBRANCH  53  67
BRANCH  54  75
ATOM     75  C   UNL     1      -2.032  -4.037   6.877  1.00  0.00     0.057 A 
ATOM     76  C   UNL     1      -3.197  -4.537   6.285  1.00  0.00     0.134 A 
ATOM     77  C   UNL     1      -0.901  -4.861   6.877  1.00  0.00     0.134 A 
ATOM     78  F   UNL     1      -4.317  -3.800   6.273  1.00  0.00    -0.206 F 
ATOM     79  C   UNL     1      -3.243  -5.815   5.727  1.00  0.00     0.040 A 
ATOM     80  C   UNL     1      -0.925  -6.133   6.303  1.00  0.00     0.040 A 
ATOM     81  F   UNL     1       0.246  -4.436   7.426  1.00  0.00    -0.206 F 
ATOM     82  C   UNL     1      -2.101  -6.616   5.731  1.00  0.00     0.006 A 
ENDBRANCH  54  75
BRANCH  66  83
ATOM     83  C   UNL     1      -4.929  -1.296  12.577  1.00  0.00     0.057 A 
ATOM     84  C   UNL     1      -4.476  -2.186  13.559  1.00  0.00     0.134 A 
ATOM     85  C   UNL     1      -6.277  -0.918  12.615  1.00  0.00     0.134 A 
ATOM     86  F   UNL     1      -3.199  -2.595  13.569  1.00  0.00    -0.206 F 
ATOM     87  C   UNL     1      -5.338  -2.696  14.531  1.00  0.00     0.040 A 
ATOM     88  C   UNL     1      -7.143  -1.405  13.595  1.00  0.00     0.040 A 
ATOM     89  F   UNL     1      -6.771  -0.062  11.707  1.00  0.00    -0.206 F 
ATOM     90  C   UNL     1      -6.675  -2.301  14.554  1.00  0.00     0.006 A 
ENDBRANCH  66  83
ENDBRANCH  40  41
ENDBRANCH  32  35
ENDBRANCH  30  31
ENDBRANCH  29  30
ENDBRANCH  28  29
ENDBRANCH   3  28
TORSDOF 15
