REMARK SMILES C[C@H](CNS(=O)(=O)c1ccc(C(=O)NCCCNC(=O)c2ccc(-c3c4nc(c(-c5c(F)cccc5F)c5ccc([nH]5)c(-c5c(F)cccc5F)c5nc(c(-c6c(F)cccc6F)c6ccc3[nH]6)C=C5)C=C4)cc2)cc1F)[NH+](C)C
REMARK SMILES IDX 12 1 13 2 14 3 11 5 8 6 9 7 76 8 10 9 75 10 77 11 5 12 6 13
REMARK SMILES IDX 7 14 4 15 3 17 2 18 1 19 78 20 79 21 80 22 15 24 16 25 17 26
REMARK SMILES IDX 18 27 19 28 20 30 21 31 22 32 74 33 23 34 73 35 24 36 25 37
REMARK SMILES IDX 26 38 67 39 27 40 72 41 66 42 68 43 28 44 71 45 65 46 64 47
REMARK SMILES IDX 29 49 55 50 38 51 54 52 39 53 42 54 53 55 69 56 40 57 41 58
REMARK SMILES IDX 52 60 70 61 43 62 30 63 31 64 36 65 32 66 33 67 35 68 37 69
REMARK SMILES IDX 34 70 56 71 57 72 62 73 58 74 59 75 61 76 63 77 60 78 44 79
REMARK SMILES IDX 45 80 50 81 46 82 47 83 49 84 51 85 48 86
REMARK H PARENT 14 4 4 16 78 23 18 29 68 48 42 59
REMARK Flexibility Score: inf
ROOT
ATOM      1  C   UNL     1       4.088  -2.674   5.061  1.00  0.00     0.251 C 
ATOM      2  O   UNL     1       4.510  -2.004   6.004  1.00  0.00    -0.269 OA
ATOM      3  N   UNL     1       3.636  -3.938   5.337  1.00  0.00    -0.352 N 
ATOM      4  H   UNL     1       3.757  -4.207   6.276  1.00  0.00     0.163 HD
ENDROOT
BRANCH   1   5
ATOM      5  C   UNL     1       4.062  -2.062   3.703  1.00  0.00     0.042 A 
ATOM      6  C   UNL     1       4.040  -0.745   1.221  1.00  0.00     0.118 A 
ATOM      7  C   UNL     1       4.012   0.002   2.401  1.00  0.00     0.026 A 
ATOM      8  C   UNL     1       4.111  -2.126   1.279  1.00  0.00     0.144 A 
ATOM      9  C   UNL     1       4.021  -0.658   3.634  1.00  0.00     0.015 A 
ATOM     10  C   UNL     1       4.139  -2.782   2.509  1.00  0.00     0.054 A 
ATOM     11  F   UNL     1       4.180  -2.879   0.175  1.00  0.00    -0.205 F 
BRANCH   6  12
ATOM     12  S   UNL     1       4.018   0.071  -0.335  1.00  0.00     0.243 S 
ATOM     13  O   UNL     1       3.628  -0.838  -1.384  1.00  0.00    -0.207 OA
ATOM     14  O   UNL     1       5.232   0.857  -0.413  1.00  0.00    -0.207 OA
BRANCH  12  15
ATOM     15  N   UNL     1       2.772   1.185  -0.154  1.00  0.00    -0.205 NA
ATOM     16  H   UNL     1       2.832   1.550   0.797  1.00  0.00     0.141 HD
BRANCH  15  17
ATOM     17  C   UNL     1       1.381   0.736  -0.358  1.00  0.00     0.163 C 
BRANCH  17  18
ATOM     18  C   UNL     1       0.428   1.958  -0.501  1.00  0.00     0.195 C 
ATOM     19  C   UNL     1       0.665   2.657  -1.852  1.00  0.00     0.076 C 
BRANCH  18  20
ATOM     20  N   UNL     1      -0.986   1.594  -0.242  1.00  0.00    -0.337 N 
ATOM     21  C   UNL     1      -1.844   2.772  -0.104  1.00  0.00     0.332 C 
ATOM     22  C   UNL     1      -1.563   0.661  -1.209  1.00  0.00     0.332 C 
ATOM     23  H   UNL     1      -0.953   1.100   0.649  1.00  0.00     0.347 HD
ENDBRANCH  18  20
ENDBRANCH  17  18
ENDBRANCH  15  17
ENDBRANCH  12  15
ENDBRANCH   6  12
ENDBRANCH   1   5
BRANCH   3  24
ATOM     24  C   UNL     1       3.012  -4.957   4.512  1.00  0.00     0.118 C 
BRANCH  24  25
ATOM     25  C   UNL     1       4.034  -5.987   4.033  1.00  0.00     0.042 C 
BRANCH  25  26
ATOM     26  C   UNL     1       4.457  -6.974   5.116  1.00  0.00     0.118 C 
BRANCH  26  27
ATOM     27  N   UNL     1       3.397  -7.919   5.434  1.00  0.00    -0.352 N 
ATOM     28  C   UNL     1       3.390  -9.289   5.350  1.00  0.00     0.251 C 
ATOM     29  H   UNL     1       2.560  -7.516   5.758  1.00  0.00     0.163 HD
ATOM     30  O   UNL     1       2.329  -9.898   5.448  1.00  0.00    -0.269 OA
BRANCH  28  31
ATOM     31  C   UNL     1       4.648 -10.036   5.132  1.00  0.00     0.039 A 
ATOM     32  C   UNL     1       4.645 -11.124   4.254  1.00  0.00     0.014 A 
ATOM     33  C   UNL     1       5.816  -9.696   5.821  1.00  0.00     0.014 A 
ATOM     34  C   UNL     1       5.824 -11.836   4.025  1.00  0.00     0.010 A 
ATOM     35  C   UNL     1       7.006 -10.364   5.541  1.00  0.00     0.010 A 
ATOM     36  C   UNL     1       7.021 -11.443   4.644  1.00  0.00    -0.014 A 
BRANCH  36  37
ATOM     37  C   UNL     1       8.301 -12.144   4.378  1.00  0.00     0.031 A 
ATOM     38  C   UNL     1       8.996 -12.885   5.486  1.00  0.00     0.074 A 
ATOM     39  C   UNL     1       8.872 -12.051   3.162  1.00  0.00     0.049 A 
ATOM     40  N   UNL     1      10.175 -13.453   5.487  1.00  0.00    -0.248 NA
ATOM     41  C   UNL     1       8.284 -12.978   6.770  1.00  0.00     0.031 C 
ATOM     42  C   UNL     1       8.307 -11.338   2.016  1.00  0.00     0.029 A 
ATOM     43  N   UNL     1      10.062 -12.546   2.692  1.00  0.00    -0.354 N 
ATOM     44  C   UNL     1      10.352 -13.952   6.770  1.00  0.00     0.074 A 
ATOM     45  C   UNL     1       9.180 -13.585   7.534  1.00  0.00     0.031 C 
ATOM     46  C   UNL     1       9.141 -11.457   0.971  1.00  0.00     0.029 A 
ATOM     47  C   UNL     1      10.318 -12.216   1.384  1.00  0.00     0.049 A 
ATOM     48  H   UNL     1      10.675 -13.087   3.241  1.00  0.00     0.167 HD
ATOM     49  C   UNL     1      11.391 -14.669   7.260  1.00  0.00     0.037 A 
ATOM     50  C   UNL     1      11.385 -12.483   0.607  1.00  0.00     0.037 A 
ATOM     51  C   UNL     1      12.539 -15.060   6.486  1.00  0.00     0.049 A 
ATOM     52  C   UNL     1      12.532 -13.268   1.178  1.00  0.00     0.074 A 
ATOM     53  C   UNL     1      13.617 -15.834   6.879  1.00  0.00     0.029 A 
ATOM     54  N   UNL     1      12.754 -14.713   5.162  1.00  0.00    -0.354 N 
ATOM     55  N   UNL     1      12.670 -13.765   2.383  1.00  0.00    -0.248 NA
ATOM     56  C   UNL     1      13.671 -13.528   0.286  1.00  0.00     0.031 C 
ATOM     57  C   UNL     1      14.504 -15.923   5.803  1.00  0.00     0.029 A 
ATOM     58  C   UNL     1      13.957 -15.242   4.727  1.00  0.00     0.049 A 
ATOM     59  H   UNL     1      12.143 -14.170   4.612  1.00  0.00     0.167 HD
ATOM     60  C   UNL     1      13.897 -14.415   2.389  1.00  0.00     0.074 A 
ATOM     61  C   UNL     1      14.462 -14.256   1.065  1.00  0.00     0.031 C 
ATOM     62  C   UNL     1      14.499 -15.083   3.401  1.00  0.00     0.037 A 
BRANCH  49  63
ATOM     63  C   UNL     1      11.333 -15.091   8.699  1.00  0.00     0.057 A 
ATOM     64  C   UNL     1      12.204 -14.535   9.644  1.00  0.00     0.134 A 
ATOM     65  C   UNL     1      10.459 -16.094   9.136  1.00  0.00     0.134 A 
ATOM     66  F   UNL     1      13.072 -13.575   9.290  1.00  0.00    -0.206 F 
ATOM     67  C   UNL     1      12.215 -14.969  10.970  1.00  0.00     0.040 A 
ATOM     68  C   UNL     1      10.443 -16.519  10.465  1.00  0.00     0.040 A 
ATOM     69  F   UNL     1       9.591 -16.659   8.283  1.00  0.00    -0.206 F 
ATOM     70  C   UNL     1      11.329 -15.962  11.385  1.00  0.00     0.006 A 
ENDBRANCH  49  63
BRANCH  50  71
ATOM     71  C   UNL     1      11.400 -12.021  -0.802  1.00  0.00     0.057 A 
ATOM     72  C   UNL     1      11.533 -10.666  -1.131  1.00  0.00     0.134 A 
ATOM     73  C   UNL     1      11.246 -12.928  -1.856  1.00  0.00     0.134 A 
ATOM     74  F   UNL     1      11.676  -9.746  -0.165  1.00  0.00    -0.206 F 
ATOM     75  C   UNL     1      11.494 -10.229  -2.456  1.00  0.00     0.040 A 
ATOM     76  C   UNL     1      11.227 -12.508  -3.187  1.00  0.00     0.040 A 
ATOM     77  F   UNL     1      11.132 -14.241  -1.604  1.00  0.00    -0.206 F 
ATOM     78  C   UNL     1      11.344 -11.152  -3.489  1.00  0.00     0.006 A 
ENDBRANCH  50  71
BRANCH  62  79
ATOM     79  C   UNL     1      15.828 -15.720   3.124  1.00  0.00     0.057 A 
ATOM     80  C   UNL     1      15.944 -17.113   3.033  1.00  0.00     0.134 A 
ATOM     81  C   UNL     1      17.002 -14.963   3.046  1.00  0.00     0.134 A 
ATOM     82  F   UNL     1      14.855 -17.893   3.111  1.00  0.00    -0.206 F 
ATOM     83  C   UNL     1      17.186 -17.732   2.894  1.00  0.00     0.040 A 
ATOM     84  C   UNL     1      18.248 -15.570   2.885  1.00  0.00     0.040 A 
ATOM     85  F   UNL     1      16.955 -13.624   3.117  1.00  0.00    -0.206 F 
ATOM     86  C   UNL     1      18.343 -16.960   2.820  1.00  0.00     0.006 A 
ENDBRANCH  62  79
ENDBRANCH  36  37
ENDBRANCH  28  31
ENDBRANCH  26  27
ENDBRANCH  25  26
ENDBRANCH  24  25
ENDBRANCH   3  24
TORSDOF 15
