REMARK SMILES O=C(NCCCNC(=O)[C@H]1[C@H]2CC[C@H](CC2)[C@@H]1C(=O)Nc1ccc(Cc2ccncc2)cc1)c1ccc(-c2c3nc(c(-c4c(F)cccc4F)c4ccc([nH]4)c(-c4c(F)cccc4F)c4nc(c(-c5c(F)cccc5F)c5ccc2[nH]5)C=C4)C=C3)cc1
REMARK SMILES IDX 6 1 5 2 4 3 3 4 1 5 2 6 34 8 35 9 87 10 36 11 86 12 37 13
REMARK SMILES IDX 38 14 39 15 80 16 40 17 85 18 79 19 81 20 41 21 84 22 78 23
REMARK SMILES IDX 77 24 42 26 68 27 51 28 67 29 52 30 55 31 66 32 82 33 53 34
REMARK SMILES IDX 54 35 65 37 83 38 56 39 43 40 44 41 49 42 45 43 46 44 48 45
REMARK SMILES IDX 50 46 47 47 69 48 70 49 75 50 71 51 72 52 74 53 76 54 73 55
REMARK SMILES IDX 57 56 58 57 63 58 59 59 60 60 62 61 64 62 61 63 7 64 8 65
REMARK SMILES IDX 9 67 10 68 11 69 17 70 12 71 16 72 14 73 13 74 15 75 18 76
REMARK SMILES IDX 19 77 20 78 21 80 22 81 33 82 23 83 32 84 24 85 25 86 26 87
REMARK SMILES IDX 27 88 31 89 28 90 30 91 29 92
REMARK H PARENT 3 7 81 25 55 36 7 66 20 79
REMARK Flexibility Score: inf
ROOT
ATOM      1  C   UNL     1       4.434   0.378  -3.179  1.00  0.00     0.117 C 
ENDROOT
BRANCH   1   2
ATOM      2  C   UNL     1       4.852   0.115  -1.748  1.00  0.00     0.042 C 
BRANCH   2   3
ATOM      3  C   UNL     1       4.299   1.173  -0.812  1.00  0.00     0.118 C 
BRANCH   3   4
ATOM      4  N   UNL     1       2.874   0.988  -0.551  1.00  0.00    -0.352 N 
ATOM      5  O   UNL     1       1.004   0.017   0.232  1.00  0.00    -0.269 OA
ATOM      6  C   UNL     1       2.211   0.189   0.354  1.00  0.00     0.251 C 
ATOM      7  H   UNL     1       2.283   1.530  -1.123  1.00  0.00     0.163 HD
BRANCH   6   8
ATOM      8  C   UNL     1       2.953  -0.484   1.446  1.00  0.00     0.039 A 
ATOM      9  C   UNL     1       4.035   0.143   2.049  1.00  0.00     0.014 A 
ATOM     10  C   UNL     1       2.554  -1.745   1.905  1.00  0.00     0.014 A 
ATOM     11  C   UNL     1       4.858  -0.561   2.909  1.00  0.00     0.010 A 
ATOM     12  C   UNL     1       3.283  -2.386   2.919  1.00  0.00     0.010 A 
ATOM     13  C   UNL     1       4.465  -1.811   3.407  1.00  0.00    -0.014 A 
BRANCH  13  14
ATOM     14  C   UNL     1       5.281  -2.401   4.502  1.00  0.00     0.031 A 
ATOM     15  C   UNL     1       5.952  -3.737   4.361  1.00  0.00     0.074 A 
ATOM     16  C   UNL     1       5.493  -1.650   5.604  1.00  0.00     0.049 A 
ATOM     17  N   UNL     1       6.760  -4.339   5.197  1.00  0.00    -0.248 NA
ATOM     18  C   UNL     1       5.677  -4.506   3.138  1.00  0.00     0.031 C 
ATOM     19  C   UNL     1       4.875  -0.344   5.864  1.00  0.00     0.029 A 
ATOM     20  N   UNL     1       6.321  -1.836   6.681  1.00  0.00    -0.354 N 
ATOM     21  C   UNL     1       7.072  -5.561   4.616  1.00  0.00     0.074 A 
ATOM     22  C   UNL     1       6.348  -5.628   3.365  1.00  0.00     0.031 C 
ATOM     23  C   UNL     1       5.420   0.196   6.960  1.00  0.00     0.029 A 
ATOM     24  C   UNL     1       6.347  -0.764   7.542  1.00  0.00     0.049 A 
ATOM     25  H   UNL     1       6.845  -2.657   6.824  1.00  0.00     0.167 HD
ATOM     26  C   UNL     1       7.894  -6.532   5.083  1.00  0.00     0.037 A 
ATOM     27  C   UNL     1       7.026  -0.574   8.687  1.00  0.00     0.037 A 
ATOM     28  C   UNL     1       8.624  -6.449   6.324  1.00  0.00     0.049 A 
ATOM     29  C   UNL     1       7.930  -1.664   9.173  1.00  0.00     0.074 A 
ATOM     30  C   UNL     1       9.476  -7.384   6.889  1.00  0.00     0.029 A 
ATOM     31  N   UNL     1       8.594  -5.365   7.189  1.00  0.00    -0.354 N 
ATOM     32  N   UNL     1       8.205  -2.817   8.612  1.00  0.00    -0.248 NA
ATOM     33  C   UNL     1       8.607  -1.437  10.455  1.00  0.00     0.031 C 
ATOM     34  C   UNL     1       9.936  -6.878   8.110  1.00  0.00     0.029 A 
ATOM     35  C   UNL     1       9.406  -5.610   8.285  1.00  0.00     0.049 A 
ATOM     36  H   UNL     1       8.073  -4.542   7.045  1.00  0.00     0.167 HD
ATOM     37  C   UNL     1       9.083  -3.455   9.473  1.00  0.00     0.074 A 
ATOM     38  C   UNL     1       9.327  -2.543  10.573  1.00  0.00     0.031 C 
ATOM     39  C   UNL     1       9.628  -4.691   9.372  1.00  0.00     0.037 A 
BRANCH  26  40
ATOM     40  C   UNL     1       8.040  -7.777   4.257  1.00  0.00     0.057 A 
ATOM     41  C   UNL     1       8.765  -7.789   3.059  1.00  0.00     0.134 A 
ATOM     42  C   UNL     1       7.492  -8.992   4.691  1.00  0.00     0.134 A 
ATOM     43  F   UNL     1       9.304  -6.658   2.579  1.00  0.00    -0.206 F 
ATOM     44  C   UNL     1       8.927  -8.960   2.315  1.00  0.00     0.040 A 
ATOM     45  C   UNL     1       7.666 -10.173   3.968  1.00  0.00     0.040 A 
ATOM     46  F   UNL     1       6.790  -9.053   5.832  1.00  0.00    -0.206 F 
ATOM     47  C   UNL     1       8.384 -10.159   2.773  1.00  0.00     0.006 A 
ENDBRANCH  26  40
BRANCH  27  48
ATOM     48  C   UNL     1       6.843   0.682   9.459  1.00  0.00     0.057 A 
ATOM     49  C   UNL     1       7.880   1.608   9.605  1.00  0.00     0.134 A 
ATOM     50  C   UNL     1       5.615   0.988  10.061  1.00  0.00     0.134 A 
ATOM     51  F   UNL     1       9.084   1.367   9.066  1.00  0.00    -0.206 F 
ATOM     52  C   UNL     1       7.709   2.787  10.335  1.00  0.00     0.040 A 
ATOM     53  C   UNL     1       5.420   2.176  10.764  1.00  0.00     0.040 A 
ATOM     54  F   UNL     1       4.577   0.146   9.948  1.00  0.00    -0.206 F 
ATOM     55  C   UNL     1       6.473   3.076  10.910  1.00  0.00     0.006 A 
ENDBRANCH  27  48
BRANCH  39  56
ATOM     56  C   UNL     1      10.549  -5.109  10.478  1.00  0.00     0.057 A 
ATOM     57  C   UNL     1      10.067  -5.432  11.754  1.00  0.00     0.134 A 
ATOM     58  C   UNL     1      11.931  -5.185  10.267  1.00  0.00     0.134 A 
ATOM     59  F   UNL     1       8.754  -5.360  12.022  1.00  0.00    -0.206 F 
ATOM     60  C   UNL     1      10.931  -5.785  12.790  1.00  0.00     0.040 A 
ATOM     61  C   UNL     1      12.802  -5.562  11.289  1.00  0.00     0.040 A 
ATOM     62  F   UNL     1      12.454  -4.893   9.067  1.00  0.00    -0.206 F 
ATOM     63  C   UNL     1      12.303  -5.854  12.557  1.00  0.00     0.006 A 
ENDBRANCH  39  56
ENDBRANCH  13  14
ENDBRANCH   6   8
ENDBRANCH   3   4
ENDBRANCH   2   3
ENDBRANCH   1   2
BRANCH   1  64
ATOM     64  N   UNL     1       5.081   1.553  -3.744  1.00  0.00    -0.356 N 
ATOM     65  C   UNL     1       5.705   1.828  -4.910  1.00  0.00     0.224 C 
ATOM     66  H   UNL     1       5.058   2.326  -3.135  1.00  0.00     0.163 HD
ATOM     67  O   UNL     1       6.029   3.014  -5.058  1.00  0.00    -0.275 OA
BRANCH  65  68
ATOM     68  C   UNL     1       6.093   0.818  -5.989  1.00  0.00     0.094 C 
ATOM     69  C   UNL     1       7.535   0.301  -5.738  1.00  0.00     0.002 C 
ATOM     70  C   UNL     1       5.141  -0.352  -6.277  1.00  0.00     0.094 C 
ATOM     71  C   UNL     1       7.558  -0.690  -4.563  1.00  0.00     0.005 C 
ATOM     72  C   UNL     1       8.005  -0.449  -7.002  1.00  0.00     0.005 C 
ATOM     73  C   UNL     1       5.953  -1.694  -6.240  1.00  0.00     0.002 C 
ATOM     74  C   UNL     1       6.629  -1.876  -4.857  1.00  0.00     0.005 C 
ATOM     75  C   UNL     1       7.122  -1.679  -7.245  1.00  0.00     0.005 C 
BRANCH  70  76
ATOM     76  C   UNL     1       4.386  -0.166  -7.606  1.00  0.00     0.228 C 
ATOM     77  O   UNL     1       4.941  -0.262  -8.700  1.00  0.00    -0.274 OA
ATOM     78  N   UNL     1       3.020  -0.017  -7.580  1.00  0.00    -0.326 N 
ATOM     79  H   UNL     1       2.556  -0.252  -8.416  1.00  0.00     0.169 HD
BRANCH  78  80
ATOM     80  C   UNL     1       2.190   0.420  -6.539  1.00  0.00     0.041 A 
ATOM     81  C   UNL     1       1.030  -0.298  -6.265  1.00  0.00     0.026 A 
ATOM     82  C   UNL     1       2.458   1.586  -5.821  1.00  0.00     0.026 A 
ATOM     83  C   UNL     1       0.217   0.068  -5.187  1.00  0.00     0.006 A 
ATOM     84  C   UNL     1       1.616   1.983  -4.774  1.00  0.00     0.006 A 
ATOM     85  C   UNL     1       0.512   1.200  -4.413  1.00  0.00    -0.043 A 
BRANCH  85  86
ATOM     86  C   UNL     1      -0.342   1.558  -3.215  1.00  0.00     0.071 C 
BRANCH  86  87
ATOM     87  C   UNL     1      -1.582   2.352  -3.540  1.00  0.00    -0.041 A 
ATOM     88  C   UNL     1      -2.688   1.743  -4.143  1.00  0.00     0.024 A 
ATOM     89  C   UNL     1      -1.667   3.713  -3.233  1.00  0.00     0.024 A 
ATOM     90  C   UNL     1      -3.808   2.510  -4.419  1.00  0.00     0.111 A 
ATOM     91  C   UNL     1      -2.836   4.394  -3.541  1.00  0.00     0.111 A 
ATOM     92  N   UNL     1      -3.908   3.824  -4.130  1.00  0.00    -0.265 NA
ENDBRANCH  86  87
ENDBRANCH  85  86
ENDBRANCH  78  80
ENDBRANCH  70  76
ENDBRANCH  65  68
ENDBRANCH   1  64
TORSDOF 14
