REMARK SMILES COC(=O)c1ccc(NC(=O)[C@@H]2CC=CC[C@@H]2C(=O)NCCCNC(=O)c2ccc(-c3c4nc(c(-c5c(F)cccc5F)c5ccc([nH]5)c(-c5c(F)cccc5F)c5nc(c(-c6c(F)cccc6F)c6ccc3[nH]6)C=C5)C=C4)cc2)c(C)c1
REMARK SMILES IDX 21 1 20 2 18 3 19 4 17 6 12 7 13 8 14 9 16 10 15 11 10 12
REMARK SMILES IDX 9 13 11 15 8 16 5 17 6 18 83 19 7 20 81 21 82 22 3 23 4 24
REMARK SMILES IDX 2 25 1 26 22 27 23 28 24 29 25 30 26 32 27 33 28 34 80 35
REMARK SMILES IDX 29 36 79 37 30 38 31 39 32 40 73 41 33 42 78 43 72 44 74 45
REMARK SMILES IDX 34 46 77 47 71 48 70 49 35 51 61 52 44 53 60 54 45 55 48 56
REMARK SMILES IDX 59 57 75 58 46 59 47 60 58 62 76 63 49 64 36 65 37 66 42 67
REMARK SMILES IDX 38 68 39 69 41 70 43 71 40 72 62 73 63 74 68 75 64 76 65 77
REMARK SMILES IDX 67 78 69 79 66 80 50 81 51 82 56 83 52 84 53 85 55 86 57 87
REMARK SMILES IDX 54 88
REMARK H PARENT 20 5 9 14 24 31 74 50 48 61
REMARK Flexibility Score: inf
ROOT
ATOM      1  C   UNL     1       2.153  -3.189   3.324  1.00  0.00     0.117 C 
ENDROOT
BRANCH   1   2
ATOM      2  N   UNL     1       2.294  -2.858   4.731  1.00  0.00    -0.356 N 
ATOM      3  C   UNL     1       3.153  -1.952   5.281  1.00  0.00     0.224 C 
ATOM      4  O   UNL     1       2.723  -1.284   6.218  1.00  0.00    -0.275 OA
ATOM      5  H   UNL     1       1.706  -3.341   5.356  1.00  0.00     0.163 HD
BRANCH   3   6
ATOM      6  C   UNL     1       4.554  -1.754   4.702  1.00  0.00     0.095 C 
ATOM      7  C   UNL     1       5.738  -2.374   5.487  1.00  0.00     0.095 C 
ATOM      8  C   UNL     1       6.647  -1.467   6.336  1.00  0.00     0.041 C 
ATOM      9  C   UNL     1       6.316  -0.009   6.296  1.00  0.00    -0.030 C 
ATOM     10  C   UNL     1       4.745  -0.264   4.374  1.00  0.00     0.041 C 
ATOM     11  C   UNL     1       5.457   0.530   5.424  1.00  0.00    -0.030 C 
BRANCH   7  12
ATOM     12  C   UNL     1       5.469  -3.740   6.110  1.00  0.00     0.228 C 
ATOM     13  N   UNL     1       4.909  -4.028   7.309  1.00  0.00    -0.326 N 
ATOM     14  H   UNL     1       4.949  -4.994   7.492  1.00  0.00     0.169 HD
ATOM     15  O   UNL     1       5.779  -4.740   5.439  1.00  0.00    -0.274 OA
BRANCH  13  16
ATOM     16  C   UNL     1       4.285  -3.341   8.370  1.00  0.00     0.044 A 
ATOM     17  C   UNL     1       2.726  -2.074  10.370  1.00  0.00     0.060 A 
ATOM     18  C   UNL     1       3.402  -1.322   9.421  1.00  0.00     0.018 A 
ATOM     19  C   UNL     1       2.870  -3.463  10.363  1.00  0.00     0.021 A 
ATOM     20  C   UNL     1       4.176  -1.958   8.445  1.00  0.00     0.027 A 
ATOM     21  C   UNL     1       3.666  -4.105   9.390  1.00  0.00    -0.027 A 
ATOM     22  C   UNL     1       3.781  -5.607   9.465  1.00  0.00     0.046 C 
BRANCH  17  23
ATOM     23  C   UNL     1       1.854  -1.351  11.339  1.00  0.00     0.337 C 
ATOM     24  O   UNL     1       1.432  -0.231  11.164  1.00  0.00    -0.246 OA
BRANCH  23  25
ATOM     25  O   UNL     1       1.580  -2.106  12.435  1.00  0.00    -0.465 OA
ATOM     26  C   UNL     1       2.628  -2.079  13.405  1.00  0.00     0.282 C 
ENDBRANCH  23  25
ENDBRANCH  17  23
ENDBRANCH  13  16
ENDBRANCH   7  12
ENDBRANCH   3   6
ENDBRANCH   1   2
BRANCH   1  27
ATOM     27  C   UNL     1       2.324  -4.670   3.039  1.00  0.00     0.042 C 
BRANCH  27  28
ATOM     28  C   UNL     1       1.122  -5.510   3.449  1.00  0.00     0.118 C 
BRANCH  28  29
ATOM     29  N   UNL     1      -0.003  -5.465   2.516  1.00  0.00    -0.352 N 
ATOM     30  C   UNL     1      -1.241  -6.084   2.576  1.00  0.00     0.251 C 
ATOM     31  H   UNL     1       0.142  -4.907   1.718  1.00  0.00     0.163 HD
ATOM     32  O   UNL     1      -2.039  -5.922   1.655  1.00  0.00    -0.269 OA
BRANCH  30  33
ATOM     33  C   UNL     1      -1.671  -6.806   3.801  1.00  0.00     0.039 A 
ATOM     34  C   UNL     1      -3.003  -6.665   4.219  1.00  0.00     0.014 A 
ATOM     35  C   UNL     1      -0.750  -7.414   4.643  1.00  0.00     0.014 A 
ATOM     36  C   UNL     1      -3.324  -6.855   5.561  1.00  0.00     0.010 A 
ATOM     37  C   UNL     1      -1.026  -7.476   5.989  1.00  0.00     0.010 A 
ATOM     38  C   UNL     1      -2.294  -7.122   6.455  1.00  0.00    -0.014 A 
BRANCH  38  39
ATOM     39  C   UNL     1      -2.398  -6.985   7.900  1.00  0.00     0.031 A 
ATOM     40  C   UNL     1      -2.414  -8.187   8.749  1.00  0.00     0.074 A 
ATOM     41  C   UNL     1      -2.280  -5.753   8.441  1.00  0.00     0.049 A 
ATOM     42  N   UNL     1      -2.691  -8.191  10.006  1.00  0.00    -0.248 NA
ATOM     43  C   UNL     1      -2.140  -9.515   8.217  1.00  0.00     0.031 C 
ATOM     44  C   UNL     1      -2.007  -5.406   9.833  1.00  0.00     0.029 A 
ATOM     45  N   UNL     1      -2.618  -4.532   7.842  1.00  0.00    -0.354 N 
ATOM     46  C   UNL     1      -2.394  -9.439  10.505  1.00  0.00     0.074 A 
ATOM     47  C   UNL     1      -2.106 -10.239   9.338  1.00  0.00     0.031 C 
ATOM     48  C   UNL     1      -2.474  -4.169  10.066  1.00  0.00     0.029 A 
ATOM     49  C   UNL     1      -3.199  -3.759   8.876  1.00  0.00     0.049 A 
ATOM     50  H   UNL     1      -2.480  -4.269   6.903  1.00  0.00     0.167 HD
ATOM     51  C   UNL     1      -2.328  -9.600  11.859  1.00  0.00     0.037 A 
ATOM     52  C   UNL     1      -4.531  -3.453   8.833  1.00  0.00     0.037 A 
ATOM     53  C   UNL     1      -2.813  -8.400  12.548  1.00  0.00     0.049 A 
ATOM     54  C   UNL     1      -5.348  -4.039   9.970  1.00  0.00     0.074 A 
ATOM     55  C   UNL     1      -2.213  -7.301  13.143  1.00  0.00     0.029 A 
ATOM     56  N   UNL     1      -4.149  -8.070  12.409  1.00  0.00    -0.354 N 
ATOM     57  N   UNL     1      -4.881  -4.861  10.871  1.00  0.00    -0.248 NA
ATOM     58  C   UNL     1      -6.787  -3.813  10.121  1.00  0.00     0.031 C 
ATOM     59  C   UNL     1      -3.207  -6.288  13.306  1.00  0.00     0.029 A 
ATOM     60  C   UNL     1      -4.407  -6.780  12.825  1.00  0.00     0.049 A 
ATOM     61  H   UNL     1      -4.833  -8.682  12.055  1.00  0.00     0.167 HD
ATOM     62  C   UNL     1      -5.909  -5.307  11.656  1.00  0.00     0.074 A 
ATOM     63  C   UNL     1      -7.083  -4.619  11.154  1.00  0.00     0.031 C 
ATOM     64  C   UNL     1      -5.744  -6.242  12.635  1.00  0.00     0.037 A 
BRANCH  51  65
ATOM     65  C   UNL     1      -1.648 -10.752  12.568  1.00  0.00     0.057 A 
ATOM     66  C   UNL     1      -1.183 -10.598  13.890  1.00  0.00     0.134 A 
ATOM     67  C   UNL     1      -1.361 -12.011  12.010  1.00  0.00     0.134 A 
ATOM     68  F   UNL     1      -1.448  -9.497  14.606  1.00  0.00    -0.206 F 
ATOM     69  C   UNL     1      -0.415 -11.567  14.553  1.00  0.00     0.040 A 
ATOM     70  C   UNL     1      -0.553 -12.969  12.640  1.00  0.00     0.040 A 
ATOM     71  F   UNL     1      -1.897 -12.418  10.857  1.00  0.00    -0.206 F 
ATOM     72  C   UNL     1      -0.066 -12.745  13.915  1.00  0.00     0.006 A 
ENDBRANCH  51  65
BRANCH  52  73
ATOM     73  C   UNL     1      -5.021  -3.255   7.439  1.00  0.00     0.057 A 
ATOM     74  C   UNL     1      -4.428  -2.246   6.656  1.00  0.00     0.134 A 
ATOM     75  C   UNL     1      -5.735  -4.247   6.762  1.00  0.00     0.134 A 
ATOM     76  F   UNL     1      -3.732  -1.258   7.242  1.00  0.00    -0.206 F 
ATOM     77  C   UNL     1      -4.425  -2.301   5.261  1.00  0.00     0.040 A 
ATOM     78  C   UNL     1      -5.762  -4.295   5.363  1.00  0.00     0.040 A 
ATOM     79  F   UNL     1      -6.314  -5.253   7.432  1.00  0.00    -0.206 F 
ATOM     80  C   UNL     1      -5.065  -3.350   4.611  1.00  0.00     0.006 A 
ENDBRANCH  52  73
BRANCH  64  81
ATOM     81  C   UNL     1      -6.873  -6.731  13.490  1.00  0.00     0.057 A 
ATOM     82  C   UNL     1      -7.728  -5.852  14.168  1.00  0.00     0.134 A 
ATOM     83  C   UNL     1      -7.054  -8.100  13.760  1.00  0.00     0.134 A 
ATOM     84  F   UNL     1      -7.617  -4.524  14.008  1.00  0.00    -0.206 F 
ATOM     85  C   UNL     1      -8.716  -6.309  15.046  1.00  0.00     0.040 A 
ATOM     86  C   UNL     1      -8.003  -8.566  14.672  1.00  0.00     0.040 A 
ATOM     87  F   UNL     1      -6.332  -9.040  13.133  1.00  0.00    -0.206 F 
ATOM     88  C   UNL     1      -8.845  -7.668  15.315  1.00  0.00     0.006 A 
ENDBRANCH  64  81
ENDBRANCH  38  39
ENDBRANCH  30  33
ENDBRANCH  28  29
ENDBRANCH  27  28
ENDBRANCH   1  27
TORSDOF 14
