REMARK SMILES Cc1ccc(NC(=O)N[C@@H](C(=O)NCCCNC(=O)c2ccc(-c3c4nc(c(-c5c(F)cccc5F)c5ccc([nH]5)c(-c5c(F)cccc5F)c5nc(c(-c6c(F)cccc6F)c6ccc3[nH]6)C=C5)C=C4)cc2)C(C)C)cc1
REMARK SMILES IDX 15 1 14 2 13 3 11 4 12 5 10 7 9 8 6 9 7 10 8 12 5 14 1 15
REMARK SMILES IDX 2 16 3 17 78 18 4 19 77 20 74 21 75 22 76 23 16 24 17 25
REMARK SMILES IDX 18 26 19 28 20 29 21 30 73 31 22 32 72 33 23 34 24 35 25 36
REMARK SMILES IDX 66 37 26 38 71 39 65 40 67 41 27 42 70 43 64 44 63 45 28 47
REMARK SMILES IDX 54 48 37 49 53 50 38 51 41 52 52 53 68 54 39 55 40 56 51 58
REMARK SMILES IDX 69 59 42 60 29 61 30 62 35 63 31 64 32 65 34 66 36 67 33 68
REMARK SMILES IDX 55 69 56 70 61 71 57 72 58 73 60 74 62 75 59 76 43 77 44 78
REMARK SMILES IDX 49 79 45 80 46 81 48 82 50 83 47 84
REMARK H PARENT 13 6 6 11 9 13 17 27 67 46 41 57
REMARK Flexibility Score: inf
ROOT
ATOM      1  C   UNL     1      -4.127  -1.637   2.829  1.00  0.00     0.042 C 
ENDROOT
BRANCH   1   2
ATOM      2  C   UNL     1      -2.629  -1.866   2.672  1.00  0.00     0.117 C 
BRANCH   2   3
ATOM      3  N   UNL     1      -2.280  -3.225   2.268  1.00  0.00    -0.354 N 
ATOM      4  C   UNL     1      -1.980  -3.772   1.044  1.00  0.00     0.242 C 
ATOM      5  O   UNL     1      -1.620  -4.953   1.053  1.00  0.00    -0.273 OA
ATOM      6  H   UNL     1      -2.256  -3.871   3.011  1.00  0.00     0.163 HD
BRANCH   4   7
ATOM      7  C   UNL     1      -1.940  -2.916  -0.258  1.00  0.00     0.175 C 
BRANCH   7   8
ATOM      8  N   UNL     1      -3.136  -2.095  -0.315  1.00  0.00    -0.326 N 
ATOM      9  N   UNL     1      -2.478   0.208  -0.372  1.00  0.00    -0.308 N 
ATOM     10  C   UNL     1      -3.376  -0.786  -0.360  1.00  0.00     0.319 C 
ATOM     11  H   UNL     1      -2.926   1.054  -0.602  1.00  0.00     0.171 HD
ATOM     12  O   UNL     1      -4.567  -0.460  -0.447  1.00  0.00    -0.248 OA
ATOM     13  H   UNL     1      -3.962  -2.631  -0.321  1.00  0.00     0.166 HD
BRANCH   9  14
ATOM     14  C   UNL     1      -1.104   0.444  -0.166  1.00  0.00     0.042 A 
ATOM     15  C   UNL     1       3.141   1.276  -0.152  1.00  0.00     0.044 C 
ATOM     16  C   UNL     1       1.662   1.062  -0.069  1.00  0.00    -0.051 A 
ATOM     17  C   UNL     1       1.161  -0.052   0.592  1.00  0.00     0.005 A 
ATOM     18  C   UNL     1       0.765   1.919  -0.706  1.00  0.00     0.005 A 
ATOM     19  C   UNL     1      -0.209  -0.326   0.573  1.00  0.00     0.026 A 
ATOM     20  C   UNL     1      -0.602   1.618  -0.741  1.00  0.00     0.026 A 
ENDBRANCH   9  14
ENDBRANCH   7   8
BRANCH   7  21
ATOM     21  C   UNL     1      -1.703  -3.757  -1.544  1.00  0.00     0.015 C 
ATOM     22  C   UNL     1      -2.144  -3.032  -2.822  1.00  0.00     0.010 C 
ATOM     23  C   UNL     1      -0.202  -4.078  -1.675  1.00  0.00     0.010 C 
ENDBRANCH   7  21
ENDBRANCH   4   7
ENDBRANCH   2   3
ENDBRANCH   1   2
BRANCH   1  24
ATOM     24  C   UNL     1      -4.580  -1.839   4.262  1.00  0.00     0.118 C 
BRANCH  24  25
ATOM     25  N   UNL     1      -4.611  -0.623   5.075  1.00  0.00    -0.352 N 
ATOM     26  C   UNL     1      -4.754  -0.488   6.446  1.00  0.00     0.251 C 
ATOM     27  H   UNL     1      -4.517   0.220   4.575  1.00  0.00     0.163 HD
ATOM     28  O   UNL     1      -4.825   0.631   6.949  1.00  0.00    -0.269 OA
BRANCH  26  29
ATOM     29  C   UNL     1      -4.660  -1.686   7.317  1.00  0.00     0.039 A 
ATOM     30  C   UNL     1      -3.836  -1.606   8.445  1.00  0.00     0.014 A 
ATOM     31  C   UNL     1      -5.124  -2.921   6.880  1.00  0.00     0.014 A 
ATOM     32  C   UNL     1      -3.238  -2.765   8.930  1.00  0.00     0.010 A 
ATOM     33  C   UNL     1      -4.431  -4.050   7.261  1.00  0.00     0.010 A 
ATOM     34  C   UNL     1      -3.437  -3.958   8.238  1.00  0.00    -0.014 A 
BRANCH  34  35
ATOM     35  C   UNL     1      -2.558  -5.112   8.378  1.00  0.00     0.031 A 
ATOM     36  C   UNL     1      -3.035  -6.334   9.052  1.00  0.00     0.074 A 
ATOM     37  C   UNL     1      -1.328  -5.086   7.819  1.00  0.00     0.049 A 
ATOM     38  N   UNL     1      -2.269  -7.161   9.679  1.00  0.00    -0.248 NA
ATOM     39  C   UNL     1      -4.443  -6.705   9.093  1.00  0.00     0.031 C 
ATOM     40  C   UNL     1      -0.410  -6.207   7.644  1.00  0.00     0.029 A 
ATOM     41  N   UNL     1      -0.573  -3.959   7.465  1.00  0.00    -0.354 N 
ATOM     42  C   UNL     1      -3.011  -8.289   9.949  1.00  0.00     0.074 A 
ATOM     43  C   UNL     1      -4.372  -7.926   9.627  1.00  0.00     0.031 C 
ATOM     44  C   UNL     1       0.836  -5.728   7.499  1.00  0.00     0.029 A 
ATOM     45  C   UNL     1       0.775  -4.292   7.714  1.00  0.00     0.049 A 
ATOM     46  H   UNL     1      -0.915  -3.106   7.112  1.00  0.00     0.167 HD
ATOM     47  C   UNL     1      -2.375  -9.453  10.270  1.00  0.00     0.037 A 
ATOM     48  C   UNL     1       1.515  -3.604   8.631  1.00  0.00     0.037 A 
ATOM     49  C   UNL     1      -0.926  -9.269  10.309  1.00  0.00     0.049 A 
ATOM     50  C   UNL     1       2.017  -4.456   9.774  1.00  0.00     0.074 A 
ATOM     51  C   UNL     1       0.066  -9.522   9.374  1.00  0.00     0.029 A 
ATOM     52  N   UNL     1      -0.349  -8.459  11.283  1.00  0.00    -0.354 N 
ATOM     53  N   UNL     1       1.546  -5.637  10.062  1.00  0.00    -0.248 NA
ATOM     54  C   UNL     1       3.054  -4.028  10.710  1.00  0.00     0.031 C 
ATOM     55  C   UNL     1       1.229  -8.817   9.761  1.00  0.00     0.029 A 
ATOM     56  C   UNL     1       0.953  -8.146  10.939  1.00  0.00     0.049 A 
ATOM     57  H   UNL     1      -0.804  -8.153  12.100  1.00  0.00     0.167 HD
ATOM     58  C   UNL     1       2.138  -6.100  11.208  1.00  0.00     0.074 A 
ATOM     59  C   UNL     1       3.099  -5.072  11.557  1.00  0.00     0.031 C 
ATOM     60  C   UNL     1       1.766  -7.282  11.782  1.00  0.00     0.037 A 
BRANCH  47  61
ATOM     61  C   UNL     1      -3.049 -10.808  10.201  1.00  0.00     0.057 A 
ATOM     62  C   UNL     1      -2.328 -11.961   9.834  1.00  0.00     0.134 A 
ATOM     63  C   UNL     1      -4.419 -11.033  10.420  1.00  0.00     0.134 A 
ATOM     64  F   UNL     1      -0.993 -11.956   9.727  1.00  0.00    -0.206 F 
ATOM     65  C   UNL     1      -2.940 -13.190   9.557  1.00  0.00     0.040 A 
ATOM     66  C   UNL     1      -5.056 -12.241  10.094  1.00  0.00     0.040 A 
ATOM     67  F   UNL     1      -5.192 -10.113  11.011  1.00  0.00    -0.206 F 
ATOM     68  C   UNL     1      -4.317 -13.321   9.639  1.00  0.00     0.006 A 
ENDBRANCH  47  61
BRANCH  48  69
ATOM     69  C   UNL     1       1.123  -2.175   8.748  1.00  0.00     0.057 A 
ATOM     70  C   UNL     1       1.307  -1.333   7.637  1.00  0.00     0.134 A 
ATOM     71  C   UNL     1       0.254  -1.731   9.747  1.00  0.00     0.134 A 
ATOM     72  F   UNL     1       2.129  -1.701   6.641  1.00  0.00    -0.206 F 
ATOM     73  C   UNL     1       0.571  -0.158   7.471  1.00  0.00     0.040 A 
ATOM     74  C   UNL     1      -0.481  -0.548   9.598  1.00  0.00     0.040 A 
ATOM     75  F   UNL     1       0.009  -2.488  10.826  1.00  0.00    -0.206 F 
ATOM     76  C   UNL     1      -0.354   0.219   8.440  1.00  0.00     0.006 A 
ENDBRANCH  48  69
BRANCH  60  77
ATOM     77  C   UNL     1       2.192  -7.777  13.140  1.00  0.00     0.057 A 
ATOM     78  C   UNL     1       2.495  -6.943  14.226  1.00  0.00     0.134 A 
ATOM     79  C   UNL     1       2.167  -9.159  13.435  1.00  0.00     0.134 A 
ATOM     80  F   UNL     1       2.449  -5.608  14.118  1.00  0.00    -0.206 F 
ATOM     81  C   UNL     1       2.806  -7.446  15.496  1.00  0.00     0.040 A 
ATOM     82  C   UNL     1       2.424  -9.669  14.711  1.00  0.00     0.040 A 
ATOM     83  F   UNL     1       1.869 -10.073  12.500  1.00  0.00    -0.206 F 
ATOM     84  C   UNL     1       2.760  -8.812  15.746  1.00  0.00     0.006 A 
ENDBRANCH  60  77
ENDBRANCH  34  35
ENDBRANCH  26  29
ENDBRANCH  24  25
ENDBRANCH   1  24
TORSDOF 13
