REMARK SMILES O=C1C[C@H](c2cn[nH]c2C(=O)NCCCNC(=O)c2ccc(-c3c4nc(c(-c5c(F)cccc5F)c5ccc([nH]5)c(-c5c(F)cccc5F)c5nc(c(-c6c(F)cccc6F)c6ccc3[nH]6)C=C5)C=C4)cc2)c2c(-c3cccs3)n[nH]c2N1
REMARK SMILES IDX 14 1 13 2 12 3 10 4 11 5 9 7 5 8 6 9 7 10 8 11 4 13 1 14
REMARK SMILES IDX 2 15 3 16 83 17 82 18 73 20 81 21 74 22 80 23 75 25 76 26
REMARK SMILES IDX 79 27 77 28 78 29 15 30 16 31 17 32 18 34 19 35 20 36 72 37
REMARK SMILES IDX 21 38 71 39 22 40 23 41 24 42 65 43 25 44 70 45 64 46 66 47
REMARK SMILES IDX 26 48 69 49 63 50 62 51 27 53 53 54 36 55 52 56 37 57 40 58
REMARK SMILES IDX 51 59 67 60 38 61 39 62 50 64 68 65 41 66 28 67 29 68 34 69
REMARK SMILES IDX 30 70 31 71 33 72 35 73 32 74 54 75 55 76 60 77 56 78 57 79
REMARK SMILES IDX 59 80 61 81 58 82 42 83 43 84 48 85 44 86 45 87 47 88 49 89
REMARK SMILES IDX 46 90
REMARK H PARENT 12 6 8 12 83 19 81 24 16 33 66 52 40 63
REMARK Flexibility Score: inf
ROOT
ATOM      1  C   UNL     1       3.732  -1.596   1.456  1.00  0.00     0.042 C 
ENDROOT
BRANCH   1   2
ATOM      2  C   UNL     1       5.148  -0.965   0.678  1.00  0.00     0.118 C 
BRANCH   2   3
ATOM      3  N   UNL     1       5.566  -0.507  -1.415  1.00  0.00    -0.351 N 
ATOM      4  C   UNL     1       5.575   0.272  -2.599  1.00  0.00     0.269 C 
ATOM      5  O   UNL     1       6.175  -0.227  -3.557  1.00  0.00    -0.268 OA
ATOM      6  H   UNL     1       6.014  -1.331  -1.714  1.00  0.00     0.163 HD
BRANCH   4   7
ATOM      7  C   UNL     1       5.015   1.600  -2.707  1.00  0.00     0.126 A 
ATOM      8  C   UNL     1       4.348   2.399  -1.792  1.00  0.00     0.011 A 
ATOM      9  C   UNL     1       4.132   3.618  -2.460  1.00  0.00     0.140 A 
ATOM     10  N   UNL     1       4.593   3.596  -3.711  1.00  0.00    -0.183 NA
ATOM     11  N   UNL     1       5.124   2.366  -3.835  1.00  0.00    -0.273 N 
ATOM     12  H   UNL     1       5.552   2.046  -4.662  1.00  0.00     0.190 HD
BRANCH   8  13
ATOM     13  C   UNL     1       4.007   1.995  -0.408  1.00  0.00     0.069 C 
ATOM     14  O   UNL     1       0.551   0.377  -0.632  1.00  0.00    -0.275 OA
ATOM     15  C   UNL     1       1.781   0.471  -0.715  1.00  0.00     0.226 C 
ATOM     16  C   UNL     1       2.486   1.768  -0.218  1.00  0.00     0.114 C 
ATOM     17  N   UNL     1       2.478  -0.641  -1.126  1.00  0.00    -0.311 N 
ATOM     18  C   UNL     1       3.795  -0.705  -0.783  1.00  0.00     0.132 A 
ATOM     19  H   UNL     1       2.046  -1.358  -1.644  1.00  0.00     0.171 HD
ATOM     20  C   UNL     1       4.683   0.712  -0.213  1.00  0.00     0.031 A 
ATOM     21  N   UNL     1       4.971  -2.131  -0.824  1.00  0.00    -0.262 N 
ATOM     22  C   UNL     1       6.563   0.186  -0.002  1.00  0.00     0.108 A 
ATOM     23  N   UNL     1       6.708  -1.527  -0.387  1.00  0.00    -0.173 NA
ATOM     24  H   UNL     1       4.731  -3.061  -1.039  1.00  0.00     0.192 HD
BRANCH  22  25
ATOM     25  C   UNL     1       7.673   1.151   0.136  1.00  0.00     0.055 A 
ATOM     26  C   UNL     1       8.771   1.158  -0.690  1.00  0.00     0.022 A 
ATOM     27  S   UNL     1       7.664   2.432   1.249  1.00  0.00    -0.142 S 
ATOM     28  C   UNL     1       9.592   2.296  -0.441  1.00  0.00     0.012 A 
ATOM     29  C   UNL     1       9.144   3.033   0.635  1.00  0.00     0.065 A 
ENDBRANCH  22  25
ENDBRANCH   8  13
ENDBRANCH   4   7
ENDBRANCH   2   3
ENDBRANCH   1   2
BRANCH   1  30
ATOM     30  C   UNL     1       3.894  -3.032   1.897  1.00  0.00     0.118 C 
BRANCH  30  31
ATOM     31  N   UNL     1       4.967  -3.244   2.856  1.00  0.00    -0.352 N 
ATOM     32  C   UNL     1       5.277  -4.462   3.429  1.00  0.00     0.251 C 
ATOM     33  H   UNL     1       5.510  -2.464   3.115  1.00  0.00     0.163 HD
ATOM     34  O   UNL     1       5.833  -4.567   4.511  1.00  0.00    -0.269 OA
BRANCH  32  35
ATOM     35  C   UNL     1       5.017  -5.632   2.577  1.00  0.00     0.039 A 
ATOM     36  C   UNL     1       4.262  -6.732   2.965  1.00  0.00     0.014 A 
ATOM     37  C   UNL     1       5.431  -5.474   1.257  1.00  0.00     0.014 A 
ATOM     38  C   UNL     1       3.992  -7.695   1.988  1.00  0.00     0.010 A 
ATOM     39  C   UNL     1       4.743  -6.178   0.316  1.00  0.00     0.010 A 
ATOM     40  C   UNL     1       4.284  -7.426   0.627  1.00  0.00    -0.014 A 
BRANCH  40  41
ATOM     41  C   UNL     1       3.793  -8.208  -0.515  1.00  0.00     0.031 A 
ATOM     42  C   UNL     1       2.382  -8.576  -0.260  1.00  0.00     0.074 A 
ATOM     43  C   UNL     1       4.484  -8.516  -1.654  1.00  0.00     0.049 A 
ATOM     44  N   UNL     1       2.044  -9.655   0.355  1.00  0.00    -0.248 NA
ATOM     45  C   UNL     1       1.294  -7.584  -0.317  1.00  0.00     0.031 C 
ATOM     46  C   UNL     1       5.803  -8.074  -2.139  1.00  0.00     0.029 A 
ATOM     47  N   UNL     1       4.128  -9.410  -2.648  1.00  0.00    -0.354 N 
ATOM     48  C   UNL     1       0.668  -9.634   0.460  1.00  0.00     0.074 A 
ATOM     49  C   UNL     1       0.283  -8.266   0.241  1.00  0.00     0.031 C 
ATOM     50  C   UNL     1       6.021  -8.505  -3.414  1.00  0.00     0.029 A 
ATOM     51  C   UNL     1       4.942  -9.395  -3.809  1.00  0.00     0.049 A 
ATOM     52  H   UNL     1       3.359 -10.017  -2.555  1.00  0.00     0.167 HD
ATOM     53  C   UNL     1       0.018 -10.826   0.400  1.00  0.00     0.037 A 
ATOM     54  C   UNL     1       4.831 -10.206  -4.917  1.00  0.00     0.037 A 
ATOM     55  C   UNL     1       0.964 -11.905   0.628  1.00  0.00     0.049 A 
ATOM     56  C   UNL     1       4.058 -11.402  -4.482  1.00  0.00     0.074 A 
ATOM     57  C   UNL     1       1.787 -12.265   1.679  1.00  0.00     0.029 A 
ATOM     58  N   UNL     1       1.529 -12.443  -0.504  1.00  0.00    -0.354 N 
ATOM     59  N   UNL     1       4.542 -12.271  -3.639  1.00  0.00    -0.248 NA
ATOM     60  C   UNL     1       2.608 -11.261  -4.510  1.00  0.00     0.031 C 
ATOM     61  C   UNL     1       3.034 -12.617   1.076  1.00  0.00     0.029 A 
ATOM     62  C   UNL     1       2.876 -12.615  -0.309  1.00  0.00     0.049 A 
ATOM     63  H   UNL     1       1.041 -12.670  -1.328  1.00  0.00     0.167 HD
ATOM     64  C   UNL     1       3.535 -12.418  -2.700  1.00  0.00     0.074 A 
ATOM     65  C   UNL     1       2.364 -11.754  -3.291  1.00  0.00     0.031 C 
ATOM     66  C   UNL     1       3.817 -12.732  -1.400  1.00  0.00     0.037 A 
BRANCH  53  67
ATOM     67  C   UNL     1      -1.263 -11.042  -0.364  1.00  0.00     0.057 A 
ATOM     68  C   UNL     1      -1.843 -12.323  -0.349  1.00  0.00     0.134 A 
ATOM     69  C   UNL     1      -1.764 -10.168  -1.350  1.00  0.00     0.134 A 
ATOM     70  F   UNL     1      -1.435 -13.252   0.529  1.00  0.00    -0.206 F 
ATOM     71  C   UNL     1      -2.794 -12.728  -1.292  1.00  0.00     0.040 A 
ATOM     72  C   UNL     1      -2.745 -10.549  -2.270  1.00  0.00     0.040 A 
ATOM     73  F   UNL     1      -1.268  -8.942  -1.549  1.00  0.00    -0.206 F 
ATOM     74  C   UNL     1      -3.244 -11.841  -2.261  1.00  0.00     0.006 A 
ENDBRANCH  53  67
BRANCH  54  75
ATOM     75  C   UNL     1       4.891  -9.876  -6.383  1.00  0.00     0.057 A 
ATOM     76  C   UNL     1       4.798 -10.865  -7.393  1.00  0.00     0.134 A 
ATOM     77  C   UNL     1       4.702  -8.561  -6.825  1.00  0.00     0.134 A 
ATOM     78  F   UNL     1       4.926 -12.166  -7.091  1.00  0.00    -0.206 F 
ATOM     79  C   UNL     1       4.494 -10.560  -8.736  1.00  0.00     0.040 A 
ATOM     80  C   UNL     1       4.387  -8.245  -8.158  1.00  0.00     0.040 A 
ATOM     81  F   UNL     1       4.723  -7.543  -5.955  1.00  0.00    -0.206 F 
ATOM     82  C   UNL     1       4.265  -9.244  -9.117  1.00  0.00     0.006 A 
ENDBRANCH  54  75
BRANCH  66  83
ATOM     83  C   UNL     1       5.229 -13.136  -1.055  1.00  0.00     0.057 A 
ATOM     84  C   UNL     1       6.360 -12.303  -1.113  1.00  0.00     0.134 A 
ATOM     85  C   UNL     1       5.419 -14.406  -0.506  1.00  0.00     0.134 A 
ATOM     86  F   UNL     1       6.268 -11.035  -1.529  1.00  0.00    -0.206 F 
ATOM     87  C   UNL     1       7.624 -12.738  -0.687  1.00  0.00     0.040 A 
ATOM     88  C   UNL     1       6.664 -14.841  -0.050  1.00  0.00     0.040 A 
ATOM     89  F   UNL     1       4.375 -15.236  -0.359  1.00  0.00    -0.206 F 
ATOM     90  C   UNL     1       7.777 -14.013  -0.153  1.00  0.00     0.006 A 
ENDBRANCH  66  83
ENDBRANCH  40  41
ENDBRANCH  32  35
ENDBRANCH  30  31
ENDBRANCH   1  30
TORSDOF 12
