REMARK SMILES O=C(NCCCNC(=O)[C@@]1([NH2+]C2CC2)CCC[C@H]1CCn1ccnc1)c1ccc(-c2c3nc(c(-c4c(F)cccc4F)c4ccc([nH]4)c(-c4c(F)cccc4F)c4nc(c(-c5c(F)cccc5F)c5ccc2[nH]5)C=C4)C=C3)cc1
REMARK SMILES IDX 5 1 4 2 3 3 1 4 2 5 26 7 27 8 79 9 28 10 78 11 29 12 30 13
REMARK SMILES IDX 31 14 72 15 32 16 77 17 71 18 73 19 33 20 76 21 70 22 69 23
REMARK SMILES IDX 34 25 60 26 43 27 59 28 44 29 47 30 58 31 74 32 45 33 46 34
REMARK SMILES IDX 57 36 75 37 48 38 35 39 36 40 41 41 37 42 38 43 40 44 42 45
REMARK SMILES IDX 39 46 61 47 62 48 67 49 63 50 64 51 66 52 68 53 65 54 49 55
REMARK SMILES IDX 50 56 55 57 51 58 52 59 54 60 56 61 53 62 6 63 7 64 8 65
REMARK SMILES IDX 9 67 10 68 15 69 18 70 16 71 17 72 11 73 12 76 13 77 14 78
REMARK SMILES IDX 19 79 20 80 21 81 22 82 25 83 23 84 24 85
REMARK H PARENT 3 6 73 24 47 35 7 66 11 74 11 75
REMARK Flexibility Score: inf
ROOT
ATOM      1  C   UNL     1       5.536  -1.172  -0.806  1.00  0.00     0.042 C 
ENDROOT
BRANCH   1   2
ATOM      2  C   UNL     1       4.671   0.082  -0.926  1.00  0.00     0.118 C 
BRANCH   2   3
ATOM      3  N   UNL     1       3.247  -0.114  -1.109  1.00  0.00    -0.352 N 
ATOM      4  O   UNL     1       1.096   0.317  -0.873  1.00  0.00    -0.269 OA
ATOM      5  C   UNL     1       2.153   0.059  -0.300  1.00  0.00     0.251 C 
ATOM      6  H   UNL     1       3.015  -0.442  -2.007  1.00  0.00     0.163 HD
BRANCH   5   7
ATOM      7  C   UNL     1       2.120  -0.160   1.174  1.00  0.00     0.039 A 
ATOM      8  C   UNL     1       3.182  -0.627   1.945  1.00  0.00     0.014 A 
ATOM      9  C   UNL     1       0.856  -0.026   1.782  1.00  0.00     0.014 A 
ATOM     10  C   UNL     1       2.961  -1.069   3.251  1.00  0.00     0.010 A 
ATOM     11  C   UNL     1       0.630  -0.456   3.085  1.00  0.00     0.010 A 
ATOM     12  C   UNL     1       1.674  -1.032   3.800  1.00  0.00    -0.014 A 
BRANCH  12  13
ATOM     13  C   UNL     1       1.478  -1.485   5.178  1.00  0.00     0.031 A 
ATOM     14  C   UNL     1       2.158  -0.644   6.207  1.00  0.00     0.074 A 
ATOM     15  C   UNL     1       0.616  -2.464   5.529  1.00  0.00     0.049 A 
ATOM     16  N   UNL     1       3.046  -0.994   7.080  1.00  0.00    -0.248 NA
ATOM     17  C   UNL     1       1.880   0.803   6.186  1.00  0.00     0.031 C 
ATOM     18  C   UNL     1      -0.346  -3.167   4.675  1.00  0.00     0.029 A 
ATOM     19  N   UNL     1       0.344  -2.972   6.766  1.00  0.00    -0.354 N 
ATOM     20  C   UNL     1       3.310   0.148   7.840  1.00  0.00     0.074 A 
ATOM     21  C   UNL     1       2.684   1.246   7.153  1.00  0.00     0.031 C 
ATOM     22  C   UNL     1      -1.234  -3.831   5.451  1.00  0.00     0.029 A 
ATOM     23  C   UNL     1      -0.833  -3.707   6.842  1.00  0.00     0.049 A 
ATOM     24  H   UNL     1       0.934  -2.829   7.542  1.00  0.00     0.167 HD
ATOM     25  C   UNL     1       3.833   0.069   9.095  1.00  0.00     0.037 A 
ATOM     26  C   UNL     1      -1.464  -4.124   7.971  1.00  0.00     0.037 A 
ATOM     27  C   UNL     1       4.481  -1.198   9.314  1.00  0.00     0.049 A 
ATOM     28  C   UNL     1      -0.486  -4.065   9.084  1.00  0.00     0.074 A 
ATOM     29  C   UNL     1       5.537  -1.872   8.732  1.00  0.00     0.029 A 
ATOM     30  N   UNL     1       3.825  -2.134  10.074  1.00  0.00    -0.354 N 
ATOM     31  N   UNL     1       0.543  -4.856   9.193  1.00  0.00    -0.248 NA
ATOM     32  C   UNL     1      -0.409  -2.828   9.845  1.00  0.00     0.031 C 
ATOM     33  C   UNL     1       5.158  -3.247   8.764  1.00  0.00     0.029 A 
ATOM     34  C   UNL     1       3.923  -3.326   9.408  1.00  0.00     0.049 A 
ATOM     35  H   UNL     1       3.372  -1.978  10.933  1.00  0.00     0.167 HD
ATOM     36  C   UNL     1       1.562  -4.042   9.665  1.00  0.00     0.074 A 
ATOM     37  C   UNL     1       0.896  -2.826  10.128  1.00  0.00     0.031 C 
ATOM     38  C   UNL     1       2.869  -4.309   9.378  1.00  0.00     0.037 A 
BRANCH  25  39
ATOM     39  C   UNL     1       3.419   0.963  10.246  1.00  0.00     0.057 A 
ATOM     40  C   UNL     1       4.061   0.812  11.491  1.00  0.00     0.134 A 
ATOM     41  C   UNL     1       2.228   1.716  10.280  1.00  0.00     0.134 A 
ATOM     42  F   UNL     1       5.210   0.127  11.597  1.00  0.00    -0.206 F 
ATOM     43  C   UNL     1       3.498   1.271  12.689  1.00  0.00     0.040 A 
ATOM     44  C   UNL     1       1.684   2.221  11.465  1.00  0.00     0.040 A 
ATOM     45  F   UNL     1       1.471   1.922   9.198  1.00  0.00    -0.206 F 
ATOM     46  C   UNL     1       2.296   1.964  12.680  1.00  0.00     0.006 A 
ENDBRANCH  25  39
BRANCH  26  47
ATOM     47  C   UNL     1      -2.920  -4.257   8.222  1.00  0.00     0.057 A 
ATOM     48  C   UNL     1      -3.414  -4.991   9.311  1.00  0.00     0.134 A 
ATOM     49  C   UNL     1      -3.851  -3.436   7.562  1.00  0.00     0.134 A 
ATOM     50  F   UNL     1      -2.596  -5.766  10.037  1.00  0.00    -0.206 F 
ATOM     51  C   UNL     1      -4.750  -4.899   9.730  1.00  0.00     0.040 A 
ATOM     52  C   UNL     1      -5.188  -3.340   7.965  1.00  0.00     0.040 A 
ATOM     53  F   UNL     1      -3.474  -2.627   6.562  1.00  0.00    -0.206 F 
ATOM     54  C   UNL     1      -5.639  -4.063   9.061  1.00  0.00     0.006 A 
ENDBRANCH  26  47
BRANCH  38  55
ATOM     55  C   UNL     1       3.192  -5.631   8.743  1.00  0.00     0.057 A 
ATOM     56  C   UNL     1       2.744  -6.019   7.471  1.00  0.00     0.134 A 
ATOM     57  C   UNL     1       4.112  -6.474   9.373  1.00  0.00     0.134 A 
ATOM     58  F   UNL     1       1.943  -5.228   6.746  1.00  0.00    -0.206 F 
ATOM     59  C   UNL     1       3.157  -7.214   6.876  1.00  0.00     0.040 A 
ATOM     60  C   UNL     1       4.560  -7.654   8.775  1.00  0.00     0.040 A 
ATOM     61  F   UNL     1       4.631  -6.139  10.565  1.00  0.00    -0.206 F 
ATOM     62  C   UNL     1       4.074  -8.033   7.526  1.00  0.00     0.006 A 
ENDBRANCH  38  55
ENDBRANCH  12  13
ENDBRANCH   5   7
ENDBRANCH   2   3
ENDBRANCH   1   2
BRANCH   1  63
ATOM     63  C   UNL     1       5.212  -2.384  -1.675  1.00  0.00     0.118 C 
BRANCH  63  64
ATOM     64  N   UNL     1       5.313  -2.281  -3.121  1.00  0.00    -0.351 N 
ATOM     65  C   UNL     1       5.165  -3.305  -4.040  1.00  0.00     0.281 C 
ATOM     66  H   UNL     1       5.507  -1.388  -3.486  1.00  0.00     0.163 HD
ATOM     67  O   UNL     1       4.720  -2.965  -5.146  1.00  0.00    -0.268 OA
BRANCH  65  68
ATOM     68  C   UNL     1       5.652  -4.787  -3.823  1.00  0.00     0.178 C 
ATOM     69  C   UNL     1       4.943  -5.867  -4.677  1.00  0.00     0.079 C 
ATOM     70  C   UNL     1       7.117  -4.975  -4.423  1.00  0.00     0.062 C 
ATOM     71  C   UNL     1       5.875  -7.085  -4.618  1.00  0.00     0.008 C 
ATOM     72  C   UNL     1       7.284  -6.522  -4.418  1.00  0.00     0.011 C 
BRANCH  68  73
ATOM     73  N   UNL     1       5.619  -5.212  -2.395  1.00  0.00    -0.331 N 
ATOM     74  H   UNL     1       6.250  -4.584  -1.899  1.00  0.00     0.347 HD
ATOM     75  H   UNL     1       5.848  -6.204  -2.469  1.00  0.00     0.347 HD
BRANCH  73  76
ATOM     76  C   UNL     1       4.379  -5.250  -1.607  1.00  0.00     0.183 C 
ATOM     77  C   UNL     1       3.010  -4.942  -2.143  1.00  0.00     0.071 C 
ATOM     78  C   UNL     1       3.360  -6.343  -1.726  1.00  0.00     0.071 C 
ENDBRANCH  73  76
ENDBRANCH  68  73
BRANCH  70  79
ATOM     79  C   UNL     1       7.380  -4.548  -5.913  1.00  0.00     0.032 C 
BRANCH  79  80
ATOM     80  C   UNL     1       7.678  -3.089  -6.259  1.00  0.00     0.123 C 
BRANCH  80  81
ATOM     81  N   UNL     1       8.735  -2.452  -5.511  1.00  0.00    -0.337 N 
ATOM     82  C   UNL     1       8.751  -1.134  -5.148  1.00  0.00     0.107 A 
ATOM     83  C   UNL     1       9.923  -3.001  -5.124  1.00  0.00     0.199 A 
ATOM     84  C   UNL     1       9.950  -0.960  -4.499  1.00  0.00     0.130 A 
ATOM     85  N   UNL     1      10.668  -2.127  -4.484  1.00  0.00    -0.245 NA
ENDBRANCH  80  81
ENDBRANCH  79  80
ENDBRANCH  70  79
ENDBRANCH  65  68
ENDBRANCH  63  64
ENDBRANCH   1  63
TORSDOF 15
