REMARK SMILES O=C(NCCCNC(=O)[C@H](c1ccccc1)C(c1ccccc1)c1ccccc1)c1ccc(-c2c3nc(c(-c4c(F)cccc4F)c4ccc([nH]4)c(-c4c(F)cccc4F)c4nc(c(-c5c(F)cccc5F)c5ccc2[nH]5)C=C4)C=C3)cc1
REMARK SMILES IDX 5 1 4 2 3 3 1 4 2 5 30 7 31 8 83 9 32 10 82 11 33 12 34 13
REMARK SMILES IDX 35 14 76 15 36 16 81 17 75 18 77 19 37 20 80 21 74 22 73 23
REMARK SMILES IDX 38 25 64 26 47 27 63 28 48 29 51 30 62 31 78 32 49 33 50 34
REMARK SMILES IDX 61 36 79 37 52 38 39 39 40 40 45 41 41 42 42 43 44 44 46 45
REMARK SMILES IDX 43 46 65 47 66 48 71 49 67 50 68 51 70 52 72 53 69 54 53 55
REMARK SMILES IDX 54 56 59 57 55 58 56 59 58 60 60 61 57 62 6 63 7 64 8 65
REMARK SMILES IDX 9 67 10 68 17 69 18 70 19 71 23 72 20 73 22 74 21 75 24 76
REMARK SMILES IDX 25 77 29 78 26 79 28 80 27 81 11 82 12 83 16 84 13 85 15 86
REMARK SMILES IDX 14 87
REMARK H PARENT 3 6 77 24 51 35 7 66
REMARK Flexibility Score: inf
ROOT
ATOM      1  C   UNL     1       4.611  -2.044   3.021  1.00  0.00     0.042 C 
ENDROOT
BRANCH   1   2
ATOM      2  C   UNL     1       5.454  -1.002   3.734  1.00  0.00     0.118 C 
BRANCH   2   3
ATOM      3  N   UNL     1       5.692   0.180   2.920  1.00  0.00    -0.352 N 
ATOM      4  O   UNL     1       5.384   2.285   2.178  1.00  0.00    -0.269 OA
ATOM      5  C   UNL     1       5.223   1.465   3.072  1.00  0.00     0.251 C 
ATOM      6  H   UNL     1       6.278   0.039   2.142  1.00  0.00     0.163 HD
BRANCH   5   7
ATOM      7  C   UNL     1       4.500   1.851   4.306  1.00  0.00     0.039 A 
ATOM      8  C   UNL     1       4.941   1.422   5.558  1.00  0.00     0.014 A 
ATOM      9  C   UNL     1       3.373   2.674   4.210  1.00  0.00     0.014 A 
ATOM     10  C   UNL     1       4.167   1.663   6.686  1.00  0.00     0.010 A 
ATOM     11  C   UNL     1       2.658   3.013   5.363  1.00  0.00     0.010 A 
ATOM     12  C   UNL     1       3.031   2.484   6.607  1.00  0.00    -0.014 A 
BRANCH  12  13
ATOM     13  C   UNL     1       2.308   2.834   7.856  1.00  0.00     0.031 A 
ATOM     14  C   UNL     1       0.878   2.428   8.076  1.00  0.00     0.074 A 
ATOM     15  C   UNL     1       2.976   3.505   8.816  1.00  0.00     0.049 A 
ATOM     16  N   UNL     1       0.114   2.643   9.118  1.00  0.00    -0.248 NA
ATOM     17  C   UNL     1       0.215   1.695   6.988  1.00  0.00     0.031 C 
ATOM     18  C   UNL     1       4.364   3.964   8.710  1.00  0.00     0.029 A 
ATOM     19  N   UNL     1       2.593   3.900  10.071  1.00  0.00    -0.354 N 
ATOM     20  C   UNL     1      -1.122   2.091   8.806  1.00  0.00     0.074 A 
ATOM     21  C   UNL     1      -1.014   1.553   7.466  1.00  0.00     0.031 C 
ATOM     22  C   UNL     1       4.732   4.527   9.868  1.00  0.00     0.029 A 
ATOM     23  C   UNL     1       3.588   4.536  10.771  1.00  0.00     0.049 A 
ATOM     24  H   UNL     1       1.692   3.742  10.435  1.00  0.00     0.167 HD
ATOM     25  C   UNL     1      -2.239   2.034   9.571  1.00  0.00     0.037 A 
ATOM     26  C   UNL     1       3.580   5.087  11.998  1.00  0.00     0.037 A 
ATOM     27  C   UNL     1      -2.334   2.561  10.909  1.00  0.00     0.049 A 
ATOM     28  C   UNL     1       2.321   5.033  12.810  1.00  0.00     0.074 A 
ATOM     29  C   UNL     1      -3.411   2.519  11.779  1.00  0.00     0.029 A 
ATOM     30  N   UNL     1      -1.315   3.232  11.571  1.00  0.00    -0.354 N 
ATOM     31  N   UNL     1       1.171   4.480  12.513  1.00  0.00    -0.248 NA
ATOM     32  C   UNL     1       2.356   5.687  14.124  1.00  0.00     0.031 C 
ATOM     33  C   UNL     1      -3.059   3.205  12.947  1.00  0.00     0.029 A 
ATOM     34  C   UNL     1      -1.747   3.631  12.826  1.00  0.00     0.049 A 
ATOM     35  H   UNL     1      -0.417   3.399  11.203  1.00  0.00     0.167 HD
ATOM     36  C   UNL     1       0.348   4.706  13.607  1.00  0.00     0.074 A 
ATOM     37  C   UNL     1       1.140   5.427  14.583  1.00  0.00     0.031 C 
ATOM     38  C   UNL     1      -0.948   4.352  13.784  1.00  0.00     0.037 A 
BRANCH  25  39
ATOM     39  C   UNL     1      -3.461   1.397   8.973  1.00  0.00     0.057 A 
ATOM     40  C   UNL     1      -3.554   0.014   8.773  1.00  0.00     0.134 A 
ATOM     41  C   UNL     1      -4.579   2.173   8.639  1.00  0.00     0.134 A 
ATOM     42  F   UNL     1      -2.517  -0.787   9.062  1.00  0.00    -0.206 F 
ATOM     43  C   UNL     1      -4.706  -0.572   8.242  1.00  0.00     0.040 A 
ATOM     44  C   UNL     1      -5.744   1.597   8.130  1.00  0.00     0.040 A 
ATOM     45  F   UNL     1      -4.561   3.503   8.813  1.00  0.00    -0.206 F 
ATOM     46  C   UNL     1      -5.808   0.220   7.925  1.00  0.00     0.006 A 
ENDBRANCH  25  39
BRANCH  26  47
ATOM     47  C   UNL     1       4.804   5.744  12.518  1.00  0.00     0.057 A 
ATOM     48  C   UNL     1       5.533   5.187  13.574  1.00  0.00     0.134 A 
ATOM     49  C   UNL     1       5.286   6.933  11.956  1.00  0.00     0.134 A 
ATOM     50  F   UNL     1       5.113   4.057  14.162  1.00  0.00    -0.206 F 
ATOM     51  C   UNL     1       6.690   5.795  14.063  1.00  0.00     0.040 A 
ATOM     52  C   UNL     1       6.457   7.537  12.415  1.00  0.00     0.040 A 
ATOM     53  F   UNL     1       4.638   7.511  10.934  1.00  0.00    -0.206 F 
ATOM     54  C   UNL     1       7.159   6.970  13.477  1.00  0.00     0.006 A 
ENDBRANCH  26  47
BRANCH  38  55
ATOM     55  C   UNL     1      -1.577   4.723  15.094  1.00  0.00     0.057 A 
ATOM     56  C   UNL     1      -1.914   6.047  15.401  1.00  0.00     0.134 A 
ATOM     57  C   UNL     1      -1.867   3.741  16.049  1.00  0.00     0.134 A 
ATOM     58  F   UNL     1      -1.646   7.036  14.535  1.00  0.00    -0.206 F 
ATOM     59  C   UNL     1      -2.494   6.386  16.625  1.00  0.00     0.040 A 
ATOM     60  C   UNL     1      -2.471   4.064  17.265  1.00  0.00     0.040 A 
ATOM     61  F   UNL     1      -1.575   2.454  15.814  1.00  0.00    -0.206 F 
ATOM     62  C   UNL     1      -2.779   5.391  17.558  1.00  0.00     0.006 A 
ENDBRANCH  38  55
ENDBRANCH  12  13
ENDBRANCH   5   7
ENDBRANCH   2   3
ENDBRANCH   1   2
BRANCH   1  63
ATOM     63  C   UNL     1       5.341  -2.784   1.912  1.00  0.00     0.117 C 
BRANCH  63  64
ATOM     64  N   UNL     1       6.511  -3.502   2.378  1.00  0.00    -0.355 N 
ATOM     65  C   UNL     1       6.913  -4.788   2.178  1.00  0.00     0.228 C 
ATOM     66  H   UNL     1       7.122  -2.968   2.936  1.00  0.00     0.163 HD
ATOM     67  O   UNL     1       8.042  -5.077   2.592  1.00  0.00    -0.274 OA
BRANCH  65  68
ATOM     68  C   UNL     1       6.048  -5.845   1.475  1.00  0.00     0.120 C 
BRANCH  68  69
ATOM     69  C   UNL     1       4.810  -6.325   2.320  1.00  0.00     0.066 C 
BRANCH  69  70
ATOM     70  C   UNL     1       4.047  -7.439   1.571  1.00  0.00    -0.039 A 
ATOM     71  C   UNL     1       2.674  -7.302   1.313  1.00  0.00     0.004 A 
ATOM     72  C   UNL     1       4.701  -8.594   1.103  1.00  0.00     0.004 A 
ATOM     73  C   UNL     1       1.985  -8.277   0.590  1.00  0.00     0.000 A 
ATOM     74  C   UNL     1       4.003  -9.585   0.413  1.00  0.00     0.000 A 
ATOM     75  C   UNL     1       2.647  -9.421   0.148  1.00  0.00     0.000 A 
ENDBRANCH  69  70
BRANCH  69  76
ATOM     76  C   UNL     1       5.100  -6.688   3.797  1.00  0.00    -0.039 A 
ATOM     77  C   UNL     1       5.156  -8.008   4.280  1.00  0.00     0.004 A 
ATOM     78  C   UNL     1       5.269  -5.664   4.747  1.00  0.00     0.004 A 
ATOM     79  C   UNL     1       5.366  -8.287   5.636  1.00  0.00     0.000 A 
ATOM     80  C   UNL     1       5.490  -5.938   6.101  1.00  0.00     0.000 A 
ATOM     81  C   UNL     1       5.535  -7.252   6.547  1.00  0.00     0.000 A 
ENDBRANCH  69  76
ENDBRANCH  68  69
BRANCH  68  82
ATOM     82  C   UNL     1       5.802  -5.439   0.006  1.00  0.00    -0.035 A 
ATOM     83  C   UNL     1       4.563  -4.993  -0.486  1.00  0.00     0.004 A 
ATOM     84  C   UNL     1       6.881  -5.481  -0.895  1.00  0.00     0.004 A 
ATOM     85  C   UNL     1       4.410  -4.580  -1.811  1.00  0.00     0.000 A 
ATOM     86  C   UNL     1       6.724  -5.085  -2.226  1.00  0.00     0.000 A 
ATOM     87  C   UNL     1       5.491  -4.628  -2.683  1.00  0.00     0.000 A 
ENDBRANCH  68  82
ENDBRANCH  65  68
ENDBRANCH  63  64
ENDBRANCH   1  63
TORSDOF 14
