REMARK SMILES CC1=C[C@H](C)[C@@H](C(=O)NCCCNC(=O)c2ccc(-c3c4nc(c(-c5c(F)cccc5F)c5ccc([nH]5)c(-c5c(F)cccc5F)c5nc(c(-c6c(F)cccc6F)c6ccc3[nH]6)C=C5)C=C4)cc2)[C@H](C(=O)Nc2cccnc2)C1
REMARK SMILES IDX 11 1 10 2 9 3 7 4 8 5 6 7 1 8 2 9 3 10 80 11 4 12 70 13 5 14
REMARK SMILES IDX 71 15 72 16 73 17 74 19 75 20 79 21 76 22 78 23 77 24 12 25
REMARK SMILES IDX 13 26 14 27 15 29 16 30 17 31 69 32 18 33 68 34 19 35 20 36
REMARK SMILES IDX 21 37 62 38 22 39 67 40 61 41 63 42 23 43 66 44 60 45 59 46
REMARK SMILES IDX 24 48 50 49 33 50 49 51 34 52 37 53 48 54 64 55 35 56 36 57
REMARK SMILES IDX 47 59 65 60 38 61 25 62 26 63 31 64 27 65 28 66 30 67 32 68
REMARK SMILES IDX 29 69 51 70 52 71 57 72 53 73 54 74 56 75 58 76 55 77 39 78
REMARK SMILES IDX 40 79 45 80 41 81 42 82 44 83 46 84 43 85
REMARK H PARENT 9 6 73 18 13 28 63 47 37 58
REMARK Flexibility Score: inf
ROOT
ATOM      1  C   UNL     1      -2.363  -1.888   2.157  1.00  0.00     0.042 C 
ENDROOT
BRANCH   1   2
ATOM      2  C   UNL     1      -1.354  -3.006   2.020  1.00  0.00     0.117 C 
BRANCH   2   3
ATOM      3  N   UNL     1      -1.858  -4.156   1.294  1.00  0.00    -0.356 N 
ATOM      4  C   UNL     1      -1.357  -4.796   0.196  1.00  0.00     0.224 C 
ATOM      5  O   UNL     1      -1.897  -5.854  -0.134  1.00  0.00    -0.275 OA
ATOM      6  H   UNL     1      -2.693  -4.536   1.650  1.00  0.00     0.163 HD
BRANCH   4   7
ATOM      7  C   UNL     1      -0.184  -4.227  -0.622  1.00  0.00     0.098 C 
ATOM      8  C   UNL     1       1.618  -0.206   0.090  1.00  0.00     0.039 C 
ATOM      9  C   UNL     1       1.072  -1.585  -0.158  1.00  0.00    -0.076 C 
ATOM     10  C   UNL     1       1.659  -2.689   0.342  1.00  0.00    -0.024 C 
ATOM     11  C   UNL     1      -0.218  -1.617  -0.933  1.00  0.00     0.044 C 
ATOM     12  C   UNL     1       1.058  -4.074   0.299  1.00  0.00     0.022 C 
ATOM     13  C   UNL     1      -0.671  -2.996  -1.420  1.00  0.00     0.096 C 
ATOM     14  C   UNL     1       2.095  -5.188   0.089  1.00  0.00     0.013 C 
BRANCH  13  15
ATOM     15  C   UNL     1      -0.611  -3.165  -2.956  1.00  0.00     0.228 C 
ATOM     16  O   UNL     1      -1.550  -3.716  -3.542  1.00  0.00    -0.274 OA
ATOM     17  N   UNL     1       0.368  -2.610  -3.733  1.00  0.00    -0.324 N 
ATOM     18  H   UNL     1       0.111  -2.433  -4.667  1.00  0.00     0.169 HD
BRANCH  17  19
ATOM     19  C   UNL     1       1.677  -2.256  -3.401  1.00  0.00     0.059 A 
ATOM     20  C   UNL     1       2.501  -3.121  -2.701  1.00  0.00     0.029 A 
ATOM     21  C   UNL     1       2.220  -1.046  -3.813  1.00  0.00     0.137 A 
ATOM     22  C   UNL     1       3.776  -2.708  -2.320  1.00  0.00     0.022 A 
ATOM     23  N   UNL     1       3.452  -0.608  -3.454  1.00  0.00    -0.263 NA
ATOM     24  C   UNL     1       4.191  -1.442  -2.690  1.00  0.00     0.111 A 
ENDBRANCH  17  19
ENDBRANCH  13  15
ENDBRANCH   4   7
ENDBRANCH   2   3
ENDBRANCH   1   2
BRANCH   1  25
ATOM     25  C   UNL     1      -3.253  -2.077   3.364  1.00  0.00     0.118 C 
BRANCH  25  26
ATOM     26  N   UNL     1      -2.517  -1.947   4.620  1.00  0.00    -0.352 N 
ATOM     27  C   UNL     1      -2.723  -1.092   5.678  1.00  0.00     0.251 C 
ATOM     28  H   UNL     1      -1.759  -2.565   4.725  1.00  0.00     0.163 HD
ATOM     29  O   UNL     1      -1.893  -1.001   6.568  1.00  0.00    -0.269 OA
BRANCH  27  30
ATOM     30  C   UNL     1      -3.946  -0.265   5.708  1.00  0.00     0.039 A 
ATOM     31  C   UNL     1      -3.860   1.066   6.121  1.00  0.00     0.014 A 
ATOM     32  C   UNL     1      -5.168  -0.799   5.297  1.00  0.00     0.014 A 
ATOM     33  C   UNL     1      -4.991   1.879   6.048  1.00  0.00     0.010 A 
ATOM     34  C   UNL     1      -6.252   0.039   5.102  1.00  0.00     0.010 A 
ATOM     35  C   UNL     1      -6.183   1.381   5.497  1.00  0.00    -0.014 A 
BRANCH  35  36
ATOM     36  C   UNL     1      -7.386   2.231   5.348  1.00  0.00     0.031 A 
ATOM     37  C   UNL     1      -8.662   1.844   6.044  1.00  0.00     0.074 A 
ATOM     38  C   UNL     1      -7.356   3.289   4.517  1.00  0.00     0.049 A 
ATOM     39  N   UNL     1      -9.844   2.397   5.972  1.00  0.00    -0.248 NA
ATOM     40  C   UNL     1      -8.612   0.646   6.899  1.00  0.00     0.031 C 
ATOM     41  C   UNL     1      -6.199   3.714   3.726  1.00  0.00     0.029 A 
ATOM     42  N   UNL     1      -8.335   4.191   4.186  1.00  0.00    -0.354 N 
ATOM     43  C   UNL     1     -10.680   1.597   6.741  1.00  0.00     0.074 A 
ATOM     44  C   UNL     1      -9.887   0.486   7.215  1.00  0.00     0.031 C 
ATOM     45  C   UNL     1      -6.528   4.808   3.020  1.00  0.00     0.029 A 
ATOM     46  C   UNL     1      -7.926   5.137   3.280  1.00  0.00     0.049 A 
ATOM     47  H   UNL     1      -9.244   4.162   4.562  1.00  0.00     0.167 HD
ATOM     48  C   UNL     1     -11.984   1.787   7.049  1.00  0.00     0.037 A 
ATOM     49  C   UNL     1      -8.605   6.153   2.716  1.00  0.00     0.037 A 
ATOM     50  C   UNL     1     -12.751   2.919   6.605  1.00  0.00     0.049 A 
ATOM     51  C   UNL     1     -10.040   6.373   3.103  1.00  0.00     0.074 A 
ATOM     52  C   UNL     1     -14.048   3.265   6.937  1.00  0.00     0.029 A 
ATOM     53  N   UNL     1     -12.288   3.888   5.726  1.00  0.00    -0.354 N 
ATOM     54  N   UNL     1     -10.794   5.666   3.910  1.00  0.00    -0.248 NA
ATOM     55  C   UNL     1     -10.715   7.534   2.510  1.00  0.00     0.031 C 
ATOM     56  C   UNL     1     -14.388   4.416   6.217  1.00  0.00     0.029 A 
ATOM     57  C   UNL     1     -13.284   4.817   5.480  1.00  0.00     0.049 A 
ATOM     58  H   UNL     1     -11.385   3.911   5.336  1.00  0.00     0.167 HD
ATOM     59  C   UNL     1     -12.026   6.306   3.939  1.00  0.00     0.074 A 
ATOM     60  C   UNL     1     -11.911   7.467   3.080  1.00  0.00     0.031 C 
ATOM     61  C   UNL     1     -13.150   5.964   4.616  1.00  0.00     0.037 A 
BRANCH  48  62
ATOM     62  C   UNL     1     -12.650   0.744   7.900  1.00  0.00     0.057 A 
ATOM     63  C   UNL     1     -12.299   0.540   9.242  1.00  0.00     0.134 A 
ATOM     64  C   UNL     1     -13.655  -0.073   7.368  1.00  0.00     0.134 A 
ATOM     65  F   UNL     1     -11.333   1.278   9.812  1.00  0.00    -0.206 F 
ATOM     66  C   UNL     1     -12.890  -0.465  10.009  1.00  0.00     0.040 A 
ATOM     67  C   UNL     1     -14.277  -1.060   8.135  1.00  0.00     0.040 A 
ATOM     68  F   UNL     1     -14.045   0.069   6.092  1.00  0.00    -0.206 F 
ATOM     69  C   UNL     1     -13.887  -1.265   9.456  1.00  0.00     0.006 A 
ENDBRANCH  48  62
BRANCH  49  70
ATOM     70  C   UNL     1      -7.917   7.050   1.755  1.00  0.00     0.057 A 
ATOM     71  C   UNL     1      -7.571   8.359   2.107  1.00  0.00     0.134 A 
ATOM     72  C   UNL     1      -7.555   6.608   0.476  1.00  0.00     0.134 A 
ATOM     73  F   UNL     1      -7.902   8.843   3.313  1.00  0.00    -0.206 F 
ATOM     74  C   UNL     1      -6.897   9.201   1.221  1.00  0.00     0.040 A 
ATOM     75  C   UNL     1      -6.861   7.431  -0.412  1.00  0.00     0.040 A 
ATOM     76  F   UNL     1      -7.846   5.359   0.084  1.00  0.00    -0.206 F 
ATOM     77  C   UNL     1      -6.533   8.734  -0.041  1.00  0.00     0.006 A 
ENDBRANCH  49  70
BRANCH  61  78
ATOM     78  C   UNL     1     -14.339   6.868   4.471  1.00  0.00     0.057 A 
ATOM     79  C   UNL     1     -15.087   6.920   3.288  1.00  0.00     0.134 A 
ATOM     80  C   UNL     1     -14.766   7.660   5.545  1.00  0.00     0.134 A 
ATOM     81  F   UNL     1     -14.723   6.196   2.220  1.00  0.00    -0.206 F 
ATOM     82  C   UNL     1     -16.207   7.745   3.172  1.00  0.00     0.040 A 
ATOM     83  C   UNL     1     -15.900   8.466   5.449  1.00  0.00     0.040 A 
ATOM     84  F   UNL     1     -14.099   7.648   6.708  1.00  0.00    -0.206 F 
ATOM     85  C   UNL     1     -16.621   8.515   4.258  1.00  0.00     0.006 A 
ENDBRANCH  61  78
ENDBRANCH  35  36
ENDBRANCH  27  30
ENDBRANCH  25  26
ENDBRANCH   1  25
TORSDOF 12
