REMARK SMILES O=C1C[N@@H+](Cc2ccc(C(=O)NCCCNC(=O)c3ccc(-c4c5nc(c(-c6c(F)cccc6F)c6ccc([nH]6)c(-c6c(F)cccc6F)c6nc(c(-c7c(F)cccc7F)c7ccc4[nH]7)C=C6)C=C5)cc3)cc2)CCN1
REMARK SMILES IDX 14 1 13 2 12 3 10 4 11 5 9 7 6 8 7 9 74 10 8 11 73 12 5 13
REMARK SMILES IDX 4 14 1 15 2 16 3 17 77 18 76 19 75 21 15 23 16 24 17 25
REMARK SMILES IDX 18 27 19 28 20 29 72 30 21 31 71 32 22 33 23 34 24 35 65 36
REMARK SMILES IDX 25 37 70 38 64 39 66 40 26 41 69 42 63 43 62 44 27 46 53 47
REMARK SMILES IDX 36 48 52 49 37 50 40 51 51 52 67 53 38 54 39 55 50 57 68 58
REMARK SMILES IDX 41 59 28 60 29 61 34 62 30 63 31 64 33 65 35 66 32 67 54 68
REMARK SMILES IDX 55 69 60 70 56 71 57 72 59 73 61 74 58 75 42 76 43 77 48 78
REMARK SMILES IDX 44 79 45 80 47 81 49 82 46 83
REMARK H PARENT 12 6 77 20 4 22 16 26 66 45 40 56
REMARK Flexibility Score: inf
ROOT
ATOM      1  C   UNL     1      -1.429   5.842   2.556  1.00  0.00     0.042 C 
ENDROOT
BRANCH   1   2
ATOM      2  C   UNL     1      -0.141   5.027   2.468  1.00  0.00     0.118 C 
BRANCH   2   3
ATOM      3  N   UNL     1       0.374   4.693   3.786  1.00  0.00    -0.352 N 
ATOM      4  C   UNL     1       0.404   3.492   4.452  1.00  0.00     0.251 C 
ATOM      5  O   UNL     1       0.993   3.411   5.526  1.00  0.00    -0.269 OA
ATOM      6  H   UNL     1       0.765   5.449   4.280  1.00  0.00     0.163 HD
BRANCH   4   7
ATOM      7  C   UNL     1      -0.205   2.284   3.856  1.00  0.00     0.039 A 
ATOM      8  C   UNL     1      -1.176   0.022   2.520  1.00  0.00     0.006 A 
ATOM      9  C   UNL     1       0.086  -0.003   3.132  1.00  0.00     0.010 A 
ATOM     10  C   UNL     1      -1.991   1.151   2.689  1.00  0.00     0.010 A 
ATOM     11  C   UNL     1       0.571   1.124   3.795  1.00  0.00     0.014 A 
ATOM     12  C   UNL     1      -1.510   2.275   3.361  1.00  0.00     0.014 A 
BRANCH   8  13
ATOM     13  C   UNL     1      -1.642  -1.131   1.666  1.00  0.00     0.299 C 
BRANCH  13  14
ATOM     14  N   UNL     1      -1.224  -1.129   0.262  1.00  0.00    -0.322 N 
ATOM     15  O   UNL     1       2.313  -0.235   0.223  1.00  0.00    -0.269 OA
ATOM     16  C   UNL     1       1.107  -0.171  -0.016  1.00  0.00     0.275 C 
ATOM     17  C   UNL     1       0.204  -1.406   0.028  1.00  0.00     0.363 C 
ATOM     18  N   UNL     1       0.567   1.009  -0.447  1.00  0.00    -0.346 N 
ATOM     19  C   UNL     1      -0.853   1.245  -0.562  1.00  0.00     0.177 C 
ATOM     20  H   UNL     1       1.180   1.738  -0.692  1.00  0.00     0.163 HD
ATOM     21  C   UNL     1      -1.710  -0.031  -0.575  1.00  0.00     0.284 C 
ATOM     22  H   UNL     1      -1.736  -1.946  -0.070  1.00  0.00     0.348 HD
ENDBRANCH  13  14
ENDBRANCH   8  13
ENDBRANCH   4   7
ENDBRANCH   2   3
ENDBRANCH   1   2
BRANCH   1  23
ATOM     23  C   UNL     1      -1.236   7.242   3.133  1.00  0.00     0.118 C 
BRANCH  23  24
ATOM     24  N   UNL     1      -0.526   8.125   2.221  1.00  0.00    -0.352 N 
ATOM     25  C   UNL     1      -0.890   9.344   1.704  1.00  0.00     0.251 C 
ATOM     26  H   UNL     1       0.355   7.798   1.928  1.00  0.00     0.163 HD
ATOM     27  O   UNL     1      -0.222   9.838   0.800  1.00  0.00    -0.269 OA
BRANCH  25  28
ATOM     28  C   UNL     1      -2.087  10.060   2.203  1.00  0.00     0.039 A 
ATOM     29  C   UNL     1      -2.893  10.736   1.281  1.00  0.00     0.014 A 
ATOM     30  C   UNL     1      -2.400  10.112   3.565  1.00  0.00     0.014 A 
ATOM     31  C   UNL     1      -4.037  11.411   1.713  1.00  0.00     0.010 A 
ATOM     32  C   UNL     1      -3.580  10.724   3.987  1.00  0.00     0.010 A 
ATOM     33  C   UNL     1      -4.409  11.384   3.067  1.00  0.00    -0.014 A 
BRANCH  33  34
ATOM     34  C   UNL     1      -5.666  12.027   3.527  1.00  0.00     0.031 A 
ATOM     35  C   UNL     1      -5.630  13.189   4.481  1.00  0.00     0.074 A 
ATOM     36  C   UNL     1      -6.851  11.518   3.137  1.00  0.00     0.049 A 
ATOM     37  N   UNL     1      -6.625  13.844   5.024  1.00  0.00    -0.248 NA
ATOM     38  C   UNL     1      -4.301  13.658   4.902  1.00  0.00     0.031 C 
ATOM     39  C   UNL     1      -7.024  10.355   2.265  1.00  0.00     0.029 A 
ATOM     40  N   UNL     1      -8.133  11.904   3.435  1.00  0.00    -0.354 N 
ATOM     41  C   UNL     1      -6.045  14.786   5.865  1.00  0.00     0.074 A 
ATOM     42  C   UNL     1      -4.613  14.587   5.794  1.00  0.00     0.031 C 
ATOM     43  C   UNL     1      -8.335  10.130   2.088  1.00  0.00     0.029 A 
ATOM     44  C   UNL     1      -9.095  11.111   2.857  1.00  0.00     0.049 A 
ATOM     45  H   UNL     1      -8.345  12.676   4.008  1.00  0.00     0.167 HD
ATOM     46  C   UNL     1      -6.649  15.740   6.614  1.00  0.00     0.037 A 
ATOM     47  C   UNL     1     -10.437  11.161   2.942  1.00  0.00     0.037 A 
ATOM     48  C   UNL     1      -8.072  15.953   6.661  1.00  0.00     0.049 A 
ATOM     49  C   UNL     1     -11.086  12.242   3.757  1.00  0.00     0.074 A 
ATOM     50  C   UNL     1      -8.773  16.951   7.315  1.00  0.00     0.029 A 
ATOM     51  N   UNL     1      -9.014  15.149   6.036  1.00  0.00    -0.354 N 
ATOM     52  N   UNL     1     -10.523  13.185   4.474  1.00  0.00    -0.248 NA
ATOM     53  C   UNL     1     -12.555  12.274   3.768  1.00  0.00     0.031 C 
ATOM     54  C   UNL     1     -10.141  16.721   7.128  1.00  0.00     0.029 A 
ATOM     55  C   UNL     1     -10.291  15.609   6.315  1.00  0.00     0.049 A 
ATOM     56  H   UNL     1      -8.805  14.366   5.477  1.00  0.00     0.167 HD
ATOM     57  C   UNL     1     -11.565  13.932   5.007  1.00  0.00     0.074 A 
ATOM     58  C   UNL     1     -12.794  13.343   4.516  1.00  0.00     0.031 C 
ATOM     59  C   UNL     1     -11.508  15.008   5.830  1.00  0.00     0.037 A 
BRANCH  46  60
ATOM     60  C   UNL     1      -5.767  16.622   7.450  1.00  0.00     0.057 A 
ATOM     61  C   UNL     1      -4.915  17.577   6.879  1.00  0.00     0.134 A 
ATOM     62  C   UNL     1      -5.786  16.530   8.848  1.00  0.00     0.134 A 
ATOM     63  F   UNL     1      -4.841  17.712   5.546  1.00  0.00    -0.206 F 
ATOM     64  C   UNL     1      -4.089  18.383   7.665  1.00  0.00     0.040 A 
ATOM     65  C   UNL     1      -4.986  17.349   9.646  1.00  0.00     0.040 A 
ATOM     66  F   UNL     1      -6.584  15.643   9.462  1.00  0.00    -0.206 F 
ATOM     67  C   UNL     1      -4.127  18.273   9.054  1.00  0.00     0.006 A 
ENDBRANCH  46  60
BRANCH  47  68
ATOM     68  C   UNL     1     -11.253  10.159   2.213  1.00  0.00     0.057 A 
ATOM     69  C   UNL     1     -11.982  10.512   1.072  1.00  0.00     0.134 A 
ATOM     70  C   UNL     1     -11.301   8.821   2.623  1.00  0.00     0.134 A 
ATOM     71  F   UNL     1     -11.988  11.782   0.641  1.00  0.00    -0.206 F 
ATOM     72  C   UNL     1     -12.738   9.573   0.369  1.00  0.00     0.040 A 
ATOM     73  C   UNL     1     -12.034   7.867   1.916  1.00  0.00     0.040 A 
ATOM     74  F   UNL     1     -10.616   8.419   3.703  1.00  0.00    -0.206 F 
ATOM     75  C   UNL     1     -12.759   8.243   0.787  1.00  0.00     0.006 A 
ENDBRANCH  47  68
BRANCH  59  76
ATOM     76  C   UNL     1     -12.812  15.627   6.240  1.00  0.00     0.057 A 
ATOM     77  C   UNL     1     -13.672  14.999   7.151  1.00  0.00     0.134 A 
ATOM     78  C   UNL     1     -13.197  16.878   5.744  1.00  0.00     0.134 A 
ATOM     79  F   UNL     1     -13.368  13.793   7.652  1.00  0.00    -0.206 F 
ATOM     80  C   UNL     1     -14.879  15.585   7.536  1.00  0.00     0.040 A 
ATOM     81  C   UNL     1     -14.389  17.486   6.141  1.00  0.00     0.040 A 
ATOM     82  F   UNL     1     -12.415  17.536   4.874  1.00  0.00    -0.206 F 
ATOM     83  C   UNL     1     -15.236  16.836   7.035  1.00  0.00     0.006 A 
ENDBRANCH  59  76
ENDBRANCH  33  34
ENDBRANCH  25  28
ENDBRANCH  23  24
ENDBRANCH   1  23
TORSDOF 12
