REMARK SMILES O=C(C[C@H]1CN(c2nc(C3CC3)ns2)CCO1)NCCCNC(=O)c1ccc(-c2c3nc(c(-c4c(F)cccc4F)c4ccc([nH]4)c(-c4c(F)cccc4F)c4nc(c(-c5c(F)cccc5F)c5ccc2[nH]5)C=C4)C=C3)cc1
REMARK SMILES IDX 19 1 18 2 1 3 2 4 3 6 4 7 5 8 17 9 6 10 16 11 15 12 7 13
REMARK SMILES IDX 8 14 14 15 9 16 13 17 10 18 11 19 12 20 20 21 21 22 22 23
REMARK SMILES IDX 23 24 24 26 25 27 26 28 78 29 27 30 77 31 28 32 29 33 30 34
REMARK SMILES IDX 71 35 31 36 76 37 70 38 72 39 32 40 75 41 69 42 68 43 33 45
REMARK SMILES IDX 59 46 42 47 58 48 43 49 46 50 57 51 73 52 44 53 45 54 56 56
REMARK SMILES IDX 74 57 47 58 34 59 35 60 40 61 36 62 37 63 39 64 41 65 38 66
REMARK SMILES IDX 60 67 61 68 66 69 62 70 63 71 65 72 67 73 64 74 48 75 49 76
REMARK SMILES IDX 54 77 50 78 51 79 53 80 55 81 52 82
REMARK H PARENT 18 5 22 25 72 44 46 55
REMARK Flexibility Score: inf
ROOT
ATOM      1  C   UNL     1       4.760   1.987  -3.395  1.00  0.00     0.117 C 
ENDROOT
BRANCH   1   2
ATOM      2  N   UNL     1       4.154   0.897  -2.663  1.00  0.00    -0.356 N 
ATOM      3  O   UNL     1       3.323  -0.167  -4.505  1.00  0.00    -0.275 OA
ATOM      4  C   UNL     1       3.553  -0.161  -3.297  1.00  0.00     0.222 C 
ATOM      5  H   UNL     1       4.174   0.914  -1.679  1.00  0.00     0.163 HD
BRANCH   4   6
ATOM      6  C   UNL     1       3.116  -1.307  -2.408  1.00  0.00     0.133 C 
BRANCH   6   7
ATOM      7  C   UNL     1       3.983  -1.676  -1.189  1.00  0.00     0.147 C 
ATOM      8  C   UNL     1       4.171  -3.202  -1.029  1.00  0.00     0.151 C 
ATOM      9  O   UNL     1       5.238  -0.971  -1.081  1.00  0.00    -0.374 OA
ATOM     10  N   UNL     1       5.261  -3.696  -1.867  1.00  0.00    -0.342 N 
ATOM     11  C   UNL     1       6.248  -1.477  -1.975  1.00  0.00     0.182 C 
ATOM     12  C   UNL     1       6.520  -2.970  -1.756  1.00  0.00     0.147 C 
BRANCH  10  13
ATOM     13  C   UNL     1       5.027  -4.610  -2.840  1.00  0.00     0.205 A 
ATOM     14  N   UNL     1       3.905  -4.718  -3.517  1.00  0.00    -0.203 NA
ATOM     15  S   UNL     1       6.152  -5.843  -3.318  1.00  0.00     0.004 S 
ATOM     16  C   UNL     1       4.006  -5.782  -4.405  1.00  0.00     0.147 A 
ATOM     17  N   UNL     1       5.102  -6.541  -4.404  1.00  0.00    -0.174 NA
BRANCH  16  18
ATOM     18  C   UNL     1       2.885  -6.090  -5.397  1.00  0.00     0.059 C 
ATOM     19  C   UNL     1       1.497  -5.538  -5.150  1.00  0.00     0.012 C 
ATOM     20  C   UNL     1       2.339  -4.948  -6.230  1.00  0.00     0.012 C 
ENDBRANCH  16  18
ENDBRANCH  10  13
ENDBRANCH   6   7
ENDBRANCH   4   6
ENDBRANCH   1   2
BRANCH   1  21
ATOM     21  C   UNL     1       3.801   3.135  -3.673  1.00  0.00     0.042 C 
BRANCH  21  22
ATOM     22  C   UNL     1       3.202   3.776  -2.426  1.00  0.00     0.118 C 
BRANCH  22  23
ATOM     23  N   UNL     1       4.201   4.346  -1.533  1.00  0.00    -0.352 N 
ATOM     24  C   UNL     1       4.298   5.595  -0.976  1.00  0.00     0.251 C 
ATOM     25  H   UNL     1       4.929   3.731  -1.288  1.00  0.00     0.163 HD
ATOM     26  O   UNL     1       5.312   5.886  -0.338  1.00  0.00    -0.269 OA
BRANCH  24  27
ATOM     27  C   UNL     1       3.227   6.604  -1.137  1.00  0.00     0.039 A 
ATOM     28  C   UNL     1       3.597   7.945  -1.291  1.00  0.00     0.014 A 
ATOM     29  C   UNL     1       1.873   6.266  -1.078  1.00  0.00     0.014 A 
ATOM     30  C   UNL     1       2.618   8.932  -1.430  1.00  0.00     0.010 A 
ATOM     31  C   UNL     1       0.897   7.240  -1.293  1.00  0.00     0.010 A 
ATOM     32  C   UNL     1       1.258   8.585  -1.454  1.00  0.00    -0.014 A 
BRANCH  32  33
ATOM     33  C   UNL     1       0.211   9.628  -1.614  1.00  0.00     0.031 A 
ATOM     34  C   UNL     1      -0.758   9.911  -0.497  1.00  0.00     0.074 A 
ATOM     35  C   UNL     1       0.111  10.303  -2.775  1.00  0.00     0.049 A 
ATOM     36  N   UNL     1      -1.739  10.778  -0.453  1.00  0.00    -0.248 NA
ATOM     37  C   UNL     1      -0.625   9.095   0.720  1.00  0.00     0.031 C 
ATOM     38  C   UNL     1       0.950  10.088  -3.955  1.00  0.00     0.029 A 
ATOM     39  N   UNL     1      -0.744  11.308  -3.153  1.00  0.00    -0.354 N 
ATOM     40  C   UNL     1      -2.345  10.601   0.785  1.00  0.00     0.074 A 
ATOM     41  C   UNL     1      -1.657   9.510   1.439  1.00  0.00     0.031 C 
ATOM     42  C   UNL     1       0.588  10.956  -4.914  1.00  0.00     0.029 A 
ATOM     43  C   UNL     1      -0.520  11.770  -4.427  1.00  0.00     0.049 A 
ATOM     44  H   UNL     1      -1.450  11.663  -2.567  1.00  0.00     0.167 HD
ATOM     45  C   UNL     1      -3.366  11.299   1.339  1.00  0.00     0.037 A 
ATOM     46  C   UNL     1      -1.133  12.748  -5.120  1.00  0.00     0.037 A 
ATOM     47  C   UNL     1      -4.032  12.405   0.704  1.00  0.00     0.049 A 
ATOM     48  C   UNL     1      -2.237  13.534  -4.469  1.00  0.00     0.074 A 
ATOM     49  C   UNL     1      -5.044  13.207   1.203  1.00  0.00     0.029 A 
ATOM     50  N   UNL     1      -3.747  12.870  -0.571  1.00  0.00    -0.354 N 
ATOM     51  N   UNL     1      -2.755  13.399  -3.273  1.00  0.00    -0.248 NA
ATOM     52  C   UNL     1      -2.828  14.623  -5.261  1.00  0.00     0.031 C 
ATOM     53  C   UNL     1      -5.391  14.140   0.219  1.00  0.00     0.029 A 
ATOM     54  C   UNL     1      -4.567  13.944  -0.877  1.00  0.00     0.049 A 
ATOM     55  H   UNL     1      -3.063  12.493  -1.170  1.00  0.00     0.167 HD
ATOM     56  C   UNL     1      -3.707  14.403  -3.155  1.00  0.00     0.074 A 
ATOM     57  C   UNL     1      -3.687  15.147  -4.398  1.00  0.00     0.031 C 
ATOM     58  C   UNL     1      -4.524  14.685  -2.111  1.00  0.00     0.037 A 
BRANCH  45  59
ATOM     59  C   UNL     1      -3.815  10.888   2.711  1.00  0.00     0.057 A 
ATOM     60  C   UNL     1      -3.028  11.125   3.846  1.00  0.00     0.134 A 
ATOM     61  C   UNL     1      -5.057  10.270   2.904  1.00  0.00     0.134 A 
ATOM     62  F   UNL     1      -1.822  11.701   3.728  1.00  0.00    -0.206 F 
ATOM     63  C   UNL     1      -3.447  10.737   5.119  1.00  0.00     0.040 A 
ATOM     64  C   UNL     1      -5.499   9.901   4.176  1.00  0.00     0.040 A 
ATOM     65  F   UNL     1      -5.863  10.019   1.861  1.00  0.00    -0.206 F 
ATOM     66  C   UNL     1      -4.689  10.128   5.287  1.00  0.00     0.006 A 
ENDBRANCH  45  59
BRANCH  46  67
ATOM     67  C   UNL     1      -0.683  13.077  -6.495  1.00  0.00     0.057 A 
ATOM     68  C   UNL     1       0.017  14.261  -6.759  1.00  0.00     0.134 A 
ATOM     69  C   UNL     1      -0.948  12.228  -7.574  1.00  0.00     0.134 A 
ATOM     70  F   UNL     1       0.283  15.123  -5.767  1.00  0.00    -0.206 F 
ATOM     71  C   UNL     1       0.418  14.599  -8.052  1.00  0.00     0.040 A 
ATOM     72  C   UNL     1      -0.532  12.543  -8.869  1.00  0.00     0.040 A 
ATOM     73  F   UNL     1      -1.607  11.076  -7.384  1.00  0.00    -0.206 F 
ATOM     74  C   UNL     1       0.147  13.736  -9.111  1.00  0.00     0.006 A 
ENDBRANCH  46  67
BRANCH  58  75
ATOM     75  C   UNL     1      -5.425  15.876  -2.251  1.00  0.00     0.057 A 
ATOM     76  C   UNL     1      -6.545  15.865  -3.091  1.00  0.00     0.134 A 
ATOM     77  C   UNL     1      -5.175  17.044  -1.519  1.00  0.00     0.134 A 
ATOM     78  F   UNL     1      -6.832  14.781  -3.827  1.00  0.00    -0.206 F 
ATOM     79  C   UNL     1      -7.369  16.985  -3.221  1.00  0.00     0.040 A 
ATOM     80  C   UNL     1      -6.005  18.161  -1.623  1.00  0.00     0.040 A 
ATOM     81  F   UNL     1      -4.123  17.118  -0.690  1.00  0.00    -0.206 F 
ATOM     82  C   UNL     1      -7.101  18.136  -2.482  1.00  0.00     0.006 A 
ENDBRANCH  58  75
ENDBRANCH  32  33
ENDBRANCH  24  27
ENDBRANCH  22  23
ENDBRANCH  21  22
ENDBRANCH   1  21
TORSDOF 13
