REMARK SMILES Cc1cc(Cl)cc2c1O[C@H](C(F)(F)F)C(C(=O)NCCCNC(=O)c1ccc(-c3c4nc(c(-c5c(F)cccc5F)c5ccc([nH]5)c(-c5c(F)cccc5F)c5nc(c(-c6c(F)cccc6F)c6ccc3[nH]6)C=C5)C=C4)cc1)=C2
REMARK SMILES IDX 20 1 19 2 18 3 16 4 17 5 15 7 1 8 2 9 3 10 8 11 4 12 7 13
REMARK SMILES IDX 9 14 5 15 6 16 79 17 10 18 11 19 12 20 13 21 14 22 21 23
REMARK SMILES IDX 22 24 23 25 24 27 25 28 26 29 78 30 27 31 77 32 28 33 29 34
REMARK SMILES IDX 30 35 71 36 31 37 76 38 70 39 72 40 32 41 75 42 69 43 68 44
REMARK SMILES IDX 33 46 59 47 42 48 58 49 43 50 46 51 57 52 73 53 44 54 45 55
REMARK SMILES IDX 56 57 74 58 47 59 34 60 35 61 40 62 36 63 37 64 39 65 41 66
REMARK SMILES IDX 38 67 60 68 61 69 66 70 62 71 63 72 65 73 67 74 64 75 48 76
REMARK SMILES IDX 49 77 54 78 50 79 51 80 53 81 55 82 52 83
REMARK H PARENT 18 6 22 26 72 45 46 56
REMARK Flexibility Score: inf
ROOT
ATOM      1  C   UNL     1      -3.643  -2.908  -5.217  1.00  0.00     0.042 C 
ENDROOT
BRANCH   1   2
ATOM      2  C   UNL     1      -2.337  -2.311  -5.715  1.00  0.00     0.118 C 
BRANCH   2   3
ATOM      3  N   UNL     1      -2.499  -0.926  -6.134  1.00  0.00    -0.352 N 
ATOM      4  C   UNL     1      -2.139   0.297  -5.682  1.00  0.00     0.251 C 
ATOM      5  O   UNL     1      -2.507   1.246  -6.380  1.00  0.00    -0.270 OA
ATOM      6  H   UNL     1      -3.010  -0.863  -6.973  1.00  0.00     0.163 HD
BRANCH   4   7
ATOM      7  C   UNL     1      -1.355   0.551  -4.439  1.00  0.00     0.067 C 
ATOM      8  C   UNL     1       1.084   0.300   0.095  1.00  0.00     0.048 C 
ATOM      9  C   UNL     1       0.683   1.389  -0.860  1.00  0.00    -0.007 A 
ATOM     10  C   UNL     1       1.073   2.709  -0.596  1.00  0.00     0.027 A 
ATOM     11  C   UNL     1      -0.050   1.129  -2.025  1.00  0.00     0.131 A 
ATOM     12  C   UNL     1       0.728   3.735  -1.477  1.00  0.00     0.042 A 
ATOM     13  C   UNL     1      -0.393   2.155  -2.914  1.00  0.00     0.019 A 
ATOM     14  O   UNL     1      -0.462  -0.158  -2.228  1.00  0.00    -0.475 OA
ATOM     15  Cl  UNL     1       1.206   5.351  -1.126  1.00  0.00    -0.084 Cl
ATOM     16  C   UNL     1      -0.002   3.466  -2.633  1.00  0.00     0.032 A 
ATOM     17  C   UNL     1      -1.176   1.842  -4.104  1.00  0.00     0.025 C 
ATOM     18  C   UNL     1      -0.755  -0.534  -3.595  1.00  0.00     0.314 C 
BRANCH  18  19
ATOM     19  C   UNL     1       0.499  -1.166  -4.229  1.00  0.00     0.429 C 
ATOM     20  F   UNL     1       0.757  -2.370  -3.658  1.00  0.00    -0.167 F 
ATOM     21  F   UNL     1       0.355  -1.397  -5.556  1.00  0.00    -0.167 F 
ATOM     22  F   UNL     1       1.603  -0.402  -4.082  1.00  0.00    -0.167 F 
ENDBRANCH  18  19
ENDBRANCH   4   7
ENDBRANCH   2   3
ENDBRANCH   1   2
BRANCH   1  23
ATOM     23  C   UNL     1      -4.561  -3.301  -6.365  1.00  0.00     0.118 C 
BRANCH  23  24
ATOM     24  N   UNL     1      -3.977  -4.364  -7.183  1.00  0.00    -0.352 N 
ATOM     25  C   UNL     1      -4.278  -5.699  -7.243  1.00  0.00     0.251 C 
ATOM     26  H   UNL     1      -3.254  -4.074  -7.785  1.00  0.00     0.163 HD
ATOM     27  O   UNL     1      -3.490  -6.482  -7.772  1.00  0.00    -0.269 OA
BRANCH  25  28
ATOM     28  C   UNL     1      -5.543  -6.196  -6.675  1.00  0.00     0.039 A 
ATOM     29  C   UNL     1      -5.562  -7.417  -5.998  1.00  0.00     0.014 A 
ATOM     30  C   UNL     1      -6.720  -5.461  -6.836  1.00  0.00     0.014 A 
ATOM     31  C   UNL     1      -6.753  -7.868  -5.429  1.00  0.00     0.010 A 
ATOM     32  C   UNL     1      -7.876  -5.855  -6.180  1.00  0.00     0.010 A 
ATOM     33  C   UNL     1      -7.910  -7.073  -5.488  1.00  0.00    -0.014 A 
BRANCH  33  34
ATOM     34  C   UNL     1      -9.183  -7.513  -4.874  1.00  0.00     0.031 A 
ATOM     35  C   UNL     1     -10.385  -7.753  -5.744  1.00  0.00     0.074 A 
ATOM     36  C   UNL     1      -9.268  -7.643  -3.536  1.00  0.00     0.049 A 
ATOM     37  N   UNL     1     -11.603  -8.080  -5.398  1.00  0.00    -0.248 NA
ATOM     38  C   UNL     1     -10.203  -7.573  -7.195  1.00  0.00     0.031 C 
ATOM     39  C   UNL     1      -8.177  -7.396  -2.591  1.00  0.00     0.029 A 
ATOM     40  N   UNL     1     -10.320  -8.015  -2.740  1.00  0.00    -0.354 N 
ATOM     41  C   UNL     1     -12.326  -8.138  -6.582  1.00  0.00     0.074 A 
ATOM     42  C   UNL     1     -11.436  -7.740  -7.648  1.00  0.00     0.031 C 
ATOM     43  C   UNL     1      -8.606  -7.664  -1.347  1.00  0.00     0.029 A 
ATOM     44  C   UNL     1     -10.010  -8.059  -1.403  1.00  0.00     0.049 A 
ATOM     45  H   UNL     1     -11.213  -8.231  -3.094  1.00  0.00     0.167 HD
ATOM     46  C   UNL     1     -13.609  -8.526  -6.767  1.00  0.00     0.037 A 
ATOM     47  C   UNL     1     -10.774  -8.385  -0.343  1.00  0.00     0.037 A 
ATOM     48  C   UNL     1     -14.479  -8.948  -5.704  1.00  0.00     0.049 A 
ATOM     49  C   UNL     1     -12.205  -8.784  -0.573  1.00  0.00     0.074 A 
ATOM     50  C   UNL     1     -15.781  -9.405  -5.790  1.00  0.00     0.029 A 
ATOM     51  N   UNL     1     -14.131  -8.969  -4.362  1.00  0.00    -0.354 N 
ATOM     52  N   UNL     1     -12.861  -8.889  -1.703  1.00  0.00    -0.248 NA
ATOM     53  C   UNL     1     -13.002  -9.110   0.618  1.00  0.00     0.031 C 
ATOM     54  C   UNL     1     -16.238  -9.657  -4.494  1.00  0.00     0.029 A 
ATOM     55  C   UNL     1     -15.204  -9.408  -3.605  1.00  0.00     0.049 A 
ATOM     56  H   UNL     1     -13.252  -8.710  -4.001  1.00  0.00     0.167 HD
ATOM     57  C   UNL     1     -14.139  -9.313  -1.364  1.00  0.00     0.074 A 
ATOM     58  C   UNL     1     -14.161  -9.463   0.077  1.00  0.00     0.031 C 
ATOM     59  C   UNL     1     -15.201  -9.554  -2.172  1.00  0.00     0.037 A 
BRANCH  46  60
ATOM     60  C   UNL     1     -14.138  -8.535  -8.172  1.00  0.00     0.057 A 
ATOM     61  C   UNL     1     -13.693  -9.467  -9.118  1.00  0.00     0.134 A 
ATOM     62  C   UNL     1     -15.137  -7.638  -8.569  1.00  0.00     0.134 A 
ATOM     63  F   UNL     1     -12.726 -10.344  -8.807  1.00  0.00    -0.206 F 
ATOM     64  C   UNL     1     -14.209  -9.496 -10.415  1.00  0.00     0.040 A 
ATOM     65  C   UNL     1     -15.682  -7.676  -9.854  1.00  0.00     0.040 A 
ATOM     66  F   UNL     1     -15.611  -6.721  -7.712  1.00  0.00    -0.206 F 
ATOM     67  C   UNL     1     -15.215  -8.605 -10.782  1.00  0.00     0.006 A 
ENDBRANCH  46  60
BRANCH  47  68
ATOM     68  C   UNL     1     -10.186  -8.385   1.020  1.00  0.00     0.057 A 
ATOM     69  C   UNL     1      -9.971  -9.585   1.708  1.00  0.00     0.134 A 
ATOM     70  C   UNL     1      -9.805  -7.199   1.659  1.00  0.00     0.134 A 
ATOM     71  F   UNL     1     -10.329 -10.753   1.155  1.00  0.00    -0.206 F 
ATOM     72  C   UNL     1      -9.409  -9.606   2.986  1.00  0.00     0.040 A 
ATOM     73  C   UNL     1      -9.218  -7.207   2.926  1.00  0.00     0.040 A 
ATOM     74  F   UNL     1      -9.975  -6.016   1.051  1.00  0.00    -0.206 F 
ATOM     75  C   UNL     1      -9.024  -8.414   3.595  1.00  0.00     0.006 A 
ENDBRANCH  47  68
BRANCH  59  76
ATOM     76  C   UNL     1     -16.474 -10.015  -1.526  1.00  0.00     0.057 A 
ATOM     77  C   UNL     1     -17.279  -9.141  -0.785  1.00  0.00     0.134 A 
ATOM     78  C   UNL     1     -16.943 -11.320  -1.724  1.00  0.00     0.134 A 
ATOM     79  F   UNL     1     -16.881  -7.881  -0.552  1.00  0.00    -0.206 F 
ATOM     80  C   UNL     1     -18.502  -9.553  -0.254  1.00  0.00     0.040 A 
ATOM     81  C   UNL     1     -18.177 -11.735  -1.222  1.00  0.00     0.040 A 
ATOM     82  F   UNL     1     -16.226 -12.202  -2.436  1.00  0.00    -0.206 F 
ATOM     83  C   UNL     1     -18.959 -10.850  -0.483  1.00  0.00     0.006 A 
ENDBRANCH  59  76
ENDBRANCH  33  34
ENDBRANCH  25  28
ENDBRANCH  23  24
ENDBRANCH   1  23
TORSDOF 11
