REMARK SMILES COC[C@@H](C)N(C)C(=O)N[C@@H]1C=C[C@@H](C(=O)NCCCNC(=O)c2ccc(-c3c4nc(c(-c5c(F)cccc5F)c5ccc([nH]5)c(-c5c(F)cccc5F)c5nc(c(-c6c(F)cccc6F)c6ccc3[nH]6)C=C5)C=C4)cc2)C1
REMARK SMILES IDX 15 1 16 2 17 3 14 5 11 6 12 7 78 8 13 9 10 10 8 11 9 12 6 14
REMARK SMILES IDX 7 15 4 16 5 17 3 18 2 19 1 20 18 21 19 22 20 23 21 24 22 25
REMARK SMILES IDX 23 27 24 28 25 29 77 30 26 31 76 32 27 33 28 34 29 35 70 36
REMARK SMILES IDX 30 37 75 38 69 39 71 40 31 41 74 42 68 43 67 44 32 46 58 47
REMARK SMILES IDX 41 48 57 49 42 50 45 51 56 52 72 53 43 54 44 55 55 57 73 58
REMARK SMILES IDX 46 59 33 60 34 61 39 62 35 63 36 64 38 65 40 66 37 67 59 68
REMARK SMILES IDX 60 69 65 70 61 71 62 72 64 73 66 74 63 75 47 76 48 77 53 78
REMARK SMILES IDX 49 79 50 80 52 81 54 82 51 83
REMARK H PARENT 17 4 10 13 21 26 71 45 45 56
REMARK Flexibility Score: inf
ROOT
ATOM      1  C   UNL     1       3.382  -2.169  10.075  1.00  0.00     0.227 C 
ATOM      2  O   UNL     1       3.270  -1.861  11.267  1.00  0.00    -0.274 OA
ATOM      3  N   UNL     1       4.645  -2.385   9.622  1.00  0.00    -0.356 N 
ATOM      4  H   UNL     1       5.343  -2.251  10.303  1.00  0.00     0.163 HD
ENDROOT
BRANCH   1   5
ATOM      5  C   UNL     1       2.134  -2.299   9.199  1.00  0.00     0.103 C 
ATOM      6  C   UNL     1       2.021  -2.305   6.735  1.00  0.00     0.107 C 
ATOM      7  C   UNL     1       1.844  -3.671   7.318  1.00  0.00    -0.006 C 
ATOM      8  C   UNL     1       2.078  -1.385   7.969  1.00  0.00     0.047 C 
ATOM      9  C   UNL     1       1.929  -3.675   8.652  1.00  0.00    -0.016 C 
BRANCH   6  10
ATOM     10  N   UNL     1       0.902  -2.036   5.871  1.00  0.00    -0.332 N 
ATOM     11  C   UNL     1       0.580  -2.347   4.602  1.00  0.00     0.317 C 
ATOM     12  O   UNL     1      -0.563  -2.020   4.268  1.00  0.00    -0.249 OA
ATOM     13  H   UNL     1       0.208  -1.496   6.313  1.00  0.00     0.165 HD
BRANCH  11  14
ATOM     14  N   UNL     1       1.438  -2.982   3.738  1.00  0.00    -0.323 N 
ATOM     15  C   UNL     1       2.846  -3.263   3.969  1.00  0.00     0.149 C 
BRANCH  14  16
ATOM     16  C   UNL     1       0.953  -3.263   2.361  1.00  0.00     0.109 C 
ATOM     17  C   UNL     1       0.780  -1.957   1.579  1.00  0.00     0.033 C 
BRANCH  16  18
ATOM     18  C   UNL     1      -0.293  -4.182   2.342  1.00  0.00     0.184 C 
BRANCH  18  19
ATOM     19  O   UNL     1      -0.488  -4.847   1.088  1.00  0.00    -0.383 OA
ATOM     20  C   UNL     1      -1.219  -4.081   0.141  1.00  0.00     0.194 C 
ENDBRANCH  18  19
ENDBRANCH  16  18
ENDBRANCH  14  16
ENDBRANCH  11  14
ENDBRANCH   6  10
ENDBRANCH   1   5
BRANCH   3  21
ATOM     21  C   UNL     1       5.157  -2.774   8.324  1.00  0.00     0.117 C 
BRANCH  21  22
ATOM     22  C   UNL     1       5.916  -1.640   7.648  1.00  0.00     0.042 C 
BRANCH  22  23
ATOM     23  C   UNL     1       7.221  -1.290   8.351  1.00  0.00     0.118 C 
BRANCH  23  24
ATOM     24  N   UNL     1       8.195  -2.373   8.288  1.00  0.00    -0.352 N 
ATOM     25  C   UNL     1       9.472  -2.377   7.780  1.00  0.00     0.251 C 
ATOM     26  H   UNL     1       7.893  -3.229   8.666  1.00  0.00     0.163 HD
ATOM     27  O   UNL     1      10.072  -3.435   7.640  1.00  0.00    -0.269 OA
BRANCH  25  28
ATOM     28  C   UNL     1      10.109  -1.104   7.384  1.00  0.00     0.039 A 
ATOM     29  C   UNL     1      10.831  -1.048   6.189  1.00  0.00     0.014 A 
ATOM     30  C   UNL     1       9.996   0.029   8.192  1.00  0.00     0.014 A 
ATOM     31  C   UNL     1      11.383   0.166   5.772  1.00  0.00     0.010 A 
ATOM     32  C   UNL     1      10.467   1.253   7.733  1.00  0.00     0.010 A 
ATOM     33  C   UNL     1      11.174   1.333   6.523  1.00  0.00    -0.014 A 
BRANCH  33  34
ATOM     34  C   UNL     1      11.702   2.650   6.089  1.00  0.00     0.031 A 
ATOM     35  C   UNL     1      12.694   3.375   6.956  1.00  0.00     0.074 A 
ATOM     36  C   UNL     1      11.226   3.232   4.971  1.00  0.00     0.049 A 
ATOM     37  N   UNL     1      13.168   4.588   6.837  1.00  0.00    -0.248 NA
ATOM     38  C   UNL     1      13.195   2.647   8.134  1.00  0.00     0.031 C 
ATOM     39  C   UNL     1      10.238   2.647   4.063  1.00  0.00     0.029 A 
ATOM     40  N   UNL     1      11.497   4.460   4.420  1.00  0.00    -0.354 N 
ATOM     41  C   UNL     1      14.000   4.776   7.934  1.00  0.00     0.074 A 
ATOM     42  C   UNL     1      13.923   3.575   8.735  1.00  0.00     0.031 C 
ATOM     43  C   UNL     1       9.998   3.509   3.061  1.00  0.00     0.029 A 
ATOM     44  C   UNL     1      10.775   4.725   3.282  1.00  0.00     0.049 A 
ATOM     45  H   UNL     1      12.148   5.091   4.804  1.00  0.00     0.167 HD
ATOM     46  C   UNL     1      14.776   5.845   8.234  1.00  0.00     0.037 A 
ATOM     47  C   UNL     1      10.731   5.830   2.514  1.00  0.00     0.037 A 
ATOM     48  C   UNL     1      14.868   7.027   7.420  1.00  0.00     0.049 A 
ATOM     49  C   UNL     1      11.586   7.013   2.880  1.00  0.00     0.074 A 
ATOM     50  C   UNL     1      15.663   8.143   7.609  1.00  0.00     0.029 A 
ATOM     51  N   UNL     1      14.138   7.246   6.261  1.00  0.00    -0.354 N 
ATOM     52  N   UNL     1      12.409   7.158   3.890  1.00  0.00    -0.248 NA
ATOM     53  C   UNL     1      11.510   8.185   1.997  1.00  0.00     0.031 C 
ATOM     54  C   UNL     1      15.377   9.060   6.593  1.00  0.00     0.029 A 
ATOM     55  C   UNL     1      14.450   8.489   5.736  1.00  0.00     0.049 A 
ATOM     56  H   UNL     1      13.494   6.612   5.870  1.00  0.00     0.167 HD
ATOM     57  C   UNL     1      12.977   8.417   3.742  1.00  0.00     0.074 A 
ATOM     58  C   UNL     1      12.408   8.993   2.541  1.00  0.00     0.031 C 
ATOM     59  C   UNL     1      13.890   9.040   4.528  1.00  0.00     0.037 A 
BRANCH  46  60
ATOM     60  C   UNL     1      15.583   5.781   9.499  1.00  0.00     0.057 A 
ATOM     61  C   UNL     1      16.666   4.904   9.645  1.00  0.00     0.134 A 
ATOM     62  C   UNL     1      15.292   6.628  10.576  1.00  0.00     0.134 A 
ATOM     63  F   UNL     1      16.992   4.056   8.657  1.00  0.00    -0.206 F 
ATOM     64  C   UNL     1      17.410   4.848  10.825  1.00  0.00     0.040 A 
ATOM     65  C   UNL     1      16.047   6.604  11.750  1.00  0.00     0.040 A 
ATOM     66  F   UNL     1      14.273   7.497  10.504  1.00  0.00    -0.206 F 
ATOM     67  C   UNL     1      17.105   5.707  11.879  1.00  0.00     0.006 A 
ENDBRANCH  46  60
BRANCH  47  68
ATOM     68  C   UNL     1       9.858   5.870   1.312  1.00  0.00     0.057 A 
ATOM     69  C   UNL     1      10.405   5.898   0.024  1.00  0.00     0.134 A 
ATOM     70  C   UNL     1       8.462   5.898   1.419  1.00  0.00     0.134 A 
ATOM     71  F   UNL     1      11.736   5.891  -0.144  1.00  0.00    -0.206 F 
ATOM     72  C   UNL     1       9.599   5.978  -1.113  1.00  0.00     0.040 A 
ATOM     73  C   UNL     1       7.643   5.949   0.290  1.00  0.00     0.040 A 
ATOM     74  F   UNL     1       7.874   5.864   2.624  1.00  0.00    -0.206 F 
ATOM     75  C   UNL     1       8.212   5.999  -0.981  1.00  0.00     0.006 A 
ENDBRANCH  47  68
BRANCH  59  76
ATOM     76  C   UNL     1      14.379  10.389   4.086  1.00  0.00     0.057 A 
ATOM     77  C   UNL     1      13.575  11.533   4.151  1.00  0.00     0.134 A 
ATOM     78  C   UNL     1      15.698  10.550   3.638  1.00  0.00     0.134 A 
ATOM     79  F   UNL     1      12.300  11.445   4.559  1.00  0.00    -0.206 F 
ATOM     80  C   UNL     1      14.057  12.785   3.768  1.00  0.00     0.040 A 
ATOM     81  C   UNL     1      16.200  11.801   3.281  1.00  0.00     0.040 A 
ATOM     82  F   UNL     1      16.525   9.496   3.561  1.00  0.00    -0.206 F 
ATOM     83  C   UNL     1      15.377  12.923   3.340  1.00  0.00     0.006 A 
ENDBRANCH  59  76
ENDBRANCH  33  34
ENDBRANCH  25  28
ENDBRANCH  23  24
ENDBRANCH  22  23
ENDBRANCH  21  22
ENDBRANCH   3  21
TORSDOF 15
