REMARK SMILES C[C@@H]1CC[C@H](C)c2nc3cc(F)c(Cl)cc3c(C(=O)NCCCNC(=O)c3ccc(-c4c5nc(c(-c6c(F)cccc6F)c6ccc([nH]6)c(-c6c(F)cccc6F)c6nc(c(-c7c(F)cccc7F)c7ccc4[nH]7)C=C6)C=C5)cc3)c21
REMARK SMILES IDX 23 1 22 2 21 3 20 4 18 5 19 6 17 8 1 9 2 10 3 11 81 12 4 13
REMARK SMILES IDX 7 14 5 15 8 16 16 17 6 18 9 19 15 20 10 21 13 22 11 23 14 24
REMARK SMILES IDX 12 25 24 26 25 27 26 29 27 30 28 31 80 32 29 33 79 34 30 35
REMARK SMILES IDX 31 36 32 37 73 38 33 39 78 40 72 41 74 42 34 43 77 44 71 45
REMARK SMILES IDX 70 46 35 48 61 49 44 50 60 51 45 52 48 53 59 54 75 55 46 56
REMARK SMILES IDX 47 57 58 59 76 60 49 61 36 62 37 63 42 64 38 65 39 66 41 67
REMARK SMILES IDX 43 68 40 69 62 70 63 71 68 72 64 73 65 74 67 75 69 76 66 77
REMARK SMILES IDX 50 78 51 79 56 80 52 81 53 82 55 83 57 84 54 85
REMARK H PARENT 20 7 24 28 74 47 48 58
REMARK Flexibility Score: inf
ROOT
ATOM      1  C   UNL     1       6.016   5.159   2.523  1.00  0.00     0.118 C 
ENDROOT
BRANCH   1   2
ATOM      2  C   UNL     1       5.026   5.381   1.391  1.00  0.00     0.042 C 
BRANCH   2   3
ATOM      3  C   UNL     1       4.772   4.147   0.510  1.00  0.00     0.118 C 
BRANCH   3   4
ATOM      4  N   UNL     1       3.810   3.272   1.168  1.00  0.00    -0.352 N 
ATOM      5  C   UNL     1       2.434   3.227   1.212  1.00  0.00     0.252 C 
ATOM      6  O   UNL     1       1.968   2.813   2.274  1.00  0.00    -0.269 OA
ATOM      7  H   UNL     1       4.236   2.558   1.695  1.00  0.00     0.163 HD
BRANCH   5   8
ATOM      8  C   UNL     1       1.507   3.522   0.059  1.00  0.00     0.054 A 
ATOM      9  C   UNL     1       1.175   0.183   0.013  1.00  0.00     0.013 C 
ATOM     10  C   UNL     1       0.246   1.282   0.546  1.00  0.00     0.019 C 
ATOM     11  C   UNL     1      -1.223   0.823   0.521  1.00  0.00     0.009 C 
ATOM     12  C   UNL     1       0.469   2.581  -0.226  1.00  0.00    -0.010 A 
ATOM     13  C   UNL     1      -1.764   0.759  -0.895  1.00  0.00     0.010 C 
ATOM     14  C   UNL     1      -0.368   2.857  -1.316  1.00  0.00     0.048 A 
ATOM     15  C   UNL     1      -1.688   2.138  -1.547  1.00  0.00     0.035 C 
ATOM     16  N   UNL     1      -0.147   3.891  -2.156  1.00  0.00    -0.252 NA
ATOM     17  C   UNL     1       1.585   4.718  -0.721  1.00  0.00     0.015 A 
ATOM     18  C   UNL     1      -2.054   2.030  -3.031  1.00  0.00     0.014 C 
ATOM     19  C   UNL     1       0.800   4.779  -1.884  1.00  0.00     0.074 A 
ATOM     20  C   UNL     1       2.328   5.882  -0.423  1.00  0.00     0.034 A 
ATOM     21  C   UNL     1       0.947   5.819  -2.789  1.00  0.00     0.069 A 
ATOM     22  C   UNL     1       2.494   6.921  -1.338  1.00  0.00     0.077 A 
ATOM     23  C   UNL     1       1.822   6.864  -2.543  1.00  0.00     0.143 A 
ATOM     24  Cl  UNL     1       3.532   8.236  -0.958  1.00  0.00    -0.081 Cl
ATOM     25  F   UNL     1       1.964   7.829  -3.461  1.00  0.00    -0.205 F 
ENDBRANCH   5   8
ENDBRANCH   3   4
ENDBRANCH   2   3
ENDBRANCH   1   2
BRANCH   1  26
ATOM     26  N   UNL     1       7.396   5.305   2.088  1.00  0.00    -0.352 N 
ATOM     27  C   UNL     1       8.287   6.339   2.245  1.00  0.00     0.251 C 
ATOM     28  H   UNL     1       7.753   4.530   1.597  1.00  0.00     0.163 HD
ATOM     29  O   UNL     1       9.331   6.324   1.586  1.00  0.00    -0.269 OA
BRANCH  27  30
ATOM     30  C   UNL     1       8.024   7.476   3.160  1.00  0.00     0.039 A 
ATOM     31  C   UNL     1       7.345   7.306   4.364  1.00  0.00     0.014 A 
ATOM     32  C   UNL     1       8.520   8.747   2.837  1.00  0.00     0.014 A 
ATOM     33  C   UNL     1       6.985   8.412   5.128  1.00  0.00     0.010 A 
ATOM     34  C   UNL     1       8.276   9.840   3.680  1.00  0.00     0.010 A 
ATOM     35  C   UNL     1       7.462   9.693   4.811  1.00  0.00    -0.014 A 
BRANCH  35  36
ATOM     36  C   UNL     1       7.118  10.831   5.710  1.00  0.00     0.031 A 
ATOM     37  C   UNL     1       6.346  12.021   5.209  1.00  0.00     0.074 A 
ATOM     38  C   UNL     1       7.447  10.751   7.016  1.00  0.00     0.049 A 
ATOM     39  N   UNL     1       5.879  13.042   5.885  1.00  0.00    -0.248 NA
ATOM     40  C   UNL     1       6.072  12.088   3.766  1.00  0.00     0.031 C 
ATOM     41  C   UNL     1       8.216   9.660   7.620  1.00  0.00     0.029 A 
ATOM     42  N   UNL     1       7.146  11.568   8.078  1.00  0.00    -0.354 N 
ATOM     43  C   UNL     1       5.277  13.876   4.952  1.00  0.00     0.074 A 
ATOM     44  C   UNL     1       5.471  13.265   3.656  1.00  0.00     0.031 C 
ATOM     45  C   UNL     1       8.251   9.827   8.948  1.00  0.00     0.029 A 
ATOM     46  C   UNL     1       7.576  11.076   9.287  1.00  0.00     0.049 A 
ATOM     47  H   UNL     1       6.669  12.424   7.982  1.00  0.00     0.167 HD
ATOM     48  C   UNL     1       4.610  15.037   5.159  1.00  0.00     0.037 A 
ATOM     49  C   UNL     1       7.450  11.567  10.535  1.00  0.00     0.037 A 
ATOM     50  C   UNL     1       4.397  15.626   6.455  1.00  0.00     0.049 A 
ATOM     51  C   UNL     1       6.722  12.862  10.740  1.00  0.00     0.074 A 
ATOM     52  C   UNL     1       3.688  16.772   6.771  1.00  0.00     0.029 A 
ATOM     53  N   UNL     1       4.897  15.123   7.647  1.00  0.00    -0.354 N 
ATOM     54  N   UNL     1       6.115  13.611   9.852  1.00  0.00    -0.248 NA
ATOM     55  C   UNL     1       6.667  13.388  12.111  1.00  0.00     0.031 C 
ATOM     56  C   UNL     1       3.811  16.995   8.145  1.00  0.00     0.029 A 
ATOM     57  C   UNL     1       4.544  15.956   8.696  1.00  0.00     0.049 A 
ATOM     58  H   UNL     1       5.425  14.296   7.735  1.00  0.00     0.167 HD
ATOM     59  C   UNL     1       5.599  14.691  10.553  1.00  0.00     0.074 A 
ATOM     60  C   UNL     1       5.951  14.494  11.944  1.00  0.00     0.031 C 
ATOM     61  C   UNL     1       4.899  15.749  10.079  1.00  0.00     0.037 A 
BRANCH  48  62
ATOM     62  C   UNL     1       4.070  15.759   3.956  1.00  0.00     0.057 A 
ATOM     63  C   UNL     1       2.994  15.261   3.209  1.00  0.00     0.134 A 
ATOM     64  C   UNL     1       4.603  16.996   3.569  1.00  0.00     0.134 A 
ATOM     65  F   UNL     1       2.438  14.080   3.521  1.00  0.00    -0.206 F 
ATOM     66  C   UNL     1       2.487  15.952   2.107  1.00  0.00     0.040 A 
ATOM     67  C   UNL     1       4.086  17.710   2.487  1.00  0.00     0.040 A 
ATOM     68  F   UNL     1       5.626  17.539   4.246  1.00  0.00    -0.206 F 
ATOM     69  C   UNL     1       3.029  17.184   1.747  1.00  0.00     0.006 A 
ENDBRANCH  48  62
BRANCH  49  70
ATOM     70  C   UNL     1       8.021  10.800  11.671  1.00  0.00     0.057 A 
ATOM     71  C   UNL     1       7.197  10.130  12.580  1.00  0.00     0.134 A 
ATOM     72  C   UNL     1       9.406  10.643  11.819  1.00  0.00     0.134 A 
ATOM     73  F   UNL     1       5.864  10.251  12.499  1.00  0.00    -0.206 F 
ATOM     74  C   UNL     1       7.727   9.318  13.585  1.00  0.00     0.040 A 
ATOM     75  C   UNL     1       9.949   9.814  12.801  1.00  0.00     0.040 A 
ATOM     76  F   UNL     1      10.250  11.251  10.972  1.00  0.00    -0.206 F 
ATOM     77  C   UNL     1       9.107   9.147  13.687  1.00  0.00     0.006 A 
ENDBRANCH  49  70
BRANCH  61  78
ATOM     78  C   UNL     1       4.448  16.790  11.060  1.00  0.00     0.057 A 
ATOM     79  C   UNL     1       5.340  17.727  11.595  1.00  0.00     0.134 A 
ATOM     80  C   UNL     1       3.089  16.937  11.368  1.00  0.00     0.134 A 
ATOM     81  F   UNL     1       6.654  17.635  11.346  1.00  0.00    -0.206 F 
ATOM     82  C   UNL     1       4.894  18.779  12.397  1.00  0.00     0.040 A 
ATOM     83  C   UNL     1       2.629  17.998  12.148  1.00  0.00     0.040 A 
ATOM     84  F   UNL     1       2.183  16.077  10.877  1.00  0.00    -0.206 F 
ATOM     85  C   UNL     1       3.533  18.925  12.662  1.00  0.00     0.006 A 
ENDBRANCH  61  78
ENDBRANCH  35  36
ENDBRANCH  27  30
ENDBRANCH   1  26
TORSDOF 10
