REMARK SMILES O=C(NCCCNC(=O)c1ccccc1Nc1cccc(S(F)(F)(F)(F)F)c1)c1ccc(-c2c3nc(c(-c4c(F)cccc4F)c4ccc([nH]4)c(-c4c(F)cccc4F)c4nc(c(-c5c(F)cccc5F)c5ccc2[nH]5)C=C4)C=C3)cc1
REMARK SMILES IDX 5 1 4 2 3 3 1 4 2 5 29 7 30 8 82 9 31 10 81 11 32 12 33 13
REMARK SMILES IDX 34 14 75 15 35 16 80 17 74 18 76 19 36 20 79 21 73 22 72 23
REMARK SMILES IDX 37 25 63 26 46 27 62 28 47 29 50 30 61 31 77 32 48 33 49 34
REMARK SMILES IDX 60 36 78 37 51 38 38 39 39 40 44 41 40 42 41 43 43 44 45 45
REMARK SMILES IDX 42 46 64 47 65 48 70 49 66 50 67 51 69 52 71 53 68 54 52 55
REMARK SMILES IDX 53 56 58 57 54 58 55 59 57 60 59 61 56 62 6 63 7 64 8 65
REMARK SMILES IDX 9 67 10 68 11 69 15 70 12 71 14 72 13 73 16 74 17 76 18 77
REMARK SMILES IDX 28 78 19 79 21 80 20 81 22 82 23 83 24 84 25 85 26 86 27 87
REMARK H PARENT 3 6 76 24 50 35 7 66 16 75
REMARK Flexibility Score: inf
ROOT
ATOM      1  C   UNL     1       4.994   1.290   1.880  1.00  0.00     0.042 C 
ENDROOT
BRANCH   1   2
ATOM      2  C   UNL     1       4.488   0.041   1.177  1.00  0.00     0.118 C 
BRANCH   2   3
ATOM      3  N   UNL     1       3.018   0.041   1.177  1.00  0.00    -0.352 N 
ATOM      4  O   UNL     1       1.012   0.027  -0.096  1.00  0.00    -0.269 OA
ATOM      5  C   UNL     1       2.283   0.027  -0.096  1.00  0.00     0.251 C 
ATOM      6  H   UNL     1       2.525   0.051   2.030  1.00  0.00     0.163 HD
BRANCH   5   7
ATOM      7  C   UNL     1       3.043   0.012  -1.412  1.00  0.00     0.039 A 
ATOM      8  C   UNL     1       4.121  -0.844  -1.564  1.00  0.00     0.014 A 
ATOM      9  C   UNL     1       2.660   0.819  -2.394  1.00  0.00     0.014 A 
ATOM     10  C   UNL     1       4.918  -0.565  -2.700  1.00  0.00     0.010 A 
ATOM     11  C   UNL     1       3.416   0.940  -3.535  1.00  0.00     0.010 A 
ATOM     12  C   UNL     1       4.529   0.168  -3.726  1.00  0.00    -0.014 A 
BRANCH  12  13
ATOM     13  C   UNL     1       5.276   0.155  -5.050  1.00  0.00     0.031 A 
ATOM     14  C   UNL     1       5.812   1.359  -5.511  1.00  0.00     0.074 A 
ATOM     15  C   UNL     1       5.384  -1.049  -5.723  1.00  0.00     0.049 A 
ATOM     16  N   UNL     1       6.526   1.559  -6.620  1.00  0.00    -0.248 NA
ATOM     17  C   UNL     1       5.670   2.645  -4.814  1.00  0.00     0.031 C 
ATOM     18  C   UNL     1       4.854  -2.269  -5.260  1.00  0.00     0.029 A 
ATOM     19  N   UNL     1       6.003  -1.290  -6.930  1.00  0.00    -0.354 N 
ATOM     20  C   UNL     1       6.881   2.842  -6.714  1.00  0.00     0.074 A 
ATOM     21  C   UNL     1       6.330   3.560  -5.558  1.00  0.00     0.031 C 
ATOM     22  C   UNL     1       5.138  -3.229  -6.179  1.00  0.00     0.029 A 
ATOM     23  C   UNL     1       5.853  -2.626  -7.232  1.00  0.00     0.049 A 
ATOM     24  H   UNL     1       6.473  -0.623  -7.481  1.00  0.00     0.167 HD
ATOM     25  C   UNL     1       7.644   3.440  -7.718  1.00  0.00     0.037 A 
ATOM     26  C   UNL     1       6.303  -3.298  -8.357  1.00  0.00     0.037 A 
ATOM     27  C   UNL     1       8.132   2.759  -8.822  1.00  0.00     0.049 A 
ATOM     28  C   UNL     1       7.016  -2.687  -9.391  1.00  0.00     0.074 A 
ATOM     29  C   UNL     1       8.909   3.345  -9.840  1.00  0.00     0.029 A 
ATOM     30  N   UNL     1       7.960   1.429  -9.136  1.00  0.00    -0.354 N 
ATOM     31  N   UNL     1       7.405  -1.413  -9.465  1.00  0.00    -0.248 NA
ATOM     32  C   UNL     1       7.471  -3.381 -10.603  1.00  0.00     0.031 C 
ATOM     33  C   UNL     1       9.194   2.385 -10.759  1.00  0.00     0.029 A 
ATOM     34  C   UNL     1       8.598   1.183 -10.332  1.00  0.00     0.049 A 
ATOM     35  H   UNL     1       7.465   0.768  -8.599  1.00  0.00     0.167 HD
ATOM     36  C   UNL     1       8.083  -1.204 -10.595  1.00  0.00     0.074 A 
ATOM     37  C   UNL     1       8.129  -2.466 -11.347  1.00  0.00     0.031 C 
ATOM     38  C   UNL     1       8.669  -0.013 -11.028  1.00  0.00     0.037 A 
BRANCH  25  39
ATOM     39  C   UNL     1       7.958   4.922  -7.594  1.00  0.00     0.057 A 
ATOM     40  C   UNL     1       8.673   5.367  -6.494  1.00  0.00     0.134 A 
ATOM     41  C   UNL     1       7.554   5.763  -8.539  1.00  0.00     0.134 A 
ATOM     42  F   UNL     1       9.310   4.547  -5.664  1.00  0.00    -0.206 F 
ATOM     43  C   UNL     1       8.664   6.773  -6.335  1.00  0.00     0.040 A 
ATOM     44  C   UNL     1       7.699   7.120  -8.377  1.00  0.00     0.040 A 
ATOM     45  F   UNL     1       7.003   5.288  -9.652  1.00  0.00    -0.206 F 
ATOM     46  C   UNL     1       8.344   7.632  -7.285  1.00  0.00     0.006 A 
ENDBRANCH  25  39
BRANCH  26  47
ATOM     47  C   UNL     1       6.003  -4.783  -8.473  1.00  0.00     0.057 A 
ATOM     48  C   UNL     1       7.064  -5.670  -8.563  1.00  0.00     0.134 A 
ATOM     49  C   UNL     1       4.746  -5.210  -8.484  1.00  0.00     0.134 A 
ATOM     50  F   UNL     1       8.322  -5.324  -8.305  1.00  0.00    -0.206 F 
ATOM     51  C   UNL     1       6.688  -6.976  -8.956  1.00  0.00     0.040 A 
ATOM     52  C   UNL     1       4.457  -6.529  -8.741  1.00  0.00     0.040 A 
ATOM     53  F   UNL     1       3.757  -4.354  -8.245  1.00  0.00    -0.206 F 
ATOM     54  C   UNL     1       5.456  -7.449  -8.900  1.00  0.00     0.006 A 
ENDBRANCH  26  47
BRANCH  38  55
ATOM     55  C   UNL     1       9.431  -0.030 -12.343  1.00  0.00     0.057 A 
ATOM     56  C   UNL     1       8.768  -0.378 -13.508  1.00  0.00     0.134 A 
ATOM     57  C   UNL     1      10.720   0.290 -12.353  1.00  0.00     0.134 A 
ATOM     58  F   UNL     1       7.444  -0.457 -13.593  1.00  0.00    -0.206 F 
ATOM     59  C   UNL     1       9.629  -0.641 -14.601  1.00  0.00     0.040 A 
ATOM     60  C   UNL     1      11.470   0.136 -13.494  1.00  0.00     0.040 A 
ATOM     61  F   UNL     1      11.290   0.763 -11.248  1.00  0.00    -0.206 F 
ATOM     62  C   UNL     1      10.892  -0.262 -14.667  1.00  0.00     0.006 A 
ENDBRANCH  38  55
ENDBRANCH  12  13
ENDBRANCH   5   7
ENDBRANCH   2   3
ENDBRANCH   1   2
BRANCH   1  63
ATOM     63  C   UNL     1       4.488   1.307   3.313  1.00  0.00     0.118 C 
BRANCH  63  64
ATOM     64  N   UNL     1       4.978   0.114   4.019  1.00  0.00    -0.352 N 
ATOM     65  C   UNL     1       5.823   0.263   5.213  1.00  0.00     0.253 C 
ATOM     66  H   UNL     1       4.740  -0.784   3.693  1.00  0.00     0.163 HD
ATOM     67  O   UNL     1       6.246  -0.768   5.824  1.00  0.00    -0.269 OA
BRANCH  65  68
ATOM     68  C   UNL     1       6.190   1.649   5.716  1.00  0.00     0.063 A 
ATOM     69  C   UNL     1       7.466   1.908   6.188  1.00  0.00     0.016 A 
ATOM     70  C   UNL     1       5.231   2.566   5.784  1.00  0.00     0.051 A 
ATOM     71  C   UNL     1       7.557   3.075   6.984  1.00  0.00     0.001 A 
ATOM     72  C   UNL     1       5.435   3.742   6.463  1.00  0.00     0.027 A 
ATOM     73  C   UNL     1       6.654   4.038   7.006  1.00  0.00     0.002 A 
BRANCH  70  74
ATOM     74  N   UNL     1       3.940   2.318   5.126  1.00  0.00    -0.355 N 
ATOM     75  H   UNL     1       3.789   1.477   4.638  1.00  0.00     0.167 HD
BRANCH  74  76
ATOM     76  C   UNL     1       2.874   3.328   5.197  1.00  0.00     0.040 A 
ATOM     77  C   UNL     1       1.659   3.002   5.776  1.00  0.00     0.026 A 
ATOM     78  C   UNL     1       3.098   4.540   4.702  1.00  0.00     0.050 A 
ATOM     79  C   UNL     1       0.633   3.944   5.526  1.00  0.00     0.004 A 
ATOM     80  C   UNL     1       2.080   5.458   4.612  1.00  0.00     0.109 A 
ATOM     81  C   UNL     1       0.837   5.181   5.111  1.00  0.00     0.024 A 
BRANCH  80  82
ATOM     82  S   UNL     1       2.387   7.057   3.822  1.00  0.00     0.310 S 
ATOM     83  F   UNL     1       3.938   7.162   4.138  1.00  0.00    -0.094 F 
ATOM     84  F   UNL     1       2.127   7.736   5.220  1.00  0.00    -0.094 F 
ATOM     85  F   UNL     1       2.495   8.448   3.135  1.00  0.00    -0.094 F 
ATOM     86  F   UNL     1       2.785   6.363   2.461  1.00  0.00    -0.094 F 
ATOM     87  F   UNL     1       2.393   5.643   4.529  1.00  0.00    -0.094 F 
ENDBRANCH  80  82
ENDBRANCH  74  76
ENDBRANCH  70  74
ENDBRANCH  65  68
ENDBRANCH  63  64
ENDBRANCH   1  63
TORSDOF 13
