REMARK SMILES CCN(C(=O)Cc1c(C(=O)NCCCNC(=O)c2ccc(-c3c4nc(c(-c5c(F)cccc5F)c5ccc([nH]5)c(-c5c(F)cccc5F)c5nc(c(-c6c(F)cccc6F)c6ccc3[nH]6)C=C5)C=C4)cc2)[nH]c2ccc(Cl)cc12)c1ccc(C)c(C)c1
REMARK SMILES IDX 12 1 11 2 9 3 10 4 8 6 7 7 79 8 72 9 73 10 78 11 74 13 76 14
REMARK SMILES IDX 75 15 77 16 6 17 4 18 5 19 3 20 2 21 1 22 80 23 81 24 87 25
REMARK SMILES IDX 82 26 85 27 83 28 86 29 84 30 13 31 14 32 15 33 16 34 17 36
REMARK SMILES IDX 18 37 19 38 71 39 20 40 70 41 21 42 22 43 23 44 64 45 24 46
REMARK SMILES IDX 69 47 63 48 65 49 25 50 68 51 62 52 61 53 26 55 52 56 35 57
REMARK SMILES IDX 51 58 36 59 39 60 50 61 66 62 37 63 38 64 49 66 67 67 40 68
REMARK SMILES IDX 27 69 28 70 33 71 29 72 30 73 32 74 34 75 31 76 53 77 54 78
REMARK SMILES IDX 59 79 55 80 56 81 58 82 60 83 57 84 41 85 42 86 47 87 43 88
REMARK SMILES IDX 44 89 46 90 48 91 45 92
REMARK H PARENT 11 5 72 12 15 35 65 54 39 65
REMARK Flexibility Score: inf
ROOT
ATOM      1  C   UNL     1      -1.811   1.521   5.220  1.00  0.00     0.118 C 
ENDROOT
BRANCH   1   2
ATOM      2  N   UNL     1      -1.058   2.468   4.422  1.00  0.00    -0.351 N 
ATOM      3  C   UNL     1      -1.054   2.756   3.086  1.00  0.00     0.268 C 
ATOM      4  O   UNL     1      -0.583   3.849   2.764  1.00  0.00    -0.268 OA
ATOM      5  H   UNL     1      -0.424   3.010   4.945  1.00  0.00     0.163 HD
BRANCH   3   6
ATOM      6  C   UNL     1      -1.659   1.897   2.089  1.00  0.00     0.109 A 
ATOM      7  C   UNL     1      -1.596   0.535   1.790  1.00  0.00    -0.000 A 
ATOM      8  C   UNL     1      -2.363   0.329   0.586  1.00  0.00     0.005 A 
ATOM      9  N   UNL     1      -2.343   2.493   1.047  1.00  0.00    -0.350 N 
ATOM     10  C   UNL     1      -2.782   1.574   0.132  1.00  0.00     0.046 A 
ATOM     11  C   UNL     1      -2.683  -0.806  -0.192  1.00  0.00     0.031 A 
ATOM     12  H   UNL     1      -2.498   3.463   0.972  1.00  0.00     0.167 HD
ATOM     13  C   UNL     1      -3.486   1.759  -1.065  1.00  0.00     0.028 A 
ATOM     14  C   UNL     1      -3.385  -0.639  -1.390  1.00  0.00     0.041 A 
ATOM     15  C   UNL     1      -3.777   0.623  -1.825  1.00  0.00     0.022 A 
ATOM     16  Cl  UNL     1      -3.748  -2.022  -2.351  1.00  0.00    -0.084 Cl
BRANCH   7  17
ATOM     17  C   UNL     1      -0.845  -0.559   2.487  1.00  0.00     0.139 C 
BRANCH  17  18
ATOM     18  C   UNL     1       0.632  -0.253   2.708  1.00  0.00     0.231 C 
ATOM     19  O   UNL     1       0.951   0.426   3.692  1.00  0.00    -0.274 OA
BRANCH  18  20
ATOM     20  N   UNL     1       1.589  -0.747   1.815  1.00  0.00    -0.312 N 
BRANCH  20  21
ATOM     21  C   UNL     1       1.298  -1.406   0.534  1.00  0.00     0.122 C 
ATOM     22  C   UNL     1       1.027  -0.455  -0.620  1.00  0.00     0.028 C 
ENDBRANCH  20  21
BRANCH  20  23
ATOM     23  C   UNL     1       2.967  -0.615   2.188  1.00  0.00     0.044 A 
ATOM     24  C   UNL     1       3.382  -1.001   3.468  1.00  0.00     0.026 A 
ATOM     25  C   UNL     1       3.903  -0.044   1.323  1.00  0.00     0.030 A 
ATOM     26  C   UNL     1       4.698  -0.803   3.881  1.00  0.00     0.006 A 
ATOM     27  C   UNL     1       5.223   0.209   1.744  1.00  0.00    -0.046 A 
ATOM     28  C   UNL     1       5.629  -0.191   3.032  1.00  0.00    -0.048 A 
ATOM     29  C   UNL     1       6.149   0.950   0.818  1.00  0.00     0.044 C 
ATOM     30  C   UNL     1       7.000   0.100   3.579  1.00  0.00     0.044 C 
ENDBRANCH  20  23
ENDBRANCH  18  20
ENDBRANCH  17  18
ENDBRANCH   7  17
ENDBRANCH   3   6
ENDBRANCH   1   2
BRANCH   1  31
ATOM     31  C   UNL     1      -0.966   0.531   6.034  1.00  0.00     0.042 C 
BRANCH  31  32
ATOM     32  C   UNL     1       0.247   1.113   6.766  1.00  0.00     0.118 C 
BRANCH  32  33
ATOM     33  N   UNL     1       0.018   1.173   8.201  1.00  0.00    -0.352 N 
ATOM     34  C   UNL     1       0.610   0.479   9.225  1.00  0.00     0.251 C 
ATOM     35  H   UNL     1      -0.674   1.814   8.482  1.00  0.00     0.163 HD
ATOM     36  O   UNL     1       0.082   0.498  10.336  1.00  0.00    -0.269 OA
BRANCH  34  37
ATOM     37  C   UNL     1       1.871  -0.284   9.045  1.00  0.00     0.039 A 
ATOM     38  C   UNL     1       2.016  -1.490   9.745  1.00  0.00     0.014 A 
ATOM     39  C   UNL     1       2.960   0.227   8.330  1.00  0.00     0.014 A 
ATOM     40  C   UNL     1       3.235  -2.176   9.734  1.00  0.00     0.010 A 
ATOM     41  C   UNL     1       4.172  -0.476   8.293  1.00  0.00     0.010 A 
ATOM     42  C   UNL     1       4.327  -1.670   9.015  1.00  0.00    -0.014 A 
BRANCH  42  43
ATOM     43  C   UNL     1       5.649  -2.348   9.079  1.00  0.00     0.031 A 
ATOM     44  C   UNL     1       6.770  -1.748   9.883  1.00  0.00     0.074 A 
ATOM     45  C   UNL     1       5.858  -3.495   8.409  1.00  0.00     0.049 A 
ATOM     46  N   UNL     1       8.000  -2.175  10.036  1.00  0.00    -0.248 NA
ATOM     47  C   UNL     1       6.475  -0.497  10.598  1.00  0.00     0.031 C 
ATOM     48  C   UNL     1       4.874  -4.179   7.572  1.00  0.00     0.029 A 
ATOM     49  N   UNL     1       6.979  -4.285   8.323  1.00  0.00    -0.354 N 
ATOM     50  C   UNL     1       8.632  -1.234  10.837  1.00  0.00     0.074 A 
ATOM     51  C   UNL     1       7.654  -0.207  11.131  1.00  0.00     0.031 C 
ATOM     52  C   UNL     1       5.433  -5.288   7.059  1.00  0.00     0.029 A 
ATOM     53  C   UNL     1       6.816  -5.386   7.520  1.00  0.00     0.049 A 
ATOM     54  H   UNL     1       7.819  -4.080   8.794  1.00  0.00     0.167 HD
ATOM     55  C   UNL     1       9.907  -1.223  11.293  1.00  0.00     0.037 A 
ATOM     56  C   UNL     1       7.682  -6.362   7.189  1.00  0.00     0.037 A 
ATOM     57  C   UNL     1      10.877  -2.258  11.053  1.00  0.00     0.049 A 
ATOM     58  C   UNL     1       9.078  -6.354   7.743  1.00  0.00     0.074 A 
ATOM     59  C   UNL     1      12.168  -2.362  11.544  1.00  0.00     0.029 A 
ATOM     60  N   UNL     1      10.662  -3.370  10.257  1.00  0.00    -0.354 N 
ATOM     61  N   UNL     1       9.645  -5.479   8.536  1.00  0.00    -0.248 NA
ATOM     62  C   UNL     1       9.952  -7.472   7.356  1.00  0.00     0.031 C 
ATOM     63  C   UNL     1      12.742  -3.530  11.027  1.00  0.00     0.029 A 
ATOM     64  C   UNL     1      11.800  -4.158  10.229  1.00  0.00     0.049 A 
ATOM     65  H   UNL     1       9.824  -3.570   9.780  1.00  0.00     0.167 HD
ATOM     66  C   UNL     1      10.937  -5.942   8.749  1.00  0.00     0.074 A 
ATOM     67  C   UNL     1      11.069  -7.181   8.011  1.00  0.00     0.031 C 
ATOM     68  C   UNL     1      11.924  -5.386   9.490  1.00  0.00     0.037 A 
BRANCH  55  69
ATOM     69  C   UNL     1      10.332  -0.037  12.101  1.00  0.00     0.057 A 
ATOM     70  C   UNL     1       9.994   0.090  13.454  1.00  0.00     0.134 A 
ATOM     71  C   UNL     1      11.109   0.974  11.524  1.00  0.00     0.134 A 
ATOM     72  F   UNL     1       9.242  -0.843  14.057  1.00  0.00    -0.206 F 
ATOM     73  C   UNL     1      10.402   1.194  14.203  1.00  0.00     0.040 A 
ATOM     74  C   UNL     1      11.535   2.076  12.265  1.00  0.00     0.040 A 
ATOM     75  F   UNL     1      11.466   0.905  10.232  1.00  0.00    -0.206 F 
ATOM     76  C   UNL     1      11.178   2.189  13.608  1.00  0.00     0.006 A 
ENDBRANCH  55  69
BRANCH  56  77
ATOM     77  C   UNL     1       7.245  -7.445   6.280  1.00  0.00     0.057 A 
ATOM     78  C   UNL     1       6.883  -8.701   6.777  1.00  0.00     0.134 A 
ATOM     79  C   UNL     1       7.175  -7.244   4.898  1.00  0.00     0.134 A 
ATOM     80  F   UNL     1       6.953  -8.951   8.093  1.00  0.00    -0.206 F 
ATOM     81  C   UNL     1       6.468  -9.726   5.928  1.00  0.00     0.040 A 
ATOM     82  C   UNL     1       6.750  -8.256   4.037  1.00  0.00     0.040 A 
ATOM     83  F   UNL     1       7.514  -6.059   4.368  1.00  0.00    -0.206 F 
ATOM     84  C   UNL     1       6.396  -9.502   4.553  1.00  0.00     0.006 A 
ENDBRANCH  56  77
BRANCH  68  85
ATOM     85  C   UNL     1      13.232  -6.113   9.544  1.00  0.00     0.057 A 
ATOM     86  C   UNL     1      14.166  -6.005   8.508  1.00  0.00     0.134 A 
ATOM     87  C   UNL     1      13.573  -6.896  10.653  1.00  0.00     0.134 A 
ATOM     88  F   UNL     1      13.889  -5.278   7.415  1.00  0.00    -0.206 F 
ATOM     89  C   UNL     1      15.397  -6.661   8.569  1.00  0.00     0.040 A 
ATOM     90  C   UNL     1      14.805  -7.547  10.730  1.00  0.00     0.040 A 
ATOM     91  F   UNL     1      12.718  -7.035  11.677  1.00  0.00    -0.206 F 
ATOM     92  C   UNL     1      15.720  -7.431   9.685  1.00  0.00     0.006 A 
ENDBRANCH  68  85
ENDBRANCH  42  43
ENDBRANCH  34  37
ENDBRANCH  32  33
ENDBRANCH  31  32
ENDBRANCH   1  31
TORSDOF 15
