REMARK SMILES O=C(OCCOC(=O)[C@H]1C[N@H+](Cc2ccc(Cl)c(Cl)c2)CC12CCCCC2)c1ccc(-c2c3nc(c(-c4c(F)cccc4F)c4ccc([nH]4)c(-c4c(F)cccc4F)c4nc(c(-c5c(F)cccc5F)c5ccc2[nH]5)C=C4)C=C3)cc1
REMARK SMILES IDX 4 1 3 2 2 3 1 4 28 5 29 6 81 7 30 8 80 9 31 10 32 11 33 12
REMARK SMILES IDX 74 13 34 14 79 15 73 16 75 17 35 18 78 19 72 20 71 21 36 23
REMARK SMILES IDX 62 24 45 25 61 26 46 27 49 28 60 29 76 30 47 31 48 32 59 34
REMARK SMILES IDX 77 35 50 36 37 37 38 38 43 39 39 40 40 41 42 42 44 43 41 44
REMARK SMILES IDX 63 45 64 46 69 47 65 48 66 49 68 50 70 51 67 52 51 53 52 54
REMARK SMILES IDX 57 55 53 56 54 57 56 58 58 59 55 60 5 61 6 62 7 63 8 64 9 65
REMARK SMILES IDX 10 66 22 67 11 68 21 69 23 70 27 71 24 73 26 74 25 75 12 76
REMARK SMILES IDX 13 77 14 78 20 79 15 80 18 81 16 82 19 83 17 84
REMARK H PARENT 75 22 49 33 11 72
REMARK Flexibility Score: inf
ROOT
ATOM      1  C   UNL     1       4.563   1.028  -1.945  1.00  0.00     0.275 C 
ENDROOT
BRANCH   1   2
ATOM      2  O   UNL     1       4.215  -0.346  -1.714  1.00  0.00    -0.458 OA
BRANCH   2   3
ATOM      3  C   UNL     1       4.124  -1.003  -0.539  1.00  0.00     0.338 C 
ATOM      4  O   UNL     1       3.387  -1.985  -0.473  1.00  0.00    -0.246 OA
BRANCH   3   5
ATOM      5  C   UNL     1       4.882  -0.603   0.693  1.00  0.00     0.060 A 
ATOM      6  C   UNL     1       5.926   0.322   0.784  1.00  0.00     0.016 A 
ATOM      7  C   UNL     1       4.485  -1.232   1.875  1.00  0.00     0.016 A 
ATOM      8  C   UNL     1       6.511   0.655   2.016  1.00  0.00     0.010 A 
ATOM      9  C   UNL     1       5.026  -0.863   3.109  1.00  0.00     0.010 A 
ATOM     10  C   UNL     1       6.060   0.077   3.199  1.00  0.00    -0.014 A 
BRANCH  10  11
ATOM     11  C   UNL     1       6.687   0.362   4.519  1.00  0.00     0.031 A 
ATOM     12  C   UNL     1       7.128  -0.806   5.369  1.00  0.00     0.074 A 
ATOM     13  C   UNL     1       6.696   1.613   5.029  1.00  0.00     0.049 A 
ATOM     14  N   UNL     1       7.442  -0.844   6.638  1.00  0.00    -0.248 NA
ATOM     15  C   UNL     1       7.126  -2.127   4.716  1.00  0.00     0.031 C 
ATOM     16  C   UNL     1       6.156   2.813   4.376  1.00  0.00     0.029 A 
ATOM     17  N   UNL     1       7.045   2.057   6.284  1.00  0.00    -0.354 N 
ATOM     18  C   UNL     1       7.606  -2.193   6.937  1.00  0.00     0.074 A 
ATOM     19  C   UNL     1       7.240  -2.937   5.755  1.00  0.00     0.031 C 
ATOM     20  C   UNL     1       6.140   3.829   5.258  1.00  0.00     0.029 A 
ATOM     21  C   UNL     1       6.670   3.359   6.532  1.00  0.00     0.049 A 
ATOM     22  H   UNL     1       7.517   1.497   6.942  1.00  0.00     0.167 HD
ATOM     23  C   UNL     1       8.083  -2.765   8.068  1.00  0.00     0.037 A 
ATOM     24  C   UNL     1       6.722   4.081   7.668  1.00  0.00     0.037 A 
ATOM     25  C   UNL     1       8.527  -2.004   9.202  1.00  0.00     0.049 A 
ATOM     26  C   UNL     1       7.346   3.464   8.890  1.00  0.00     0.074 A 
ATOM     27  C   UNL     1       9.208  -2.434  10.325  1.00  0.00     0.029 A 
ATOM     28  N   UNL     1       8.324  -0.640   9.348  1.00  0.00    -0.354 N 
ATOM     29  N   UNL     1       7.680   2.216   9.104  1.00  0.00    -0.248 NA
ATOM     30  C   UNL     1       7.663   4.372  10.001  1.00  0.00     0.031 C 
ATOM     31  C   UNL     1       9.395  -1.331  11.165  1.00  0.00     0.029 A 
ATOM     32  C   UNL     1       8.878  -0.208  10.538  1.00  0.00     0.049 A 
ATOM     33  H   UNL     1       7.856  -0.066   8.700  1.00  0.00     0.167 HD
ATOM     34  C   UNL     1       8.317   2.201  10.339  1.00  0.00     0.074 A 
ATOM     35  C   UNL     1       8.300   3.561  10.834  1.00  0.00     0.031 C 
ATOM     36  C   UNL     1       8.891   1.159  10.989  1.00  0.00     0.037 A 
BRANCH  23  37
ATOM     37  C   UNL     1       8.197  -4.266   8.098  1.00  0.00     0.057 A 
ATOM     38  C   UNL     1       9.025  -4.970   7.209  1.00  0.00     0.134 A 
ATOM     39  C   UNL     1       7.461  -5.025   9.017  1.00  0.00     0.134 A 
ATOM     40  F   UNL     1       9.766  -4.313   6.303  1.00  0.00    -0.206 F 
ATOM     41  C   UNL     1       9.059  -6.365   7.181  1.00  0.00     0.040 A 
ATOM     42  C   UNL     1       7.521  -6.421   9.029  1.00  0.00     0.040 A 
ATOM     43  F   UNL     1       6.665  -4.427   9.916  1.00  0.00    -0.206 F 
ATOM     44  C   UNL     1       8.306  -7.095   8.096  1.00  0.00     0.006 A 
ENDBRANCH  23  37
BRANCH  24  45
ATOM     45  C   UNL     1       6.271   5.495   7.693  1.00  0.00     0.057 A 
ATOM     46  C   UNL     1       7.205   6.537   7.638  1.00  0.00     0.134 A 
ATOM     47  C   UNL     1       4.922   5.844   7.812  1.00  0.00     0.134 A 
ATOM     48  F   UNL     1       8.514   6.260   7.539  1.00  0.00    -0.206 F 
ATOM     49  C   UNL     1       6.821   7.874   7.739  1.00  0.00     0.040 A 
ATOM     50  C   UNL     1       4.521   7.181   7.898  1.00  0.00     0.040 A 
ATOM     51  F   UNL     1       3.976   4.895   7.854  1.00  0.00    -0.206 F 
ATOM     52  C   UNL     1       5.473   8.200   7.872  1.00  0.00     0.006 A 
ENDBRANCH  24  45
BRANCH  36  53
ATOM     53  C   UNL     1       9.653   1.461  12.244  1.00  0.00     0.057 A 
ATOM     54  C   UNL     1       9.023   1.803  13.445  1.00  0.00     0.134 A 
ATOM     55  C   UNL     1      11.050   1.348  12.252  1.00  0.00     0.134 A 
ATOM     56  F   UNL     1       7.690   1.944  13.499  1.00  0.00    -0.206 F 
ATOM     57  C   UNL     1       9.758   2.038  14.608  1.00  0.00     0.040 A 
ATOM     58  C   UNL     1      11.793   1.550  13.414  1.00  0.00     0.040 A 
ATOM     59  F   UNL     1      11.714   1.018  11.133  1.00  0.00    -0.206 F 
ATOM     60  C   UNL     1      11.146   1.901  14.596  1.00  0.00     0.006 A 
ENDBRANCH  36  53
ENDBRANCH  10  11
ENDBRANCH   3   5
ENDBRANCH   2   3
ENDBRANCH   1   2
BRANCH   1  61
ATOM     61  C   UNL     1       3.621   2.055  -1.309  1.00  0.00     0.274 C 
BRANCH  61  62
ATOM     62  O   UNL     1       3.338   1.813   0.086  1.00  0.00    -0.462 OA
BRANCH  62  63
ATOM     63  C   UNL     1       2.019   1.742   0.449  1.00  0.00     0.315 C 
ATOM     64  O   UNL     1       1.083   1.853  -0.336  1.00  0.00    -0.252 OA
BRANCH  63  65
ATOM     65  C   UNL     1       1.866   1.608   1.965  1.00  0.00     0.166 C 
ATOM     66  C   UNL     1       1.317   2.939   2.497  1.00  0.00     0.278 C 
ATOM     67  C   UNL     1       0.907   0.486   2.516  1.00  0.00     0.038 C 
ATOM     68  N   UNL     1       0.262   2.617   3.439  1.00  0.00    -0.330 N 
ATOM     69  C   UNL     1      -0.268   1.297   3.115  1.00  0.00     0.270 C 
ATOM     70  C   UNL     1       0.466  -0.540   1.448  1.00  0.00     0.014 C 
ATOM     71  C   UNL     1       1.617  -0.294   3.646  1.00  0.00     0.014 C 
ATOM     72  H   UNL     1      -0.513   3.267   3.307  1.00  0.00     0.348 HD
ATOM     73  C   UNL     1      -0.237  -1.782   2.005  1.00  0.00     0.001 C 
ATOM     74  C   UNL     1       0.938  -1.544   4.181  1.00  0.00     0.001 C 
ATOM     75  C   UNL     1       0.607  -2.496   3.051  1.00  0.00     0.000 C 
BRANCH  68  76
ATOM     76  C   UNL     1       0.357   3.089   4.819  1.00  0.00     0.299 C 
BRANCH  76  77
ATOM     77  C   UNL     1       1.255   2.318   5.764  1.00  0.00     0.008 A 
ATOM     78  C   UNL     1       2.645   2.318   5.608  1.00  0.00     0.011 A 
ATOM     79  C   UNL     1       0.702   1.501   6.770  1.00  0.00     0.031 A 
ATOM     80  C   UNL     1       3.427   1.406   6.322  1.00  0.00     0.022 A 
ATOM     81  C   UNL     1       1.500   0.609   7.503  1.00  0.00     0.060 A 
ATOM     82  C   UNL     1       2.864   0.527   7.242  1.00  0.00     0.059 A 
ATOM     83  Cl  UNL     1       0.728  -0.407   8.666  1.00  0.00    -0.083 Cl
ATOM     84  Cl  UNL     1       3.894  -0.669   7.942  1.00  0.00    -0.083 Cl
ENDBRANCH  76  77
ENDBRANCH  68  76
ENDBRANCH  63  65
ENDBRANCH  62  63
ENDBRANCH  61  62
ENDBRANCH   1  61
TORSDOF 13
