REMARK SMILES COC(=O)c1ccc(N2C[C@@H](C(=O)OCCOC(=O)c3ccc(-c4c5nc(c(-c6c(F)cccc6F)c6ccc([nH]6)c(-c6c(F)cccc6F)c6nc(c(-c7c(F)cccc7F)c7ccc4[nH]7)C=C6)C=C5)cc3)CC2=O)cc1
REMARK SMILES IDX 15 1 14 2 12 3 13 4 11 5 9 6 10 7 75 8 74 9 76 10 8 11 5 12
REMARK SMILES IDX 6 13 78 14 7 15 77 16 3 17 4 18 2 19 1 20 16 21 17 22 18 23
REMARK SMILES IDX 19 24 20 25 21 26 73 27 22 28 72 29 23 30 24 31 25 32 66 33
REMARK SMILES IDX 26 34 71 35 65 36 67 37 27 38 70 39 64 40 63 41 28 43 54 44
REMARK SMILES IDX 37 45 53 46 38 47 41 48 52 49 68 50 39 51 40 52 51 54 69 55
REMARK SMILES IDX 42 56 29 57 30 58 35 59 31 60 32 61 34 62 36 63 33 64 55 65
REMARK SMILES IDX 56 66 61 67 57 68 58 69 60 70 62 71 59 72 43 73 44 74 49 75
REMARK SMILES IDX 45 76 46 77 48 78 50 79 47 80
REMARK H PARENT 67 42 41 53
REMARK Flexibility Score: inf
ROOT
ATOM      1  C   UNL     1      -2.102 -12.113   1.792  1.00  0.00     0.274 C 
ENDROOT
BRANCH   1   2
ATOM      2  O   UNL     1      -2.202 -10.979   0.910  1.00  0.00    -0.462 OA
BRANCH   2   3
ATOM      3  C   UNL     1      -1.064 -10.585   0.292  1.00  0.00     0.311 C 
ATOM      4  O   UNL     1       0.053 -11.032   0.526  1.00  0.00    -0.252 OA
BRANCH   3   5
ATOM      5  C   UNL     1      -1.295  -9.542  -0.767  1.00  0.00     0.128 C 
ATOM      6  N   UNL     1      -1.251  -7.242  -1.085  1.00  0.00    -0.312 N 
ATOM      7  C   UNL     1      -0.543  -8.289  -0.395  1.00  0.00     0.141 C 
ATOM      8  C   UNL     1      -2.547  -7.638  -1.427  1.00  0.00     0.227 C 
ATOM      9  C   UNL     1      -2.720  -9.077  -1.013  1.00  0.00     0.117 C 
ATOM     10  O   UNL     1      -3.424  -6.981  -1.967  1.00  0.00    -0.274 OA
BRANCH   6  11
ATOM     11  C   UNL     1      -0.730  -5.935  -1.187  1.00  0.00     0.044 A 
ATOM     12  C   UNL     1       0.337  -3.337  -1.200  1.00  0.00     0.060 A 
ATOM     13  C   UNL     1       1.178  -4.438  -1.373  1.00  0.00     0.018 A 
ATOM     14  C   UNL     1      -1.041  -3.529  -1.068  1.00  0.00     0.018 A 
ATOM     15  C   UNL     1       0.648  -5.730  -1.343  1.00  0.00     0.027 A 
ATOM     16  C   UNL     1      -1.571  -4.822  -1.086  1.00  0.00     0.027 A 
BRANCH  12  17
ATOM     17  C   UNL     1       0.949  -1.992  -1.139  1.00  0.00     0.337 C 
ATOM     18  O   UNL     1       1.992  -1.693  -1.698  1.00  0.00    -0.246 OA
BRANCH  17  19
ATOM     19  O   UNL     1       0.228  -1.212  -0.297  1.00  0.00    -0.465 OA
ATOM     20  C   UNL     1       0.809   0.067  -0.042  1.00  0.00     0.282 C 
ENDBRANCH  17  19
ENDBRANCH  12  17
ENDBRANCH   6  11
ENDBRANCH   3   5
ENDBRANCH   2   3
ENDBRANCH   1   2
BRANCH   1  21
ATOM     21  C   UNL     1      -2.636 -13.376   1.108  1.00  0.00     0.275 C 
BRANCH  21  22
ATOM     22  O   UNL     1      -1.779 -13.811   0.033  1.00  0.00    -0.458 OA
BRANCH  22  23
ATOM     23  C   UNL     1      -2.065 -13.281  -1.178  1.00  0.00     0.338 C 
ATOM     24  O   UNL     1      -2.951 -12.488  -1.452  1.00  0.00    -0.246 OA
BRANCH  23  25
ATOM     25  C   UNL     1      -1.042 -13.679  -2.154  1.00  0.00     0.060 A 
ATOM     26  C   UNL     1      -0.182 -12.691  -2.636  1.00  0.00     0.016 A 
ATOM     27  C   UNL     1      -0.995 -14.971  -2.674  1.00  0.00     0.016 A 
ATOM     28  C   UNL     1       0.705 -12.969  -3.666  1.00  0.00     0.010 A 
ATOM     29  C   UNL     1      -0.074 -15.263  -3.686  1.00  0.00     0.010 A 
ATOM     30  C   UNL     1       0.772 -14.261  -4.196  1.00  0.00    -0.014 A 
BRANCH  30  31
ATOM     31  C   UNL     1       1.723 -14.543  -5.295  1.00  0.00     0.031 A 
ATOM     32  C   UNL     1       1.214 -14.828  -6.676  1.00  0.00     0.074 A 
ATOM     33  C   UNL     1       3.046 -14.509  -5.049  1.00  0.00     0.049 A 
ATOM     34  N   UNL     1       1.877 -15.209  -7.737  1.00  0.00    -0.248 NA
ATOM     35  C   UNL     1      -0.232 -14.666  -6.892  1.00  0.00     0.031 C 
ATOM     36  C   UNL     1       3.659 -14.182  -3.760  1.00  0.00     0.029 A 
ATOM     37  N   UNL     1       4.114 -14.754  -5.874  1.00  0.00    -0.354 N 
ATOM     38  C   UNL     1       0.929 -15.362  -8.739  1.00  0.00     0.074 A 
ATOM     39  C   UNL     1      -0.358 -15.041  -8.158  1.00  0.00     0.031 C 
ATOM     40  C   UNL     1       4.994 -14.241  -3.882  1.00  0.00     0.029 A 
ATOM     41  C   UNL     1       5.327 -14.671  -5.236  1.00  0.00     0.049 A 
ATOM     42  H   UNL     1       4.020 -14.968  -6.830  1.00  0.00     0.167 HD
ATOM     43  C   UNL     1       1.119 -15.737 -10.026  1.00  0.00     0.037 A 
ATOM     44  C   UNL     1       6.566 -14.950  -5.681  1.00  0.00     0.037 A 
ATOM     45  C   UNL     1       2.406 -16.029 -10.601  1.00  0.00     0.049 A 
ATOM     46  C   UNL     1       6.742 -15.430  -7.093  1.00  0.00     0.074 A 
ATOM     47  C   UNL     1       2.707 -16.404 -11.899  1.00  0.00     0.029 A 
ATOM     48  N   UNL     1       3.609 -15.974  -9.911  1.00  0.00    -0.354 N 
ATOM     49  N   UNL     1       5.837 -15.598  -8.026  1.00  0.00    -0.248 NA
ATOM     50  C   UNL     1       8.108 -15.773  -7.510  1.00  0.00     0.031 C 
ATOM     51  C   UNL     1       4.088 -16.615 -11.984  1.00  0.00     0.029 A 
ATOM     52  C   UNL     1       4.652 -16.331 -10.750  1.00  0.00     0.049 A 
ATOM     53  H   UNL     1       3.706 -15.719  -8.965  1.00  0.00     0.167 HD
ATOM     54  C   UNL     1       6.523 -16.053  -9.144  1.00  0.00     0.074 A 
ATOM     55  C   UNL     1       7.923 -16.118  -8.777  1.00  0.00     0.031 C 
ATOM     56  C   UNL     1       6.038 -16.389 -10.363  1.00  0.00     0.037 A 
BRANCH  43  57
ATOM     57  C   UNL     1      -0.097 -15.886 -10.891  1.00  0.00     0.057 A 
ATOM     58  C   UNL     1      -0.806 -14.781 -11.375  1.00  0.00     0.134 A 
ATOM     59  C   UNL     1      -0.545 -17.159 -11.268  1.00  0.00     0.134 A 
ATOM     60  F   UNL     1      -0.437 -13.536 -11.037  1.00  0.00    -0.206 F 
ATOM     61  C   UNL     1      -1.929 -14.935 -12.190  1.00  0.00     0.040 A 
ATOM     62  C   UNL     1      -1.653 -17.326 -12.101  1.00  0.00     0.040 A 
ATOM     63  F   UNL     1       0.091 -18.260 -10.841  1.00  0.00    -0.206 F 
ATOM     64  C   UNL     1      -2.351 -16.211 -12.560  1.00  0.00     0.006 A 
ENDBRANCH  43  57
BRANCH  44  65
ATOM     65  C   UNL     1       7.727 -14.824  -4.766  1.00  0.00     0.057 A 
ATOM     66  C   UNL     1       8.688 -13.825  -4.948  1.00  0.00     0.134 A 
ATOM     67  C   UNL     1       7.901 -15.700  -3.687  1.00  0.00     0.134 A 
ATOM     68  F   UNL     1       8.586 -12.970  -5.977  1.00  0.00    -0.206 F 
ATOM     69  C   UNL     1       9.787 -13.705  -4.096  1.00  0.00     0.040 A 
ATOM     70  C   UNL     1       8.981 -15.576  -2.812  1.00  0.00     0.040 A 
ATOM     71  F   UNL     1       7.013 -16.678  -3.457  1.00  0.00    -0.206 F 
ATOM     72  C   UNL     1       9.931 -14.579  -3.020  1.00  0.00     0.006 A 
ENDBRANCH  44  65
BRANCH  56  73
ATOM     73  C   UNL     1       7.033 -16.835 -11.392  1.00  0.00     0.057 A 
ATOM     74  C   UNL     1       7.623 -18.104 -11.341  1.00  0.00     0.134 A 
ATOM     75  C   UNL     1       7.375 -16.001 -12.463  1.00  0.00     0.134 A 
ATOM     76  F   UNL     1       7.347 -18.943 -10.331  1.00  0.00    -0.206 F 
ATOM     77  C   UNL     1       8.534 -18.521 -12.313  1.00  0.00     0.040 A 
ATOM     78  C   UNL     1       8.267 -16.415 -13.452  1.00  0.00     0.040 A 
ATOM     79  F   UNL     1       6.839 -14.776 -12.570  1.00  0.00    -0.206 F 
ATOM     80  C   UNL     1       8.852 -17.678 -13.376  1.00  0.00     0.006 A 
ENDBRANCH  56  73
ENDBRANCH  30  31
ENDBRANCH  23  25
ENDBRANCH  22  23
ENDBRANCH  21  22
ENDBRANCH   1  21
TORSDOF 14
