REMARK SMILES Cc1ccc([C@@H](C)Nc2ccc(N)cc2C(=O)OCCOC(=O)c2ccc(-c3c4nc(c(-c5c(F)cccc5F)c5ccc([nH]5)c(-c5c(F)cccc5F)c5nc(c(-c6c(F)cccc6F)c6ccc3[nH]6)C=C5)C=C4)cc2)cc1F
REMARK SMILES IDX 19 1 18 2 16 3 17 4 15 5 9 6 10 7 11 8 14 9 12 10 8 11 6 13
REMARK SMILES IDX 7 14 5 15 1 16 2 17 3 18 79 19 4 20 78 21 80 22 13 23 20 26
REMARK SMILES IDX 21 27 22 28 23 29 24 30 25 31 77 32 26 33 76 34 27 35 28 36
REMARK SMILES IDX 29 37 70 38 30 39 75 40 69 41 71 42 31 43 74 44 68 45 67 46
REMARK SMILES IDX 32 48 58 49 41 50 57 51 42 52 45 53 56 54 72 55 43 56 44 57
REMARK SMILES IDX 55 59 73 60 46 61 33 62 34 63 39 64 35 65 36 66 38 67 40 68
REMARK SMILES IDX 37 69 59 70 60 71 65 72 61 73 62 74 64 75 66 76 63 77 47 78
REMARK SMILES IDX 48 79 53 80 49 81 50 82 52 83 54 84 51 85
REMARK H PARENT 8 12 13 24 13 25 71 47 45 58
REMARK Flexibility Score: inf
ROOT
ATOM      1  C   UNL     1      -3.239  -1.695  -2.471  1.00  0.00     0.275 C 
ENDROOT
BRANCH   1   2
ATOM      2  O   UNL     1      -2.994  -2.493  -1.289  1.00  0.00    -0.458 OA
BRANCH   2   3
ATOM      3  C   UNL     1      -3.875  -3.506  -1.043  1.00  0.00     0.340 C 
ATOM      4  O   UNL     1      -4.793  -3.837  -1.757  1.00  0.00    -0.246 OA
BRANCH   3   5
ATOM      5  C   UNL     1      -3.500  -4.259   0.183  1.00  0.00     0.085 A 
ATOM      6  C   UNL     1      -3.202  -3.706   1.436  1.00  0.00     0.049 A 
ATOM      7  C   UNL     1      -2.925  -4.647   2.462  1.00  0.00     0.029 A 
ATOM      8  C   UNL     1      -2.928  -6.033   2.271  1.00  0.00     0.027 A 
ATOM      9  C   UNL     1      -3.512  -5.672   0.001  1.00  0.00     0.043 A 
ATOM     10  C   UNL     1      -3.195  -6.564   1.023  1.00  0.00     0.032 A 
BRANCH   6  11
ATOM     11  N   UNL     1      -3.219  -2.398   1.869  1.00  0.00    -0.378 N 
ATOM     12  H   UNL     1      -2.989  -2.336   2.825  1.00  0.00     0.161 HD
BRANCH  11  13
ATOM     13  C   UNL     1      -3.484  -1.077   1.301  1.00  0.00     0.106 C 
ATOM     14  C   UNL     1      -4.821  -0.952   0.573  1.00  0.00     0.036 C 
BRANCH  13  15
ATOM     15  C   UNL     1      -2.237  -0.389   0.748  1.00  0.00    -0.023 A 
ATOM     16  C   UNL     1       1.388   1.850  -0.111  1.00  0.00     0.047 C 
ATOM     17  C   UNL     1       0.123   1.089   0.144  1.00  0.00    -0.015 A 
ATOM     18  C   UNL     1      -1.138   1.664  -0.025  1.00  0.00     0.007 A 
ATOM     19  C   UNL     1       0.188  -0.232   0.573  1.00  0.00     0.126 A 
ATOM     20  C   UNL     1      -2.300   0.938   0.283  1.00  0.00     0.006 A 
ATOM     21  C   UNL     1      -0.962  -0.968   0.857  1.00  0.00     0.045 A 
ATOM     22  F   UNL     1       1.386  -0.794   0.781  1.00  0.00    -0.207 F 
ENDBRANCH  13  15
ENDBRANCH  11  13
ENDBRANCH   6  11
BRANCH  10  23
ATOM     23  N   UNL     1      -3.273  -7.934   0.844  1.00  0.00    -0.399 N 
ATOM     24  H   UNL     1      -3.042  -8.541   1.585  1.00  0.00     0.156 HD
ATOM     25  H   UNL     1      -3.559  -8.301  -0.023  1.00  0.00     0.156 HD
ENDBRANCH  10  23
ENDBRANCH   3   5
ENDBRANCH   2   3
ENDBRANCH   1   2
BRANCH   1  26
ATOM     26  C   UNL     1      -2.282  -2.035  -3.603  1.00  0.00     0.275 C 
BRANCH  26  27
ATOM     27  O   UNL     1      -2.721  -3.212  -4.290  1.00  0.00    -0.458 OA
BRANCH  27  28
ATOM     28  C   UNL     1      -2.363  -4.339  -3.639  1.00  0.00     0.338 C 
ATOM     29  O   UNL     1      -1.807  -4.411  -2.551  1.00  0.00    -0.246 OA
BRANCH  28  30
ATOM     30  C   UNL     1      -2.436  -5.518  -4.527  1.00  0.00     0.060 A 
ATOM     31  C   UNL     1      -2.284  -6.684  -3.757  1.00  0.00     0.016 A 
ATOM     32  C   UNL     1      -1.603  -5.279  -5.624  1.00  0.00     0.016 A 
ATOM     33  C   UNL     1      -1.030  -7.264  -3.712  1.00  0.00     0.010 A 
ATOM     34  C   UNL     1      -0.350  -5.842  -5.583  1.00  0.00     0.010 A 
ATOM     35  C   UNL     1      -0.051  -6.768  -4.574  1.00  0.00    -0.014 A 
BRANCH  35  36
ATOM     36  C   UNL     1       1.247  -7.385  -4.688  1.00  0.00     0.031 A 
ATOM     37  C   UNL     1       1.260  -8.707  -5.324  1.00  0.00     0.074 A 
ATOM     38  C   UNL     1       2.380  -6.763  -4.315  1.00  0.00     0.049 A 
ATOM     39  N   UNL     1       2.152  -9.608  -5.116  1.00  0.00    -0.248 NA
ATOM     40  C   UNL     1       0.169  -9.146  -6.194  1.00  0.00     0.031 C 
ATOM     41  C   UNL     1       3.734  -7.104  -4.723  1.00  0.00     0.029 A 
ATOM     42  N   UNL     1       2.549  -5.789  -3.345  1.00  0.00    -0.354 N 
ATOM     43  C   UNL     1       1.956 -10.564  -6.083  1.00  0.00     0.074 A 
ATOM     44  C   UNL     1       0.631 -10.326  -6.603  1.00  0.00     0.031 C 
ATOM     45  C   UNL     1       4.603  -6.517  -3.885  1.00  0.00     0.029 A 
ATOM     46  C   UNL     1       3.836  -5.937  -2.799  1.00  0.00     0.049 A 
ATOM     47  H   UNL     1       1.884  -5.112  -3.083  1.00  0.00     0.167 HD
ATOM     48  C   UNL     1       3.019 -11.306  -6.499  1.00  0.00     0.037 A 
ATOM     49  C   UNL     1       3.996  -6.266  -1.478  1.00  0.00     0.037 A 
ATOM     50  C   UNL     1       4.231 -10.945  -5.763  1.00  0.00     0.049 A 
ATOM     51  C   UNL     1       4.604  -7.627  -1.233  1.00  0.00     0.074 A 
ATOM     52  C   UNL     1       5.313 -10.124  -6.043  1.00  0.00     0.029 A 
ATOM     53  N   UNL     1       4.272 -11.155  -4.396  1.00  0.00    -0.354 N 
ATOM     54  N   UNL     1       4.892  -8.482  -2.174  1.00  0.00    -0.248 NA
ATOM     55  C   UNL     1       4.861  -8.167   0.100  1.00  0.00     0.031 C 
ATOM     56  C   UNL     1       6.032  -9.897  -4.836  1.00  0.00     0.029 A 
ATOM     57  C   UNL     1       5.392 -10.584  -3.823  1.00  0.00     0.049 A 
ATOM     58  H   UNL     1       3.587 -11.652  -3.893  1.00  0.00     0.167 HD
ATOM     59  C   UNL     1       5.304  -9.664  -1.620  1.00  0.00     0.074 A 
ATOM     60  C   UNL     1       5.263  -9.417  -0.190  1.00  0.00     0.031 C 
ATOM     61  C   UNL     1       5.602 -10.754  -2.393  1.00  0.00     0.037 A 
BRANCH  48  62
ATOM     62  C   UNL     1       2.997 -12.070  -7.798  1.00  0.00     0.057 A 
ATOM     63  C   UNL     1       4.158 -12.192  -8.580  1.00  0.00     0.134 A 
ATOM     64  C   UNL     1       1.849 -12.655  -8.364  1.00  0.00     0.134 A 
ATOM     65  F   UNL     1       5.356 -11.802  -8.131  1.00  0.00    -0.206 F 
ATOM     66  C   UNL     1       4.149 -12.725  -9.874  1.00  0.00     0.040 A 
ATOM     67  C   UNL     1       1.811 -13.138  -9.680  1.00  0.00     0.040 A 
ATOM     68  F   UNL     1       0.727 -12.828  -7.651  1.00  0.00    -0.206 F 
ATOM     69  C   UNL     1       2.965 -13.159 -10.447  1.00  0.00     0.006 A 
ENDBRANCH  48  62
BRANCH  49  70
ATOM     70  C   UNL     1       2.969  -5.618  -0.620  1.00  0.00     0.057 A 
ATOM     71  C   UNL     1       3.022  -4.217  -0.556  1.00  0.00     0.134 A 
ATOM     72  C   UNL     1       1.729  -6.238  -0.417  1.00  0.00     0.134 A 
ATOM     73  F   UNL     1       4.191  -3.576  -0.712  1.00  0.00    -0.206 F 
ATOM     74  C   UNL     1       1.856  -3.460  -0.542  1.00  0.00     0.040 A 
ATOM     75  C   UNL     1       0.558  -5.481  -0.367  1.00  0.00     0.040 A 
ATOM     76  F   UNL     1       1.622  -7.574  -0.438  1.00  0.00    -0.206 F 
ATOM     77  C   UNL     1       0.620  -4.094  -0.491  1.00  0.00     0.006 A 
ENDBRANCH  49  70
BRANCH  61  78
ATOM     78  C   UNL     1       6.060 -12.099  -1.875  1.00  0.00     0.057 A 
ATOM     79  C   UNL     1       6.839 -12.265  -0.724  1.00  0.00     0.134 A 
ATOM     80  C   UNL     1       5.800 -13.296  -2.585  1.00  0.00     0.134 A 
ATOM     81  F   UNL     1       7.317 -11.211  -0.047  1.00  0.00    -0.206 F 
ATOM     82  C   UNL     1       7.210 -13.528  -0.241  1.00  0.00     0.040 A 
ATOM     83  C   UNL     1       6.201 -14.556  -2.140  1.00  0.00     0.040 A 
ATOM     84  F   UNL     1       5.141 -13.317  -3.750  1.00  0.00    -0.206 F 
ATOM     85  C   UNL     1       6.882 -14.681  -0.944  1.00  0.00     0.006 A 
ENDBRANCH  61  78
ENDBRANCH  35  36
ENDBRANCH  28  30
ENDBRANCH  27  28
ENDBRANCH  26  27
ENDBRANCH   1  26
TORSDOF 15
