REMARK SMILES CCOC(=O)c1c(S(=O)(=O)N2CCC[C@@H](C(=O)OCCOC(=O)c3ccc(-c4c5nc(c(-c6c(F)cccc6F)c6ccc([nH]6)c(-c6c(F)cccc6F)c6nc(c(-c7c(F)cccc7F)c7ccc4[nH]7)C=C6)C=C5)cc3)C2)c(C)n(C)c1C
REMARK SMILES IDX 18 1 16 2 17 3 15 4 11 5 12 6 78 7 13 8 14 9 8 10 9 11 10 12
REMARK SMILES IDX 7 13 6 14 83 15 79 16 81 17 84 18 80 19 82 20 4 21 5 22 3 23
REMARK SMILES IDX 2 24 1 25 19 26 20 27 21 28 22 29 23 30 24 31 25 32 77 33
REMARK SMILES IDX 26 34 76 35 27 36 28 37 29 38 70 39 30 40 75 41 69 42 71 43
REMARK SMILES IDX 31 44 74 45 68 46 67 47 32 49 58 50 41 51 57 52 42 53 45 54
REMARK SMILES IDX 56 55 72 56 43 57 44 58 55 60 73 61 46 62 33 63 34 64 39 65
REMARK SMILES IDX 35 66 36 67 38 68 40 69 37 70 59 71 60 72 65 73 61 74 62 75
REMARK SMILES IDX 64 76 66 77 63 78 47 79 48 80 53 81 49 82 50 83 52 84 54 85
REMARK SMILES IDX 51 86
REMARK H PARENT 71 48 45 59
REMARK Flexibility Score: inf
ROOT
ATOM      1  O   UNL     1       1.049   2.737   0.153  1.00  0.00    -0.462 OA
ENDROOT
BRANCH   1   2
ATOM      2  C   UNL     1       1.668   1.698  -0.487  1.00  0.00     0.310 C 
ATOM      3  O   UNL     1       1.094   0.870  -1.182  1.00  0.00    -0.252 OA
BRANCH   2   4
ATOM      4  C   UNL     1       3.174   1.736  -0.276  1.00  0.00     0.114 C 
ATOM      5  N   UNL     1       4.708   1.962   1.733  1.00  0.00    -0.197 NA
ATOM      6  C   UNL     1       5.436   0.734   1.383  1.00  0.00     0.102 C 
ATOM      7  C   UNL     1       3.413   2.276   1.120  1.00  0.00     0.117 C 
ATOM      8  C   UNL     1       5.246   0.326  -0.068  1.00  0.00     0.018 C 
ATOM      9  C   UNL     1       3.791   0.357  -0.498  1.00  0.00     0.018 C 
BRANCH   5  10
ATOM     10  S   UNL     1       4.837   2.475   3.337  1.00  0.00     0.245 S 
ATOM     11  O   UNL     1       4.303   3.821   3.398  1.00  0.00    -0.207 OA
ATOM     12  O   UNL     1       6.178   2.182   3.798  1.00  0.00    -0.207 OA
BRANCH  10  13
ATOM     13  C   UNL     1       3.819   1.621   4.478  1.00  0.00     0.118 A 
ATOM     14  C   UNL     1       2.849   0.577   4.299  1.00  0.00     0.101 A 
ATOM     15  C   UNL     1       2.357   0.277   5.576  1.00  0.00     0.030 A 
ATOM     16  C   UNL     1       3.814   1.968   5.830  1.00  0.00     0.035 A 
ATOM     17  N   UNL     1       2.936   1.136   6.479  1.00  0.00    -0.350 N 
ATOM     18  C   UNL     1       1.399  -0.794   5.991  1.00  0.00     0.065 C 
ATOM     19  C   UNL     1       4.599   3.042   6.517  1.00  0.00     0.066 C 
ATOM     20  C   UNL     1       2.689   1.157   7.908  1.00  0.00     0.149 C 
BRANCH  14  21
ATOM     21  C   UNL     1       2.400  -0.184   3.141  1.00  0.00     0.341 C 
ATOM     22  O   UNL     1       3.136  -0.904   2.473  1.00  0.00    -0.246 OA
BRANCH  21  23
ATOM     23  O   UNL     1       1.042  -0.141   2.991  1.00  0.00    -0.462 OA
BRANCH  23  24
ATOM     24  C   UNL     1       0.433  -1.282   2.360  1.00  0.00     0.230 C 
ATOM     25  C   UNL     1       0.209  -1.062   0.885  1.00  0.00     0.049 C 
ENDBRANCH  23  24
ENDBRANCH  21  23
ENDBRANCH  14  21
ENDBRANCH  10  13
ENDBRANCH   5  10
ENDBRANCH   2   4
ENDBRANCH   1   2
BRANCH   1  26
ATOM     26  C   UNL     1      -0.384   2.855   0.066  1.00  0.00     0.274 C 
BRANCH  26  27
ATOM     27  C   UNL     1      -0.828   3.673  -1.137  1.00  0.00     0.275 C 
BRANCH  27  28
ATOM     28  O   UNL     1      -0.595   2.933  -2.326  1.00  0.00    -0.458 OA
BRANCH  28  29
ATOM     29  C   UNL     1       0.655   3.044  -2.827  1.00  0.00     0.338 C 
ATOM     30  O   UNL     1       1.564   3.742  -2.411  1.00  0.00    -0.246 OA
BRANCH  29  31
ATOM     31  C   UNL     1       0.748   2.237  -4.043  1.00  0.00     0.060 A 
ATOM     32  C   UNL     1       1.996   2.204  -4.671  1.00  0.00     0.016 A 
ATOM     33  C   UNL     1      -0.439   1.880  -4.691  1.00  0.00     0.016 A 
ATOM     34  C   UNL     1       2.013   2.128  -6.040  1.00  0.00     0.010 A 
ATOM     35  C   UNL     1      -0.424   1.832  -6.055  1.00  0.00     0.010 A 
ATOM     36  C   UNL     1       0.785   2.077  -6.701  1.00  0.00    -0.014 A 
BRANCH  36  37
ATOM     37  C   UNL     1       0.764   2.243  -8.130  1.00  0.00     0.031 A 
ATOM     38  C   UNL     1       1.162   1.012  -8.831  1.00  0.00     0.074 A 
ATOM     39  C   UNL     1       0.291   3.374  -8.686  1.00  0.00     0.049 A 
ATOM     40  N   UNL     1       2.242   0.817  -9.507  1.00  0.00    -0.248 NA
ATOM     41  C   UNL     1       0.387  -0.213  -8.561  1.00  0.00     0.031 C 
ATOM     42  C   UNL     1      -0.341   4.520  -8.025  1.00  0.00     0.029 A 
ATOM     43  N   UNL     1       0.168   3.677 -10.005  1.00  0.00    -0.354 N 
ATOM     44  C   UNL     1       2.152  -0.494  -9.953  1.00  0.00     0.074 A 
ATOM     45  C   UNL     1       1.150  -1.135  -9.147  1.00  0.00     0.031 C 
ATOM     46  C   UNL     1      -0.986   5.268  -8.949  1.00  0.00     0.029 A 
ATOM     47  C   UNL     1      -0.717   4.721 -10.266  1.00  0.00     0.049 A 
ATOM     48  H   UNL     1       0.661   3.202 -10.713  1.00  0.00     0.167 HD
ATOM     49  C   UNL     1       2.672  -0.848 -11.156  1.00  0.00     0.037 A 
ATOM     50  C   UNL     1      -1.252   4.990 -11.485  1.00  0.00     0.037 A 
ATOM     51  C   UNL     1       3.623   0.133 -11.620  1.00  0.00     0.049 A 
ATOM     52  C   UNL     1      -0.375   4.332 -12.497  1.00  0.00     0.074 A 
ATOM     53  C   UNL     1       4.795   0.655 -11.106  1.00  0.00     0.029 A 
ATOM     54  N   UNL     1       3.202   1.024 -12.578  1.00  0.00    -0.354 N 
ATOM     55  N   UNL     1       0.848   4.716 -12.745  1.00  0.00    -0.248 NA
ATOM     56  C   UNL     1      -0.675   2.949 -12.848  1.00  0.00     0.031 C 
ATOM     57  C   UNL     1       4.758   2.042 -11.433  1.00  0.00     0.029 A 
ATOM     58  C   UNL     1       3.614   2.276 -12.195  1.00  0.00     0.049 A 
ATOM     59  H   UNL     1       2.695   0.804 -13.393  1.00  0.00     0.167 HD
ATOM     60  C   UNL     1       1.573   3.536 -12.853  1.00  0.00     0.074 A 
ATOM     61  C   UNL     1       0.570   2.479 -12.973  1.00  0.00     0.031 C 
ATOM     62  C   UNL     1       2.898   3.487 -12.523  1.00  0.00     0.037 A 
BRANCH  49  63
ATOM     63  C   UNL     1       2.011  -1.838 -12.078  1.00  0.00     0.057 A 
ATOM     64  C   UNL     1       2.706  -2.266 -13.219  1.00  0.00     0.134 A 
ATOM     65  C   UNL     1       0.637  -2.166 -12.053  1.00  0.00     0.134 A 
ATOM     66  F   UNL     1       4.012  -1.998 -13.367  1.00  0.00    -0.206 F 
ATOM     67  C   UNL     1       2.067  -2.906 -14.286  1.00  0.00     0.040 A 
ATOM     68  C   UNL     1       0.003  -2.855 -13.086  1.00  0.00     0.040 A 
ATOM     69  F   UNL     1      -0.192  -1.752 -11.088  1.00  0.00    -0.206 F 
ATOM     70  C   UNL     1       0.710  -3.198 -14.224  1.00  0.00     0.006 A 
ENDBRANCH  49  63
BRANCH  50  71
ATOM     71  C   UNL     1      -2.632   5.434 -11.802  1.00  0.00     0.057 A 
ATOM     72  C   UNL     1      -2.979   5.839 -13.101  1.00  0.00     0.134 A 
ATOM     73  C   UNL     1      -3.709   5.212 -10.924  1.00  0.00     0.134 A 
ATOM     74  F   UNL     1      -2.030   6.042 -14.026  1.00  0.00    -0.206 F 
ATOM     75  C   UNL     1      -4.313   5.979 -13.510  1.00  0.00     0.040 A 
ATOM     76  C   UNL     1      -5.044   5.357 -11.318  1.00  0.00     0.040 A 
ATOM     77  F   UNL     1      -3.514   4.759  -9.679  1.00  0.00    -0.206 F 
ATOM     78  C   UNL     1      -5.352   5.725 -12.620  1.00  0.00     0.006 A 
ENDBRANCH  50  71
BRANCH  62  79
ATOM     79  C   UNL     1       3.607   4.789 -12.258  1.00  0.00     0.057 A 
ATOM     80  C   UNL     1       3.271   5.677 -11.223  1.00  0.00     0.134 A 
ATOM     81  C   UNL     1       4.766   5.081 -12.985  1.00  0.00     0.134 A 
ATOM     82  F   UNL     1       2.246   5.425 -10.400  1.00  0.00    -0.206 F 
ATOM     83  C   UNL     1       4.021   6.828 -10.963  1.00  0.00     0.040 A 
ATOM     84  C   UNL     1       5.545   6.208 -12.712  1.00  0.00     0.040 A 
ATOM     85  F   UNL     1       5.187   4.247 -13.948  1.00  0.00    -0.206 F 
ATOM     86  C   UNL     1       5.166   7.094 -11.707  1.00  0.00     0.006 A 
ENDBRANCH  62  79
ENDBRANCH  36  37
ENDBRANCH  29  31
ENDBRANCH  28  29
ENDBRANCH  27  28
ENDBRANCH  26  27
ENDBRANCH   1  26
TORSDOF 16
