REMARK SMILES Cc1nc(C(F)(F)F)c(C(=O)OCCOC(=O)c2ccc(-c3c4nc(c(-c5c(F)cccc5F)c5ccc([nH]5)c(-c5c(F)cccc5F)c5nc(c(-c6c(F)cccc6F)c6ccc3[nH]6)C=C5)C=C4)cc2)s1
REMARK SMILES IDX 14 1 13 2 12 3 10 4 11 5 9 6 1 7 2 8 3 9 72 10 4 11 5 12
REMARK SMILES IDX 6 13 7 14 8 15 15 16 16 17 17 18 18 19 19 20 71 21 20 22
REMARK SMILES IDX 70 23 21 24 22 25 23 26 64 27 24 28 69 29 63 30 65 31 25 32
REMARK SMILES IDX 68 33 62 34 61 35 26 37 52 38 35 39 51 40 36 41 39 42 50 43
REMARK SMILES IDX 66 44 37 45 38 46 49 48 67 49 40 50 27 51 28 52 33 53 29 54
REMARK SMILES IDX 30 55 32 56 34 57 31 58 53 59 54 60 59 61 55 62 56 63 58 64
REMARK SMILES IDX 60 65 57 66 41 67 42 68 47 69 43 70 44 71 46 72 48 73 45 74
REMARK H PARENT 65 36 39 47
REMARK Flexibility Score: inf
ROOT
ATOM      1  C   UNL     1       5.483   0.665  -1.113  1.00  0.00     0.275 C 
ENDROOT
BRANCH   1   2
ATOM      2  C   UNL     1       5.156  -0.100   0.174  1.00  0.00     0.275 C 
BRANCH   2   3
ATOM      3  O   UNL     1       3.812  -0.624   0.157  1.00  0.00    -0.458 OA
BRANCH   3   4
ATOM      4  C   UNL     1       2.889   0.016   0.930  1.00  0.00     0.350 C 
ATOM      5  O   UNL     1       3.141   0.972   1.646  1.00  0.00    -0.245 OA
BRANCH   4   6
ATOM      6  C   UNL     1       1.570  -0.536   0.694  1.00  0.00     0.145 A 
ATOM      7  C   UNL     1      -2.258  -0.391   0.087  1.00  0.00     0.079 C 
ATOM      8  C   UNL     1      -0.824  -0.718   0.315  1.00  0.00     0.091 A 
ATOM      9  N   UNL     1      -0.225  -1.810  -0.105  1.00  0.00    -0.236 NA
ATOM     10  S   UNL     1       0.183   0.372   1.164  1.00  0.00    -0.111 S 
ATOM     11  C   UNL     1       1.159  -1.739   0.135  1.00  0.00     0.170 A 
BRANCH  11  12
ATOM     12  C   UNL     1       2.045  -2.901  -0.210  1.00  0.00     0.435 C 
ATOM     13  F   UNL     1       2.737  -2.714  -1.362  1.00  0.00    -0.164 F 
ATOM     14  F   UNL     1       2.961  -3.137   0.770  1.00  0.00    -0.164 F 
ATOM     15  F   UNL     1       1.349  -4.061  -0.355  1.00  0.00    -0.164 F 
ENDBRANCH  11  12
ENDBRANCH   4   6
ENDBRANCH   3   4
ENDBRANCH   2   3
ENDBRANCH   1   2
BRANCH   1  16
ATOM     16  O   UNL     1       4.777   1.920  -1.187  1.00  0.00    -0.458 OA
BRANCH  16  17
ATOM     17  C   UNL     1       3.598   1.869  -1.847  1.00  0.00     0.338 C 
ATOM     18  O   UNL     1       3.090   0.894  -2.376  1.00  0.00    -0.246 OA
BRANCH  17  19
ATOM     19  C   UNL     1       2.877   3.142  -1.694  1.00  0.00     0.060 A 
ATOM     20  C   UNL     1       1.717   3.111  -0.924  1.00  0.00     0.016 A 
ATOM     21  C   UNL     1       3.244   4.306  -2.367  1.00  0.00     0.016 A 
ATOM     22  C   UNL     1       0.893   4.225  -0.836  1.00  0.00     0.010 A 
ATOM     23  C   UNL     1       2.427   5.442  -2.258  1.00  0.00     0.010 A 
ATOM     24  C   UNL     1       1.238   5.405  -1.504  1.00  0.00    -0.014 A 
BRANCH  24  25
ATOM     25  C   UNL     1       0.317   6.569  -1.436  1.00  0.00     0.031 A 
ATOM     26  C   UNL     1      -0.427   7.015  -2.664  1.00  0.00     0.074 A 
ATOM     27  C   UNL     1       0.106   7.191  -0.260  1.00  0.00     0.049 A 
ATOM     28  N   UNL     1      -1.209   8.052  -2.828  1.00  0.00    -0.248 NA
ATOM     29  C   UNL     1      -0.271   6.184  -3.868  1.00  0.00     0.031 C 
ATOM     30  C   UNL     1       0.719   6.816   1.016  1.00  0.00     0.029 A 
ATOM     31  N   UNL     1      -0.688   8.266   0.055  1.00  0.00    -0.354 N 
ATOM     32  C   UNL     1      -1.610   8.019  -4.157  1.00  0.00     0.074 A 
ATOM     33  C   UNL     1      -0.976   6.865  -4.760  1.00  0.00     0.031 C 
ATOM     34  C   UNL     1       0.268   7.638   1.977  1.00  0.00     0.029 A 
ATOM     35  C   UNL     1      -0.611   8.635   1.377  1.00  0.00     0.049 A 
ATOM     36  H   UNL     1      -1.257   8.727  -0.602  1.00  0.00     0.167 HD
ATOM     37  C   UNL     1      -2.434   8.872  -4.812  1.00  0.00     0.037 A 
ATOM     38  C   UNL     1      -1.158   9.681   2.025  1.00  0.00     0.037 A 
ATOM     39  C   UNL     1      -3.084  10.002  -4.199  1.00  0.00     0.049 A 
ATOM     40  C   UNL     1      -2.018  10.648   1.260  1.00  0.00     0.074 A 
ATOM     41  C   UNL     1      -3.945  10.920  -4.777  1.00  0.00     0.029 A 
ATOM     42  N   UNL     1      -2.949  10.365  -2.868  1.00  0.00    -0.354 N 
ATOM     43  N   UNL     1      -2.373  10.620  -0.002  1.00  0.00    -0.248 NA
ATOM     44  C   UNL     1      -2.547  11.799   2.006  1.00  0.00     0.031 C 
ATOM     45  C   UNL     1      -4.294  11.865  -3.807  1.00  0.00     0.029 A 
ATOM     46  C   UNL     1      -3.694  11.505  -2.611  1.00  0.00     0.049 A 
ATOM     47  H   UNL     1      -2.405   9.884  -2.203  1.00  0.00     0.167 HD
ATOM     48  C   UNL     1      -3.183  11.731  -0.195  1.00  0.00     0.074 A 
ATOM     49  C   UNL     1      -3.281  12.404   1.084  1.00  0.00     0.031 C 
ATOM     50  C   UNL     1      -3.790  12.157  -1.330  1.00  0.00     0.037 A 
BRANCH  37  51
ATOM     51  C   UNL     1      -2.653   8.638  -6.279  1.00  0.00     0.057 A 
ATOM     52  C   UNL     1      -3.426   7.573  -6.758  1.00  0.00     0.134 A 
ATOM     53  C   UNL     1      -2.113   9.520  -7.225  1.00  0.00     0.134 A 
ATOM     54  F   UNL     1      -3.962   6.685  -5.907  1.00  0.00    -0.206 F 
ATOM     55  C   UNL     1      -3.636   7.381  -8.126  1.00  0.00     0.040 A 
ATOM     56  C   UNL     1      -2.337   9.353  -8.593  1.00  0.00     0.040 A 
ATOM     57  F   UNL     1      -1.368  10.565  -6.835  1.00  0.00    -0.206 F 
ATOM     58  C   UNL     1      -3.097   8.277  -9.047  1.00  0.00     0.006 A 
ENDBRANCH  37  51
BRANCH  38  59
ATOM     59  C   UNL     1      -0.878   9.893   3.468  1.00  0.00     0.057 A 
ATOM     60  C   UNL     1      -1.887   9.770   4.431  1.00  0.00     0.134 A 
ATOM     61  C   UNL     1       0.402  10.240   3.918  1.00  0.00     0.134 A 
ATOM     62  F   UNL     1      -3.139   9.463   4.061  1.00  0.00    -0.206 F 
ATOM     63  C   UNL     1      -1.637  10.000   5.785  1.00  0.00     0.040 A 
ATOM     64  C   UNL     1       0.673  10.443   5.272  1.00  0.00     0.040 A 
ATOM     65  F   UNL     1       1.413  10.373   3.047  1.00  0.00    -0.206 F 
ATOM     66  C   UNL     1      -0.351  10.332   6.209  1.00  0.00     0.006 A 
ENDBRANCH  38  59
BRANCH  50  67
ATOM     67  C   UNL     1      -4.648  13.384  -1.229  1.00  0.00     0.057 A 
ATOM     68  C   UNL     1      -4.098  14.663  -1.072  1.00  0.00     0.134 A 
ATOM     69  C   UNL     1      -6.042  13.286  -1.323  1.00  0.00     0.134 A 
ATOM     70  F   UNL     1      -2.771  14.823  -0.961  1.00  0.00    -0.206 F 
ATOM     71  C   UNL     1      -4.906  15.798  -0.990  1.00  0.00     0.040 A 
ATOM     72  C   UNL     1      -6.859  14.416  -1.270  1.00  0.00     0.040 A 
ATOM     73  F   UNL     1      -6.632  12.092  -1.482  1.00  0.00    -0.206 F 
ATOM     74  C   UNL     1      -6.291  15.677  -1.097  1.00  0.00     0.006 A 
ENDBRANCH  50  67
ENDBRANCH  24  25
ENDBRANCH  17  19
ENDBRANCH  16  17
ENDBRANCH   1  16
TORSDOF 12
