REMARK SMILES O=C(OCCOC(=O)[C@H]1CCCN(C(=O)c2cc(Br)ccc2Cl)C1)c1ccc(-c2c3nc(c(-c4c(F)cccc4F)c4ccc([nH]4)c(-c4c(F)cccc4F)c4nc(c(-c5c(F)cccc5F)c5ccc2[nH]5)C=C4)C=C3)cc1
REMARK SMILES IDX 4 1 3 2 2 3 1 4 25 5 26 6 78 7 27 8 77 9 28 10 29 11 30 12
REMARK SMILES IDX 71 13 31 14 76 15 70 16 72 17 32 18 75 19 69 20 68 21 33 23
REMARK SMILES IDX 59 24 42 25 58 26 43 27 46 28 57 29 73 30 44 31 45 32 56 34
REMARK SMILES IDX 74 35 47 36 34 37 35 38 40 39 36 40 37 41 39 42 41 43 38 44
REMARK SMILES IDX 60 45 61 46 66 47 62 48 63 49 65 50 67 51 64 52 48 53 49 54
REMARK SMILES IDX 54 55 50 56 51 57 53 58 55 59 52 60 5 61 6 62 7 63 8 64 9 65
REMARK SMILES IDX 10 66 24 67 11 68 13 69 12 70 14 71 15 72 16 73 17 74 22 75
REMARK SMILES IDX 18 76 21 77 23 78 19 79 20 80
REMARK H PARENT 72 22 46 33
REMARK Flexibility Score: inf
ROOT
ATOM      1  C   UNL     1       5.263   1.333  -5.956  1.00  0.00     0.275 C 
ENDROOT
BRANCH   1   2
ATOM      2  O   UNL     1       5.974   0.914  -4.780  1.00  0.00    -0.458 OA
BRANCH   2   3
ATOM      3  C   UNL     1       5.980   1.442  -3.534  1.00  0.00     0.338 C 
ATOM      4  O   UNL     1       6.789   0.996  -2.721  1.00  0.00    -0.246 OA
BRANCH   3   5
ATOM      5  C   UNL     1       4.980   2.443  -3.029  1.00  0.00     0.060 A 
ATOM      6  C   UNL     1       4.241   3.365  -3.782  1.00  0.00     0.016 A 
ATOM      7  C   UNL     1       4.744   2.404  -1.644  1.00  0.00     0.016 A 
ATOM      8  C   UNL     1       3.219   4.140  -3.202  1.00  0.00     0.010 A 
ATOM      9  C   UNL     1       3.711   3.148  -1.069  1.00  0.00     0.010 A 
ATOM     10  C   UNL     1       2.923   4.014  -1.847  1.00  0.00    -0.014 A 
BRANCH  10  11
ATOM     11  C   UNL     1       1.921   4.864  -1.152  1.00  0.00     0.031 A 
ATOM     12  C   UNL     1       2.447   5.817  -0.120  1.00  0.00     0.074 A 
ATOM     13  C   UNL     1       0.591   4.721  -1.318  1.00  0.00     0.049 A 
ATOM     14  N   UNL     1       1.812   6.476   0.810  1.00  0.00    -0.248 NA
ATOM     15  C   UNL     1       3.908   6.015  -0.121  1.00  0.00     0.031 C 
ATOM     16  C   UNL     1      -0.073   3.872  -2.304  1.00  0.00     0.029 A 
ATOM     17  N   UNL     1      -0.452   5.246  -0.588  1.00  0.00    -0.354 N 
ATOM     18  C   UNL     1       2.797   7.178   1.488  1.00  0.00     0.074 A 
ATOM     19  C   UNL     1       4.073   6.749   0.963  1.00  0.00     0.031 C 
ATOM     20  C   UNL     1      -1.395   3.846  -2.051  1.00  0.00     0.029 A 
ATOM     21  C   UNL     1      -1.671   4.682  -0.888  1.00  0.00     0.049 A 
ATOM     22  H   UNL     1      -0.336   5.955   0.085  1.00  0.00     0.167 HD
ATOM     23  C   UNL     1       2.656   8.157   2.411  1.00  0.00     0.037 A 
ATOM     24  C   UNL     1      -2.862   4.802  -0.269  1.00  0.00     0.037 A 
ATOM     25  C   UNL     1       1.391   8.587   2.925  1.00  0.00     0.049 A 
ATOM     26  C   UNL     1      -2.994   5.750   0.892  1.00  0.00     0.074 A 
ATOM     27  C   UNL     1       1.114   9.616   3.804  1.00  0.00     0.029 A 
ATOM     28  N   UNL     1       0.182   7.986   2.607  1.00  0.00    -0.354 N 
ATOM     29  N   UNL     1      -2.070   6.475   1.472  1.00  0.00    -0.248 NA
ATOM     30  C   UNL     1      -4.340   5.923   1.460  1.00  0.00     0.031 C 
ATOM     31  C   UNL     1      -0.265   9.615   4.046  1.00  0.00     0.029 A 
ATOM     32  C   UNL     1      -0.846   8.609   3.287  1.00  0.00     0.049 A 
ATOM     33  H   UNL     1       0.073   7.228   1.988  1.00  0.00     0.167 HD
ATOM     34  C   UNL     1      -2.733   7.254   2.411  1.00  0.00     0.074 A 
ATOM     35  C   UNL     1      -4.129   6.868   2.367  1.00  0.00     0.031 C 
ATOM     36  C   UNL     1      -2.235   8.235   3.202  1.00  0.00     0.037 A 
BRANCH  23  37
ATOM     37  C   UNL     1       3.924   8.819   2.856  1.00  0.00     0.057 A 
ATOM     38  C   UNL     1       4.689   9.591   1.965  1.00  0.00     0.134 A 
ATOM     39  C   UNL     1       4.449   8.588   4.130  1.00  0.00     0.134 A 
ATOM     40  F   UNL     1       4.249   9.824   0.719  1.00  0.00    -0.206 F 
ATOM     41  C   UNL     1       5.963  10.043   2.302  1.00  0.00     0.040 A 
ATOM     42  C   UNL     1       5.711   9.066   4.489  1.00  0.00     0.040 A 
ATOM     43  F   UNL     1       3.769   7.861   5.028  1.00  0.00    -0.206 F 
ATOM     44  C   UNL     1       6.479   9.777   3.567  1.00  0.00     0.006 A 
ENDBRANCH  23  37
BRANCH  24  45
ATOM     45  C   UNL     1      -4.037   4.008  -0.705  1.00  0.00     0.057 A 
ATOM     46  C   UNL     1      -5.031   4.558  -1.521  1.00  0.00     0.134 A 
ATOM     47  C   UNL     1      -4.233   2.704  -0.236  1.00  0.00     0.134 A 
ATOM     48  F   UNL     1      -4.913   5.814  -1.973  1.00  0.00    -0.206 F 
ATOM     49  C   UNL     1      -6.188   3.844  -1.846  1.00  0.00     0.040 A 
ATOM     50  C   UNL     1      -5.386   1.982  -0.552  1.00  0.00     0.040 A 
ATOM     51  F   UNL     1      -3.321   2.129   0.561  1.00  0.00    -0.206 F 
ATOM     52  C   UNL     1      -6.368   2.551  -1.359  1.00  0.00     0.006 A 
ENDBRANCH  24  45
BRANCH  36  53
ATOM     53  C   UNL     1      -3.207   9.048   3.998  1.00  0.00     0.057 A 
ATOM     54  C   UNL     1      -3.769   8.588   5.191  1.00  0.00     0.134 A 
ATOM     55  C   UNL     1      -3.496  10.361   3.601  1.00  0.00     0.134 A 
ATOM     56  F   UNL     1      -3.545   7.333   5.610  1.00  0.00    -0.206 F 
ATOM     57  C   UNL     1      -4.580   9.412   5.972  1.00  0.00     0.040 A 
ATOM     58  C   UNL     1      -4.286  11.201   4.383  1.00  0.00     0.040 A 
ATOM     59  F   UNL     1      -2.983  10.857   2.464  1.00  0.00    -0.206 F 
ATOM     60  C   UNL     1      -4.827  10.727   5.576  1.00  0.00     0.006 A 
ENDBRANCH  36  53
ENDBRANCH  10  11
ENDBRANCH   3   5
ENDBRANCH   2   3
ENDBRANCH   1   2
BRANCH   1  61
ATOM     61  C   UNL     1       3.866   0.721  -6.092  1.00  0.00     0.274 C 
BRANCH  61  62
ATOM     62  O   UNL     1       3.218   0.562  -4.819  1.00  0.00    -0.462 OA
BRANCH  62  63
ATOM     63  C   UNL     1       2.434  -0.546  -4.661  1.00  0.00     0.310 C 
ATOM     64  O   UNL     1       2.230  -1.372  -5.541  1.00  0.00    -0.252 OA
BRANCH  63  65
ATOM     65  C   UNL     1       1.853  -0.658  -3.251  1.00  0.00     0.119 C 
ATOM     66  C   UNL     1       2.019   0.642  -2.460  1.00  0.00     0.019 C 
ATOM     67  C   UNL     1       0.381  -1.076  -3.323  1.00  0.00     0.135 C 
ATOM     68  C   UNL     1       1.214   0.727  -1.170  1.00  0.00     0.022 C 
ATOM     69  N   UNL     1      -0.282  -0.931  -2.022  1.00  0.00    -0.338 N 
ATOM     70  C   UNL     1      -0.237   0.413  -1.462  1.00  0.00     0.120 C 
BRANCH  69  71
ATOM     71  C   UNL     1      -0.673  -2.049  -1.294  1.00  0.00     0.255 C 
ATOM     72  O   UNL     1      -0.449  -3.209  -1.627  1.00  0.00    -0.269 OA
BRANCH  71  73
ATOM     73  C   UNL     1      -1.373  -1.815  -0.016  1.00  0.00     0.059 A 
ATOM     74  C   UNL     1      -0.659  -2.005   1.174  1.00  0.00     0.031 A 
ATOM     75  C   UNL     1      -2.688  -1.336   0.009  1.00  0.00     0.053 A 
ATOM     76  C   UNL     1      -1.260  -1.674   2.387  1.00  0.00     0.018 A 
ATOM     77  C   UNL     1      -3.275  -1.006   1.232  1.00  0.00     0.022 A 
ATOM     78  Cl  UNL     1      -3.611  -1.099  -1.432  1.00  0.00    -0.083 Cl
ATOM     79  Br  UNL     1      -0.304  -1.893   4.002  1.00  0.00    -0.051 Br
ATOM     80  C   UNL     1      -2.559  -1.166   2.421  1.00  0.00     0.017 A 
ENDBRANCH  71  73
ENDBRANCH  69  71
ENDBRANCH  63  65
ENDBRANCH  62  63
ENDBRANCH  61  62
ENDBRANCH   1  61
TORSDOF 13
