REMARK SMILES CC[C@@H](Sc1cccc(N)c1)C(=O)OCCOC(=O)c1ccc(-c2c3nc(c(-c4c(F)cccc4F)c4ccc([nH]4)c(-c4c(F)cccc4F)c4nc(c(-c5c(F)cccc5F)c5ccc2[nH]5)C=C4)C=C3)cc1
REMARK SMILES IDX 15 1 14 2 12 3 13 4 3 5 2 6 1 7 4 8 5 9 6 10 11 11 7 12 9 13
REMARK SMILES IDX 8 14 10 15 16 18 17 19 18 20 19 21 20 22 21 23 73 24 22 25
REMARK SMILES IDX 72 26 23 27 24 28 25 29 66 30 26 31 71 32 65 33 67 34 27 35
REMARK SMILES IDX 70 36 64 37 63 38 28 40 54 41 37 42 53 43 38 44 41 45 52 46
REMARK SMILES IDX 68 47 39 48 40 49 51 51 69 52 42 53 29 54 30 55 35 56 31 57
REMARK SMILES IDX 32 58 34 59 36 60 33 61 55 62 56 63 61 64 57 65 58 66 60 67
REMARK SMILES IDX 62 68 59 69 43 70 44 71 49 72 45 73 46 74 48 75 50 76 47 77
REMARK H PARENT 10 16 10 17 67 39 41 50
REMARK Flexibility Score: inf
ROOT
ATOM      1  C   UNL     1      -1.123   1.570   5.008  1.00  0.00     0.274 C 
ENDROOT
BRANCH   1   2
ATOM      2  O   UNL     1      -0.972   1.286   3.604  1.00  0.00    -0.461 OA
BRANCH   2   3
ATOM      3  C   UNL     1       0.137   1.772   2.976  1.00  0.00     0.319 C 
ATOM      4  O   UNL     1       0.968   2.499   3.508  1.00  0.00    -0.251 OA
BRANCH   3   5
ATOM      5  C   UNL     1       0.235   1.297   1.514  1.00  0.00     0.161 C 
BRANCH   5   6
ATOM      6  C   UNL     1      -0.537  -0.025   1.324  1.00  0.00     0.023 C 
ATOM      7  C   UNL     1      -0.126  -0.868   0.131  1.00  0.00     0.006 C 
ENDBRANCH   5   6
BRANCH   5   8
ATOM      8  S   UNL     1      -0.410   2.681   0.475  1.00  0.00    -0.111 SA
BRANCH   8   9
ATOM      9  C   UNL     1       0.693   2.809  -0.931  1.00  0.00     0.010 A 
ATOM     10  C   UNL     1       0.748   4.049  -1.581  1.00  0.00     0.015 A 
ATOM     11  C   UNL     1       1.397   1.743  -1.496  1.00  0.00     0.040 A 
ATOM     12  C   UNL     1       1.463   4.203  -2.771  1.00  0.00     0.003 A 
ATOM     13  C   UNL     1       2.038   1.857  -2.736  1.00  0.00     0.032 A 
ATOM     14  C   UNL     1       2.099   3.106  -3.349  1.00  0.00     0.025 A 
BRANCH  13  15
ATOM     15  N   UNL     1       2.694   0.765  -3.289  1.00  0.00    -0.399 N 
ATOM     16  H   UNL     1       3.143   0.851  -4.161  1.00  0.00     0.156 HD
ATOM     17  H   UNL     1       2.709  -0.094  -2.809  1.00  0.00     0.156 HD
ENDBRANCH  13  15
ENDBRANCH   8   9
ENDBRANCH   5   8
ENDBRANCH   3   5
ENDBRANCH   2   3
ENDBRANCH   1   2
BRANCH   1  18
ATOM     18  C   UNL     1      -0.644   0.391   5.858  1.00  0.00     0.275 C 
BRANCH  18  19
ATOM     19  O   UNL     1       0.794   0.311   5.862  1.00  0.00    -0.458 OA
BRANCH  19  20
ATOM     20  C   UNL     1       1.334  -0.610   5.032  1.00  0.00     0.338 C 
ATOM     21  O   UNL     1       0.755  -1.412   4.323  1.00  0.00    -0.246 OA
BRANCH  20  22
ATOM     22  C   UNL     1       2.791  -0.432   5.009  1.00  0.00     0.060 A 
ATOM     23  C   UNL     1       3.367   0.176   3.891  1.00  0.00     0.016 A 
ATOM     24  C   UNL     1       3.586  -0.926   6.043  1.00  0.00     0.016 A 
ATOM     25  C   UNL     1       4.750   0.293   3.799  1.00  0.00     0.010 A 
ATOM     26  C   UNL     1       4.974  -0.801   5.953  1.00  0.00     0.010 A 
ATOM     27  C   UNL     1       5.564  -0.201   4.826  1.00  0.00    -0.014 A 
BRANCH  27  28
ATOM     28  C   UNL     1       7.037  -0.123   4.700  1.00  0.00     0.031 A 
ATOM     29  C   UNL     1       7.825  -1.361   4.392  1.00  0.00     0.074 A 
ATOM     30  C   UNL     1       7.660   1.059   4.856  1.00  0.00     0.049 A 
ATOM     31  N   UNL     1       9.122  -1.523   4.335  1.00  0.00    -0.248 NA
ATOM     32  C   UNL     1       7.051  -2.580   4.112  1.00  0.00     0.031 C 
ATOM     33  C   UNL     1       6.997   2.336   5.118  1.00  0.00     0.029 A 
ATOM     34  N   UNL     1       8.995   1.373   4.822  1.00  0.00    -0.354 N 
ATOM     35  C   UNL     1       9.322  -2.863   4.033  1.00  0.00     0.074 A 
ATOM     36  C   UNL     1       8.013  -3.474   3.933  1.00  0.00     0.031 C 
ATOM     37  C   UNL     1       7.928   3.297   5.226  1.00  0.00     0.029 A 
ATOM     38  C   UNL     1       9.251   2.696   5.083  1.00  0.00     0.049 A 
ATOM     39  H   UNL     1       9.700   0.714   4.629  1.00  0.00     0.167 HD
ATOM     40  C   UNL     1      10.491  -3.521   3.853  1.00  0.00     0.037 A 
ATOM     41  C   UNL     1      10.424   3.343   5.220  1.00  0.00     0.037 A 
ATOM     42  C   UNL     1      11.790  -2.907   3.941  1.00  0.00     0.049 A 
ATOM     43  C   UNL     1      11.709   2.579   5.065  1.00  0.00     0.074 A 
ATOM     44  C   UNL     1      13.034  -3.488   3.765  1.00  0.00     0.029 A 
ATOM     45  N   UNL     1      12.011  -1.568   4.227  1.00  0.00    -0.354 N 
ATOM     46  N   UNL     1      11.887   1.310   4.789  1.00  0.00    -0.248 NA
ATOM     47  C   UNL     1      12.955   3.337   5.246  1.00  0.00     0.031 C 
ATOM     48  C   UNL     1      14.009  -2.507   3.977  1.00  0.00     0.029 A 
ATOM     49  C   UNL     1      13.371  -1.308   4.249  1.00  0.00     0.049 A 
ATOM     50  H   UNL     1      11.305  -0.902   4.391  1.00  0.00     0.167 HD
ATOM     51  C   UNL     1      13.262   1.120   4.748  1.00  0.00     0.074 A 
ATOM     52  C   UNL     1      13.871   2.407   5.013  1.00  0.00     0.031 C 
ATOM     53  C   UNL     1      13.957  -0.019   4.513  1.00  0.00     0.037 A 
BRANCH  40  54
ATOM     54  C   UNL     1      10.416  -4.990   3.569  1.00  0.00     0.057 A 
ATOM     55  C   UNL     1      10.019  -5.482   2.319  1.00  0.00     0.134 A 
ATOM     56  C   UNL     1      10.772  -5.925   4.550  1.00  0.00     0.134 A 
ATOM     57  F   UNL     1       9.651  -4.638   1.343  1.00  0.00    -0.206 F 
ATOM     58  C   UNL     1       9.961  -6.852   2.060  1.00  0.00     0.040 A 
ATOM     59  C   UNL     1      10.738  -7.297   4.296  1.00  0.00     0.040 A 
ATOM     60  F   UNL     1      11.163  -5.519   5.767  1.00  0.00    -0.206 F 
ATOM     61  C   UNL     1      10.327  -7.764   3.049  1.00  0.00     0.006 A 
ENDBRANCH  40  54
BRANCH  41  62
ATOM     62  C   UNL     1      10.434   4.790   5.543  1.00  0.00     0.057 A 
ATOM     63  C   UNL     1      10.823   5.741   4.595  1.00  0.00     0.134 A 
ATOM     64  C   UNL     1      10.056   5.253   6.809  1.00  0.00     0.134 A 
ATOM     65  F   UNL     1      11.219   5.354   3.374  1.00  0.00    -0.206 F 
ATOM     66  C   UNL     1      10.845   7.104   4.896  1.00  0.00     0.040 A 
ATOM     67  C   UNL     1      10.052   6.614   7.117  1.00  0.00     0.040 A 
ATOM     68  F   UNL     1       9.673   4.389   7.761  1.00  0.00    -0.206 F 
ATOM     69  C   UNL     1      10.453   7.544   6.159  1.00  0.00     0.006 A 
ENDBRANCH  41  62
BRANCH  53  70
ATOM     70  C   UNL     1      15.452   0.085   4.508  1.00  0.00     0.057 A 
ATOM     71  C   UNL     1      16.184   0.200   5.696  1.00  0.00     0.134 A 
ATOM     72  C   UNL     1      16.167   0.035   3.305  1.00  0.00     0.134 A 
ATOM     73  F   UNL     1      15.556   0.266   6.879  1.00  0.00    -0.206 F 
ATOM     74  C   UNL     1      17.578   0.280   5.686  1.00  0.00     0.040 A 
ATOM     75  C   UNL     1      17.561   0.095   3.284  1.00  0.00     0.040 A 
ATOM     76  F   UNL     1      15.523  -0.080   2.134  1.00  0.00    -0.206 F 
ATOM     77  C   UNL     1      18.270   0.222   4.477  1.00  0.00     0.006 A 
ENDBRANCH  53  70
ENDBRANCH  27  28
ENDBRANCH  20  22
ENDBRANCH  19  20
ENDBRANCH  18  19
ENDBRANCH   1  18
TORSDOF 15
