REMARK SMILES O=C(OCCOC(=O)c1cc2c(c(S(=O)(=O)Nc3cc(C(F)(F)F)ccc3-n3cccn3)c1)CCC2)c1ccc(-c2c3nc(c(-c4c(F)cccc4F)c4ccc([nH]4)c(-c4c(F)cccc4F)c4nc(c(-c5c(F)cccc5F)c5ccc2[nH]5)C=C4)C=C3)cc1
REMARK SMILES IDX 5 1 4 2 3 3 2 4 1 5 37 6 38 7 90 8 39 9 89 10 40 11 41 12
REMARK SMILES IDX 42 13 83 14 43 15 88 16 82 17 84 18 44 19 87 20 81 21 80 22
REMARK SMILES IDX 45 24 71 25 54 26 70 27 55 28 58 29 69 30 85 31 56 32 57 33
REMARK SMILES IDX 68 35 86 36 59 37 46 38 47 39 52 40 48 41 49 42 51 43 53 44
REMARK SMILES IDX 50 45 72 46 73 47 78 48 74 49 75 50 77 51 79 52 76 53 60 54
REMARK SMILES IDX 61 55 66 56 62 57 63 58 65 59 67 60 64 61 6 62 7 63 8 64
REMARK SMILES IDX 9 65 10 66 33 67 11 68 13 69 12 70 36 71 34 72 35 73 14 74
REMARK SMILES IDX 15 75 16 76 17 77 18 79 19 80 27 81 20 82 26 83 25 84 28 85
REMARK SMILES IDX 29 86 32 87 30 88 31 89 21 90 22 91 23 92 24 93
REMARK H PARENT 84 23 58 34 17 78
REMARK Flexibility Score: inf
ROOT
ATOM      1  C   UNL     1       4.199  -0.890   1.457  1.00  0.00     0.275 C 
ENDROOT
BRANCH   1   2
ATOM      2  C   UNL     1       4.593   0.557   1.151  1.00  0.00     0.275 C 
BRANCH   2   3
ATOM      3  O   UNL     1       3.546   1.466   0.755  1.00  0.00    -0.458 OA
BRANCH   3   4
ATOM      4  C   UNL     1       2.406   0.956   0.239  1.00  0.00     0.338 C 
ATOM      5  O   UNL     1       1.442   0.613   0.900  1.00  0.00    -0.246 OA
BRANCH   4   6
ATOM      6  C   UNL     1       2.397   1.038  -1.241  1.00  0.00     0.060 A 
ATOM      7  C   UNL     1       3.580   1.072  -1.989  1.00  0.00     0.016 A 
ATOM      8  C   UNL     1       1.159   1.075  -1.891  1.00  0.00     0.016 A 
ATOM      9  C   UNL     1       3.532   1.223  -3.366  1.00  0.00     0.010 A 
ATOM     10  C   UNL     1       1.111   1.206  -3.275  1.00  0.00     0.010 A 
ATOM     11  C   UNL     1       2.297   1.333  -4.008  1.00  0.00    -0.014 A 
BRANCH  11  12
ATOM     12  C   UNL     1       2.300   1.555  -5.456  1.00  0.00     0.031 A 
ATOM     13  C   UNL     1       2.905   0.493  -6.328  1.00  0.00     0.074 A 
ATOM     14  C   UNL     1       1.642   2.594  -6.010  1.00  0.00     0.049 A 
ATOM     15  N   UNL     1       3.657   0.610  -7.379  1.00  0.00    -0.248 NA
ATOM     16  C   UNL     1       2.615  -0.902  -5.982  1.00  0.00     0.031 C 
ATOM     17  C   UNL     1       0.775   3.577  -5.352  1.00  0.00     0.029 A 
ATOM     18  N   UNL     1       1.532   2.921  -7.329  1.00  0.00    -0.354 N 
ATOM     19  C   UNL     1       3.780  -0.675  -7.917  1.00  0.00     0.074 A 
ATOM     20  C   UNL     1       3.113  -1.573  -7.018  1.00  0.00     0.031 C 
ATOM     21  C   UNL     1       0.068   4.244  -6.288  1.00  0.00     0.029 A 
ATOM     22  C   UNL     1       0.526   3.832  -7.604  1.00  0.00     0.049 A 
ATOM     23  H   UNL     1       2.117   2.543  -8.025  1.00  0.00     0.167 HD
ATOM     24  C   UNL     1       4.348  -0.931  -9.126  1.00  0.00     0.037 A 
ATOM     25  C   UNL     1       0.057   4.183  -8.823  1.00  0.00     0.037 A 
ATOM     26  C   UNL     1       5.287   0.083  -9.500  1.00  0.00     0.049 A 
ATOM     27  C   UNL     1       1.067   3.794  -9.833  1.00  0.00     0.074 A 
ATOM     28  C   UNL     1       6.446   0.571  -8.927  1.00  0.00     0.029 A 
ATOM     29  N   UNL     1       4.939   1.002 -10.454  1.00  0.00    -0.354 N 
ATOM     30  N   UNL     1       2.227   4.370  -9.978  1.00  0.00    -0.248 NA
ATOM     31  C   UNL     1       0.938   2.484 -10.452  1.00  0.00     0.031 C 
ATOM     32  C   UNL     1       6.412   1.972  -9.179  1.00  0.00     0.029 A 
ATOM     33  C   UNL     1       5.257   2.225  -9.920  1.00  0.00     0.049 A 
ATOM     34  H   UNL     1       4.544   0.823 -11.338  1.00  0.00     0.167 HD
ATOM     35  C   UNL     1       3.088   3.345 -10.336  1.00  0.00     0.074 A 
ATOM     36  C   UNL     1       2.221   2.233 -10.716  1.00  0.00     0.031 C 
ATOM     37  C   UNL     1       4.420   3.394 -10.036  1.00  0.00     0.037 A 
BRANCH  24  38
ATOM     38  C   UNL     1       3.867  -1.996 -10.074  1.00  0.00     0.057 A 
ATOM     39  C   UNL     1       4.640  -2.349 -11.194  1.00  0.00     0.134 A 
ATOM     40  C   UNL     1       2.541  -2.475 -10.079  1.00  0.00     0.134 A 
ATOM     41  F   UNL     1       5.911  -1.937 -11.310  1.00  0.00    -0.206 F 
ATOM     42  C   UNL     1       4.113  -3.076 -12.269  1.00  0.00     0.040 A 
ATOM     43  C   UNL     1       2.017  -3.234 -11.130  1.00  0.00     0.040 A 
ATOM     44  F   UNL     1       1.670  -2.154  -9.113  1.00  0.00    -0.206 F 
ATOM     45  C   UNL     1       2.795  -3.513 -12.244  1.00  0.00     0.006 A 
ENDBRANCH  24  38
BRANCH  25  46
ATOM     46  C   UNL     1      -1.307   4.613  -9.192  1.00  0.00     0.057 A 
ATOM     47  C   UNL     1      -1.556   5.309 -10.381  1.00  0.00     0.134 A 
ATOM     48  C   UNL     1      -2.438   4.133  -8.506  1.00  0.00     0.134 A 
ATOM     49  F   UNL     1      -0.541   5.765 -11.129  1.00  0.00    -0.206 F 
ATOM     50  C   UNL     1      -2.854   5.510 -10.866  1.00  0.00     0.040 A 
ATOM     51  C   UNL     1      -3.739   4.336  -8.973  1.00  0.00     0.040 A 
ATOM     52  F   UNL     1      -2.312   3.380  -7.404  1.00  0.00    -0.206 F 
ATOM     53  C   UNL     1      -3.951   5.016 -10.165  1.00  0.00     0.006 A 
ENDBRANCH  25  46
BRANCH  37  54
ATOM     54  C   UNL     1       4.983   4.681  -9.504  1.00  0.00     0.057 A 
ATOM     55  C   UNL     1       4.571   5.271  -8.299  1.00  0.00     0.134 A 
ATOM     56  C   UNL     1       6.095   5.251 -10.135  1.00  0.00     0.134 A 
ATOM     57  F   UNL     1       3.594   4.732  -7.560  1.00  0.00    -0.206 F 
ATOM     58  C   UNL     1       5.200   6.405  -7.777  1.00  0.00     0.040 A 
ATOM     59  C   UNL     1       6.755   6.362  -9.605  1.00  0.00     0.040 A 
ATOM     60  F   UNL     1       6.593   4.701 -11.254  1.00  0.00    -0.206 F 
ATOM     61  C   UNL     1       6.301   6.951  -8.428  1.00  0.00     0.006 A 
ENDBRANCH  37  54
ENDBRANCH  11  12
ENDBRANCH   4   6
ENDBRANCH   3   4
ENDBRANCH   2   3
ENDBRANCH   1   2
BRANCH   1  62
ATOM     62  O   UNL     1       3.713  -1.556   0.274  1.00  0.00    -0.458 OA
BRANCH  62  63
ATOM     63  C   UNL     1       2.578  -2.295   0.424  1.00  0.00     0.338 C 
ATOM     64  O   UNL     1       1.927  -2.475   1.434  1.00  0.00    -0.246 OA
BRANCH  63  65
ATOM     65  C   UNL     1       2.270  -2.933  -0.869  1.00  0.00     0.061 A 
ATOM     66  C   UNL     1       3.157  -3.906  -1.317  1.00  0.00     0.019 A 
ATOM     67  C   UNL     1       1.115  -2.595  -1.612  1.00  0.00     0.038 A 
ATOM     68  C   UNL     1       2.901  -4.484  -2.541  1.00  0.00    -0.043 A 
ATOM     69  C   UNL     1       0.868  -3.176  -2.881  1.00  0.00     0.092 A 
ATOM     70  C   UNL     1       1.819  -4.076  -3.356  1.00  0.00    -0.024 A 
ATOM     71  C   UNL     1       3.716  -5.564  -3.190  1.00  0.00     0.036 C 
ATOM     72  C   UNL     1       2.016  -4.721  -4.692  1.00  0.00     0.037 C 
ATOM     73  C   UNL     1       2.745  -6.005  -4.284  1.00  0.00     0.010 C 
BRANCH  69  74
ATOM     74  S   UNL     1      -0.492  -2.541  -3.860  1.00  0.00     0.262 S 
ATOM     75  O   UNL     1      -1.178  -1.553  -3.050  1.00  0.00    -0.201 OA
ATOM     76  O   UNL     1       0.039  -2.151  -5.147  1.00  0.00    -0.201 OA
BRANCH  74  77
ATOM     77  N   UNL     1      -1.696  -3.682  -4.247  1.00  0.00    -0.277 N 
ATOM     78  H   UNL     1      -2.635  -3.388  -4.284  1.00  0.00     0.180 HD
BRANCH  77  79
ATOM     79  C   UNL     1      -1.392  -5.054  -4.522  1.00  0.00     0.075 A 
ATOM     80  C   UNL     1      -1.186  -5.453  -5.857  1.00  0.00     0.042 A 
ATOM     81  C   UNL     1      -1.193  -5.977  -3.487  1.00  0.00     0.089 A 
ATOM     82  C   UNL     1      -0.727  -6.751  -6.161  1.00  0.00     0.058 A 
ATOM     83  C   UNL     1      -0.753  -7.275  -3.786  1.00  0.00     0.031 A 
ATOM     84  C   UNL     1      -0.531  -7.660  -5.112  1.00  0.00     0.015 A 
BRANCH  81  85
ATOM     85  N   UNL     1      -1.380  -5.612  -2.130  1.00  0.00    -0.239 N 
ATOM     86  C   UNL     1      -2.233  -4.661  -1.613  1.00  0.00     0.115 A 
ATOM     87  N   UNL     1      -0.578  -6.127  -1.165  1.00  0.00    -0.177 NA
ATOM     88  C   UNL     1      -1.819  -4.407  -0.330  1.00  0.00     0.042 A 
ATOM     89  C   UNL     1      -0.782  -5.325  -0.115  1.00  0.00     0.135 A 
ENDBRANCH  81  85
BRANCH  82  90
ATOM     90  C   UNL     1      -0.381  -7.126  -7.586  1.00  0.00     0.416 C 
ATOM     91  F   UNL     1      -1.476  -7.215  -8.387  1.00  0.00    -0.166 F 
ATOM     92  F   UNL     1       0.441  -6.210  -8.173  1.00  0.00    -0.166 F 
ATOM     93  F   UNL     1       0.265  -8.320  -7.693  1.00  0.00    -0.166 F 
ENDBRANCH  82  90
ENDBRANCH  77  79
ENDBRANCH  74  77
ENDBRANCH  69  74
ENDBRANCH  63  65
ENDBRANCH  62  63
ENDBRANCH   1  62
TORSDOF 16
