REMARK SMILES O=C(OCCOC(=O)c1ccc(-n2cc(CSc3nc4ccccc4c(=O)n3-c3ccc(Br)cc3)nn2)cc1)c1ccc(-c2c3nc(c(-c4c(F)cccc4F)c4ccc([nH]4)c(-c4c(F)cccc4F)c4nc(c(-c5c(F)cccc5F)c5ccc2[nH]5)C=C4)C=C3)cc1
REMARK SMILES IDX 6 1 5 2 4 3 3 4 2 5 1 6 40 7 41 8 93 9 42 10 92 11 43 12
REMARK SMILES IDX 44 13 45 14 86 15 46 16 91 17 85 18 87 19 47 20 90 21 84 22
REMARK SMILES IDX 83 23 48 25 74 26 57 27 73 28 58 29 61 30 72 31 88 32 59 33
REMARK SMILES IDX 60 34 71 36 89 37 62 38 49 39 50 40 55 41 51 42 52 43 54 44
REMARK SMILES IDX 56 45 53 46 75 47 76 48 81 49 77 50 78 51 80 52 82 53 79 54
REMARK SMILES IDX 63 55 64 56 69 57 65 58 66 59 68 60 70 61 67 62 7 63 8 64
REMARK SMILES IDX 9 65 10 66 39 67 11 68 38 69 12 70 13 71 14 72 37 73 15 74
REMARK SMILES IDX 36 75 16 76 17 77 18 78 19 79 28 80 20 81 26 82 21 83 25 84
REMARK SMILES IDX 27 85 22 86 24 87 23 88 29 89 30 90 35 91 31 92 34 93 32 94
REMARK SMILES IDX 33 95
REMARK H PARENT 87 24 61 35
REMARK Flexibility Score: inf
ROOT
ATOM      1  O   UNL     1       3.977  -0.663   1.471  1.00  0.00    -0.458 OA
ENDROOT
BRANCH   1   2
ATOM      2  C   UNL     1       4.453   0.664   1.188  1.00  0.00     0.275 C 
BRANCH   2   3
ATOM      3  C   UNL     1       4.641   0.849  -0.319  1.00  0.00     0.275 C 
BRANCH   3   4
ATOM      4  O   UNL     1       3.461   0.866  -1.149  1.00  0.00    -0.458 OA
BRANCH   4   5
ATOM      5  C   UNL     1       2.360   0.192  -0.757  1.00  0.00     0.338 C 
ATOM      6  O   UNL     1       1.436   0.692  -0.135  1.00  0.00    -0.246 OA
BRANCH   5   7
ATOM      7  C   UNL     1       2.260  -1.145  -1.390  1.00  0.00     0.060 A 
ATOM      8  C   UNL     1       3.379  -1.888  -1.779  1.00  0.00     0.016 A 
ATOM      9  C   UNL     1       0.975  -1.670  -1.574  1.00  0.00     0.016 A 
ATOM     10  C   UNL     1       3.209  -3.103  -2.430  1.00  0.00     0.010 A 
ATOM     11  C   UNL     1       0.808  -2.902  -2.186  1.00  0.00     0.010 A 
ATOM     12  C   UNL     1       1.919  -3.588  -2.675  1.00  0.00    -0.014 A 
BRANCH  12  13
ATOM     13  C   UNL     1       1.770  -4.856  -3.388  1.00  0.00     0.031 A 
ATOM     14  C   UNL     1       2.488  -6.019  -2.783  1.00  0.00     0.074 A 
ATOM     15  C   UNL     1       0.926  -5.018  -4.429  1.00  0.00     0.049 A 
ATOM     16  N   UNL     1       3.458  -6.724  -3.267  1.00  0.00    -0.248 NA
ATOM     17  C   UNL     1       2.143  -6.366  -1.401  1.00  0.00     0.031 C 
ATOM     18  C   UNL     1      -0.050  -4.073  -4.980  1.00  0.00     0.029 A 
ATOM     19  N   UNL     1       0.712  -6.133  -5.180  1.00  0.00    -0.354 N 
ATOM     20  C   UNL     1       3.726  -7.721  -2.322  1.00  0.00     0.074 A 
ATOM     21  C   UNL     1       2.992  -7.362  -1.143  1.00  0.00     0.031 C 
ATOM     22  C   UNL     1      -0.897  -4.726  -5.808  1.00  0.00     0.029 A 
ATOM     23  C   UNL     1      -0.426  -6.089  -5.974  1.00  0.00     0.049 A 
ATOM     24  H   UNL     1       1.317  -6.910  -5.161  1.00  0.00     0.167 HD
ATOM     25  C   UNL     1       4.374  -8.875  -2.647  1.00  0.00     0.037 A 
ATOM     26  C   UNL     1      -0.953  -7.113  -6.691  1.00  0.00     0.037 A 
ATOM     27  C   UNL     1       5.072  -8.738  -3.896  1.00  0.00     0.049 A 
ATOM     28  C   UNL     1       0.119  -8.122  -6.871  1.00  0.00     0.074 A 
ATOM     29  C   UNL     1       6.097  -7.933  -4.349  1.00  0.00     0.029 A 
ATOM     30  N   UNL     1       4.467  -9.244  -5.019  1.00  0.00    -0.354 N 
ATOM     31  N   UNL     1       1.190  -7.915  -7.587  1.00  0.00    -0.248 NA
ATOM     32  C   UNL     1       0.226  -9.170  -5.868  1.00  0.00     0.031 C 
ATOM     33  C   UNL     1       5.714  -7.583  -5.676  1.00  0.00     0.029 A 
ATOM     34  C   UNL     1       4.533  -8.265  -5.975  1.00  0.00     0.049 A 
ATOM     35  H   UNL     1       4.064 -10.136  -5.119  1.00  0.00     0.167 HD
ATOM     36  C   UNL     1       2.219  -8.490  -6.856  1.00  0.00     0.074 A 
ATOM     37  C   UNL     1       1.555  -9.306  -5.839  1.00  0.00     0.031 C 
ATOM     38  C   UNL     1       3.501  -8.033  -6.955  1.00  0.00     0.037 A 
BRANCH  25  39
ATOM     39  C   UNL     1       4.094 -10.234  -2.045  1.00  0.00     0.057 A 
ATOM     40  C   UNL     1       4.901 -11.329  -2.412  1.00  0.00     0.134 A 
ATOM     41  C   UNL     1       2.895 -10.574  -1.389  1.00  0.00     0.134 A 
ATOM     42  F   UNL     1       6.071 -11.143  -3.042  1.00  0.00    -0.206 F 
ATOM     43  C   UNL     1       4.498 -12.658  -2.230  1.00  0.00     0.040 A 
ATOM     44  C   UNL     1       2.507 -11.898  -1.156  1.00  0.00     0.040 A 
ATOM     45  F   UNL     1       1.986  -9.659  -1.038  1.00  0.00    -0.206 F 
ATOM     46  C   UNL     1       3.289 -12.946  -1.611  1.00  0.00     0.006 A 
ENDBRANCH  25  39
BRANCH  26  47
ATOM     47  C   UNL     1      -2.381  -7.428  -6.931  1.00  0.00     0.057 A 
ATOM     48  C   UNL     1      -2.776  -8.311  -7.945  1.00  0.00     0.134 A 
ATOM     49  C   UNL     1      -3.368  -7.093  -5.986  1.00  0.00     0.134 A 
ATOM     50  F   UNL     1      -1.895  -8.725  -8.867  1.00  0.00    -0.206 F 
ATOM     51  C   UNL     1      -4.071  -8.847  -8.005  1.00  0.00     0.040 A 
ATOM     52  C   UNL     1      -4.663  -7.620  -6.035  1.00  0.00     0.040 A 
ATOM     53  F   UNL     1      -3.079  -6.316  -4.932  1.00  0.00    -0.206 F 
ATOM     54  C   UNL     1      -5.016  -8.511  -7.040  1.00  0.00     0.006 A 
ENDBRANCH  26  47
BRANCH  38  55
ATOM     55  C   UNL     1       3.821  -7.024  -8.023  1.00  0.00     0.057 A 
ATOM     56  C   UNL     1       3.313  -5.716  -8.046  1.00  0.00     0.134 A 
ATOM     57  C   UNL     1       4.837  -7.323  -8.935  1.00  0.00     0.134 A 
ATOM     58  F   UNL     1       2.407  -5.305  -7.153  1.00  0.00    -0.206 F 
ATOM     59  C   UNL     1       3.783  -4.758  -8.951  1.00  0.00     0.040 A 
ATOM     60  C   UNL     1       5.338  -6.368  -9.821  1.00  0.00     0.040 A 
ATOM     61  F   UNL     1       5.411  -8.537  -8.931  1.00  0.00    -0.206 F 
ATOM     62  C   UNL     1       4.807  -5.081  -9.835  1.00  0.00     0.006 A 
ENDBRANCH  38  55
ENDBRANCH  12  13
ENDBRANCH   5   7
ENDBRANCH   4   5
ENDBRANCH   3   4
ENDBRANCH   2   3
ENDBRANCH   1   2
BRANCH   1  63
ATOM     63  C   UNL     1       2.895  -0.746   2.284  1.00  0.00     0.338 C 
ATOM     64  O   UNL     1       2.318   0.159   2.865  1.00  0.00    -0.246 OA
BRANCH  63  65
ATOM     65  C   UNL     1       2.444  -2.145   2.279  1.00  0.00     0.060 A 
ATOM     66  C   UNL     1       1.207  -2.452   1.705  1.00  0.00     0.018 A 
ATOM     67  C   UNL     1       3.241  -3.145   2.847  1.00  0.00     0.018 A 
ATOM     68  C   UNL     1       0.784  -3.778   1.638  1.00  0.00     0.029 A 
ATOM     69  C   UNL     1       2.805  -4.472   2.815  1.00  0.00     0.029 A 
ATOM     70  C   UNL     1       1.594  -4.781   2.178  1.00  0.00     0.066 A 
BRANCH  70  71
ATOM     71  N   UNL     1       1.030  -6.053   2.339  1.00  0.00    -0.220 N 
ATOM     72  C   UNL     1       0.297  -6.436   3.419  1.00  0.00     0.141 A 
ATOM     73  N   UNL     1       1.218  -7.099   1.526  1.00  0.00    -0.062 NA
ATOM     74  C   UNL     1      -0.001  -7.761   3.236  1.00  0.00     0.093 A 
ATOM     75  N   UNL     1       0.575  -8.143   2.043  1.00  0.00    -0.134 NA
BRANCH  74  76
ATOM     76  C   UNL     1      -0.491  -8.784   4.191  1.00  0.00     0.138 C 
BRANCH  76  77
ATOM     77  S   UNL     1      -2.151  -8.874   4.853  1.00  0.00    -0.081 SA
BRANCH  77  78
ATOM     78  C   UNL     1      -3.022  -7.367   4.859  1.00  0.00     0.176 A 
ATOM     79  N   UNL     1      -4.292  -7.542   4.631  1.00  0.00    -0.223 NA
ATOM     80  N   UNL     1      -2.498  -6.101   5.060  1.00  0.00    -0.255 N 
ATOM     81  C   UNL     1      -5.096  -6.414   4.441  1.00  0.00     0.079 A 
ATOM     82  C   UNL     1      -3.061  -5.130   4.220  1.00  0.00     0.266 A 
ATOM     83  C   UNL     1      -6.485  -6.491   4.523  1.00  0.00     0.029 A 
ATOM     84  C   UNL     1      -4.516  -5.221   4.035  1.00  0.00     0.066 A 
ATOM     85  O   UNL     1      -2.448  -4.249   3.620  1.00  0.00    -0.268 OA
ATOM     86  C   UNL     1      -7.272  -5.405   4.121  1.00  0.00     0.002 A 
ATOM     87  C   UNL     1      -5.284  -4.154   3.564  1.00  0.00     0.016 A 
ATOM     88  C   UNL     1      -6.673  -4.255   3.599  1.00  0.00     0.001 A 
BRANCH  80  89
ATOM     89  C   UNL     1      -1.413  -5.716   5.942  1.00  0.00     0.051 A 
ATOM     90  C   UNL     1      -1.061  -4.354   6.072  1.00  0.00     0.028 A 
ATOM     91  C   UNL     1      -0.604  -6.626   6.632  1.00  0.00     0.028 A 
ATOM     92  C   UNL     1       0.173  -3.956   6.598  1.00  0.00     0.018 A 
ATOM     93  C   UNL     1       0.665  -6.248   7.102  1.00  0.00     0.018 A 
ATOM     94  C   UNL     1       1.066  -4.920   7.035  1.00  0.00     0.018 A 
ATOM     95  Br  UNL     1       2.830  -4.433   7.493  1.00  0.00    -0.051 Br
ENDBRANCH  80  89
ENDBRANCH  77  78
ENDBRANCH  76  77
ENDBRANCH  74  76
ENDBRANCH  70  71
ENDBRANCH  63  65
ENDBRANCH   1  63
TORSDOF 16
