REMARK SMILES C[C@H](CC[NH+](C)C)[NH2+][C@H](C)[C@@H](C)C(=O)OCCOC(=O)c1ccc(-c2c3nc(c(-c4c(F)cccc4F)c4ccc([nH]4)c(-c4c(F)cccc4F)c4nc(c(-c5c(F)cccc5F)c5ccc2[nH]5)C=C4)C=C3)cc1
REMARK SMILES IDX 13 1 14 2 11 3 12 4 9 5 10 6 8 7 2 10 1 11 3 12 4 13 5 14
REMARK SMILES IDX 6 15 7 16 15 18 16 19 17 20 18 21 19 22 20 23 21 24 22 25
REMARK SMILES IDX 74 26 23 27 73 28 24 29 25 30 26 31 67 32 27 33 72 34 66 35
REMARK SMILES IDX 68 36 28 37 71 38 65 39 64 40 29 42 55 43 38 44 54 45 39 46
REMARK SMILES IDX 42 47 53 48 69 49 40 50 41 51 52 53 70 54 43 55 30 56 31 57
REMARK SMILES IDX 36 58 32 59 33 60 35 61 37 62 34 63 56 64 57 65 62 66 58 67
REMARK SMILES IDX 59 68 61 69 63 70 60 71 44 72 45 73 50 74 46 75 47 76 49 77
REMARK SMILES IDX 51 78 48 79
REMARK H PARENT 8 8 8 9 5 17 68 41 42 52
REMARK Flexibility Score: inf
ROOT
ATOM      1  C   UNL     1      -4.401  -3.295  -0.555  1.00  0.00     0.314 C 
ATOM      2  O   UNL     1      -5.508  -2.927  -0.170  1.00  0.00    -0.252 OA
ENDROOT
BRANCH   1   3
ATOM      3  C   UNL     1      -3.209  -2.351  -0.540  1.00  0.00     0.154 C 
ATOM      4  C   UNL     1      -3.349  -1.472  -1.794  1.00  0.00     0.026 C 
BRANCH   3   5
ATOM      5  C   UNL     1      -1.776  -2.943  -0.417  1.00  0.00     0.193 C 
ATOM      6  C   UNL     1      -0.785  -1.800  -0.110  1.00  0.00     0.076 C 
BRANCH   5   7
ATOM      7  N   UNL     1      -1.564  -3.964   0.637  1.00  0.00    -0.341 N 
ATOM      8  H   UNL     1      -1.234  -3.498   1.483  1.00  0.00     0.346 HD
ATOM      9  H   UNL     1      -2.453  -4.438   0.794  1.00  0.00     0.346 HD
BRANCH   7  10
ATOM     10  C   UNL     1      -0.564  -4.996   0.238  1.00  0.00     0.185 C 
ATOM     11  C   UNL     1      -1.158  -5.909  -0.835  1.00  0.00     0.075 C 
BRANCH  10  12
ATOM     12  C   UNL     1       0.032  -5.760   1.463  1.00  0.00     0.126 C 
BRANCH  12  13
ATOM     13  C   UNL     1      -0.677  -7.004   2.051  1.00  0.00     0.268 C 
BRANCH  13  14
ATOM     14  N   UNL     1      -0.365  -8.378   1.604  1.00  0.00    -0.340 N 
ATOM     15  C   UNL     1      -1.519  -9.257   1.839  1.00  0.00     0.332 C 
ATOM     16  C   UNL     1       0.118  -8.562   0.248  1.00  0.00     0.332 C 
ATOM     17  H   UNL     1       0.441  -8.628   2.177  1.00  0.00     0.347 HD
ENDBRANCH  13  14
ENDBRANCH  12  13
ENDBRANCH  10  12
ENDBRANCH   7  10
ENDBRANCH   5   7
ENDBRANCH   3   5
ENDBRANCH   1   3
BRANCH   1  18
ATOM     18  O   UNL     1      -4.156  -4.517  -1.089  1.00  0.00    -0.462 OA
BRANCH  18  19
ATOM     19  C   UNL     1      -5.314  -5.372  -1.223  1.00  0.00     0.274 C 
BRANCH  19  20
ATOM     20  C   UNL     1      -5.514  -6.345  -0.051  1.00  0.00     0.275 C 
BRANCH  20  21
ATOM     21  O   UNL     1      -5.732  -5.683   1.214  1.00  0.00    -0.458 OA
BRANCH  21  22
ATOM     22  C   UNL     1      -4.579  -5.450   1.877  1.00  0.00     0.338 C 
ATOM     23  O   UNL     1      -3.469  -5.743   1.478  1.00  0.00    -0.246 OA
BRANCH  22  24
ATOM     24  C   UNL     1      -4.727  -4.652   3.092  1.00  0.00     0.060 A 
ATOM     25  C   UNL     1      -4.395  -3.299   3.010  1.00  0.00     0.016 A 
ATOM     26  C   UNL     1      -4.980  -5.250   4.326  1.00  0.00     0.016 A 
ATOM     27  C   UNL     1      -4.371  -2.516   4.152  1.00  0.00     0.010 A 
ATOM     28  C   UNL     1      -4.982  -4.457   5.478  1.00  0.00     0.010 A 
ATOM     29  C   UNL     1      -4.702  -3.083   5.387  1.00  0.00    -0.014 A 
BRANCH  29  30
ATOM     30  C   UNL     1      -4.928  -2.172   6.526  1.00  0.00     0.031 A 
ATOM     31  C   UNL     1      -3.907  -1.978   7.598  1.00  0.00     0.074 A 
ATOM     32  C   UNL     1      -6.078  -1.474   6.522  1.00  0.00     0.049 A 
ATOM     33  N   UNL     1      -3.961  -1.197   8.645  1.00  0.00    -0.248 NA
ATOM     34  C   UNL     1      -2.667  -2.759   7.486  1.00  0.00     0.031 C 
ATOM     35  C   UNL     1      -7.117  -1.579   5.493  1.00  0.00     0.029 A 
ATOM     36  N   UNL     1      -6.557  -0.528   7.385  1.00  0.00    -0.354 N 
ATOM     37  C   UNL     1      -2.772  -1.399   9.330  1.00  0.00     0.074 A 
ATOM     38  C   UNL     1      -2.015  -2.381   8.579  1.00  0.00     0.031 C 
ATOM     39  C   UNL     1      -8.098  -0.711   5.770  1.00  0.00     0.029 A 
ATOM     40  C   UNL     1      -7.776  -0.021   7.012  1.00  0.00     0.049 A 
ATOM     41  H   UNL     1      -6.076  -0.239   8.194  1.00  0.00     0.167 HD
ATOM     42  C   UNL     1      -2.365  -0.819  10.485  1.00  0.00     0.037 A 
ATOM     43  C   UNL     1      -8.554   0.897   7.610  1.00  0.00     0.037 A 
ATOM     44  C   UNL     1      -3.135   0.157  11.215  1.00  0.00     0.049 A 
ATOM     45  C   UNL     1      -8.071   1.529   8.878  1.00  0.00     0.074 A 
ATOM     46  C   UNL     1      -2.825   0.792  12.406  1.00  0.00     0.029 A 
ATOM     47  N   UNL     1      -4.374   0.643  10.816  1.00  0.00    -0.354 N 
ATOM     48  N   UNL     1      -6.954   1.312   9.530  1.00  0.00    -0.248 NA
ATOM     49  C   UNL     1      -8.950   2.530   9.492  1.00  0.00     0.031 C 
ATOM     50  C   UNL     1      -3.887   1.643  12.739  1.00  0.00     0.029 A 
ATOM     51  C   UNL     1      -4.843   1.563  11.740  1.00  0.00     0.049 A 
ATOM     52  H   UNL     1      -4.849   0.372   9.998  1.00  0.00     0.167 HD
ATOM     53  C   UNL     1      -6.992   2.149  10.633  1.00  0.00     0.074 A 
ATOM     54  C   UNL     1      -8.233   2.896  10.546  1.00  0.00     0.031 C 
ATOM     55  C   UNL     1      -6.088   2.281  11.633  1.00  0.00     0.037 A 
BRANCH  42  56
ATOM     56  C   UNL     1      -1.043  -1.251  11.045  1.00  0.00     0.057 A 
ATOM     57  C   UNL     1       0.171  -0.819  10.498  1.00  0.00     0.134 A 
ATOM     58  C   UNL     1      -0.985  -2.086  12.169  1.00  0.00     0.134 A 
ATOM     59  F   UNL     1       0.184  -0.029   9.414  1.00  0.00    -0.206 F 
ATOM     60  C   UNL     1       1.397  -1.212  11.040  1.00  0.00     0.040 A 
ATOM     61  C   UNL     1       0.234  -2.472  12.730  1.00  0.00     0.040 A 
ATOM     62  F   UNL     1      -2.112  -2.533  12.743  1.00  0.00    -0.206 F 
ATOM     63  C   UNL     1       1.430  -2.037  12.163  1.00  0.00     0.006 A 
ENDBRANCH  42  56
BRANCH  43  64
ATOM     64  C   UNL     1      -9.851   1.262   6.995  1.00  0.00     0.057 A 
ATOM     65  C   UNL     1     -10.023   2.488   6.346  1.00  0.00     0.134 A 
ATOM     66  C   UNL     1     -10.926   0.365   6.986  1.00  0.00     0.134 A 
ATOM     67  F   UNL     1      -9.031   3.390   6.333  1.00  0.00    -0.206 F 
ATOM     68  C   UNL     1     -11.220   2.811   5.708  1.00  0.00     0.040 A 
ATOM     69  C   UNL     1     -12.121   0.666   6.333  1.00  0.00     0.040 A 
ATOM     70  F   UNL     1     -10.814  -0.832   7.580  1.00  0.00    -0.206 F 
ATOM     71  C   UNL     1     -12.271   1.894   5.692  1.00  0.00     0.006 A 
ENDBRANCH  43  64
BRANCH  55  72
ATOM     72  C   UNL     1      -6.425   3.276  12.700  1.00  0.00     0.057 A 
ATOM     73  C   UNL     1      -7.380   2.995  13.684  1.00  0.00     0.134 A 
ATOM     74  C   UNL     1      -5.799   4.527  12.734  1.00  0.00     0.134 A 
ATOM     75  F   UNL     1      -8.025   1.819  13.690  1.00  0.00    -0.206 F 
ATOM     76  C   UNL     1      -7.722   3.938  14.653  1.00  0.00     0.040 A 
ATOM     77  C   UNL     1      -6.120   5.471  13.709  1.00  0.00     0.040 A 
ATOM     78  F   UNL     1      -4.875   4.852  11.818  1.00  0.00    -0.206 F 
ATOM     79  C   UNL     1      -7.090   5.181  14.668  1.00  0.00     0.006 A 
ENDBRANCH  55  72
ENDBRANCH  29  30
ENDBRANCH  22  24
ENDBRANCH  21  22
ENDBRANCH  20  21
ENDBRANCH  19  20
ENDBRANCH  18  19
ENDBRANCH   1  18
TORSDOF 17
