REMARK SMILES O=C(CCC(=O)N1CCC(c2nnc3ccccn23)CC1)OCCOC(=O)c1ccc(-c2c3nc(c(-c4c(F)cccc4F)c4ccc([nH]4)c(-c4c(F)cccc4F)c4nc(c(-c5c(F)cccc5F)c5ccc2[nH]5)C=C4)C=C3)cc1
REMARK SMILES IDX 23 1 22 2 2 3 1 4 3 5 4 6 5 7 6 8 7 9 8 10 21 11 9 12 20 13
REMARK SMILES IDX 10 14 11 15 12 16 19 17 13 18 14 19 18 20 15 21 17 22 16 23
REMARK SMILES IDX 24 24 25 25 26 26 27 27 28 28 29 29 81 30 30 31 80 32 31 33
REMARK SMILES IDX 32 34 33 35 74 36 34 37 79 38 73 39 75 40 35 41 78 42 72 43
REMARK SMILES IDX 71 44 36 46 62 47 45 48 61 49 46 50 49 51 60 52 76 53 47 54
REMARK SMILES IDX 48 55 59 57 77 58 50 59 37 60 38 61 43 62 39 63 40 64 42 65
REMARK SMILES IDX 44 66 41 67 63 68 64 69 69 70 65 71 66 72 68 73 70 74 67 75
REMARK SMILES IDX 51 76 52 77 57 78 53 79 54 80 56 81 58 82 55 83
REMARK H PARENT 75 45 49 56
REMARK Flexibility Score: inf
ROOT
ATOM      1  C   UNL     1       4.821   0.297  -1.019  1.00  0.00     0.274 C 
ENDROOT
BRANCH   1   2
ATOM      2  O   UNL     1       3.436  -0.061  -0.788  1.00  0.00    -0.462 OA
BRANCH   2   3
ATOM      3  C   UNL     1       2.682   0.271   0.278  1.00  0.00     0.306 C 
ATOM      4  O   UNL     1       1.456   0.191   0.223  1.00  0.00    -0.252 OA
BRANCH   3   5
ATOM      5  C   UNL     1       3.357   0.550   1.585  1.00  0.00     0.132 C 
BRANCH   5   6
ATOM      6  C   UNL     1       3.487  -0.755   2.348  1.00  0.00     0.112 C 
BRANCH   6   7
ATOM      7  C   UNL     1       4.657  -1.574   1.852  1.00  0.00     0.223 C 
ATOM      8  O   UNL     1       5.804  -1.172   2.058  1.00  0.00    -0.275 OA
ATOM      9  N   UNL     1       4.402  -2.784   1.231  1.00  0.00    -0.343 N 
ATOM     10  C   UNL     1       5.470  -3.767   1.187  1.00  0.00     0.120 C 
ATOM     11  C   UNL     1       3.233  -3.112   0.406  1.00  0.00     0.120 C 
ATOM     12  C   UNL     1       5.970  -3.932  -0.234  1.00  0.00     0.033 C 
ATOM     13  C   UNL     1       3.651  -3.348  -1.058  1.00  0.00     0.033 C 
ATOM     14  C   UNL     1       4.814  -4.349  -1.161  1.00  0.00     0.062 C 
BRANCH  14  15
ATOM     15  C   UNL     1       5.346  -4.495  -2.554  1.00  0.00     0.140 A 
ATOM     16  N   UNL     1       5.311  -3.601  -3.524  1.00  0.00    -0.134 NA
ATOM     17  N   UNL     1       6.096  -5.579  -2.966  1.00  0.00    -0.286 N 
ATOM     18  N   UNL     1       6.063  -4.075  -4.579  1.00  0.00    -0.130 NA
ATOM     19  C   UNL     1       6.550  -5.246  -4.233  1.00  0.00     0.160 A 
ATOM     20  C   UNL     1       6.434  -6.768  -2.319  1.00  0.00     0.095 A 
ATOM     21  C   UNL     1       7.423  -6.165  -4.879  1.00  0.00     0.050 A 
ATOM     22  C   UNL     1       7.254  -7.638  -2.932  1.00  0.00     0.019 A 
ATOM     23  C   UNL     1       7.766  -7.310  -4.254  1.00  0.00     0.005 A 
ENDBRANCH  14  15
ENDBRANCH   6   7
ENDBRANCH   5   6
ENDBRANCH   3   5
ENDBRANCH   2   3
ENDBRANCH   1   2
BRANCH   1  24
ATOM     24  C   UNL     1       4.878   1.225  -2.231  1.00  0.00     0.275 C 
BRANCH  24  25
ATOM     25  O   UNL     1       4.301   2.481  -1.834  1.00  0.00    -0.458 OA
BRANCH  25  26
ATOM     26  C   UNL     1       2.965   2.595  -2.049  1.00  0.00     0.338 C 
ATOM     27  O   UNL     1       2.284   1.938  -2.810  1.00  0.00    -0.246 OA
BRANCH  26  28
ATOM     28  C   UNL     1       2.420   3.530  -1.037  1.00  0.00     0.060 A 
ATOM     29  C   UNL     1       1.118   3.312  -0.570  1.00  0.00     0.016 A 
ATOM     30  C   UNL     1       3.186   4.584  -0.525  1.00  0.00     0.016 A 
ATOM     31  C   UNL     1       0.561   4.175   0.372  1.00  0.00     0.010 A 
ATOM     32  C   UNL     1       2.630   5.448   0.416  1.00  0.00     0.010 A 
ATOM     33  C   UNL     1       1.302   5.269   0.836  1.00  0.00    -0.014 A 
BRANCH  33  34
ATOM     34  C   UNL     1       0.627   6.345   1.590  1.00  0.00     0.031 A 
ATOM     35  C   UNL     1       0.117   7.530   0.818  1.00  0.00     0.074 A 
ATOM     36  C   UNL     1       0.470   6.270   2.921  1.00  0.00     0.049 A 
ATOM     37  N   UNL     1      -0.495   8.601   1.250  1.00  0.00    -0.248 NA
ATOM     38  C   UNL     1       0.334   7.504  -0.639  1.00  0.00     0.031 C 
ATOM     39  C   UNL     1       0.920   5.168   3.769  1.00  0.00     0.029 A 
ATOM     40  N   UNL     1      -0.109   7.155   3.795  1.00  0.00    -0.354 N 
ATOM     41  C   UNL     1      -0.751   9.365   0.118  1.00  0.00     0.074 A 
ATOM     42  C   UNL     1      -0.185   8.664  -1.012  1.00  0.00     0.031 C 
ATOM     43  C   UNL     1       0.614   5.450   5.048  1.00  0.00     0.029 A 
ATOM     44  C   UNL     1      -0.043   6.755   5.106  1.00  0.00     0.049 A 
ATOM     45  H   UNL     1      -0.531   7.997   3.509  1.00  0.00     0.167 HD
ATOM     46  C   UNL     1      -1.416  10.540   0.026  1.00  0.00     0.037 A 
ATOM     47  C   UNL     1      -0.461   7.383   6.221  1.00  0.00     0.037 A 
ATOM     48  C   UNL     1      -1.962  11.245   1.153  1.00  0.00     0.049 A 
ATOM     49  C   UNL     1      -1.153   8.715   6.098  1.00  0.00     0.074 A 
ATOM     50  C   UNL     1      -2.649  12.445   1.172  1.00  0.00     0.029 A 
ATOM     51  N   UNL     1      -1.874  10.810   2.467  1.00  0.00    -0.354 N 
ATOM     52  N   UNL     1      -1.425   9.411   5.020  1.00  0.00    -0.248 NA
ATOM     53  C   UNL     1      -1.609   9.342   7.346  1.00  0.00     0.031 C 
ATOM     54  C   UNL     1      -2.949  12.753   2.503  1.00  0.00     0.029 A 
ATOM     55  C   UNL     1      -2.483  11.724   3.308  1.00  0.00     0.049 A 
ATOM     56  H   UNL     1      -1.442   9.974   2.758  1.00  0.00     0.167 HD
ATOM     57  C   UNL     1      -2.103  10.543   5.457  1.00  0.00     0.074 A 
ATOM     58  C   UNL     1      -2.217  10.430   6.896  1.00  0.00     0.031 C 
ATOM     59  C   UNL     1      -2.586  11.585   4.737  1.00  0.00     0.037 A 
BRANCH  46  60
ATOM     60  C   UNL     1      -1.583  11.126  -1.342  1.00  0.00     0.057 A 
ATOM     61  C   UNL     1      -2.475  10.572  -2.271  1.00  0.00     0.134 A 
ATOM     62  C   UNL     1      -0.862  12.259  -1.733  1.00  0.00     0.134 A 
ATOM     63  F   UNL     1      -3.180   9.473  -1.964  1.00  0.00    -0.206 F 
ATOM     64  C   UNL     1      -2.631  11.117  -3.546  1.00  0.00     0.040 A 
ATOM     65  C   UNL     1      -1.025  12.826  -2.998  1.00  0.00     0.040 A 
ATOM     66  F   UNL     1       0.011  12.835  -0.892  1.00  0.00    -0.206 F 
ATOM     67  C   UNL     1      -1.909  12.252  -3.910  1.00  0.00     0.006 A 
ENDBRANCH  46  60
BRANCH  47  68
ATOM     68  C   UNL     1      -0.241   6.769   7.554  1.00  0.00     0.057 A 
ATOM     69  C   UNL     1      -1.310   6.283   8.316  1.00  0.00     0.134 A 
ATOM     70  C   UNL     1       1.039   6.691   8.116  1.00  0.00     0.134 A 
ATOM     71  F   UNL     1      -2.563   6.352   7.842  1.00  0.00    -0.206 F 
ATOM     72  C   UNL     1      -1.119   5.766   9.599  1.00  0.00     0.040 A 
ATOM     73  C   UNL     1       1.248   6.155   9.388  1.00  0.00     0.040 A 
ATOM     74  F   UNL     1       2.105   7.138   7.437  1.00  0.00    -0.206 F 
ATOM     75  C   UNL     1       0.165   5.699  10.137  1.00  0.00     0.006 A 
ENDBRANCH  47  68
BRANCH  59  76
ATOM     76  C   UNL     1      -3.300  12.664   5.495  1.00  0.00     0.057 A 
ATOM     77  C   UNL     1      -2.610  13.578   6.301  1.00  0.00     0.134 A 
ATOM     78  C   UNL     1      -4.689  12.806   5.395  1.00  0.00     0.134 A 
ATOM     79  F   UNL     1      -1.279  13.487   6.446  1.00  0.00    -0.206 F 
ATOM     80  C   UNL     1      -3.281  14.579   7.004  1.00  0.00     0.040 A 
ATOM     81  C   UNL     1      -5.368  13.818   6.073  1.00  0.00     0.040 A 
ATOM     82  F   UNL     1      -5.407  11.969   4.630  1.00  0.00    -0.206 F 
ATOM     83  C   UNL     1      -4.664  14.704   6.887  1.00  0.00     0.006 A 
ENDBRANCH  59  76
ENDBRANCH  33  34
ENDBRANCH  26  28
ENDBRANCH  25  26
ENDBRANCH  24  25
ENDBRANCH   1  24
TORSDOF 14
