REMARK SMILES Cc1c(C)c2c(c(C)c1O)CC[C@@](C)(C(=O)OCCOC(=O)c1ccc(-c3c4nc(c(-c5c(F)cccc5F)c5ccc([nH]5)c(-c5c(F)cccc5F)c5nc(c(-c6c(F)cccc6F)c6ccc3[nH]6)C=C5)C=C4)cc1)O2
REMARK SMILES IDX 19 1 18 2 17 3 15 4 16 5 13 6 1 7 2 8 3 9 9 10 4 11 5 12
REMARK SMILES IDX 7 13 6 14 77 15 8 16 11 17 12 18 14 19 10 20 20 22 21 23
REMARK SMILES IDX 22 24 23 25 24 26 76 27 25 28 75 29 26 30 27 31 28 32 69 33
REMARK SMILES IDX 29 34 74 35 68 36 70 37 30 38 73 39 67 40 66 41 31 43 57 44
REMARK SMILES IDX 40 45 56 46 41 47 44 48 55 49 71 50 42 51 43 52 54 54 72 55
REMARK SMILES IDX 45 56 32 57 33 58 38 59 34 60 35 61 37 62 39 63 36 64 58 65
REMARK SMILES IDX 59 66 64 67 60 68 61 69 63 70 65 71 62 72 46 73 47 74 52 75
REMARK SMILES IDX 48 76 49 77 51 78 53 79 50 80
REMARK H PARENT 10 21 70 42 44 53
REMARK Flexibility Score: inf
ROOT
ATOM      1  C   UNL     1      -5.210   4.639   6.149  1.00  0.00     0.275 C 
ENDROOT
BRANCH   1   2
ATOM      2  C   UNL     1      -3.847   4.633   6.841  1.00  0.00     0.274 C 
BRANCH   2   3
ATOM      3  O   UNL     1      -2.775   4.749   5.882  1.00  0.00    -0.459 OA
BRANCH   3   4
ATOM      4  C   UNL     1      -2.151   3.590   5.516  1.00  0.00     0.350 C 
ATOM      5  O   UNL     1      -2.428   2.490   5.981  1.00  0.00    -0.247 OA
BRANCH   4   6
ATOM      6  C   UNL     1      -1.017   3.843   4.493  1.00  0.00     0.203 C 
ATOM      7  C   UNL     1       1.055   0.118  -0.041  1.00  0.00     0.049 C 
ATOM      8  C   UNL     1       0.757   1.415   0.672  1.00  0.00    -0.002 A 
ATOM      9  C   UNL     1       0.074   1.438   1.913  1.00  0.00    -0.002 A 
ATOM     10  C   UNL     1       1.182   2.635   0.115  1.00  0.00     0.122 A 
ATOM     11  C   UNL     1      -0.323   0.144   2.584  1.00  0.00     0.049 C 
ATOM     12  C   UNL     1      -0.220   2.679   2.525  1.00  0.00     0.127 A 
ATOM     13  C   UNL     1       0.901   3.869   0.724  1.00  0.00    -0.002 A 
ATOM     14  C   UNL     1       0.136   3.890   1.910  1.00  0.00     0.001 A 
ATOM     15  O   UNL     1      -0.876   2.628   3.731  1.00  0.00    -0.475 OA
ATOM     16  C   UNL     1       1.389   5.157   0.107  1.00  0.00     0.049 C 
ATOM     17  C   UNL     1      -0.270   5.201   2.528  1.00  0.00     0.044 C 
ATOM     18  C   UNL     1      -1.358   5.011   3.569  1.00  0.00     0.065 C 
ATOM     19  C   UNL     1       0.257   4.058   5.320  1.00  0.00     0.069 C 
BRANCH  10  20
ATOM     20  O   UNL     1       1.893   2.675  -1.058  1.00  0.00    -0.507 OA
ATOM     21  H   UNL     1       2.106   1.879  -1.504  1.00  0.00     0.293 HD
ENDBRANCH  10  20
ENDBRANCH   4   6
ENDBRANCH   3   4
ENDBRANCH   2   3
ENDBRANCH   1   2
BRANCH   1  22
ATOM     22  O   UNL     1      -5.375   3.431   5.387  1.00  0.00    -0.458 OA
BRANCH  22  23
ATOM     23  C   UNL     1      -5.494   3.584   4.049  1.00  0.00     0.338 C 
ATOM     24  O   UNL     1      -5.556   4.621   3.414  1.00  0.00    -0.246 OA
BRANCH  23  25
ATOM     25  C   UNL     1      -5.459   2.256   3.423  1.00  0.00     0.060 A 
ATOM     26  C   UNL     1      -4.218   1.664   3.211  1.00  0.00     0.016 A 
ATOM     27  C   UNL     1      -6.625   1.647   2.957  1.00  0.00     0.016 A 
ATOM     28  C   UNL     1      -4.129   0.471   2.506  1.00  0.00     0.010 A 
ATOM     29  C   UNL     1      -6.536   0.427   2.274  1.00  0.00     0.010 A 
ATOM     30  C   UNL     1      -5.282  -0.157   2.024  1.00  0.00    -0.014 A 
BRANCH  30  31
ATOM     31  C   UNL     1      -5.132  -1.362   1.171  1.00  0.00     0.031 A 
ATOM     32  C   UNL     1      -5.400  -1.265  -0.303  1.00  0.00     0.074 A 
ATOM     33  C   UNL     1      -4.654  -2.509   1.688  1.00  0.00     0.049 A 
ATOM     34  N   UNL     1      -5.382  -2.206  -1.212  1.00  0.00    -0.248 NA
ATOM     35  C   UNL     1      -5.725   0.072  -0.825  1.00  0.00     0.031 C 
ATOM     36  C   UNL     1      -4.261  -2.708   3.083  1.00  0.00     0.029 A 
ATOM     37  N   UNL     1      -4.391  -3.716   1.090  1.00  0.00    -0.354 N 
ATOM     38  C   UNL     1      -5.730  -1.585  -2.403  1.00  0.00     0.074 A 
ATOM     39  C   UNL     1      -5.954  -0.187  -2.104  1.00  0.00     0.031 C 
ATOM     40  C   UNL     1      -3.772  -3.950   3.226  1.00  0.00     0.029 A 
ATOM     41  C   UNL     1      -3.876  -4.654   1.950  1.00  0.00     0.049 A 
ATOM     42  H   UNL     1      -4.557  -3.893   0.136  1.00  0.00     0.167 HD
ATOM     43  C   UNL     1      -5.851  -2.131  -3.636  1.00  0.00     0.037 A 
ATOM     44  C   UNL     1      -3.545  -5.943   1.740  1.00  0.00     0.037 A 
ATOM     45  C   UNL     1      -5.588  -3.511  -3.943  1.00  0.00     0.049 A 
ATOM     46  C   UNL     1      -3.751  -6.547   0.381  1.00  0.00     0.074 A 
ATOM     47  C   UNL     1      -5.690  -4.159  -5.162  1.00  0.00     0.029 A 
ATOM     48  N   UNL     1      -5.158  -4.455  -3.023  1.00  0.00    -0.354 N 
ATOM     49  N   UNL     1      -4.155  -5.971  -0.725  1.00  0.00    -0.248 NA
ATOM     50  C   UNL     1      -3.483  -7.987   0.245  1.00  0.00     0.031 C 
ATOM     51  C   UNL     1      -5.352  -5.503  -4.972  1.00  0.00     0.029 A 
ATOM     52  C   UNL     1      -5.008  -5.684  -3.642  1.00  0.00     0.049 A 
ATOM     53  H   UNL     1      -4.985  -4.277  -2.070  1.00  0.00     0.167 HD
ATOM     54  C   UNL     1      -4.198  -6.973  -1.684  1.00  0.00     0.074 A 
ATOM     55  C   UNL     1      -3.754  -8.191  -1.038  1.00  0.00     0.031 C 
ATOM     56  C   UNL     1      -4.581  -6.891  -2.982  1.00  0.00     0.037 A 
BRANCH  43  57
ATOM     57  C   UNL     1      -6.332  -1.235  -4.735  1.00  0.00     0.057 A 
ATOM     58  C   UNL     1      -5.503  -0.279  -5.332  1.00  0.00     0.134 A 
ATOM     59  C   UNL     1      -7.647  -1.340  -5.206  1.00  0.00     0.134 A 
ATOM     60  F   UNL     1      -4.239  -0.118  -4.913  1.00  0.00    -0.206 F 
ATOM     61  C   UNL     1      -5.971   0.557  -6.347  1.00  0.00     0.040 A 
ATOM     62  C   UNL     1      -8.121  -0.524  -6.233  1.00  0.00     0.040 A 
ATOM     63  F   UNL     1      -8.490  -2.238  -4.675  1.00  0.00    -0.206 F 
ATOM     64  C   UNL     1      -7.283   0.432  -6.803  1.00  0.00     0.006 A 
ENDBRANCH  43  57
BRANCH  44  65
ATOM     65  C   UNL     1      -3.013  -6.752   2.863  1.00  0.00     0.057 A 
ATOM     66  C   UNL     1      -1.666  -7.126   2.909  1.00  0.00     0.134 A 
ATOM     67  C   UNL     1      -3.830  -7.140   3.932  1.00  0.00     0.134 A 
ATOM     68  F   UNL     1      -0.841  -6.803   1.903  1.00  0.00    -0.206 F 
ATOM     69  C   UNL     1      -1.147  -7.849   3.985  1.00  0.00     0.040 A 
ATOM     70  C   UNL     1      -3.321  -7.845   5.022  1.00  0.00     0.040 A 
ATOM     71  F   UNL     1      -5.131  -6.815   3.941  1.00  0.00    -0.206 F 
ATOM     72  C   UNL     1      -1.974  -8.201   5.051  1.00  0.00     0.006 A 
ENDBRANCH  44  65
BRANCH  56  73
ATOM     73  C   UNL     1      -4.551  -8.153  -3.789  1.00  0.00     0.057 A 
ATOM     74  C   UNL     1      -5.549  -9.126  -3.656  1.00  0.00     0.134 A 
ATOM     75  C   UNL     1      -3.558  -8.366  -4.753  1.00  0.00     0.134 A 
ATOM     76  F   UNL     1      -6.521  -8.982  -2.743  1.00  0.00    -0.206 F 
ATOM     77  C   UNL     1      -5.557 -10.273  -4.451  1.00  0.00     0.040 A 
ATOM     78  C   UNL     1      -3.566  -9.501  -5.566  1.00  0.00     0.040 A 
ATOM     79  F   UNL     1      -2.579  -7.467  -4.934  1.00  0.00    -0.206 F 
ATOM     80  C   UNL     1      -4.567 -10.458  -5.415  1.00  0.00     0.006 A 
ENDBRANCH  56  73
ENDBRANCH  30  31
ENDBRANCH  23  25
ENDBRANCH  22  23
ENDBRANCH   1  22
TORSDOF 12
