REMARK SMILES O=C(/C=C/c1ccc(O)c(O)c1)OCCOC(=O)c1ccc(-c2c3nc(c(-c4c(F)cccc4F)c4ccc([nH]4)c(-c4c(F)cccc4F)c4nc(c(-c5c(F)cccc5F)c5ccc2[nH]5)C=C4)C=C3)cc1
REMARK SMILES IDX 14 1 13 2 2 3 1 4 3 5 4 6 5 7 6 8 12 9 7 10 10 11 8 12 11 13
REMARK SMILES IDX 9 15 15 17 16 18 17 19 18 20 19 21 20 22 72 23 21 24 71 25
REMARK SMILES IDX 22 26 23 27 24 28 65 29 25 30 70 31 64 32 66 33 26 34 69 35
REMARK SMILES IDX 63 36 62 37 27 39 53 40 36 41 52 42 37 43 40 44 51 45 67 46
REMARK SMILES IDX 38 47 39 48 50 50 68 51 41 52 28 53 29 54 34 55 30 56 31 57
REMARK SMILES IDX 33 58 35 59 32 60 54 61 55 62 60 63 56 64 57 65 59 66 61 67
REMARK SMILES IDX 58 68 42 69 43 70 48 71 44 72 45 73 47 74 49 75 46 76
REMARK H PARENT 11 14 9 16 66 38 40 49
REMARK Flexibility Score: inf
ROOT
ATOM      1  C   UNL     1       4.341  -1.255   0.425  1.00  0.00     0.275 C 
ENDROOT
BRANCH   1   2
ATOM      2  O   UNL     1       3.186  -0.538   0.914  1.00  0.00    -0.459 OA
BRANCH   2   3
ATOM      3  C   UNL     1       2.919   0.783   0.786  1.00  0.00     0.330 C 
ATOM      4  O   UNL     1       1.961   1.295   1.358  1.00  0.00    -0.247 OA
BRANCH   3   5
ATOM      5  C   UNL     1       3.661   1.588  -0.194  1.00  0.00     0.094 C 
ATOM      6  C   UNL     1       4.986   1.777  -0.238  1.00  0.00     0.016 C 
BRANCH   6   7
ATOM      7  C   UNL     1       5.620   2.468  -1.365  1.00  0.00    -0.021 A 
ATOM      8  C   UNL     1       5.235   3.756  -1.766  1.00  0.00     0.012 A 
ATOM      9  C   UNL     1       6.634   1.804  -2.067  1.00  0.00     0.058 A 
ATOM     10  C   UNL     1       5.849   4.377  -2.860  1.00  0.00     0.051 A 
ATOM     11  C   UNL     1       7.239   2.427  -3.148  1.00  0.00     0.157 A 
ATOM     12  C   UNL     1       6.854   3.705  -3.544  1.00  0.00     0.157 A 
BRANCH  11  13
ATOM     13  O   UNL     1       8.224   1.769  -3.828  1.00  0.00    -0.504 OA
ATOM     14  H   UNL     1       8.642   2.178  -4.560  1.00  0.00     0.293 HD
ENDBRANCH  11  13
BRANCH  12  15
ATOM     15  O   UNL     1       7.498   4.259  -4.614  1.00  0.00    -0.504 OA
ATOM     16  H   UNL     1       7.264   5.118  -4.908  1.00  0.00     0.293 HD
ENDBRANCH  12  15
ENDBRANCH   6   7
ENDBRANCH   3   5
ENDBRANCH   2   3
ENDBRANCH   1   2
BRANCH   1  17
ATOM     17  C   UNL     1       4.189  -1.838  -0.981  1.00  0.00     0.275 C 
BRANCH  17  18
ATOM     18  O   UNL     1       3.835  -0.840  -1.949  1.00  0.00    -0.458 OA
BRANCH  18  19
ATOM     19  C   UNL     1       2.530  -0.832  -2.316  1.00  0.00     0.338 C 
ATOM     20  O   UNL     1       1.666  -1.618  -1.963  1.00  0.00    -0.246 OA
BRANCH  19  21
ATOM     21  C   UNL     1       2.239   0.385  -3.106  1.00  0.00     0.060 A 
ATOM     22  C   UNL     1       1.034   1.052  -2.852  1.00  0.00     0.016 A 
ATOM     23  C   UNL     1       3.135   0.890  -4.053  1.00  0.00     0.016 A 
ATOM     24  C   UNL     1       0.722   2.225  -3.541  1.00  0.00     0.010 A 
ATOM     25  C   UNL     1       2.815   2.060  -4.752  1.00  0.00     0.010 A 
ATOM     26  C   UNL     1       1.606   2.731  -4.503  1.00  0.00    -0.014 A 
BRANCH  26  27
ATOM     27  C   UNL     1       1.259   3.950  -5.273  1.00  0.00     0.031 A 
ATOM     28  C   UNL     1       0.638   3.826  -6.634  1.00  0.00     0.074 A 
ATOM     29  C   UNL     1       1.523   5.167  -4.764  1.00  0.00     0.049 A 
ATOM     30  N   UNL     1       0.310   4.771  -7.479  1.00  0.00    -0.248 NA
ATOM     31  C   UNL     1       0.343   2.464  -7.104  1.00  0.00     0.031 C 
ATOM     32  C   UNL     1       2.096   5.425  -3.444  1.00  0.00     0.029 A 
ATOM     33  N   UNL     1       1.360   6.417  -5.309  1.00  0.00    -0.354 N 
ATOM     34  C   UNL     1      -0.234   4.120  -8.578  1.00  0.00     0.074 A 
ATOM     35  C   UNL     1      -0.171   2.700  -8.304  1.00  0.00     0.031 C 
ATOM     36  C   UNL     1       2.271   6.749  -3.295  1.00  0.00     0.029 A 
ATOM     37  C   UNL     1       1.840   7.429  -4.515  1.00  0.00     0.049 A 
ATOM     38  H   UNL     1       0.939   6.572  -6.185  1.00  0.00     0.167 HD
ATOM     39  C   UNL     1      -0.749   4.661  -9.708  1.00  0.00     0.037 A 
ATOM     40  C   UNL     1       1.943   8.750  -4.755  1.00  0.00     0.037 A 
ATOM     41  C   UNL     1      -0.819   6.071  -9.983  1.00  0.00     0.049 A 
ATOM     42  C   UNL     1       1.446   9.314  -6.060  1.00  0.00     0.074 A 
ATOM     43  C   UNL     1      -1.392   6.708 -11.071  1.00  0.00     0.029 A 
ATOM     44  N   UNL     1      -0.285   7.061  -9.176  1.00  0.00    -0.354 N 
ATOM     45  N   UNL     1       0.867   8.695  -7.059  1.00  0.00    -0.248 NA
ATOM     46  C   UNL     1       1.619  10.760  -6.270  1.00  0.00     0.031 C 
ATOM     47  C   UNL     1      -1.157   8.081 -10.949  1.00  0.00     0.029 A 
ATOM     48  C   UNL     1      -0.472   8.301  -9.765  1.00  0.00     0.049 A 
ATOM     49  H   UNL     1       0.160   6.907  -8.312  1.00  0.00     0.167 HD
ATOM     50  C   UNL     1       0.586   9.676  -8.003  1.00  0.00     0.074 A 
ATOM     51  C   UNL     1       1.049  10.933  -7.455  1.00  0.00     0.031 C 
ATOM     52  C   UNL     1      -0.004   9.546  -9.215  1.00  0.00     0.037 A 
BRANCH  39  53
ATOM     53  C   UNL     1      -1.274   3.725 -10.751  1.00  0.00     0.057 A 
ATOM     54  C   UNL     1      -2.519   3.100 -10.616  1.00  0.00     0.134 A 
ATOM     55  C   UNL     1      -0.564   3.514 -11.939  1.00  0.00     0.134 A 
ATOM     56  F   UNL     1      -3.243   3.260  -9.498  1.00  0.00    -0.206 F 
ATOM     57  C   UNL     1      -3.040   2.292 -11.629  1.00  0.00     0.040 A 
ATOM     58  C   UNL     1      -1.081   2.722 -12.964  1.00  0.00     0.040 A 
ATOM     59  F   UNL     1       0.632   4.090 -12.129  1.00  0.00    -0.206 F 
ATOM     60  C   UNL     1      -2.324   2.109 -12.810  1.00  0.00     0.006 A 
ENDBRANCH  39  53
BRANCH  40  61
ATOM     61  C   UNL     1       2.582   9.642  -3.756  1.00  0.00     0.057 A 
ATOM     62  C   UNL     1       1.839  10.595  -3.052  1.00  0.00     0.134 A 
ATOM     63  C   UNL     1       3.962   9.595  -3.524  1.00  0.00     0.134 A 
ATOM     64  F   UNL     1       0.517  10.702  -3.252  1.00  0.00    -0.206 F 
ATOM     65  C   UNL     1       2.449  11.489  -2.171  1.00  0.00     0.040 A 
ATOM     66  C   UNL     1       4.582  10.469  -2.631  1.00  0.00     0.040 A 
ATOM     67  F   UNL     1       4.728   8.699  -4.165  1.00  0.00    -0.206 F 
ATOM     68  C   UNL     1       3.825  11.427  -1.959  1.00  0.00     0.006 A 
ENDBRANCH  40  61
BRANCH  52  69
ATOM     69  C   UNL     1      -0.191  10.790 -10.031  1.00  0.00     0.057 A 
ATOM     70  C   UNL     1       0.883  11.405 -10.686  1.00  0.00     0.134 A 
ATOM     71  C   UNL     1      -1.462  11.352 -10.202  1.00  0.00     0.134 A 
ATOM     72  F   UNL     1       2.127  10.923 -10.550  1.00  0.00    -0.206 F 
ATOM     73  C   UNL     1       0.701  12.543 -11.474  1.00  0.00     0.040 A 
ATOM     74  C   UNL     1      -1.660  12.477 -11.004  1.00  0.00     0.040 A 
ATOM     75  F   UNL     1      -2.534  10.808  -9.606  1.00  0.00    -0.206 F 
ATOM     76  C   UNL     1      -0.576  13.077 -11.640  1.00  0.00     0.006 A 
ENDBRANCH  52  69
ENDBRANCH  26  27
ENDBRANCH  19  21
ENDBRANCH  18  19
ENDBRANCH  17  18
ENDBRANCH   1  17
TORSDOF 14
