REMARK SMILES O=C(OCCOC(=O)[C@H]1CSC2(CCCCC2)[NH2+]1)c1ccc(-c2c3nc(c(-c4c(F)cccc4F)c4ccc([nH]4)c(-c4c(F)cccc4F)c4nc(c(-c5c(F)cccc5F)c5ccc2[nH]5)C=C4)C=C3)cc1
REMARK SMILES IDX 4 1 3 2 2 3 1 4 19 5 20 6 72 7 21 8 71 9 22 10 23 11 24 12
REMARK SMILES IDX 65 13 25 14 70 15 64 16 66 17 26 18 69 19 63 20 62 21 27 23
REMARK SMILES IDX 53 24 36 25 52 26 37 27 40 28 51 29 67 30 38 31 39 32 50 34
REMARK SMILES IDX 68 35 41 36 28 37 29 38 34 39 30 40 31 41 33 42 35 43 32 44
REMARK SMILES IDX 54 45 55 46 60 47 56 48 57 49 59 50 61 51 58 52 42 53 43 54
REMARK SMILES IDX 48 55 44 56 45 57 47 58 49 59 46 60 5 61 6 62 7 63 8 64 9 65
REMARK SMILES IDX 10 66 18 67 11 68 12 69 13 72 17 73 14 74 16 75 15 76
REMARK H PARENT 66 22 40 33 18 70 18 71
REMARK Flexibility Score: inf
ROOT
ATOM      1  C   UNL     1       4.597  -5.259  -3.951  1.00  0.00     0.275 C 
ENDROOT
BRANCH   1   2
ATOM      2  O   UNL     1       3.826  -4.788  -5.059  1.00  0.00    -0.458 OA
BRANCH   2   3
ATOM      3  C   UNL     1       2.502  -4.524  -5.120  1.00  0.00     0.338 C 
ATOM      4  O   UNL     1       2.025  -4.243  -6.220  1.00  0.00    -0.246 OA
BRANCH   3   5
ATOM      5  C   UNL     1       1.586  -4.467  -3.927  1.00  0.00     0.060 A 
ATOM      6  C   UNL     1       1.830  -4.900  -2.619  1.00  0.00     0.016 A 
ATOM      7  C   UNL     1       0.359  -3.836  -4.160  1.00  0.00     0.016 A 
ATOM      8  C   UNL     1       0.940  -4.623  -1.573  1.00  0.00     0.010 A 
ATOM      9  C   UNL     1      -0.492  -3.482  -3.113  1.00  0.00     0.010 A 
ATOM     10  C   UNL     1      -0.214  -3.879  -1.805  1.00  0.00    -0.014 A 
BRANCH  10  11
ATOM     11  C   UNL     1      -1.198  -3.638  -0.726  1.00  0.00     0.031 A 
ATOM     12  C   UNL     1      -2.578  -4.216  -0.886  1.00  0.00     0.074 A 
ATOM     13  C   UNL     1      -0.872  -2.917   0.365  1.00  0.00     0.049 A 
ATOM     14  N   UNL     1      -3.616  -4.119  -0.099  1.00  0.00    -0.248 NA
ATOM     15  C   UNL     1      -2.840  -4.966  -2.128  1.00  0.00     0.031 C 
ATOM     16  C   UNL     1       0.421  -2.269   0.608  1.00  0.00     0.029 A 
ATOM     17  N   UNL     1      -1.603  -2.619   1.487  1.00  0.00    -0.354 N 
ATOM     18  C   UNL     1      -4.643  -4.774  -0.766  1.00  0.00     0.074 A 
ATOM     19  C   UNL     1      -4.146  -5.147  -2.067  1.00  0.00     0.031 C 
ATOM     20  C   UNL     1       0.403  -1.690   1.822  1.00  0.00     0.029 A 
ATOM     21  C   UNL     1      -0.903  -1.909   2.435  1.00  0.00     0.049 A 
ATOM     22  H   UNL     1      -2.542  -2.889   1.604  1.00  0.00     0.167 HD
ATOM     23  C   UNL     1      -5.871  -5.110  -0.312  1.00  0.00     0.037 A 
ATOM     24  C   UNL     1      -1.278  -1.510   3.667  1.00  0.00     0.037 A 
ATOM     25  C   UNL     1      -6.335  -4.792   1.006  1.00  0.00     0.049 A 
ATOM     26  C   UNL     1      -2.657  -1.883   4.153  1.00  0.00     0.074 A 
ATOM     27  C   UNL     1      -7.541  -5.107   1.599  1.00  0.00     0.029 A 
ATOM     28  N   UNL     1      -5.590  -4.088   1.941  1.00  0.00    -0.354 N 
ATOM     29  N   UNL     1      -3.592  -2.572   3.542  1.00  0.00    -0.248 NA
ATOM     30  C   UNL     1      -3.026  -1.440   5.505  1.00  0.00     0.031 C 
ATOM     31  C   UNL     1      -7.539  -4.561   2.887  1.00  0.00     0.029 A 
ATOM     32  C   UNL     1      -6.314  -3.948   3.108  1.00  0.00     0.049 A 
ATOM     33  H   UNL     1      -4.681  -3.740   1.794  1.00  0.00     0.167 HD
ATOM     34  C   UNL     1      -4.642  -2.679   4.446  1.00  0.00     0.074 A 
ATOM     35  C   UNL     1      -4.222  -1.994   5.652  1.00  0.00     0.031 C 
ATOM     36  C   UNL     1      -5.846  -3.284   4.298  1.00  0.00     0.037 A 
BRANCH  23  37
ATOM     37  C   UNL     1      -6.750  -5.879  -1.254  1.00  0.00     0.057 A 
ATOM     38  C   UNL     1      -6.436  -7.189  -1.649  1.00  0.00     0.134 A 
ATOM     39  C   UNL     1      -7.879  -5.285  -1.827  1.00  0.00     0.134 A 
ATOM     40  F   UNL     1      -5.351  -7.806  -1.157  1.00  0.00    -0.206 F 
ATOM     41  C   UNL     1      -7.180  -7.857  -2.623  1.00  0.00     0.040 A 
ATOM     42  C   UNL     1      -8.651  -5.958  -2.777  1.00  0.00     0.040 A 
ATOM     43  F   UNL     1      -8.236  -4.036  -1.495  1.00  0.00    -0.206 F 
ATOM     44  C   UNL     1      -8.293  -7.241  -3.188  1.00  0.00     0.006 A 
ENDBRANCH  23  37
BRANCH  24  45
ATOM     45  C   UNL     1      -0.338  -0.770   4.553  1.00  0.00     0.057 A 
ATOM     46  C   UNL     1       0.162  -1.354   5.725  1.00  0.00     0.134 A 
ATOM     47  C   UNL     1       0.049   0.548   4.282  1.00  0.00     0.134 A 
ATOM     48  F   UNL     1      -0.179  -2.609   6.051  1.00  0.00    -0.206 F 
ATOM     49  C   UNL     1       0.980  -0.647   6.610  1.00  0.00     0.040 A 
ATOM     50  C   UNL     1       0.886   1.260   5.147  1.00  0.00     0.040 A 
ATOM     51  F   UNL     1      -0.382   1.166   3.173  1.00  0.00    -0.206 F 
ATOM     52  C   UNL     1       1.345   0.666   6.321  1.00  0.00     0.006 A 
ENDBRANCH  24  45
BRANCH  36  53
ATOM     53  C   UNL     1      -6.771  -3.277   5.478  1.00  0.00     0.057 A 
ATOM     54  C   UNL     1      -7.444  -2.118   5.882  1.00  0.00     0.134 A 
ATOM     55  C   UNL     1      -7.053  -4.467   6.162  1.00  0.00     0.134 A 
ATOM     56  F   UNL     1      -7.208  -0.947   5.272  1.00  0.00    -0.206 F 
ATOM     57  C   UNL     1      -8.357  -2.140   6.936  1.00  0.00     0.040 A 
ATOM     58  C   UNL     1      -7.986  -4.507   7.197  1.00  0.00     0.040 A 
ATOM     59  F   UNL     1      -6.450  -5.613   5.813  1.00  0.00    -0.206 F 
ATOM     60  C   UNL     1      -8.638  -3.339   7.589  1.00  0.00     0.006 A 
ENDBRANCH  36  53
ENDBRANCH  10  11
ENDBRANCH   3   5
ENDBRANCH   2   3
ENDBRANCH   1   2
BRANCH   1  61
ATOM     61  C   UNL     1       5.096  -4.142  -3.029  1.00  0.00     0.274 C 
BRANCH  61  62
ATOM     62  O   UNL     1       4.117  -3.126  -2.722  1.00  0.00    -0.458 OA
BRANCH  62  63
ATOM     63  C   UNL     1       4.206  -1.969  -3.455  1.00  0.00     0.365 C 
ATOM     64  O   UNL     1       5.021  -1.807  -4.359  1.00  0.00    -0.245 OA
BRANCH  63  65
ATOM     65  C   UNL     1       3.265  -0.871  -2.906  1.00  0.00     0.304 C 
ATOM     66  C   UNL     1       3.698   0.504  -3.407  1.00  0.00     0.153 C 
ATOM     67  N   UNL     1       1.839  -1.128  -3.226  1.00  0.00    -0.320 N 
ATOM     68  S   UNL     1       2.658   0.800  -4.843  1.00  0.00    -0.089 SA
ATOM     69  C   UNL     1       1.258  -0.092  -4.105  1.00  0.00     0.143 C 
ATOM     70  H   UNL     1       1.308  -1.153  -2.355  1.00  0.00     0.348 HD
ATOM     71  H   UNL     1       1.788  -2.018  -3.722  1.00  0.00     0.348 HD
ATOM     72  C   UNL     1       0.381  -0.757  -5.180  1.00  0.00     0.081 C 
ATOM     73  C   UNL     1       0.370   0.888  -3.298  1.00  0.00     0.081 C 
ATOM     74  C   UNL     1      -0.393   0.203  -6.079  1.00  0.00     0.007 C 
ATOM     75  C   UNL     1      -0.391   1.883  -4.187  1.00  0.00     0.007 C 
ATOM     76  C   UNL     1      -1.223   1.183  -5.258  1.00  0.00     0.001 C 
ENDBRANCH  63  65
ENDBRANCH  62  63
ENDBRANCH  61  62
ENDBRANCH   1  61
TORSDOF 11
