REMARK SMILES CC(=O)Oc1ccccc1C(=O)OCCOC(=O)c1ccc(-c2c3nc(c(-c4c(F)cccc4F)c4ccc([nH]4)c(-c4c(F)cccc4F)c4nc(c(-c5c(F)cccc5F)c5ccc2[nH]5)C=C4)C=C3)cc1
REMARK SMILES IDX 14 1 13 2 11 3 12 4 10 5 5 6 6 7 7 8 9 9 8 10 4 11 2 12 1 13
REMARK SMILES IDX 3 14 15 15 16 16 17 17 18 18 19 19 20 20 72 21 21 22 71 23
REMARK SMILES IDX 22 24 23 25 24 26 65 27 25 28 70 29 64 30 66 31 26 32 69 33
REMARK SMILES IDX 63 34 62 35 27 37 53 38 36 39 52 40 37 41 40 42 51 43 67 44
REMARK SMILES IDX 38 45 39 46 50 48 68 49 41 50 28 51 29 52 34 53 30 54 31 55
REMARK SMILES IDX 33 56 35 57 32 58 54 59 55 60 60 61 56 62 57 63 59 64 61 65
REMARK SMILES IDX 58 66 42 67 43 68 48 69 44 70 45 71 47 72 49 73 46 74
REMARK H PARENT 66 36 40 47
REMARK Flexibility Score: inf
ROOT
ATOM      1  C   UNL     1      -2.127   0.219   0.803  1.00  0.00     0.275 C 
ENDROOT
BRANCH   1   2
ATOM      2  O   UNL     1      -1.271  -0.503   1.712  1.00  0.00    -0.458 OA
BRANCH   2   3
ATOM      3  C   UNL     1      -1.232  -0.047   2.993  1.00  0.00     0.342 C 
ATOM      4  O   UNL     1      -1.936   0.824   3.463  1.00  0.00    -0.246 OA
BRANCH   3   5
ATOM      5  C   UNL     1      -0.265  -0.828   3.811  1.00  0.00     0.102 A 
ATOM      6  C   UNL     1       0.950  -1.330   3.327  1.00  0.00     0.145 A 
ATOM      7  C   UNL     1       1.795  -2.076   4.158  1.00  0.00     0.048 A 
ATOM      8  C   UNL     1       1.435  -2.318   5.484  1.00  0.00     0.004 A 
ATOM      9  C   UNL     1      -0.591  -1.047   5.160  1.00  0.00     0.019 A 
ATOM     10  C   UNL     1       0.241  -1.807   5.985  1.00  0.00     0.001 A 
BRANCH   6  11
ATOM     11  O   UNL     1       1.362  -1.198   1.993  1.00  0.00    -0.426 OA
BRANCH  11  12
ATOM     12  C   UNL     1       1.549   0.106   1.550  1.00  0.00     0.308 C 
ATOM     13  C   UNL     1       1.731   0.095   0.062  1.00  0.00     0.139 C 
ATOM     14  O   UNL     1       1.567   1.115   2.241  1.00  0.00    -0.252 OA
ENDBRANCH  11  12
ENDBRANCH   6  11
ENDBRANCH   3   5
ENDBRANCH   2   3
ENDBRANCH   1   2
BRANCH   1  15
ATOM     15  C   UNL     1      -3.368  -0.593   0.440  1.00  0.00     0.275 C 
BRANCH  15  16
ATOM     16  O   UNL     1      -4.226  -0.723   1.586  1.00  0.00    -0.458 OA
BRANCH  16  17
ATOM     17  C   UNL     1      -4.225  -1.939   2.172  1.00  0.00     0.338 C 
ATOM     18  O   UNL     1      -3.656  -2.953   1.801  1.00  0.00    -0.246 OA
BRANCH  17  19
ATOM     19  C   UNL     1      -4.966  -1.866   3.436  1.00  0.00     0.060 A 
ATOM     20  C   UNL     1      -4.290  -1.398   4.558  1.00  0.00     0.016 A 
ATOM     21  C   UNL     1      -6.251  -2.387   3.552  1.00  0.00     0.016 A 
ATOM     22  C   UNL     1      -4.855  -1.519   5.821  1.00  0.00     0.010 A 
ATOM     23  C   UNL     1      -6.852  -2.438   4.815  1.00  0.00     0.010 A 
ATOM     24  C   UNL     1      -6.146  -2.039   5.968  1.00  0.00    -0.014 A 
BRANCH  24  25
ATOM     25  C   UNL     1      -6.724  -2.229   7.326  1.00  0.00     0.031 A 
ATOM     26  C   UNL     1      -7.111  -3.608   7.788  1.00  0.00     0.074 A 
ATOM     27  C   UNL     1      -6.879  -1.180   8.159  1.00  0.00     0.049 A 
ATOM     28  N   UNL     1      -7.794  -3.969   8.845  1.00  0.00    -0.248 NA
ATOM     29  C   UNL     1      -6.685  -4.733   6.940  1.00  0.00     0.031 C 
ATOM     30  C   UNL     1      -6.491   0.201   7.868  1.00  0.00     0.029 A 
ATOM     31  N   UNL     1      -7.403  -1.115   9.427  1.00  0.00    -0.354 N 
ATOM     32  C   UNL     1      -7.938  -5.348   8.752  1.00  0.00     0.074 A 
ATOM     33  C   UNL     1      -7.267  -5.762   7.539  1.00  0.00     0.031 C 
ATOM     34  C   UNL     1      -6.760   0.969   8.934  1.00  0.00     0.029 A 
ATOM     35  C   UNL     1      -7.420   0.156   9.949  1.00  0.00     0.049 A 
ATOM     36  H   UNL     1      -7.735  -1.903   9.914  1.00  0.00     0.167 HD
ATOM     37  C   UNL     1      -8.577  -6.189   9.601  1.00  0.00     0.037 A 
ATOM     38  C   UNL     1      -7.951   0.626  11.094  1.00  0.00     0.037 A 
ATOM     39  C   UNL     1      -9.182  -5.779  10.841  1.00  0.00     0.049 A 
ATOM     40  C   UNL     1      -8.675  -0.322  12.007  1.00  0.00     0.074 A 
ATOM     41  C   UNL     1      -9.831  -6.558  11.784  1.00  0.00     0.029 A 
ATOM     42  N   UNL     1      -9.198  -4.477  11.319  1.00  0.00    -0.354 N 
ATOM     43  N   UNL     1      -8.855  -1.615  11.882  1.00  0.00    -0.248 NA
ATOM     44  C   UNL     1      -9.289   0.257  13.210  1.00  0.00     0.031 C 
ATOM     45  C   UNL     1     -10.268  -5.721  12.816  1.00  0.00     0.029 A 
ATOM     46  C   UNL     1      -9.855  -4.429  12.537  1.00  0.00     0.049 A 
ATOM     47  H   UNL     1      -8.800  -3.702  10.860  1.00  0.00     0.167 HD
ATOM     48  C   UNL     1      -9.589  -2.005  12.993  1.00  0.00     0.074 A 
ATOM     49  C   UNL     1      -9.803  -0.816  13.793  1.00  0.00     0.031 C 
ATOM     50  C   UNL     1     -10.050  -3.237  13.321  1.00  0.00     0.037 A 
BRANCH  37  51
ATOM     51  C   UNL     1      -8.689  -7.631   9.200  1.00  0.00     0.057 A 
ATOM     52  C   UNL     1      -7.598  -8.507   9.231  1.00  0.00     0.134 A 
ATOM     53  C   UNL     1      -9.928  -8.157   8.808  1.00  0.00     0.134 A 
ATOM     54  F   UNL     1      -6.381  -8.064   9.582  1.00  0.00    -0.206 F 
ATOM     55  C   UNL     1      -7.729  -9.849   8.867  1.00  0.00     0.040 A 
ATOM     56  C   UNL     1     -10.078  -9.502   8.467  1.00  0.00     0.040 A 
ATOM     57  F   UNL     1     -11.017  -7.374   8.761  1.00  0.00    -0.206 F 
ATOM     58  C   UNL     1      -8.974 -10.352   8.491  1.00  0.00     0.006 A 
ENDBRANCH  37  51
BRANCH  38  59
ATOM     59  C   UNL     1      -7.861   2.072  11.417  1.00  0.00     0.057 A 
ATOM     60  C   UNL     1      -7.083   2.528  12.488  1.00  0.00     0.134 A 
ATOM     61  C   UNL     1      -8.553   3.033  10.669  1.00  0.00     0.134 A 
ATOM     62  F   UNL     1      -6.418   1.655  13.259  1.00  0.00    -0.206 F 
ATOM     63  C   UNL     1      -7.005   3.885  12.809  1.00  0.00     0.040 A 
ATOM     64  C   UNL     1      -8.461   4.394  10.960  1.00  0.00     0.040 A 
ATOM     65  F   UNL     1      -9.316   2.662   9.631  1.00  0.00    -0.206 F 
ATOM     66  C   UNL     1      -7.690   4.823  12.039  1.00  0.00     0.006 A 
ENDBRANCH  38  59
BRANCH  50  67
ATOM     67  C   UNL     1     -10.796  -3.361  14.616  1.00  0.00     0.057 A 
ATOM     68  C   UNL     1     -12.102  -2.879  14.764  1.00  0.00     0.134 A 
ATOM     69  C   UNL     1     -10.206  -3.990  15.719  1.00  0.00     0.134 A 
ATOM     70  F   UNL     1     -12.716  -2.253  13.748  1.00  0.00    -0.206 F 
ATOM     71  C   UNL     1     -12.788  -2.999  15.973  1.00  0.00     0.040 A 
ATOM     72  C   UNL     1     -10.891  -4.136  16.925  1.00  0.00     0.040 A 
ATOM     73  F   UNL     1      -8.959  -4.479  15.639  1.00  0.00    -0.206 F 
ATOM     74  C   UNL     1     -12.184  -3.634  17.057  1.00  0.00     0.006 A 
ENDBRANCH  50  67
ENDBRANCH  24  25
ENDBRANCH  17  19
ENDBRANCH  16  17
ENDBRANCH  15  16
ENDBRANCH   1  15
TORSDOF 13
