REMARK SMILES O=C(CS[C@H](C(=O)Nc1ccc(C(F)(F)F)cc1)c1ccccc1)OCCOC(=O)c1ccc(-c2c3nc(c(-c4c(F)cccc4F)c4ccc([nH]4)c(-c4c(F)cccc4F)c4nc(c(-c5c(F)cccc5F)c5ccc2[nH]5)C=C4)C=C3)cc1
REMARK SMILES IDX 25 1 2 2 1 3 3 4 4 5 5 6 19 7 20 8 24 9 21 10 23 11 22 12
REMARK SMILES IDX 6 13 7 14 8 15 9 17 10 18 18 19 11 20 17 21 12 22 13 23
REMARK SMILES IDX 14 24 15 25 16 26 26 27 27 28 28 29 29 30 30 31 31 32 32 33
REMARK SMILES IDX 84 34 33 35 83 36 34 37 35 38 36 39 77 40 37 41 82 42 76 43
REMARK SMILES IDX 78 44 38 45 81 46 75 47 74 48 39 50 65 51 48 52 64 53 49 54
REMARK SMILES IDX 52 55 63 56 79 57 50 58 51 59 62 61 80 62 53 63 40 64 41 65
REMARK SMILES IDX 46 66 42 67 43 68 45 69 47 70 44 71 66 72 67 73 72 74 68 75
REMARK SMILES IDX 69 76 71 77 73 78 70 79 54 80 55 81 60 82 56 83 57 84 59 85
REMARK SMILES IDX 61 86 58 87
REMARK H PARENT 8 16 78 49 52 60
REMARK Flexibility Score: inf
ROOT
ATOM      1  O   UNL     1       1.468  -0.681  -1.292  1.00  0.00    -0.461 OA
ENDROOT
BRANCH   1   2
ATOM      2  C   UNL     1       0.508  -1.361  -1.970  1.00  0.00     0.316 C 
ATOM      3  O   UNL     1      -0.366  -0.647  -2.495  1.00  0.00    -0.251 OA
BRANCH   2   4
ATOM      4  C   UNL     1       0.220  -2.897  -2.139  1.00  0.00     0.193 C 
BRANCH   4   5
ATOM      5  S   UNL     1       1.365  -4.292  -2.006  1.00  0.00    -0.132 SA
BRANCH   5   6
ATOM      6  C   UNL     1       2.864  -3.302  -1.875  1.00  0.00     0.166 C 
BRANCH   6   7
ATOM      7  C   UNL     1       2.980  -2.329  -3.120  1.00  0.00    -0.026 A 
ATOM      8  C   UNL     1       3.716  -1.143  -3.189  1.00  0.00     0.005 A 
ATOM      9  C   UNL     1       2.215  -2.597  -4.290  1.00  0.00     0.005 A 
ATOM     10  C   UNL     1       3.350  -0.122  -4.096  1.00  0.00     0.000 A 
ATOM     11  C   UNL     1       1.819  -1.590  -5.176  1.00  0.00     0.000 A 
ATOM     12  C   UNL     1       2.336  -0.319  -5.029  1.00  0.00     0.000 A 
ENDBRANCH   6   7
BRANCH   6  13
ATOM     13  C   UNL     1       2.846  -2.916  -0.313  1.00  0.00     0.242 C 
ATOM     14  O   UNL     1       3.952  -2.707   0.224  1.00  0.00    -0.273 OA
ATOM     15  N   UNL     1       1.742  -2.999   0.598  1.00  0.00    -0.325 N 
ATOM     16  H   UNL     1       1.956  -3.572   1.370  1.00  0.00     0.169 HD
BRANCH  15  17
ATOM     17  C   UNL     1       0.376  -2.460   0.690  1.00  0.00     0.041 A 
ATOM     18  C   UNL     1       0.050  -1.091   0.808  1.00  0.00     0.027 A 
ATOM     19  C   UNL     1      -0.727  -3.299   0.852  1.00  0.00     0.027 A 
ATOM     20  C   UNL     1      -1.236  -0.549   0.832  1.00  0.00     0.015 A 
ATOM     21  C   UNL     1      -2.057  -2.773   0.889  1.00  0.00     0.015 A 
ATOM     22  C   UNL     1      -2.322  -1.392   0.830  1.00  0.00     0.056 A 
BRANCH  22  23
ATOM     23  C   UNL     1      -3.690  -0.757   0.793  1.00  0.00     0.416 C 
ATOM     24  F   UNL     1      -3.950  -0.038   1.922  1.00  0.00    -0.166 F 
ATOM     25  F   UNL     1      -3.827   0.128  -0.237  1.00  0.00    -0.166 F 
ATOM     26  F   UNL     1      -4.707  -1.646   0.664  1.00  0.00    -0.166 F 
ENDBRANCH  22  23
ENDBRANCH  15  17
ENDBRANCH   6  13
ENDBRANCH   5   6
ENDBRANCH   4   5
ENDBRANCH   2   4
ENDBRANCH   1   2
BRANCH   1  27
ATOM     27  C   UNL     1       2.718  -0.164  -0.461  1.00  0.00     0.274 C 
BRANCH  27  28
ATOM     28  C   UNL     1       2.907   0.034   1.133  1.00  0.00     0.275 C 
BRANCH  28  29
ATOM     29  O   UNL     1       2.612  -1.068   2.062  1.00  0.00    -0.458 OA
BRANCH  29  30
ATOM     30  C   UNL     1       2.005  -0.781   3.254  1.00  0.00     0.338 C 
ATOM     31  O   UNL     1       1.807   0.355   3.692  1.00  0.00    -0.246 OA
BRANCH  30  32
ATOM     32  C   UNL     1       1.340  -1.984   3.863  1.00  0.00     0.060 A 
ATOM     33  C   UNL     1      -0.061  -2.033   3.845  1.00  0.00     0.016 A 
ATOM     34  C   UNL     1       2.021  -3.044   4.470  1.00  0.00     0.016 A 
ATOM     35  C   UNL     1      -0.772  -3.150   4.308  1.00  0.00     0.010 A 
ATOM     36  C   UNL     1       1.296  -4.127   5.042  1.00  0.00     0.010 A 
ATOM     37  C   UNL     1      -0.110  -4.194   4.965  1.00  0.00    -0.014 A 
BRANCH  37  38
ATOM     38  C   UNL     1      -0.936  -5.113   5.818  1.00  0.00     0.031 A 
ATOM     39  C   UNL     1      -1.470  -4.546   7.118  1.00  0.00     0.074 A 
ATOM     40  C   UNL     1      -1.320  -6.358   5.462  1.00  0.00     0.049 A 
ATOM     41  N   UNL     1      -2.243  -5.093   8.023  1.00  0.00    -0.248 NA
ATOM     42  C   UNL     1      -1.098  -3.152   7.413  1.00  0.00     0.031 C 
ATOM     43  C   UNL     1      -1.008  -7.026   4.202  1.00  0.00     0.029 A 
ATOM     44  N   UNL     1      -2.088  -7.284   6.143  1.00  0.00    -0.354 N 
ATOM     45  C   UNL     1      -2.458  -4.106   8.979  1.00  0.00     0.074 A 
ATOM     46  C   UNL     1      -1.742  -2.929   8.544  1.00  0.00     0.031 C 
ATOM     47  C   UNL     1      -1.567  -8.254   4.204  1.00  0.00     0.029 A 
ATOM     48  C   UNL     1      -2.256  -8.478   5.477  1.00  0.00     0.049 A 
ATOM     49  H   UNL     1      -2.482  -7.105   7.027  1.00  0.00     0.167 HD
ATOM     50  C   UNL     1      -3.168  -4.162  10.131  1.00  0.00     0.037 A 
ATOM     51  C   UNL     1      -2.874  -9.620   5.856  1.00  0.00     0.037 A 
ATOM     52  C   UNL     1      -3.837  -5.332  10.625  1.00  0.00     0.049 A 
ATOM     53  C   UNL     1      -3.542  -9.708   7.212  1.00  0.00     0.074 A 
ATOM     54  C   UNL     1      -4.512  -5.497  11.822  1.00  0.00     0.029 A 
ATOM     55  N   UNL     1      -3.899  -6.542   9.957  1.00  0.00    -0.354 N 
ATOM     56  N   UNL     1      -3.711  -8.775   8.118  1.00  0.00    -0.248 NA
ATOM     57  C   UNL     1      -4.103 -11.015   7.600  1.00  0.00     0.031 C 
ATOM     58  C   UNL     1      -4.944  -6.826  11.898  1.00  0.00     0.029 A 
ATOM     59  C   UNL     1      -4.586  -7.467  10.724  1.00  0.00     0.049 A 
ATOM     60  H   UNL     1      -3.512  -6.719   9.069  1.00  0.00     0.167 HD
ATOM     61  C   UNL     1      -4.425  -9.370   9.156  1.00  0.00     0.074 A 
ATOM     62  C   UNL     1      -4.666 -10.742   8.768  1.00  0.00     0.031 C 
ATOM     63  C   UNL     1      -4.846  -8.825  10.324  1.00  0.00     0.037 A 
BRANCH  50  64
ATOM     64  C   UNL     1      -3.173  -2.922  10.974  1.00  0.00     0.057 A 
ATOM     65  C   UNL     1      -3.913  -1.787  10.619  1.00  0.00     0.134 A 
ATOM     66  C   UNL     1      -2.394  -2.854  12.135  1.00  0.00     0.134 A 
ATOM     67  F   UNL     1      -4.654  -1.780   9.500  1.00  0.00    -0.206 F 
ATOM     68  C   UNL     1      -3.856  -0.617  11.378  1.00  0.00     0.040 A 
ATOM     69  C   UNL     1      -2.349  -1.699  12.915  1.00  0.00     0.040 A 
ATOM     70  F   UNL     1      -1.656  -3.906  12.523  1.00  0.00    -0.206 F 
ATOM     71  C   UNL     1      -3.075  -0.573  12.531  1.00  0.00     0.006 A 
ENDBRANCH  50  64
BRANCH  51  72
ATOM     72  C   UNL     1      -2.871 -10.825   4.974  1.00  0.00     0.057 A 
ATOM     73  C   UNL     1      -4.058 -11.351   4.445  1.00  0.00     0.134 A 
ATOM     74  C   UNL     1      -1.692 -11.539   4.724  1.00  0.00     0.134 A 
ATOM     75  F   UNL     1      -5.230 -10.746   4.684  1.00  0.00    -0.206 F 
ATOM     76  C   UNL     1      -4.075 -12.547   3.720  1.00  0.00     0.040 A 
ATOM     77  C   UNL     1      -1.690 -12.721   3.979  1.00  0.00     0.040 A 
ATOM     78  F   UNL     1      -0.522 -11.107   5.218  1.00  0.00    -0.206 F 
ATOM     79  C   UNL     1      -2.886 -13.234   3.482  1.00  0.00     0.006 A 
ENDBRANCH  51  72
BRANCH  63  80
ATOM     80  C   UNL     1      -5.664  -9.682  11.248  1.00  0.00     0.057 A 
ATOM     81  C   UNL     1      -5.106 -10.735  11.984  1.00  0.00     0.134 A 
ATOM     82  C   UNL     1      -7.026  -9.411  11.445  1.00  0.00     0.134 A 
ATOM     83  F   UNL     1      -3.810 -11.053  11.841  1.00  0.00    -0.206 F 
ATOM     84  C   UNL     1      -5.876 -11.501  12.863  1.00  0.00     0.040 A 
ATOM     85  C   UNL     1      -7.799 -10.152  12.340  1.00  0.00     0.040 A 
ATOM     86  F   UNL     1      -7.622  -8.408  10.784  1.00  0.00    -0.206 F 
ATOM     87  C   UNL     1      -7.225 -11.206  13.047  1.00  0.00     0.006 A 
ENDBRANCH  63  80
ENDBRANCH  37  38
ENDBRANCH  30  32
ENDBRANCH  29  30
ENDBRANCH  28  29
ENDBRANCH  27  28
ENDBRANCH   1  27
TORSDOF 17
