REMARK SMILES Cc1cc(C(=O)OCCOC(=O)c2ccc(-c3c4nc(c(-c5c(F)cccc5F)c5ccc([nH]5)c(-c5c(F)cccc5F)c5nc(c(-c6c(F)cccc6F)c6ccc3[nH]6)C=C5)C=C4)cc2)nc(N2CCN(c3ccccc3Cl)CC2)n1
REMARK SMILES IDX 8 1 7 2 5 3 6 4 4 5 1 6 2 7 3 8 82 9 68 10 67 11 69 12 70 13
REMARK SMILES IDX 81 14 71 15 80 16 72 17 73 18 74 19 78 20 75 21 77 22 79 23
REMARK SMILES IDX 76 24 9 25 10 26 11 27 12 28 13 29 14 30 66 31 15 32 65 33
REMARK SMILES IDX 16 34 17 35 18 36 59 37 19 38 64 39 58 40 60 41 20 42 63 43
REMARK SMILES IDX 57 44 56 45 21 47 47 48 30 49 46 50 31 51 34 52 45 53 61 54
REMARK SMILES IDX 32 55 33 56 44 58 62 59 35 60 22 61 23 62 28 63 24 64 25 65
REMARK SMILES IDX 27 66 29 67 26 68 48 69 49 70 54 71 50 72 51 73 53 74 55 75
REMARK SMILES IDX 52 76 36 77 37 78 42 79 38 80 39 81 41 82 43 83 40 84
REMARK H PARENT 60 46 34 57
REMARK Flexibility Score: inf
ROOT
ATOM      1  C   UNL     1       1.950  -4.580   0.065  1.00  0.00     0.275 C 
ENDROOT
BRANCH   1   2
ATOM      2  O   UNL     1       1.147  -3.383  -0.012  1.00  0.00    -0.457 OA
BRANCH   2   3
ATOM      3  C   UNL     1       1.552  -2.365   0.798  1.00  0.00     0.357 C 
ATOM      4  O   UNL     1       2.450  -2.415   1.616  1.00  0.00    -0.244 OA
BRANCH   3   5
ATOM      5  C   UNL     1       0.789  -1.122   0.483  1.00  0.00     0.154 A 
ATOM      6  C   UNL     1      -2.627   0.225  -0.083  1.00  0.00     0.067 C 
ATOM      7  C   UNL     1      -1.147   0.091   0.105  1.00  0.00     0.044 A 
ATOM      8  C   UNL     1      -0.569  -1.144   0.293  1.00  0.00     0.059 A 
ATOM      9  N   UNL     1      -0.431   1.240   0.107  1.00  0.00    -0.218 NA
ATOM     10  C   UNL     1       0.898   1.159   0.258  1.00  0.00     0.226 A 
ATOM     11  N   UNL     1       1.532   0.005   0.459  1.00  0.00    -0.206 NA
BRANCH  10  12
ATOM     12  N   UNL     1       1.686   2.288   0.164  1.00  0.00    -0.337 N 
ATOM     13  C   UNL     1       1.169   3.525   0.761  1.00  0.00     0.141 C 
ATOM     14  C   UNL     1       2.270   2.465  -1.174  1.00  0.00     0.141 C 
ATOM     15  C   UNL     1       2.286   4.604   0.802  1.00  0.00     0.138 C 
ATOM     16  C   UNL     1       3.371   3.546  -1.152  1.00  0.00     0.138 C 
ATOM     17  N   UNL     1       2.868   4.793  -0.540  1.00  0.00    -0.367 N 
BRANCH  17  18
ATOM     18  C   UNL     1       3.626   5.929  -0.834  1.00  0.00     0.056 A 
ATOM     19  C   UNL     1       4.525   6.470   0.100  1.00  0.00     0.027 A 
ATOM     20  C   UNL     1       3.558   6.556  -2.101  1.00  0.00     0.064 A 
ATOM     21  C   UNL     1       5.322   7.578  -0.210  1.00  0.00     0.002 A 
ATOM     22  C   UNL     1       4.353   7.665  -2.411  1.00  0.00     0.023 A 
ATOM     23  Cl  UNL     1       2.451   6.012  -3.324  1.00  0.00    -0.082 Cl
ATOM     24  C   UNL     1       5.236   8.175  -1.464  1.00  0.00     0.002 A 
ENDBRANCH  17  18
ENDBRANCH  10  12
ENDBRANCH   3   5
ENDBRANCH   2   3
ENDBRANCH   1   2
BRANCH   1  25
ATOM     25  C   UNL     1       2.924  -4.659  -1.111  1.00  0.00     0.275 C 
BRANCH  25  26
ATOM     26  O   UNL     1       3.884  -3.590  -1.033  1.00  0.00    -0.458 OA
BRANCH  26  27
ATOM     27  C   UNL     1       3.815  -2.663  -2.013  1.00  0.00     0.338 C 
ATOM     28  O   UNL     1       3.074  -2.657  -2.985  1.00  0.00    -0.246 OA
BRANCH  27  29
ATOM     29  C   UNL     1       4.771  -1.579  -1.741  1.00  0.00     0.060 A 
ATOM     30  C   UNL     1       4.515  -0.709  -0.689  1.00  0.00     0.016 A 
ATOM     31  C   UNL     1       5.830  -1.325  -2.611  1.00  0.00     0.016 A 
ATOM     32  C   UNL     1       5.241   0.471  -0.566  1.00  0.00     0.010 A 
ATOM     33  C   UNL     1       6.620  -0.181  -2.426  1.00  0.00     0.010 A 
ATOM     34  C   UNL     1       6.303   0.764  -1.433  1.00  0.00    -0.014 A 
BRANCH  34  35
ATOM     35  C   UNL     1       7.018   2.075  -1.338  1.00  0.00     0.031 A 
ATOM     36  C   UNL     1       7.115   2.987  -2.540  1.00  0.00     0.074 A 
ATOM     37  C   UNL     1       7.538   2.499  -0.167  1.00  0.00     0.049 A 
ATOM     38  N   UNL     1       7.828   4.075  -2.701  1.00  0.00    -0.248 NA
ATOM     39  C   UNL     1       6.311   2.625  -3.718  1.00  0.00     0.031 C 
ATOM     40  C   UNL     1       7.476   1.776   1.104  1.00  0.00     0.029 A 
ATOM     41  N   UNL     1       8.209   3.658   0.149  1.00  0.00    -0.354 N 
ATOM     42  C   UNL     1       7.607   4.489  -4.010  1.00  0.00     0.074 A 
ATOM     43  C   UNL     1       6.691   3.539  -4.601  1.00  0.00     0.031 C 
ATOM     44  C   UNL     1       8.033   2.525   2.067  1.00  0.00     0.029 A 
ATOM     45  C   UNL     1       8.586   3.734   1.468  1.00  0.00     0.049 A 
ATOM     46  H   UNL     1       8.402   4.365  -0.508  1.00  0.00     0.167 HD
ATOM     47  C   UNL     1       8.124   5.558  -4.663  1.00  0.00     0.037 A 
ATOM     48  C   UNL     1       9.334   4.641   2.124  1.00  0.00     0.037 A 
ATOM     49  C   UNL     1       8.979   6.550  -4.064  1.00  0.00     0.049 A 
ATOM     50  C   UNL     1       9.926   5.798   1.372  1.00  0.00     0.074 A 
ATOM     51  C   UNL     1       9.551   7.665  -4.654  1.00  0.00     0.029 A 
ATOM     52  N   UNL     1       9.363   6.561  -2.733  1.00  0.00    -0.354 N 
ATOM     53  N   UNL     1       9.774   6.130   0.115  1.00  0.00    -0.248 NA
ATOM     54  C   UNL     1      10.817   6.691   2.127  1.00  0.00     0.031 C 
ATOM     55  C   UNL     1      10.309   8.334  -3.687  1.00  0.00     0.029 A 
ATOM     56  C   UNL     1      10.177   7.656  -2.487  1.00  0.00     0.049 A 
ATOM     57  H   UNL     1       9.097   5.892  -2.062  1.00  0.00     0.167 HD
ATOM     58  C   UNL     1      10.548   7.268  -0.072  1.00  0.00     0.074 A 
ATOM     59  C   UNL     1      11.143   7.588   1.207  1.00  0.00     0.031 C 
ATOM     60  C   UNL     1      10.756   7.974  -1.209  1.00  0.00     0.037 A 
BRANCH  47  61
ATOM     61  C   UNL     1       7.812   5.701  -6.124  1.00  0.00     0.057 A 
ATOM     62  C   UNL     1       6.565   6.142  -6.581  1.00  0.00     0.134 A 
ATOM     63  C   UNL     1       8.802   5.449  -7.084  1.00  0.00     0.134 A 
ATOM     64  F   UNL     1       5.574   6.395  -5.714  1.00  0.00    -0.206 F 
ATOM     65  C   UNL     1       6.308   6.311  -7.944  1.00  0.00     0.040 A 
ATOM     66  C   UNL     1       8.565   5.638  -8.446  1.00  0.00     0.040 A 
ATOM     67  F   UNL     1      10.023   5.034  -6.711  1.00  0.00    -0.206 F 
ATOM     68  C   UNL     1       7.313   6.066  -8.880  1.00  0.00     0.006 A 
ENDBRANCH  47  61
BRANCH  48  69
ATOM     69  C   UNL     1       9.625   4.457   3.569  1.00  0.00     0.057 A 
ATOM     70  C   UNL     1       9.105   5.332   4.529  1.00  0.00     0.134 A 
ATOM     71  C   UNL     1      10.441   3.412   4.021  1.00  0.00     0.134 A 
ATOM     72  F   UNL     1       8.341   6.369   4.155  1.00  0.00    -0.206 F 
ATOM     73  C   UNL     1       9.391   5.178   5.887  1.00  0.00     0.040 A 
ATOM     74  C   UNL     1      10.710   3.229   5.377  1.00  0.00     0.040 A 
ATOM     75  F   UNL     1      10.974   2.543   3.149  1.00  0.00    -0.206 F 
ATOM     76  C   UNL     1      10.190   4.118   6.314  1.00  0.00     0.006 A 
ENDBRANCH  48  69
BRANCH  60  77
ATOM     77  C   UNL     1      11.639   9.181  -1.113  1.00  0.00     0.057 A 
ATOM     78  C   UNL     1      13.030   9.068  -0.989  1.00  0.00     0.134 A 
ATOM     79  C   UNL     1      11.095  10.470  -1.169  1.00  0.00     0.134 A 
ATOM     80  F   UNL     1      13.610   7.860  -0.916  1.00  0.00    -0.206 F 
ATOM     81  C   UNL     1      13.847  10.196  -0.904  1.00  0.00     0.040 A 
ATOM     82  C   UNL     1      11.904  11.605  -1.106  1.00  0.00     0.040 A 
ATOM     83  F   UNL     1       9.771  10.645  -1.292  1.00  0.00    -0.206 F 
ATOM     84  C   UNL     1      13.284  11.469  -0.967  1.00  0.00     0.006 A 
ENDBRANCH  60  77
ENDBRANCH  34  35
ENDBRANCH  27  29
ENDBRANCH  26  27
ENDBRANCH  25  26
ENDBRANCH   1  25
TORSDOF 13
