REMARK SMILES O=C(CSc1nc2ncccc2[nH]1)OCCOC(=O)c1ccc(-c2c3nc(c(-c4c(F)cccc4F)c4ccc([nH]4)c(-c4c(F)cccc4F)c4nc(c(-c5c(F)cccc5F)c5ccc2[nH]5)C=C4)C=C3)cc1
REMARK SMILES IDX 15 1 14 2 2 3 1 4 3 5 4 6 5 7 6 8 13 9 7 10 12 11 8 13 11 14
REMARK SMILES IDX 9 15 10 16 16 17 17 18 18 19 19 20 20 21 21 22 73 23 22 24
REMARK SMILES IDX 72 25 23 26 24 27 25 28 66 29 26 30 71 31 65 32 67 33 27 34
REMARK SMILES IDX 70 35 64 36 63 37 28 39 54 40 37 41 53 42 38 43 41 44 52 45
REMARK SMILES IDX 68 46 39 47 40 48 51 50 69 51 42 52 29 53 30 54 35 55 31 56
REMARK SMILES IDX 32 57 34 58 36 59 33 60 55 61 56 62 61 63 57 64 58 65 60 66
REMARK SMILES IDX 62 67 59 68 43 69 44 70 49 71 45 72 46 73 48 74 50 75 47 76
REMARK H PARENT 13 12 67 38 41 49
REMARK Flexibility Score: inf
ROOT
ATOM      1  C   UNL     1       4.461   0.897   0.968  1.00  0.00     0.274 C 
ENDROOT
BRANCH   1   2
ATOM      2  O   UNL     1       3.072   1.093   0.622  1.00  0.00    -0.461 OA
BRANCH   2   3
ATOM      3  C   UNL     1       2.455   0.659  -0.501  1.00  0.00     0.316 C 
ATOM      4  O   UNL     1       1.263   0.906  -0.693  1.00  0.00    -0.251 OA
BRANCH   3   5
ATOM      5  C   UNL     1       3.214  -0.163  -1.516  1.00  0.00     0.200 C 
BRANCH   5   6
ATOM      6  S   UNL     1       4.269   0.804  -2.604  1.00  0.00    -0.076 SA
BRANCH   6   7
ATOM      7  C   UNL     1       3.150   1.937  -3.244  1.00  0.00     0.168 A 
ATOM      8  N   UNL     1       3.279   3.236  -3.202  1.00  0.00    -0.203 NA
ATOM      9  N   UNL     1       2.040   1.533  -3.928  1.00  0.00    -0.332 N 
ATOM     10  C   UNL     1       2.213   3.701  -3.920  1.00  0.00     0.178 A 
ATOM     11  C   UNL     1       1.428   2.658  -4.405  1.00  0.00     0.086 A 
ATOM     12  H   UNL     1       1.737   0.605  -4.053  1.00  0.00     0.169 HD
ATOM     13  N   UNL     1       1.955   5.000  -4.177  1.00  0.00    -0.235 NA
ATOM     14  C   UNL     1       0.311   2.873  -5.201  1.00  0.00     0.032 A 
ATOM     15  C   UNL     1       0.872   5.203  -4.956  1.00  0.00     0.114 A 
ATOM     16  C   UNL     1       0.046   4.211  -5.481  1.00  0.00     0.022 A 
ENDBRANCH   6   7
ENDBRANCH   5   6
ENDBRANCH   3   5
ENDBRANCH   2   3
ENDBRANCH   1   2
BRANCH   1  17
ATOM     17  C   UNL     1       4.666  -0.305   1.881  1.00  0.00     0.275 C 
BRANCH  17  18
ATOM     18  O   UNL     1       4.400  -1.508   1.168  1.00  0.00    -0.458 OA
BRANCH  18  19
ATOM     19  C   UNL     1       3.120  -1.951   1.202  1.00  0.00     0.338 C 
ATOM     20  O   UNL     1       2.172  -1.431   1.737  1.00  0.00    -0.246 OA
BRANCH  19  21
ATOM     21  C   UNL     1       3.085  -3.245   0.502  1.00  0.00     0.060 A 
ATOM     22  C   UNL     1       1.891  -3.962   0.564  1.00  0.00     0.016 A 
ATOM     23  C   UNL     1       4.276  -3.818   0.027  1.00  0.00     0.016 A 
ATOM     24  C   UNL     1       1.957  -5.328   0.415  1.00  0.00     0.010 A 
ATOM     25  C   UNL     1       4.346  -5.180  -0.099  1.00  0.00     0.010 A 
ATOM     26  C   UNL     1       3.210  -5.916   0.206  1.00  0.00    -0.014 A 
BRANCH  26  27
ATOM     27  C   UNL     1       3.309  -7.350   0.301  1.00  0.00     0.031 A 
ATOM     28  C   UNL     1       2.820  -8.036  -0.907  1.00  0.00     0.074 A 
ATOM     29  C   UNL     1       3.831  -7.955   1.384  1.00  0.00     0.049 A 
ATOM     30  N   UNL     1       1.695  -8.652  -1.040  1.00  0.00    -0.248 NA
ATOM     31  C   UNL     1       3.558  -7.841  -2.163  1.00  0.00     0.031 C 
ATOM     32  C   UNL     1       4.559  -7.366   2.511  1.00  0.00     0.029 A 
ATOM     33  N   UNL     1       3.861  -9.284   1.662  1.00  0.00    -0.354 N 
ATOM     34  C   UNL     1       1.684  -9.122  -2.346  1.00  0.00     0.074 A 
ATOM     35  C   UNL     1       2.738  -8.428  -3.036  1.00  0.00     0.031 C 
ATOM     36  C   UNL     1       5.142  -8.354   3.232  1.00  0.00     0.029 A 
ATOM     37  C   UNL     1       4.712  -9.637   2.703  1.00  0.00     0.049 A 
ATOM     38  H   UNL     1       3.325  -9.944   1.167  1.00  0.00     0.167 HD
ATOM     39  C   UNL     1       0.985 -10.243  -2.666  1.00  0.00     0.037 A 
ATOM     40  C   UNL     1       5.064 -10.905   3.033  1.00  0.00     0.037 A 
ATOM     41  C   UNL     1       0.025 -10.566  -1.638  1.00  0.00     0.049 A 
ATOM     42  C   UNL     1       4.034 -11.812   2.458  1.00  0.00     0.074 A 
ATOM     43  C   UNL     1      -1.082  -9.937  -1.104  1.00  0.00     0.029 A 
ATOM     44  N   UNL     1       0.377 -11.539  -0.734  1.00  0.00    -0.354 N 
ATOM     45  N   UNL     1       2.804 -11.862   2.889  1.00  0.00    -0.248 NA
ATOM     46  C   UNL     1       4.235 -12.284   1.095  1.00  0.00     0.031 C 
ATOM     47  C   UNL     1      -1.053 -10.250   0.288  1.00  0.00     0.029 A 
ATOM     48  C   UNL     1       0.030 -11.099   0.516  1.00  0.00     0.049 A 
ATOM     49  H   UNL     1       0.802 -12.401  -0.948  1.00  0.00     0.167 HD
ATOM     50  C   UNL     1       2.028 -11.946   1.741  1.00  0.00     0.074 A 
ATOM     51  C   UNL     1       2.968 -12.274   0.670  1.00  0.00     0.031 C 
ATOM     52  C   UNL     1       0.755 -11.452   1.715  1.00  0.00     0.037 A 
BRANCH  39  53
ATOM     53  C   UNL     1       1.461 -11.273  -3.659  1.00  0.00     0.057 A 
ATOM     54  C   UNL     1       2.803 -11.433  -4.063  1.00  0.00     0.134 A 
ATOM     55  C   UNL     1       0.611 -12.351  -3.963  1.00  0.00     0.134 A 
ATOM     56  F   UNL     1       3.751 -10.526  -3.808  1.00  0.00    -0.206 F 
ATOM     57  C   UNL     1       3.275 -12.599  -4.667  1.00  0.00     0.040 A 
ATOM     58  C   UNL     1       1.085 -13.542  -4.522  1.00  0.00     0.040 A 
ATOM     59  F   UNL     1      -0.690 -12.314  -3.639  1.00  0.00    -0.206 F 
ATOM     60  C   UNL     1       2.426 -13.675  -4.860  1.00  0.00     0.006 A 
ENDBRANCH  39  53
BRANCH  40  61
ATOM     61  C   UNL     1       6.379 -11.400   3.502  1.00  0.00     0.057 A 
ATOM     62  C   UNL     1       7.573 -10.755   3.134  1.00  0.00     0.134 A 
ATOM     63  C   UNL     1       6.519 -12.669   4.082  1.00  0.00     0.134 A 
ATOM     64  F   UNL     1       7.555  -9.575   2.498  1.00  0.00    -0.206 F 
ATOM     65  C   UNL     1       8.830 -11.341   3.318  1.00  0.00     0.040 A 
ATOM     66  C   UNL     1       7.773 -13.269   4.269  1.00  0.00     0.040 A 
ATOM     67  F   UNL     1       5.437 -13.385   4.422  1.00  0.00    -0.206 F 
ATOM     68  C   UNL     1       8.933 -12.609   3.877  1.00  0.00     0.006 A 
ENDBRANCH  40  61
BRANCH  52  69
ATOM     69  C   UNL     1       0.144 -11.038   3.025  1.00  0.00     0.057 A 
ATOM     70  C   UNL     1      -1.048 -11.644   3.432  1.00  0.00     0.134 A 
ATOM     71  C   UNL     1       0.622  -9.983   3.819  1.00  0.00     0.134 A 
ATOM     72  F   UNL     1      -1.597 -12.618   2.689  1.00  0.00    -0.206 F 
ATOM     73  C   UNL     1      -1.728 -11.237   4.581  1.00  0.00     0.040 A 
ATOM     74  C   UNL     1      -0.031  -9.587   4.991  1.00  0.00     0.040 A 
ATOM     75  F   UNL     1       1.699  -9.275   3.455  1.00  0.00    -0.206 F 
ATOM     76  C   UNL     1      -1.213 -10.214   5.373  1.00  0.00     0.006 A 
ENDBRANCH  52  69
ENDBRANCH  26  27
ENDBRANCH  19  21
ENDBRANCH  18  19
ENDBRANCH  17  18
ENDBRANCH   1  17
TORSDOF 13
