REMARK SMILES Cc1cccc(C)c1Nc1ccccc1CC(=O)OCCOC(=O)c1ccc(-c2c3nc(c(-c4c(F)cccc4F)c4ccc([nH]4)c(-c4c(F)cccc4F)c4nc(c(-c5c(F)cccc5F)c5ccc2[nH]5)C=C4)C=C3)cc1
REMARK SMILES IDX 20 1 19 2 17 3 18 4 16 5 15 6 10 7 11 8 12 9 14 10 13 11
REMARK SMILES IDX 9 12 8 14 1 15 2 16 3 17 4 18 6 19 5 20 7 21 21 22 22 23
REMARK SMILES IDX 23 24 24 25 25 26 26 27 78 28 27 29 77 30 28 31 29 32 30 33
REMARK SMILES IDX 71 34 31 35 76 36 70 37 72 38 32 39 75 40 69 41 68 42 33 44
REMARK SMILES IDX 59 45 42 46 58 47 43 48 46 49 57 50 73 51 44 52 45 53 56 55
REMARK SMILES IDX 74 56 47 57 34 58 35 59 40 60 36 61 37 62 39 63 41 64 38 65
REMARK SMILES IDX 60 66 61 67 66 68 62 69 63 70 65 71 67 72 64 73 48 74 49 75
REMARK SMILES IDX 54 76 50 77 51 78 53 79 55 80 52 81
REMARK H PARENT 9 13 72 43 46 54
REMARK Flexibility Score: inf
ROOT
ATOM      1  C   UNL     1      -0.611   4.346   4.981  1.00  0.00     0.274 C 
ENDROOT
BRANCH   1   2
ATOM      2  O   UNL     1      -0.704   3.907   3.614  1.00  0.00    -0.462 OA
BRANCH   2   3
ATOM      3  C   UNL     1      -0.990   2.589   3.446  1.00  0.00     0.310 C 
ATOM      4  O   UNL     1      -1.121   1.783   4.364  1.00  0.00    -0.252 OA
BRANCH   3   5
ATOM      5  C   UNL     1      -1.049   2.161   2.004  1.00  0.00     0.160 C 
BRANCH   5   6
ATOM      6  C   UNL     1      -1.517   3.155   0.958  1.00  0.00    -0.013 A 
ATOM      7  C   UNL     1      -0.914   3.201  -0.319  1.00  0.00     0.042 A 
ATOM      8  C   UNL     1      -1.336   4.175  -1.241  1.00  0.00     0.026 A 
ATOM      9  C   UNL     1      -2.385   5.043  -0.947  1.00  0.00     0.002 A 
ATOM     10  C   UNL     1      -2.602   4.013   1.221  1.00  0.00     0.006 A 
ATOM     11  C   UNL     1      -3.032   4.947   0.278  1.00  0.00     0.000 A 
BRANCH   7  12
ATOM     12  N   UNL     1       0.019   2.245  -0.769  1.00  0.00    -0.355 N 
ATOM     13  H   UNL     1       0.776   2.618  -1.276  1.00  0.00     0.167 HD
BRANCH  12  14
ATOM     14  C   UNL     1       0.050   0.839  -0.615  1.00  0.00     0.044 A 
ATOM     15  C   UNL     1       2.557   1.026  -0.182  1.00  0.00     0.046 C 
ATOM     16  C   UNL     1       1.290   0.222  -0.310  1.00  0.00    -0.027 A 
ATOM     17  C   UNL     1       1.342  -1.155  -0.044  1.00  0.00     0.005 A 
ATOM     18  C   UNL     1       0.187  -1.928  -0.077  1.00  0.00     0.001 A 
ATOM     19  C   UNL     1      -1.115   0.037  -0.685  1.00  0.00    -0.027 A 
ATOM     20  C   UNL     1      -1.031  -1.337  -0.394  1.00  0.00     0.005 A 
ATOM     21  C   UNL     1      -2.471   0.577  -1.058  1.00  0.00     0.046 C 
ENDBRANCH  12  14
ENDBRANCH   7  12
ENDBRANCH   5   6
ENDBRANCH   3   5
ENDBRANCH   2   3
ENDBRANCH   1   2
BRANCH   1  22
ATOM     22  C   UNL     1      -1.962   4.849   5.487  1.00  0.00     0.275 C 
BRANCH  22  23
ATOM     23  O   UNL     1      -2.941   3.796   5.420  1.00  0.00    -0.458 OA
BRANCH  23  24
ATOM     24  C   UNL     1      -4.105   4.110   4.814  1.00  0.00     0.338 C 
ATOM     25  O   UNL     1      -4.448   5.193   4.372  1.00  0.00    -0.246 OA
BRANCH  24  26
ATOM     26  C   UNL     1      -4.972   2.922   4.755  1.00  0.00     0.060 A 
ATOM     27  C   UNL     1      -4.626   1.820   3.967  1.00  0.00     0.016 A 
ATOM     28  C   UNL     1      -6.202   2.964   5.411  1.00  0.00     0.016 A 
ATOM     29  C   UNL     1      -5.529   0.766   3.810  1.00  0.00     0.010 A 
ATOM     30  C   UNL     1      -7.083   1.889   5.290  1.00  0.00     0.010 A 
ATOM     31  C   UNL     1      -6.765   0.791   4.471  1.00  0.00    -0.014 A 
BRANCH  31  32
ATOM     32  C   UNL     1      -7.760  -0.297   4.295  1.00  0.00     0.031 A 
ATOM     33  C   UNL     1      -9.062  -0.013   3.598  1.00  0.00     0.074 A 
ATOM     34  C   UNL     1      -7.521  -1.525   4.791  1.00  0.00     0.049 A 
ATOM     35  N   UNL     1     -10.142  -0.749   3.525  1.00  0.00    -0.248 NA
ATOM     36  C   UNL     1      -9.163   1.277   2.897  1.00  0.00     0.031 C 
ATOM     37  C   UNL     1      -6.285  -1.949   5.447  1.00  0.00     0.029 A 
ATOM     38  N   UNL     1      -8.323  -2.638   4.836  1.00  0.00    -0.354 N 
ATOM     39  C   UNL     1     -11.060  -0.002   2.799  1.00  0.00     0.074 A 
ATOM     40  C   UNL     1     -10.415   1.250   2.461  1.00  0.00     0.031 C 
ATOM     41  C   UNL     1      -6.411  -3.230   5.831  1.00  0.00     0.029 A 
ATOM     42  C   UNL     1      -7.755  -3.695   5.502  1.00  0.00     0.049 A 
ATOM     43  H   UNL     1      -9.219  -2.674   4.429  1.00  0.00     0.167 HD
ATOM     44  C   UNL     1     -12.325  -0.331   2.445  1.00  0.00     0.037 A 
ATOM     45  C   UNL     1      -8.273  -4.889   5.846  1.00  0.00     0.037 A 
ATOM     46  C   UNL     1     -12.960  -1.584   2.762  1.00  0.00     0.049 A 
ATOM     47  C   UNL     1      -9.700  -5.206   5.498  1.00  0.00     0.074 A 
ATOM     48  C   UNL     1     -14.242  -2.005   2.454  1.00  0.00     0.029 A 
ATOM     49  N   UNL     1     -12.353  -2.621   3.451  1.00  0.00    -0.354 N 
ATOM     50  N   UNL     1     -10.576  -4.476   4.851  1.00  0.00    -0.248 NA
ATOM     51  C   UNL     1     -10.216  -6.509   5.944  1.00  0.00     0.031 C 
ATOM     52  C   UNL     1     -14.419  -3.291   2.978  1.00  0.00     0.029 A 
ATOM     53  C   UNL     1     -13.236  -3.680   3.583  1.00  0.00     0.049 A 
ATOM     54  H   UNL     1     -11.431  -2.608   3.796  1.00  0.00     0.167 HD
ATOM     55  C   UNL     1     -11.736  -5.237   4.794  1.00  0.00     0.074 A 
ATOM     56  C   UNL     1     -11.451  -6.490   5.462  1.00  0.00     0.031 C 
ATOM     57  C   UNL     1     -12.932  -4.925   4.240  1.00  0.00     0.037 A 
BRANCH  44  58
ATOM     58  C   UNL     1     -13.118   0.690   1.686  1.00  0.00     0.057 A 
ATOM     59  C   UNL     1     -12.885   0.944   0.329  1.00  0.00     0.134 A 
ATOM     60  C   UNL     1     -14.156   1.394   2.309  1.00  0.00     0.134 A 
ATOM     61  F   UNL     1     -11.897   0.311  -0.321  1.00  0.00    -0.206 F 
ATOM     62  C   UNL     1     -13.648   1.875  -0.379  1.00  0.00     0.040 A 
ATOM     63  C   UNL     1     -14.938   2.313   1.607  1.00  0.00     0.040 A 
ATOM     64  F   UNL     1     -14.433   1.193   3.606  1.00  0.00    -0.206 F 
ATOM     65  C   UNL     1     -14.682   2.557   0.259  1.00  0.00     0.006 A 
ENDBRANCH  44  58
BRANCH  45  66
ATOM     66  C   UNL     1      -7.448  -5.870   6.593  1.00  0.00     0.057 A 
ATOM     67  C   UNL     1      -7.001  -7.047   5.982  1.00  0.00     0.134 A 
ATOM     68  C   UNL     1      -7.104  -5.666   7.934  1.00  0.00     0.134 A 
ATOM     69  F   UNL     1      -7.322  -7.308   4.706  1.00  0.00    -0.206 F 
ATOM     70  C   UNL     1      -6.253  -7.994   6.682  1.00  0.00     0.040 A 
ATOM     71  C   UNL     1      -6.338  -6.593   8.640  1.00  0.00     0.040 A 
ATOM     72  F   UNL     1      -7.505  -4.558   8.575  1.00  0.00    -0.206 F 
ATOM     73  C   UNL     1      -5.915  -7.765   8.015  1.00  0.00     0.006 A 
ENDBRANCH  45  66
BRANCH  57  74
ATOM     74  C   UNL     1     -14.004  -5.970   4.298  1.00  0.00     0.057 A 
ATOM     75  C   UNL     1     -14.711  -6.235   5.477  1.00  0.00     0.134 A 
ATOM     76  C   UNL     1     -14.350  -6.699   3.154  1.00  0.00     0.134 A 
ATOM     77  F   UNL     1     -14.415  -5.579   6.609  1.00  0.00    -0.206 F 
ATOM     78  C   UNL     1     -15.713  -7.205   5.521  1.00  0.00     0.040 A 
ATOM     79  C   UNL     1     -15.363  -7.658   3.181  1.00  0.00     0.040 A 
ATOM     80  F   UNL     1     -13.713  -6.488   1.993  1.00  0.00    -0.206 F 
ATOM     81  C   UNL     1     -16.045  -7.916   4.369  1.00  0.00     0.006 A 
ENDBRANCH  57  74
ENDBRANCH  31  32
ENDBRANCH  24  26
ENDBRANCH  23  24
ENDBRANCH  22  23
ENDBRANCH   1  22
TORSDOF 14
