REMARK SMILES COc1ccc(/C=N/Nc2cccc(C(=O)OCCOC(=O)c3ccc(-c4c5nc(c(-c6c(F)cccc6F)c6ccc([nH]6)c(-c6c(F)cccc6F)c6nc(c(-c7c(F)cccc7F)c7ccc4[nH]7)C=C6)C=C5)cc3)c2)cc1O
REMARK SMILES IDX 18 1 17 2 15 3 16 4 14 5 10 6 11 7 77 8 12 9 13 10 9 11 8 13
REMARK SMILES IDX 7 14 6 15 3 16 4 17 79 18 5 19 78 20 2 21 1 22 80 23 19 25
REMARK SMILES IDX 20 26 21 27 22 28 23 29 24 30 76 31 25 32 75 33 26 34 27 35
REMARK SMILES IDX 28 36 69 37 29 38 74 39 68 40 70 41 30 42 73 43 67 44 66 45
REMARK SMILES IDX 31 47 57 48 40 49 56 50 41 51 44 52 55 53 71 54 42 55 43 56
REMARK SMILES IDX 54 58 72 59 45 60 32 61 33 62 38 63 34 64 35 65 37 66 39 67
REMARK SMILES IDX 36 68 58 69 59 70 64 71 60 72 61 73 63 74 65 75 62 76 46 77
REMARK SMILES IDX 47 78 52 79 48 80 49 81 51 82 53 83 50 84
REMARK H PARENT 9 12 80 24 70 46 44 57
REMARK Flexibility Score: inf
ROOT
ATOM      1  C   UNL     1      -4.191  -1.590   7.393  1.00  0.00     0.275 C 
ENDROOT
BRANCH   1   2
ATOM      2  O   UNL     1      -4.751  -0.404   6.794  1.00  0.00    -0.458 OA
BRANCH   2   3
ATOM      3  C   UNL     1      -5.875  -0.578   6.056  1.00  0.00     0.338 C 
ATOM      4  O   UNL     1      -6.438  -1.634   5.820  1.00  0.00    -0.246 OA
BRANCH   3   5
ATOM      5  C   UNL     1      -6.410   0.734   5.615  1.00  0.00     0.062 A 
ATOM      6  C   UNL     1      -6.073   3.028   4.888  1.00  0.00     0.057 A 
ATOM      7  C   UNL     1      -7.455   3.158   4.704  1.00  0.00     0.028 A 
ATOM      8  C   UNL     1      -5.567   1.824   5.400  1.00  0.00     0.043 A 
ATOM      9  C   UNL     1      -8.308   2.078   4.932  1.00  0.00     0.003 A 
ATOM     10  C   UNL     1      -7.779   0.856   5.343  1.00  0.00     0.016 A 
BRANCH   6  11
ATOM     11  N   UNL     1      -5.221   4.024   4.371  1.00  0.00    -0.278 N 
ATOM     12  H   UNL     1      -5.530   4.958   4.400  1.00  0.00     0.190 HD
BRANCH  11  13
ATOM     13  N   UNL     1      -3.992   3.772   3.833  1.00  0.00    -0.183 NA
ATOM     14  C   UNL     1      -3.915   2.726   3.067  1.00  0.00     0.141 C 
BRANCH  14  15
ATOM     15  C   UNL     1      -2.673   2.293   2.415  1.00  0.00    -0.002 A 
ATOM     16  C   UNL     1      -0.452   1.426   0.951  1.00  0.00     0.160 A 
ATOM     17  C   UNL     1      -0.605   2.779   1.289  1.00  0.00     0.051 A 
ATOM     18  C   UNL     1      -1.430   0.516   1.364  1.00  0.00     0.158 A 
ATOM     19  C   UNL     1      -1.707   3.217   2.027  1.00  0.00     0.014 A 
ATOM     20  C   UNL     1      -2.531   0.940   2.105  1.00  0.00     0.060 A 
BRANCH  16  21
ATOM     21  O   UNL     1       0.641   1.166   0.174  1.00  0.00    -0.493 OA
ATOM     22  C   UNL     1       1.259  -0.108   0.308  1.00  0.00     0.278 C 
ENDBRANCH  16  21
BRANCH  18  23
ATOM     23  O   UNL     1      -1.430  -0.804   1.016  1.00  0.00    -0.504 OA
ATOM     24  H   UNL     1      -0.720  -1.158   0.517  1.00  0.00     0.293 HD
ENDBRANCH  18  23
ENDBRANCH  14  15
ENDBRANCH  11  13
ENDBRANCH   6  11
ENDBRANCH   3   5
ENDBRANCH   2   3
ENDBRANCH   1   2
BRANCH   1  25
ATOM     25  C   UNL     1      -4.587  -1.676   8.865  1.00  0.00     0.275 C 
BRANCH  25  26
ATOM     26  O   UNL     1      -6.008  -1.880   8.960  1.00  0.00    -0.458 OA
BRANCH  26  27
ATOM     27  C   UNL     1      -6.689  -1.014   9.738  1.00  0.00     0.338 C 
ATOM     28  O   UNL     1      -6.238  -0.127  10.451  1.00  0.00    -0.246 OA
BRANCH  27  29
ATOM     29  C   UNL     1      -8.127  -1.281   9.598  1.00  0.00     0.060 A 
ATOM     30  C   UNL     1      -8.742  -1.052   8.369  1.00  0.00     0.016 A 
ATOM     31  C   UNL     1      -8.886  -1.667  10.700  1.00  0.00     0.016 A 
ATOM     32  C   UNL     1     -10.123  -1.162   8.238  1.00  0.00     0.010 A 
ATOM     33  C   UNL     1     -10.267  -1.840  10.555  1.00  0.00     0.010 A 
ATOM     34  C   UNL     1     -10.903  -1.564   9.329  1.00  0.00    -0.014 A 
BRANCH  34  35
ATOM     35  C   UNL     1     -12.385  -1.624   9.211  1.00  0.00     0.031 A 
ATOM     36  C   UNL     1     -13.236  -0.707  10.046  1.00  0.00     0.074 A 
ATOM     37  C   UNL     1     -12.975  -2.468   8.342  1.00  0.00     0.049 A 
ATOM     38  N   UNL     1     -14.531  -0.717  10.232  1.00  0.00    -0.248 NA
ATOM     39  C   UNL     1     -12.533   0.363  10.773  1.00  0.00     0.031 C 
ATOM     40  C   UNL     1     -12.278  -3.364   7.419  1.00  0.00     0.029 A 
ATOM     41  N   UNL     1     -14.305  -2.701   8.090  1.00  0.00    -0.354 N 
ATOM     42  C   UNL     1     -14.793   0.308  11.132  1.00  0.00     0.074 A 
ATOM     43  C   UNL     1     -13.523   0.921  11.456  1.00  0.00     0.031 C 
ATOM     44  C   UNL     1     -13.184  -4.027   6.681  1.00  0.00     0.029 A 
ATOM     45  C   UNL     1     -14.524  -3.660   7.130  1.00  0.00     0.049 A 
ATOM     46  H   UNL     1     -15.033  -2.226   8.553  1.00  0.00     0.167 HD
ATOM     47  C   UNL     1     -15.984   0.701  11.643  1.00  0.00     0.037 A 
ATOM     48  C   UNL     1     -15.671  -4.209   6.689  1.00  0.00     0.037 A 
ATOM     49  C   UNL     1     -17.252   0.122  11.288  1.00  0.00     0.049 A 
ATOM     50  C   UNL     1     -16.976  -3.786   7.301  1.00  0.00     0.074 A 
ATOM     51  C   UNL     1     -18.511   0.431  11.776  1.00  0.00     0.029 A 
ATOM     52  N   UNL     1     -17.425  -0.868  10.335  1.00  0.00    -0.354 N 
ATOM     53  N   UNL     1     -17.203  -2.880   8.221  1.00  0.00    -0.248 NA
ATOM     54  C   UNL     1     -18.184  -4.480   6.831  1.00  0.00     0.031 C 
ATOM     55  C   UNL     1     -19.444  -0.386  11.128  1.00  0.00     0.029 A 
ATOM     56  C   UNL     1     -18.769  -1.180  10.216  1.00  0.00     0.049 A 
ATOM     57  H   UNL     1     -16.700  -1.288   9.818  1.00  0.00     0.167 HD
ATOM     58  C   UNL     1     -18.575  -2.890   8.433  1.00  0.00     0.074 A 
ATOM     59  C   UNL     1     -19.133  -3.875   7.531  1.00  0.00     0.031 C 
ATOM     60  C   UNL     1     -19.306  -2.155   9.305  1.00  0.00     0.037 A 
BRANCH  47  61
ATOM     61  C   UNL     1     -15.966   1.796  12.665  1.00  0.00     0.057 A 
ATOM     62  C   UNL     1     -15.773   3.136  12.312  1.00  0.00     0.134 A 
ATOM     63  C   UNL     1     -16.177   1.506  14.020  1.00  0.00     0.134 A 
ATOM     64  F   UNL     1     -15.548   3.476  11.033  1.00  0.00    -0.206 F 
ATOM     65  C   UNL     1     -15.774   4.150  13.272  1.00  0.00     0.040 A 
ATOM     66  C   UNL     1     -16.201   2.513  14.986  1.00  0.00     0.040 A 
ATOM     67  F   UNL     1     -16.371   0.242  14.423  1.00  0.00    -0.206 F 
ATOM     68  C   UNL     1     -15.996   3.840  14.613  1.00  0.00     0.006 A 
ENDBRANCH  47  61
BRANCH  48  69
ATOM     69  C   UNL     1     -15.640  -5.256   5.637  1.00  0.00     0.057 A 
ATOM     70  C   UNL     1     -16.138  -5.004   4.353  1.00  0.00     0.134 A 
ATOM     71  C   UNL     1     -15.137  -6.537   5.895  1.00  0.00     0.134 A 
ATOM     72  F   UNL     1     -16.659  -3.805   4.055  1.00  0.00    -0.206 F 
ATOM     73  C   UNL     1     -16.148  -5.992   3.367  1.00  0.00     0.040 A 
ATOM     74  C   UNL     1     -15.117  -7.526   4.911  1.00  0.00     0.040 A 
ATOM     75  F   UNL     1     -14.649  -6.841   7.106  1.00  0.00    -0.206 F 
ATOM     76  C   UNL     1     -15.630  -7.256   3.644  1.00  0.00     0.006 A 
ENDBRANCH  48  69
BRANCH  60  77
ATOM     77  C   UNL     1     -20.788  -2.371   9.300  1.00  0.00     0.057 A 
ATOM     78  C   UNL     1     -21.368  -3.497   9.897  1.00  0.00     0.134 A 
ATOM     79  C   UNL     1     -21.644  -1.430   8.715  1.00  0.00     0.134 A 
ATOM     80  F   UNL     1     -20.599  -4.439  10.461  1.00  0.00    -0.206 F 
ATOM     81  C   UNL     1     -22.750  -3.689   9.896  1.00  0.00     0.040 A 
ATOM     82  C   UNL     1     -23.029  -1.602   8.723  1.00  0.00     0.040 A 
ATOM     83  F   UNL     1     -21.149  -0.328   8.131  1.00  0.00    -0.206 F 
ATOM     84  C   UNL     1     -23.585  -2.737   9.312  1.00  0.00     0.006 A 
ENDBRANCH  60  77
ENDBRANCH  34  35
ENDBRANCH  27  29
ENDBRANCH  26  27
ENDBRANCH  25  26
ENDBRANCH   1  25
TORSDOF 16
