REMARK SMILES Cc1cc(C)c2c(CCCC(=O)OCCOC(=O)c3ccc(-c4c5nc(c(-c6c(F)cccc6F)c6ccc([nH]6)c(-c6c(F)cccc6F)c6nc(c(-c7c(F)cccc7F)c7ccc4[nH]7)C=C6)C=C5)cc3)c(-c3ccccn3)[nH]c2c1
REMARK SMILES IDX 14 1 13 2 11 3 12 4 10 5 9 6 8 7 7 8 1 9 2 10 3 11 82 12
REMARK SMILES IDX 4 13 81 14 5 15 6 16 80 17 73 18 74 20 75 21 79 22 76 23
REMARK SMILES IDX 78 24 77 25 15 26 16 27 17 28 18 29 19 30 20 31 72 32 21 33
REMARK SMILES IDX 71 34 22 35 23 36 24 37 65 38 25 39 70 40 64 41 66 42 26 43
REMARK SMILES IDX 69 44 63 45 62 46 27 48 53 49 36 50 52 51 37 52 40 53 51 54
REMARK SMILES IDX 67 55 38 56 39 57 50 59 68 60 41 61 28 62 29 63 34 64 30 65
REMARK SMILES IDX 31 66 33 67 35 68 32 69 54 70 55 71 60 72 56 73 57 74 59 75
REMARK SMILES IDX 61 76 58 77 42 78 43 79 48 80 44 81 45 82 47 83 49 84 46 85
REMARK H PARENT 80 19 66 47 40 58
REMARK Flexibility Score: inf
ROOT
ATOM      1  C   UNL     1      -3.600  -5.840   6.417  1.00  0.00     0.274 C 
ENDROOT
BRANCH   1   2
ATOM      2  O   UNL     1      -2.212  -5.484   6.262  1.00  0.00    -0.462 OA
BRANCH   2   3
ATOM      3  C   UNL     1      -1.355  -5.554   7.308  1.00  0.00     0.305 C 
ATOM      4  O   UNL     1      -1.695  -5.825   8.455  1.00  0.00    -0.252 OA
BRANCH   3   5
ATOM      5  C   UNL     1       0.090  -5.274   6.919  1.00  0.00     0.123 C 
BRANCH   5   6
ATOM      6  C   UNL     1       0.537  -5.462   5.470  1.00  0.00     0.017 C 
BRANCH   6   7
ATOM      7  C   UNL     1      -0.335  -4.934   4.331  1.00  0.00     0.039 C 
BRANCH   7   8
ATOM      8  C   UNL     1      -0.392  -3.444   4.130  1.00  0.00    -0.013 A 
ATOM      9  C   UNL     1       1.052   0.203  -0.072  1.00  0.00     0.044 C 
ATOM     10  C   UNL     1       0.698  -0.813   0.971  1.00  0.00    -0.049 A 
ATOM     11  C   UNL     1       0.990  -2.160   0.754  1.00  0.00     0.007 A 
ATOM     12  C   UNL     1       0.107  -0.419   2.170  1.00  0.00     0.030 A 
ATOM     13  C   UNL     1       0.697  -3.162   1.707  1.00  0.00    -0.041 A 
ATOM     14  C   UNL     1      -0.187  -1.407   3.114  1.00  0.00     0.047 A 
ATOM     15  C   UNL     1       1.054  -4.580   1.336  1.00  0.00     0.045 C 
ATOM     16  C   UNL     1       0.083  -2.763   2.933  1.00  0.00     0.006 A 
ATOM     17  N   UNL     1      -0.762  -1.260   4.346  1.00  0.00    -0.353 N 
ATOM     18  C   UNL     1      -0.971  -2.469   4.952  1.00  0.00     0.068 A 
ATOM     19  H   UNL     1      -0.998  -0.392   4.747  1.00  0.00     0.167 HD
BRANCH  18  20
ATOM     20  C   UNL     1      -1.683  -2.478   6.224  1.00  0.00     0.087 A 
ATOM     21  C   UNL     1      -3.065  -2.593   6.300  1.00  0.00     0.030 A 
ATOM     22  N   UNL     1      -0.901  -2.316   7.312  1.00  0.00    -0.255 NA
ATOM     23  C   UNL     1      -3.658  -2.662   7.562  1.00  0.00     0.004 A 
ATOM     24  C   UNL     1      -1.499  -2.408   8.523  1.00  0.00     0.112 A 
ATOM     25  C   UNL     1      -2.858  -2.597   8.697  1.00  0.00     0.020 A 
ENDBRANCH  18  20
ENDBRANCH   7   8
ENDBRANCH   6   7
ENDBRANCH   5   6
ENDBRANCH   3   5
ENDBRANCH   2   3
ENDBRANCH   1   2
BRANCH   1  26
ATOM     26  C   UNL     1      -3.850  -7.246   5.890  1.00  0.00     0.275 C 
BRANCH  26  27
ATOM     27  O   UNL     1      -3.212  -8.161   6.769  1.00  0.00    -0.458 OA
BRANCH  27  28
ATOM     28  C   UNL     1      -1.899  -8.340   6.510  1.00  0.00     0.338 C 
ATOM     29  O   UNL     1      -1.295  -8.035   5.499  1.00  0.00    -0.246 OA
BRANCH  28  30
ATOM     30  C   UNL     1      -1.272  -8.973   7.672  1.00  0.00     0.060 A 
ATOM     31  C   UNL     1       0.122  -9.081   7.663  1.00  0.00     0.016 A 
ATOM     32  C   UNL     1      -2.077  -9.662   8.583  1.00  0.00     0.016 A 
ATOM     33  C   UNL     1       0.693 -10.104   8.377  1.00  0.00     0.010 A 
ATOM     34  C   UNL     1      -1.517 -10.705   9.266  1.00  0.00     0.010 A 
ATOM     35  C   UNL     1      -0.166 -10.973   9.049  1.00  0.00    -0.014 A 
BRANCH  35  36
ATOM     36  C   UNL     1       0.328 -12.293   9.349  1.00  0.00     0.031 A 
ATOM     37  C   UNL     1       0.966 -12.443  10.667  1.00  0.00     0.074 A 
ATOM     38  C   UNL     1       0.048 -13.304   8.504  1.00  0.00     0.049 A 
ATOM     39  N   UNL     1       2.179 -12.793  10.934  1.00  0.00    -0.248 NA
ATOM     40  C   UNL     1       0.174 -12.037  11.838  1.00  0.00     0.031 C 
ATOM     41  C   UNL     1      -0.867 -13.298   7.353  1.00  0.00     0.029 A 
ATOM     42  N   UNL     1       0.433 -14.600   8.578  1.00  0.00    -0.354 N 
ATOM     43  C   UNL     1       2.253 -12.816  12.320  1.00  0.00     0.074 A 
ATOM     44  C   UNL     1       1.060 -12.183  12.819  1.00  0.00     0.031 C 
ATOM     45  C   UNL     1      -1.136 -14.574   6.997  1.00  0.00     0.029 A 
ATOM     46  C   UNL     1      -0.329 -15.466   7.811  1.00  0.00     0.049 A 
ATOM     47  H   UNL     1       1.190 -14.901   9.130  1.00  0.00     0.167 HD
ATOM     48  C   UNL     1       3.173 -13.559  12.986  1.00  0.00     0.037 A 
ATOM     49  C   UNL     1      -0.355 -16.813   7.948  1.00  0.00     0.037 A 
ATOM     50  C   UNL     1       4.258 -13.976  12.147  1.00  0.00     0.049 A 
ATOM     51  C   UNL     1       0.847 -17.201   8.737  1.00  0.00     0.074 A 
ATOM     52  C   UNL     1       5.232 -13.308  11.431  1.00  0.00     0.029 A 
ATOM     53  N   UNL     1       4.226 -15.252  11.638  1.00  0.00    -0.354 N 
ATOM     54  N   UNL     1       2.074 -17.106   8.304  1.00  0.00    -0.248 NA
ATOM     55  C   UNL     1       0.706 -17.281  10.185  1.00  0.00     0.031 C 
ATOM     56  C   UNL     1       5.405 -14.066  10.238  1.00  0.00     0.029 A 
ATOM     57  C   UNL     1       4.549 -15.167  10.307  1.00  0.00     0.049 A 
ATOM     58  H   UNL     1       4.012 -16.074  12.136  1.00  0.00     0.167 HD
ATOM     59  C   UNL     1       2.820 -16.720   9.411  1.00  0.00     0.074 A 
ATOM     60  C   UNL     1       1.940 -16.930  10.556  1.00  0.00     0.031 C 
ATOM     61  C   UNL     1       3.973 -16.000   9.275  1.00  0.00     0.037 A 
BRANCH  48  62
ATOM     62  C   UNL     1       2.894 -14.142  14.335  1.00  0.00     0.057 A 
ATOM     63  C   UNL     1       3.944 -14.502  15.185  1.00  0.00     0.134 A 
ATOM     64  C   UNL     1       1.606 -14.555  14.739  1.00  0.00     0.134 A 
ATOM     65  F   UNL     1       5.214 -14.213  14.866  1.00  0.00    -0.206 F 
ATOM     66  C   UNL     1       3.725 -15.218  16.368  1.00  0.00     0.040 A 
ATOM     67  C   UNL     1       1.367 -15.215  15.943  1.00  0.00     0.040 A 
ATOM     68  F   UNL     1       0.535 -14.409  13.944  1.00  0.00    -0.206 F 
ATOM     69  C   UNL     1       2.433 -15.564  16.756  1.00  0.00     0.006 A 
ENDBRANCH  48  62
BRANCH  49  70
ATOM     70  C   UNL     1      -1.516 -17.716   7.778  1.00  0.00     0.057 A 
ATOM     71  C   UNL     1      -1.337 -19.103   7.684  1.00  0.00     0.134 A 
ATOM     72  C   UNL     1      -2.841 -17.279   7.967  1.00  0.00     0.134 A 
ATOM     73  F   UNL     1      -0.107 -19.620   7.543  1.00  0.00    -0.206 F 
ATOM     74  C   UNL     1      -2.405 -20.002   7.797  1.00  0.00     0.040 A 
ATOM     75  C   UNL     1      -3.917 -18.165   8.068  1.00  0.00     0.040 A 
ATOM     76  F   UNL     1      -3.128 -15.982   8.150  1.00  0.00    -0.206 F 
ATOM     77  C   UNL     1      -3.700 -19.534   8.000  1.00  0.00     0.006 A 
ENDBRANCH  49  70
BRANCH  61  78
ATOM     78  C   UNL     1       4.532 -15.833   7.887  1.00  0.00     0.057 A 
ATOM     79  C   UNL     1       3.881 -15.114   6.873  1.00  0.00     0.134 A 
ATOM     80  C   UNL     1       5.837 -16.259   7.620  1.00  0.00     0.134 A 
ATOM     81  F   UNL     1       2.673 -14.574   7.075  1.00  0.00    -0.206 F 
ATOM     82  C   UNL     1       4.484 -14.866   5.636  1.00  0.00     0.040 A 
ATOM     83  C   UNL     1       6.464 -15.990   6.400  1.00  0.00     0.040 A 
ATOM     84  F   UNL     1       6.546 -16.898   8.563  1.00  0.00    -0.206 F 
ATOM     85  C   UNL     1       5.785 -15.298   5.400  1.00  0.00     0.006 A 
ENDBRANCH  61  78
ENDBRANCH  35  36
ENDBRANCH  28  30
ENDBRANCH  27  28
ENDBRANCH  26  27
ENDBRANCH   1  26
TORSDOF 15
