REMARK SMILES O=C(OCCOC(=O)[C@H](NC(=O)[C@H]1CC[C@@H](CNC(=O)[C@@H]2Cc3ccccc3C[NH2+]2)CC1)c1ccccc1)c1ccc(-c2c3nc(c(-c4c(F)cccc4F)c4ccc([nH]4)c(-c4c(F)cccc4F)c4nc(c(-c5c(F)cccc5F)c5ccc2[nH]5)C=C4)C=C3)cc1
REMARK SMILES IDX 6 1 5 2 4 3 3 4 2 5 1 6 39 7 40 8 92 9 41 10 91 11 42 12
REMARK SMILES IDX 43 13 44 14 85 15 45 16 90 17 84 18 86 19 46 20 89 21 83 22
REMARK SMILES IDX 82 23 47 25 73 26 56 27 72 28 57 29 60 30 71 31 87 32 58 33
REMARK SMILES IDX 59 34 70 36 88 37 61 38 48 39 49 40 54 41 50 42 51 43 53 44
REMARK SMILES IDX 55 45 52 46 74 47 75 48 80 49 76 50 77 51 79 52 81 53 78 54
REMARK SMILES IDX 62 55 63 56 68 57 64 58 65 59 67 60 69 61 66 62 7 63 8 64
REMARK SMILES IDX 9 65 33 66 34 67 38 68 35 69 37 70 36 71 10 72 11 73 12 75
REMARK SMILES IDX 13 76 32 77 14 78 31 79 15 80 16 81 17 82 18 83 19 84 20 86
REMARK SMILES IDX 21 87 22 88 30 89 23 90 29 91 24 94 28 95 25 96 27 97 26 98
REMARK H PARENT 86 24 60 35 10 74 18 85 30 92 30 93
REMARK Flexibility Score: inf
ROOT
ATOM      1  O   UNL     1       4.045   6.891   3.962  1.00  0.00    -0.460 OA
ENDROOT
BRANCH   1   2
ATOM      2  C   UNL     1       5.322   7.527   3.774  1.00  0.00     0.274 C 
BRANCH   2   3
ATOM      3  C   UNL     1       6.414   6.556   3.322  1.00  0.00     0.275 C 
BRANCH   3   4
ATOM      4  O   UNL     1       6.015   5.703   2.240  1.00  0.00    -0.458 OA
BRANCH   4   5
ATOM      5  C   UNL     1       5.154   4.663   2.213  1.00  0.00     0.338 C 
ATOM      6  O   UNL     1       4.718   4.320   1.114  1.00  0.00    -0.246 OA
BRANCH   5   7
ATOM      7  C   UNL     1       4.658   3.897   3.418  1.00  0.00     0.060 A 
ATOM      8  C   UNL     1       4.984   4.089   4.764  1.00  0.00     0.016 A 
ATOM      9  C   UNL     1       3.728   2.883   3.148  1.00  0.00     0.016 A 
ATOM     10  C   UNL     1       4.355   3.353   5.798  1.00  0.00     0.010 A 
ATOM     11  C   UNL     1       3.098   2.161   4.177  1.00  0.00     0.010 A 
ATOM     12  C   UNL     1       3.353   2.415   5.533  1.00  0.00    -0.014 A 
BRANCH  12  13
ATOM     13  C   UNL     1       2.520   1.754   6.605  1.00  0.00     0.031 A 
ATOM     14  C   UNL     1       2.381   0.289   6.710  1.00  0.00     0.074 A 
ATOM     15  C   UNL     1       1.771   2.416   7.516  1.00  0.00     0.049 A 
ATOM     16  N   UNL     1       1.728  -0.348   7.645  1.00  0.00    -0.248 NA
ATOM     17  C   UNL     1       3.089  -0.557   5.750  1.00  0.00     0.031 C 
ATOM     18  C   UNL     1       1.853   3.827   7.679  1.00  0.00     0.029 A 
ATOM     19  N   UNL     1       0.740   2.047   8.401  1.00  0.00    -0.354 N 
ATOM     20  C   UNL     1       2.096  -1.654   7.501  1.00  0.00     0.074 A 
ATOM     21  C   UNL     1       2.814  -1.756   6.242  1.00  0.00     0.031 C 
ATOM     22  C   UNL     1       0.833   4.178   8.459  1.00  0.00     0.029 A 
ATOM     23  C   UNL     1       0.010   3.115   8.907  1.00  0.00     0.049 A 
ATOM     24  H   UNL     1       0.551   1.111   8.640  1.00  0.00     0.167 HD
ATOM     25  C   UNL     1       2.004  -2.621   8.437  1.00  0.00     0.037 A 
ATOM     26  C   UNL     1      -1.097   3.325   9.683  1.00  0.00     0.037 A 
ATOM     27  C   UNL     1       1.293  -2.537   9.683  1.00  0.00     0.049 A 
ATOM     28  C   UNL     1      -1.424   2.156  10.529  1.00  0.00     0.074 A 
ATOM     29  C   UNL     1       1.137  -3.527  10.637  1.00  0.00     0.029 A 
ATOM     30  N   UNL     1       0.595  -1.431  10.151  1.00  0.00    -0.354 N 
ATOM     31  N   UNL     1      -0.844   0.992  10.507  1.00  0.00    -0.248 NA
ATOM     32  C   UNL     1      -2.368   2.366  11.633  1.00  0.00     0.031 C 
ATOM     33  C   UNL     1       0.291  -3.049  11.644  1.00  0.00     0.029 A 
ATOM     34  C   UNL     1      -0.054  -1.747  11.341  1.00  0.00     0.049 A 
ATOM     35  H   UNL     1       0.564  -0.554   9.706  1.00  0.00     0.167 HD
ATOM     36  C   UNL     1      -1.252   0.375  11.661  1.00  0.00     0.074 A 
ATOM     37  C   UNL     1      -2.110   1.301  12.371  1.00  0.00     0.031 C 
ATOM     38  C   UNL     1      -0.915  -0.860  12.078  1.00  0.00     0.037 A 
BRANCH  25  39
ATOM     39  C   UNL     1       2.791  -3.833   8.101  1.00  0.00     0.057 A 
ATOM     40  C   UNL     1       4.194  -3.807   8.151  1.00  0.00     0.134 A 
ATOM     41  C   UNL     1       2.160  -4.960   7.580  1.00  0.00     0.134 A 
ATOM     42  F   UNL     1       4.842  -2.717   8.592  1.00  0.00    -0.206 F 
ATOM     43  C   UNL     1       4.948  -4.860   7.646  1.00  0.00     0.040 A 
ATOM     44  C   UNL     1       2.905  -6.028   7.093  1.00  0.00     0.040 A 
ATOM     45  F   UNL     1       0.824  -5.007   7.482  1.00  0.00    -0.206 F 
ATOM     46  C   UNL     1       4.301  -5.973   7.113  1.00  0.00     0.006 A 
ENDBRANCH  25  39
BRANCH  26  47
ATOM     47  C   UNL     1      -1.834   4.625  10.029  1.00  0.00     0.057 A 
ATOM     48  C   UNL     1      -1.650   5.306  11.250  1.00  0.00     0.134 A 
ATOM     49  C   UNL     1      -2.920   5.105   9.280  1.00  0.00     0.134 A 
ATOM     50  F   UNL     1      -0.766   4.842  12.146  1.00  0.00    -0.206 F 
ATOM     51  C   UNL     1      -2.383   6.447  11.631  1.00  0.00     0.040 A 
ATOM     52  C   UNL     1      -3.654   6.258   9.629  1.00  0.00     0.040 A 
ATOM     53  F   UNL     1      -3.357   4.434   8.210  1.00  0.00    -0.206 F 
ATOM     54  C   UNL     1      -3.374   6.946  10.802  1.00  0.00     0.006 A 
ENDBRANCH  26  47
BRANCH  38  55
ATOM     55  C   UNL     1      -1.508  -1.276  13.380  1.00  0.00     0.057 A 
ATOM     56  C   UNL     1      -2.895  -1.409  13.544  1.00  0.00     0.134 A 
ATOM     57  C   UNL     1      -0.696  -1.471  14.500  1.00  0.00     0.134 A 
ATOM     58  F   UNL     1      -3.728  -1.181  12.515  1.00  0.00    -0.206 F 
ATOM     59  C   UNL     1      -3.457  -1.685  14.787  1.00  0.00     0.040 A 
ATOM     60  C   UNL     1      -1.245  -1.795  15.739  1.00  0.00     0.040 A 
ATOM     61  F   UNL     1       0.635  -1.329  14.414  1.00  0.00    -0.206 F 
ATOM     62  C   UNL     1      -2.628  -1.891  15.887  1.00  0.00     0.006 A 
ENDBRANCH  38  55
ENDBRANCH  12  13
ENDBRANCH   5   7
ENDBRANCH   4   5
ENDBRANCH   3   4
ENDBRANCH   2   3
ENDBRANCH   1   2
BRANCH   1  63
ATOM     63  C   UNL     1       3.130   7.051   2.944  1.00  0.00     0.333 C 
ATOM     64  O   UNL     1       3.334   7.661   1.914  1.00  0.00    -0.249 OA
BRANCH  63  65
ATOM     65  C   UNL     1       1.780   6.385   3.329  1.00  0.00     0.223 C 
BRANCH  65  66
ATOM     66  C   UNL     1       0.874   7.427   3.968  1.00  0.00    -0.014 A 
ATOM     67  C   UNL     1       1.288   8.077   5.148  1.00  0.00     0.006 A 
ATOM     68  C   UNL     1      -0.432   7.664   3.514  1.00  0.00     0.006 A 
ATOM     69  C   UNL     1       0.391   8.844   5.893  1.00  0.00     0.000 A 
ATOM     70  C   UNL     1      -1.354   8.351   4.308  1.00  0.00     0.000 A 
ATOM     71  C   UNL     1      -0.945   8.929   5.505  1.00  0.00     0.000 A 
ENDBRANCH  65  66
BRANCH  65  72
ATOM     72  N   UNL     1       1.206   5.717   2.148  1.00  0.00    -0.339 N 
ATOM     73  C   UNL     1       0.276   4.764   1.903  1.00  0.00     0.224 C 
ATOM     74  H   UNL     1       1.607   6.052   1.314  1.00  0.00     0.164 HD
ATOM     75  O   UNL     1       0.089   4.522   0.701  1.00  0.00    -0.275 OA
BRANCH  73  76
ATOM     76  C   UNL     1      -0.605   4.011   2.928  1.00  0.00     0.078 C 
ATOM     77  C   UNL     1       0.089   3.389   4.122  1.00  0.00     0.014 C 
ATOM     78  C   UNL     1      -1.969   4.669   3.215  1.00  0.00     0.014 C 
ATOM     79  C   UNL     1      -0.852   3.076   5.271  1.00  0.00     0.006 C 
ATOM     80  C   UNL     1      -2.487   4.759   4.675  1.00  0.00     0.006 C 
ATOM     81  C   UNL     1      -1.522   4.348   5.820  1.00  0.00     0.008 C 
BRANCH  81  82
ATOM     82  C   UNL     1      -0.505   5.472   6.319  1.00  0.00     0.119 C 
BRANCH  82  83
ATOM     83  N   UNL     1      -0.795   6.378   7.519  1.00  0.00    -0.351 N 
ATOM     84  C   UNL     1      -0.217   7.117   8.552  1.00  0.00     0.278 C 
ATOM     85  H   UNL     1      -1.772   6.478   7.590  1.00  0.00     0.163 HD
ATOM     86  O   UNL     1      -1.017   7.995   8.951  1.00  0.00    -0.268 OA
BRANCH  84  87
ATOM     87  C   UNL     1       1.230   7.068   9.454  1.00  0.00     0.277 C 
ATOM     88  C   UNL     1       2.658   7.012   8.872  1.00  0.00     0.111 C 
ATOM     89  N   UNL     1       1.152   6.403  10.780  1.00  0.00    -0.332 N 
ATOM     90  C   UNL     1       3.637   5.997   9.465  1.00  0.00    -0.033 A 
ATOM     91  C   UNL     1       1.901   5.194  11.112  1.00  0.00     0.298 C 
ATOM     92  H   UNL     1       0.168   6.171  10.919  1.00  0.00     0.347 HD
ATOM     93  H   UNL     1       1.604   7.093  11.380  1.00  0.00     0.347 HD
ATOM     94  C   UNL     1       4.966   5.953   9.012  1.00  0.00     0.004 A 
ATOM     95  C   UNL     1       3.242   5.076  10.444  1.00  0.00     0.010 A 
ATOM     96  C   UNL     1       5.844   4.945   9.432  1.00  0.00     0.000 A 
ATOM     97  C   UNL     1       4.106   4.017  10.804  1.00  0.00     0.010 A 
ATOM     98  C   UNL     1       5.400   3.947  10.292  1.00  0.00     0.001 A 
ENDBRANCH  84  87
ENDBRANCH  82  83
ENDBRANCH  81  82
ENDBRANCH  73  76
ENDBRANCH  65  72
ENDBRANCH  63  65
ENDBRANCH   1  63
TORSDOF 17
