REMARK SMILES C[C@@H](CC(=O)OCCOC(=O)c1ccc(-c2c3nc(c(-c4c(F)cccc4F)c4ccc([nH]4)c(-c4c(F)cccc4F)c4nc(c(-c5c(F)cccc5F)c5ccc2[nH]5)C=C4)C=C3)cc1)CC(=O)N(C)C[C@H]1CCC[N@H+]1C
REMARK SMILES IDX 4 1 5 2 3 3 2 4 1 5 66 6 67 7 68 8 69 9 70 10 71 11 72 12
REMARK SMILES IDX 73 13 76 14 74 15 75 16 77 17 6 19 7 20 8 21 9 22 10 23
REMARK SMILES IDX 11 24 12 25 13 26 65 27 14 28 64 29 15 30 16 31 17 32 58 33
REMARK SMILES IDX 18 34 63 35 57 36 59 37 19 38 62 39 56 40 55 41 20 43 46 44
REMARK SMILES IDX 29 45 45 46 30 47 33 48 44 49 60 50 31 51 32 52 43 54 61 55
REMARK SMILES IDX 34 56 21 57 22 58 27 59 23 60 24 61 26 62 28 63 25 64 47 65
REMARK SMILES IDX 48 66 53 67 49 68 50 69 52 70 54 71 51 72 35 73 36 74 41 75
REMARK SMILES IDX 37 76 38 77 40 78 42 79 39 80
REMARK H PARENT 76 18 59 42 33 53
REMARK Flexibility Score: inf
ROOT
ATOM      1  C   UNL     1       1.372  -2.530  -1.743  1.00  0.00     0.306 C 
ATOM      2  O   UNL     1       1.675  -3.344  -2.608  1.00  0.00    -0.252 OA
ENDROOT
BRANCH   1   3
ATOM      3  C   UNL     1       1.598  -1.041  -1.933  1.00  0.00     0.126 C 
BRANCH   3   4
ATOM      4  C   UNL     1       1.073  -0.055  -0.870  1.00  0.00     0.006 C 
ATOM      5  C   UNL     1       1.743  -0.311   0.486  1.00  0.00     0.009 C 
BRANCH   4   6
ATOM      6  C   UNL     1      -0.469  -0.008  -0.830  1.00  0.00     0.104 C 
BRANCH   6   7
ATOM      7  C   UNL     1      -1.033   1.293  -0.255  1.00  0.00     0.222 C 
ATOM      8  O   UNL     1      -1.353   2.199  -1.029  1.00  0.00    -0.275 OA
BRANCH   7   9
ATOM      9  N   UNL     1      -1.127   1.442   1.119  1.00  0.00    -0.340 N 
ATOM     10  C   UNL     1      -1.070   0.336   2.067  1.00  0.00     0.147 C 
BRANCH   9  11
ATOM     11  C   UNL     1      -1.622   2.704   1.680  1.00  0.00     0.184 C 
BRANCH  11  12
ATOM     12  C   UNL     1      -0.930   4.063   1.325  1.00  0.00     0.203 C 
ATOM     13  C   UNL     1      -1.255   5.063   2.453  1.00  0.00     0.073 C 
ATOM     14  N   UNL     1       0.527   4.231   1.361  1.00  0.00    -0.333 N 
ATOM     15  C   UNL     1      -0.116   4.889   3.469  1.00  0.00     0.068 C 
ATOM     16  C   UNL     1       0.948   4.077   2.739  1.00  0.00     0.262 C 
ATOM     17  C   UNL     1       1.300   3.512   0.385  1.00  0.00     0.333 C 
ATOM     18  H   UNL     1       0.744   5.174   1.037  1.00  0.00     0.348 HD
ENDBRANCH  11  12
ENDBRANCH   9  11
ENDBRANCH   7   9
ENDBRANCH   6   7
ENDBRANCH   4   6
ENDBRANCH   3   4
ENDBRANCH   1   3
BRANCH   1  19
ATOM     19  O   UNL     1       0.821  -2.842  -0.547  1.00  0.00    -0.462 OA
BRANCH  19  20
ATOM     20  C   UNL     1       0.576  -4.236  -0.279  1.00  0.00     0.274 C 
BRANCH  20  21
ATOM     21  C   UNL     1      -0.918  -4.521  -0.367  1.00  0.00     0.275 C 
BRANCH  21  22
ATOM     22  O   UNL     1      -1.374  -4.226  -1.698  1.00  0.00    -0.458 OA
BRANCH  22  23
ATOM     23  C   UNL     1      -2.303  -3.250  -1.800  1.00  0.00     0.338 C 
ATOM     24  O   UNL     1      -2.867  -2.652  -0.901  1.00  0.00    -0.246 OA
BRANCH  23  25
ATOM     25  C   UNL     1      -2.548  -2.990  -3.224  1.00  0.00     0.060 A 
ATOM     26  C   UNL     1      -1.570  -2.353  -3.992  1.00  0.00     0.016 A 
ATOM     27  C   UNL     1      -3.782  -3.324  -3.776  1.00  0.00     0.016 A 
ATOM     28  C   UNL     1      -1.833  -2.026  -5.320  1.00  0.00     0.010 A 
ATOM     29  C   UNL     1      -4.025  -3.042  -5.121  1.00  0.00     0.010 A 
ATOM     30  C   UNL     1      -3.058  -2.382  -5.899  1.00  0.00    -0.014 A 
BRANCH  30  31
ATOM     31  C   UNL     1      -3.346  -2.073  -7.320  1.00  0.00     0.031 A 
ATOM     32  C   UNL     1      -4.426  -1.092  -7.670  1.00  0.00     0.074 A 
ATOM     33  C   UNL     1      -2.668  -2.711  -8.292  1.00  0.00     0.049 A 
ATOM     34  N   UNL     1      -4.969  -0.839  -8.832  1.00  0.00    -0.248 NA
ATOM     35  C   UNL     1      -4.976  -0.299  -6.559  1.00  0.00     0.031 C 
ATOM     36  C   UNL     1      -1.569  -3.655  -8.079  1.00  0.00     0.029 A 
ATOM     37  N   UNL     1      -2.817  -2.675  -9.655  1.00  0.00    -0.354 N 
ATOM     38  C   UNL     1      -5.947   0.117  -8.591  1.00  0.00     0.074 A 
ATOM     39  C   UNL     1      -5.929   0.392  -7.170  1.00  0.00     0.031 C 
ATOM     40  C   UNL     1      -1.144  -4.108  -9.268  1.00  0.00     0.029 A 
ATOM     41  C   UNL     1      -1.981  -3.539 -10.318  1.00  0.00     0.049 A 
ATOM     42  H   UNL     1      -3.461  -2.087 -10.112  1.00  0.00     0.167 HD
ATOM     43  C   UNL     1      -6.783   0.708  -9.478  1.00  0.00     0.037 A 
ATOM     44  C   UNL     1      -1.925  -3.868 -11.622  1.00  0.00     0.037 A 
ATOM     45  C   UNL     1      -6.778   0.443 -10.894  1.00  0.00     0.049 A 
ATOM     46  C   UNL     1      -2.899  -3.242 -12.578  1.00  0.00     0.074 A 
ATOM     47  C   UNL     1      -7.577   0.996 -11.880  1.00  0.00     0.029 A 
ATOM     48  N   UNL     1      -5.924  -0.450 -11.525  1.00  0.00    -0.354 N 
ATOM     49  N   UNL     1      -3.842  -2.364 -12.338  1.00  0.00    -0.248 NA
ATOM     50  C   UNL     1      -2.812  -3.664 -13.982  1.00  0.00     0.031 C 
ATOM     51  C   UNL     1      -7.228   0.412 -13.103  1.00  0.00     0.029 A 
ATOM     52  C   UNL     1      -6.187  -0.475 -12.885  1.00  0.00     0.049 A 
ATOM     53  H   UNL     1      -5.234  -0.987 -11.073  1.00  0.00     0.167 HD
ATOM     54  C   UNL     1      -4.449  -2.114 -13.560  1.00  0.00     0.074 A 
ATOM     55  C   UNL     1      -3.759  -2.925 -14.543  1.00  0.00     0.031 C 
ATOM     56  C   UNL     1      -5.486  -1.289 -13.845  1.00  0.00     0.037 A 
BRANCH  43  57
ATOM     57  C   UNL     1      -7.791   1.678  -8.937  1.00  0.00     0.057 A 
ATOM     58  C   UNL     1      -7.428   2.956  -8.495  1.00  0.00     0.134 A 
ATOM     59  C   UNL     1      -9.149   1.337  -8.883  1.00  0.00     0.134 A 
ATOM     60  F   UNL     1      -6.143   3.340  -8.508  1.00  0.00    -0.206 F 
ATOM     61  C   UNL     1      -8.376   3.853  -7.999  1.00  0.00     0.040 A 
ATOM     62  C   UNL     1     -10.109   2.233  -8.410  1.00  0.00     0.040 A 
ATOM     63  F   UNL     1      -9.565   0.130  -9.295  1.00  0.00    -0.206 F 
ATOM     64  C   UNL     1      -9.722   3.494  -7.961  1.00  0.00     0.006 A 
ENDBRANCH  43  57
BRANCH  44  65
ATOM     65  C   UNL     1      -0.926  -4.859 -12.089  1.00  0.00     0.057 A 
ATOM     66  C   UNL     1       0.169  -4.466 -12.866  1.00  0.00     0.134 A 
ATOM     67  C   UNL     1      -1.032  -6.216 -11.760  1.00  0.00     0.134 A 
ATOM     68  F   UNL     1       0.311  -3.183 -13.231  1.00  0.00    -0.206 F 
ATOM     69  C   UNL     1       1.122  -5.387 -13.303  1.00  0.00     0.040 A 
ATOM     70  C   UNL     1      -0.074  -7.144 -12.171  1.00  0.00     0.040 A 
ATOM     71  F   UNL     1      -2.058  -6.655 -11.017  1.00  0.00    -0.206 F 
ATOM     72  C   UNL     1       1.005  -6.730 -12.949  1.00  0.00     0.006 A 
ENDBRANCH  44  65
BRANCH  56  73
ATOM     73  C   UNL     1      -5.910  -1.203 -15.279  1.00  0.00     0.057 A 
ATOM     74  C   UNL     1      -6.641  -2.226 -15.893  1.00  0.00     0.134 A 
ATOM     75  C   UNL     1      -5.603  -0.072 -16.046  1.00  0.00     0.134 A 
ATOM     76  F   UNL     1      -6.952  -3.341 -15.215  1.00  0.00    -0.206 F 
ATOM     77  C   UNL     1      -7.037  -2.136 -17.229  1.00  0.00     0.040 A 
ATOM     78  C   UNL     1      -6.011   0.039 -17.375  1.00  0.00     0.040 A 
ATOM     79  F   UNL     1      -4.908   0.945 -15.513  1.00  0.00    -0.206 F 
ATOM     80  C   UNL     1      -6.726  -0.998 -17.972  1.00  0.00     0.006 A 
ENDBRANCH  56  73
ENDBRANCH  30  31
ENDBRANCH  23  25
ENDBRANCH  22  23
ENDBRANCH  21  22
ENDBRANCH  20  21
ENDBRANCH  19  20
ENDBRANCH   1  19
TORSDOF 17
