REMARK SMILES CC1=C([C@H](NC(=O)[C@@H]2C=C(c3ccccc3)NN2C)C(=O)OCCOC(=O)c2ccc(-c3c4nc(c(-c5c(F)cccc5F)c5ccc([nH]5)c(-c5c(F)cccc5F)c5nc(c(-c6c(F)cccc6F)c6ccc3[nH]6)C=C5)C=C4)cc2)[C@@H](C)N=N1
REMARK SMILES IDX 23 1 22 2 20 3 21 4 4 5 3 6 1 7 2 8 85 9 82 10 84 11 83 12
REMARK SMILES IDX 5 13 6 14 7 16 8 17 9 18 18 19 10 20 17 21 19 22 11 24 12 25
REMARK SMILES IDX 16 26 13 27 15 28 14 29 24 30 25 31 26 32 27 33 28 34 29 35
REMARK SMILES IDX 81 36 30 37 80 38 31 39 32 40 33 41 74 42 34 43 79 44 73 45
REMARK SMILES IDX 75 46 35 47 78 48 72 49 71 50 36 52 62 53 45 54 61 55 46 56
REMARK SMILES IDX 49 57 60 58 76 59 47 60 48 61 59 63 77 64 50 65 37 66 38 67
REMARK SMILES IDX 43 68 39 69 40 70 42 71 44 72 41 73 63 74 64 75 69 76 65 77
REMARK SMILES IDX 66 78 68 79 70 80 67 81 51 82 52 83 57 84 53 85 54 86 56 87
REMARK SMILES IDX 58 88 55 89
REMARK H PARENT 5 15 17 23 75 51 49 62
REMARK Flexibility Score: inf
ROOT
ATOM      1  C   UNL     1      -4.687   2.706   5.911  1.00  0.00     0.274 C 
ENDROOT
BRANCH   1   2
ATOM      2  O   UNL     1      -3.300   2.394   5.716  1.00  0.00    -0.460 OA
BRANCH   2   3
ATOM      3  C   UNL     1      -2.332   3.349   5.824  1.00  0.00     0.333 C 
ATOM      4  O   UNL     1      -2.553   4.536   6.034  1.00  0.00    -0.249 OA
BRANCH   3   5
ATOM      5  C   UNL     1      -0.914   2.699   5.788  1.00  0.00     0.223 C 
BRANCH   5   6
ATOM      6  C   UNL     1       0.225   3.268   4.998  1.00  0.00     0.012 C 
ATOM      7  C   UNL     1       2.212   1.982   5.976  1.00  0.00     0.069 C 
ATOM      8  C   UNL     1       1.520   2.911   5.038  1.00  0.00     0.064 C 
ATOM      9  N   UNL     1       2.278   3.549   4.091  1.00  0.00    -0.160 NA
ATOM     10  C   UNL     1       0.187   4.385   4.000  1.00  0.00     0.156 C 
ATOM     11  N   UNL     1       1.565   4.343   3.426  1.00  0.00    -0.181 NA
ATOM     12  C   UNL     1      -0.013   5.797   4.529  1.00  0.00     0.040 C 
ENDBRANCH   5   6
BRANCH   5  13
ATOM     13  N   UNL     1      -0.964   1.225   5.701  1.00  0.00    -0.338 N 
ATOM     14  C   UNL     1      -1.462   0.321   4.813  1.00  0.00     0.244 C 
ATOM     15  H   UNL     1      -0.533   0.792   6.473  1.00  0.00     0.164 HD
ATOM     16  O   UNL     1      -1.466  -0.854   5.222  1.00  0.00    -0.273 OA
BRANCH  14  17
ATOM     17  C   UNL     1      -2.028   0.624   3.387  1.00  0.00     0.191 C 
ATOM     18  C   UNL     1      -1.758   1.952   2.765  1.00  0.00     0.031 C 
ATOM     19  N   UNL     1      -3.542   0.540   3.419  1.00  0.00    -0.210 NA
ATOM     20  C   UNL     1      -2.913   2.605   2.585  1.00  0.00     0.054 C 
ATOM     21  N   UNL     1      -3.964   1.795   2.909  1.00  0.00    -0.318 N 
ATOM     22  C   UNL     1      -4.001  -0.502   2.497  1.00  0.00     0.132 C 
ATOM     23  H   UNL     1      -4.908   2.053   2.801  1.00  0.00     0.182 HD
BRANCH  20  24
ATOM     24  C   UNL     1      -3.069   4.027   2.261  1.00  0.00    -0.001 A 
ATOM     25  C   UNL     1      -2.490   4.591   1.125  1.00  0.00     0.010 A 
ATOM     26  C   UNL     1      -3.681   4.894   3.179  1.00  0.00     0.010 A 
ATOM     27  C   UNL     1      -2.481   5.981   0.950  1.00  0.00     0.001 A 
ATOM     28  C   UNL     1      -3.639   6.281   3.034  1.00  0.00     0.001 A 
ATOM     29  C   UNL     1      -3.031   6.826   1.915  1.00  0.00     0.000 A 
ENDBRANCH  20  24
ENDBRANCH  14  17
ENDBRANCH   5  13
ENDBRANCH   3   5
ENDBRANCH   2   3
ENDBRANCH   1   2
BRANCH   1  30
ATOM     30  C   UNL     1      -5.116   2.304   7.298  1.00  0.00     0.275 C 
BRANCH  30  31
ATOM     31  O   UNL     1      -4.550   3.233   8.206  1.00  0.00    -0.458 OA
BRANCH  31  32
ATOM     32  C   UNL     1      -3.294   2.974   8.633  1.00  0.00     0.338 C 
ATOM     33  O   UNL     1      -2.532   2.098   8.269  1.00  0.00    -0.246 OA
BRANCH  32  34
ATOM     34  C   UNL     1      -3.112   3.753   9.854  1.00  0.00     0.060 A 
ATOM     35  C   UNL     1      -2.231   3.166  10.763  1.00  0.00     0.016 A 
ATOM     36  C   UNL     1      -4.141   4.627  10.234  1.00  0.00     0.016 A 
ATOM     37  C   UNL     1      -2.573   3.218  12.086  1.00  0.00     0.010 A 
ATOM     38  C   UNL     1      -4.518   4.622  11.546  1.00  0.00     0.010 A 
ATOM     39  C   UNL     1      -3.763   3.863  12.437  1.00  0.00    -0.014 A 
BRANCH  39  40
ATOM     40  C   UNL     1      -4.112   3.877  13.830  1.00  0.00     0.031 A 
ATOM     41  C   UNL     1      -3.335   4.885  14.572  1.00  0.00     0.074 A 
ATOM     42  C   UNL     1      -5.114   3.151  14.342  1.00  0.00     0.049 A 
ATOM     43  N   UNL     1      -2.416   4.684  15.453  1.00  0.00    -0.248 NA
ATOM     44  C   UNL     1      -3.463   6.283  14.127  1.00  0.00     0.031 C 
ATOM     45  C   UNL     1      -6.146   2.400  13.625  1.00  0.00     0.029 A 
ATOM     46  N   UNL     1      -5.480   3.040  15.642  1.00  0.00    -0.354 N 
ATOM     47  C   UNL     1      -1.998   5.955  15.823  1.00  0.00     0.074 A 
ATOM     48  C   UNL     1      -2.498   6.867  14.832  1.00  0.00     0.031 C 
ATOM     49  C   UNL     1      -7.138   2.092  14.492  1.00  0.00     0.029 A 
ATOM     50  C   UNL     1      -6.748   2.522  15.826  1.00  0.00     0.049 A 
ATOM     51  H   UNL     1      -4.895   3.304  16.389  1.00  0.00     0.167 HD
ATOM     52  C   UNL     1      -1.538   6.199  17.075  1.00  0.00     0.037 A 
ATOM     53  C   UNL     1      -7.444   2.545  16.986  1.00  0.00     0.037 A 
ATOM     54  C   UNL     1      -1.145   4.983  17.738  1.00  0.00     0.049 A 
ATOM     55  C   UNL     1      -6.481   2.797  18.090  1.00  0.00     0.074 A 
ATOM     56  C   UNL     1      -0.200   4.005  17.505  1.00  0.00     0.029 A 
ATOM     57  N   UNL     1      -2.039   4.455  18.634  1.00  0.00    -0.354 N 
ATOM     58  N   UNL     1      -5.573   1.948  18.484  1.00  0.00    -0.248 NA
ATOM     59  C   UNL     1      -6.271   4.170  18.532  1.00  0.00     0.031 C 
ATOM     60  C   UNL     1      -0.779   2.794  17.984  1.00  0.00     0.029 A 
ATOM     61  C   UNL     1      -2.042   3.091  18.501  1.00  0.00     0.049 A 
ATOM     62  H   UNL     1      -2.587   4.970  19.269  1.00  0.00     0.167 HD
ATOM     63  C   UNL     1      -4.487   2.729  18.852  1.00  0.00     0.074 A 
ATOM     64  C   UNL     1      -5.025   4.074  19.005  1.00  0.00     0.031 C 
ATOM     65  C   UNL     1      -3.210   2.263  18.714  1.00  0.00     0.037 A 
BRANCH  52  66
ATOM     66  C   UNL     1      -1.852   7.468  17.823  1.00  0.00     0.057 A 
ATOM     67  C   UNL     1      -1.188   7.721  19.032  1.00  0.00     0.134 A 
ATOM     68  C   UNL     1      -2.965   8.298  17.561  1.00  0.00     0.134 A 
ATOM     69  F   UNL     1      -0.135   6.980  19.405  1.00  0.00    -0.206 F 
ATOM     70  C   UNL     1      -1.636   8.688  19.940  1.00  0.00     0.040 A 
ATOM     71  C   UNL     1      -3.382   9.305  18.431  1.00  0.00     0.040 A 
ATOM     72  F   UNL     1      -3.772   8.118  16.509  1.00  0.00    -0.206 F 
ATOM     73  C   UNL     1      -2.737   9.482  19.642  1.00  0.00     0.006 A 
ENDBRANCH  52  66
BRANCH  53  74
ATOM     74  C   UNL     1      -8.908   2.633  17.167  1.00  0.00     0.057 A 
ATOM     75  C   UNL     1      -9.505   2.303  18.389  1.00  0.00     0.134 A 
ATOM     76  C   UNL     1      -9.735   3.273  16.226  1.00  0.00     0.134 A 
ATOM     77  F   UNL     1      -8.785   1.731  19.366  1.00  0.00    -0.206 F 
ATOM     78  C   UNL     1     -10.844   2.602  18.667  1.00  0.00     0.040 A 
ATOM     79  C   UNL     1     -11.077   3.566  16.484  1.00  0.00     0.040 A 
ATOM     80  F   UNL     1      -9.249   3.714  15.057  1.00  0.00    -0.206 F 
ATOM     81  C   UNL     1     -11.633   3.241  17.714  1.00  0.00     0.006 A 
ENDBRANCH  53  74
BRANCH  65  82
ATOM     82  C   UNL     1      -3.038   0.782  18.521  1.00  0.00     0.057 A 
ATOM     83  C   UNL     1      -3.498   0.078  17.399  1.00  0.00     0.134 A 
ATOM     84  C   UNL     1      -2.278   0.066  19.451  1.00  0.00     0.134 A 
ATOM     85  F   UNL     1      -4.146   0.702  16.406  1.00  0.00    -0.206 F 
ATOM     86  C   UNL     1      -3.260  -1.290  17.241  1.00  0.00     0.040 A 
ATOM     87  C   UNL     1      -2.001  -1.293  19.287  1.00  0.00     0.040 A 
ATOM     88  F   UNL     1      -1.754   0.688  20.519  1.00  0.00    -0.206 F 
ATOM     89  C   UNL     1      -2.505  -1.979  18.185  1.00  0.00     0.006 A 
ENDBRANCH  65  82
ENDBRANCH  39  40
ENDBRANCH  32  34
ENDBRANCH  31  32
ENDBRANCH  30  31
ENDBRANCH   1  30
TORSDOF 15
