REMARK SMILES CC(C)[C@H](NC(=O)[C@H](Cc1ccccc1)n1c(=O)[nH]c2ccccc2c1=O)C(=O)OCCOC(=O)c1ccc(-c2c3nc(c(-c4c(F)cccc4F)c4ccc([nH]4)c(-c4c(F)cccc4F)c4nc(c(-c5c(F)cccc5F)c5ccc2[nH]5)C=C4)C=C3)cc1
REMARK SMILES IDX 31 1 30 2 28 3 29 4 4 5 2 6 1 7 3 8 5 9 6 10 7 12 8 13 16 14
REMARK SMILES IDX 17 15 26 16 18 17 19 18 25 19 27 20 20 21 24 23 21 24 23 25
REMARK SMILES IDX 22 26 9 27 10 28 11 29 15 30 12 31 14 32 13 33 32 34 33 35
REMARK SMILES IDX 34 36 35 37 36 38 37 39 89 40 38 41 88 42 39 43 40 44 41 45
REMARK SMILES IDX 82 46 42 47 87 48 81 49 83 50 43 51 86 52 80 53 79 54 44 56
REMARK SMILES IDX 70 57 53 58 69 59 54 60 57 61 68 62 84 63 55 64 56 65 67 67
REMARK SMILES IDX 85 68 58 69 45 70 46 71 51 72 47 73 48 74 50 75 52 76 49 77
REMARK SMILES IDX 71 78 72 79 77 80 73 81 74 82 76 83 78 84 75 85 59 86 60 87
REMARK SMILES IDX 65 88 61 89 62 90 64 91 66 92 63 93
REMARK H PARENT 5 11 19 22 83 55 57 66
REMARK Flexibility Score: inf
ROOT
ATOM      1  C   UNL     1       1.232  -2.104   7.688  1.00  0.00     0.274 C 
ENDROOT
BRANCH   1   2
ATOM      2  O   UNL     1       0.754  -1.747   6.376  1.00  0.00    -0.461 OA
BRANCH   2   3
ATOM      3  C   UNL     1      -0.007  -2.699   5.770  1.00  0.00     0.329 C 
ATOM      4  O   UNL     1      -0.247  -3.792   6.275  1.00  0.00    -0.250 OA
BRANCH   3   5
ATOM      5  C   UNL     1      -0.666  -2.210   4.455  1.00  0.00     0.194 C 
BRANCH   5   6
ATOM      6  C   UNL     1      -0.807  -3.299   3.375  1.00  0.00     0.017 C 
ATOM      7  C   UNL     1      -0.234  -4.689   3.663  1.00  0.00     0.010 C 
ATOM      8  C   UNL     1      -2.272  -3.451   2.944  1.00  0.00     0.010 C 
ENDBRANCH   5   6
BRANCH   5   9
ATOM      9  N   UNL     1      -0.295  -0.836   4.049  1.00  0.00    -0.341 N 
ATOM     10  C   UNL     1       0.246  -0.104   3.050  1.00  0.00     0.244 C 
ATOM     11  H   UNL     1      -0.532  -0.225   4.784  1.00  0.00     0.164 HD
ATOM     12  O   UNL     1       0.533   1.046   3.417  1.00  0.00    -0.273 OA
BRANCH  10  13
ATOM     13  C   UNL     1       0.730  -0.617   1.668  1.00  0.00     0.189 C 
BRANCH  13  14
ATOM     14  N   UNL     1      -0.141  -1.476   0.848  1.00  0.00    -0.247 N 
ATOM     15  C   UNL     1      -1.421  -1.050   0.539  1.00  0.00     0.329 A 
ATOM     16  C   UNL     1       0.418  -2.651   0.336  1.00  0.00     0.264 A 
ATOM     17  O   UNL     1      -1.958  -0.058   1.022  1.00  0.00    -0.248 OA
ATOM     18  N   UNL     1      -2.141  -1.834  -0.324  1.00  0.00    -0.307 N 
ATOM     19  C   UNL     1      -0.501  -3.585  -0.335  1.00  0.00     0.064 A 
ATOM     20  O   UNL     1       1.598  -2.971   0.463  1.00  0.00    -0.268 OA
ATOM     21  C   UNL     1      -1.749  -3.112  -0.715  1.00  0.00     0.055 A 
ATOM     22  H   UNL     1      -2.982  -1.474  -0.688  1.00  0.00     0.171 HD
ATOM     23  C   UNL     1      -0.161  -4.928  -0.527  1.00  0.00     0.016 A 
ATOM     24  C   UNL     1      -2.639  -3.951  -1.385  1.00  0.00     0.027 A 
ATOM     25  C   UNL     1      -1.074  -5.786  -1.139  1.00  0.00     0.001 A 
ATOM     26  C   UNL     1      -2.300  -5.292  -1.590  1.00  0.00     0.002 A 
ENDBRANCH  13  14
BRANCH  13  27
ATOM     27  C   UNL     1       1.439   0.480   0.819  1.00  0.00     0.071 C 
BRANCH  27  28
ATOM     28  C   UNL     1       0.605   1.616   0.264  1.00  0.00    -0.045 A 
ATOM     29  C   UNL     1      -0.094   1.485  -0.944  1.00  0.00     0.004 A 
ATOM     30  C   UNL     1       0.519   2.834   0.955  1.00  0.00     0.004 A 
ATOM     31  C   UNL     1      -0.905   2.522  -1.413  1.00  0.00     0.000 A 
ATOM     32  C   UNL     1      -0.278   3.876   0.478  1.00  0.00     0.000 A 
ATOM     33  C   UNL     1      -1.000   3.715  -0.701  1.00  0.00     0.000 A 
ENDBRANCH  27  28
ENDBRANCH  13  27
ENDBRANCH  10  13
ENDBRANCH   5   9
ENDBRANCH   3   5
ENDBRANCH   2   3
ENDBRANCH   1   2
BRANCH   1  34
ATOM     34  C   UNL     1       0.285  -1.651   8.811  1.00  0.00     0.275 C 
BRANCH  34  35
ATOM     35  O   UNL     1      -0.998  -2.316   8.800  1.00  0.00    -0.458 OA
BRANCH  35  36
ATOM     36  C   UNL     1      -1.938  -1.718   8.037  1.00  0.00     0.338 C 
ATOM     37  O   UNL     1      -1.794  -0.713   7.352  1.00  0.00    -0.246 OA
BRANCH  36  38
ATOM     38  C   UNL     1      -3.184  -2.503   7.989  1.00  0.00     0.060 A 
ATOM     39  C   UNL     1      -3.598  -2.967   6.740  1.00  0.00     0.016 A 
ATOM     40  C   UNL     1      -4.024  -2.640   9.093  1.00  0.00     0.016 A 
ATOM     41  C   UNL     1      -4.861  -3.505   6.557  1.00  0.00     0.010 A 
ATOM     42  C   UNL     1      -5.289  -3.223   8.919  1.00  0.00     0.010 A 
ATOM     43  C   UNL     1      -5.724  -3.635   7.645  1.00  0.00    -0.014 A 
BRANCH  43  44
ATOM     44  C   UNL     1      -7.097  -4.141   7.409  1.00  0.00     0.031 A 
ATOM     45  C   UNL     1      -8.270  -3.217   7.558  1.00  0.00     0.074 A 
ATOM     46  C   UNL     1      -7.285  -5.407   6.989  1.00  0.00     0.049 A 
ATOM     47  N   UNL     1      -9.548  -3.494   7.531  1.00  0.00    -0.248 NA
ATOM     48  C   UNL     1      -7.964  -1.792   7.764  1.00  0.00     0.031 C 
ATOM     49  C   UNL     1      -6.222  -6.375   6.713  1.00  0.00     0.029 A 
ATOM     50  N   UNL     1      -8.441  -6.093   6.714  1.00  0.00    -0.354 N 
ATOM     51  C   UNL     1     -10.199  -2.289   7.763  1.00  0.00     0.074 A 
ATOM     52  C   UNL     1      -9.176  -1.277   7.922  1.00  0.00     0.031 C 
ATOM     53  C   UNL     1      -6.775  -7.527   6.300  1.00  0.00     0.029 A 
ATOM     54  C   UNL     1      -8.227  -7.400   6.351  1.00  0.00     0.049 A 
ATOM     55  H   UNL     1      -9.336  -5.687   6.771  1.00  0.00     0.167 HD
ATOM     56  C   UNL     1     -11.530  -2.055   7.843  1.00  0.00     0.037 A 
ATOM     57  C   UNL     1      -9.104  -8.397   6.131  1.00  0.00     0.037 A 
ATOM     58  C   UNL     1     -12.542  -3.058   7.644  1.00  0.00     0.049 A 
ATOM     59  C   UNL     1     -10.573  -8.127   6.285  1.00  0.00     0.074 A 
ATOM     60  C   UNL     1     -13.918  -2.924   7.710  1.00  0.00     0.029 A 
ATOM     61  N   UNL     1     -12.284  -4.383   7.323  1.00  0.00    -0.354 N 
ATOM     62  N   UNL     1     -11.179  -7.002   6.576  1.00  0.00    -0.248 NA
ATOM     63  C   UNL     1     -11.479  -9.269   6.101  1.00  0.00     0.031 C 
ATOM     64  C   UNL     1     -14.492  -4.175   7.458  1.00  0.00     0.029 A 
ATOM     65  C   UNL     1     -13.474  -5.079   7.201  1.00  0.00     0.049 A 
ATOM     66  H   UNL     1     -11.387  -4.770   7.200  1.00  0.00     0.167 HD
ATOM     67  C   UNL     1     -12.535  -7.296   6.601  1.00  0.00     0.074 A 
ATOM     68  C   UNL     1     -12.664  -8.703   6.278  1.00  0.00     0.031 C 
ATOM     69  C   UNL     1     -13.579  -6.477   6.873  1.00  0.00     0.037 A 
BRANCH  56  70
ATOM     70  C   UNL     1     -11.964  -0.668   8.207  1.00  0.00     0.057 A 
ATOM     71  C   UNL     1     -11.921   0.391   7.292  1.00  0.00     0.134 A 
ATOM     72  C   UNL     1     -12.458  -0.396   9.489  1.00  0.00     0.134 A 
ATOM     73  F   UNL     1     -11.443   0.199   6.053  1.00  0.00    -0.206 F 
ATOM     74  C   UNL     1     -12.338   1.676   7.646  1.00  0.00     0.040 A 
ATOM     75  C   UNL     1     -12.897   0.878   9.848  1.00  0.00     0.040 A 
ATOM     76  F   UNL     1     -12.527  -1.368  10.412  1.00  0.00    -0.206 F 
ATOM     77  C   UNL     1     -12.833   1.920   8.926  1.00  0.00     0.006 A 
ENDBRANCH  56  70
BRANCH  57  78
ATOM     78  C   UNL     1      -8.610  -9.756   5.799  1.00  0.00     0.057 A 
ATOM     79  C   UNL     1      -8.795 -10.304   4.526  1.00  0.00     0.134 A 
ATOM     80  C   UNL     1      -7.942 -10.538   6.750  1.00  0.00     0.134 A 
ATOM     81  F   UNL     1      -9.447  -9.611   3.581  1.00  0.00    -0.206 F 
ATOM     82  C   UNL     1      -8.341 -11.586   4.211  1.00  0.00     0.040 A 
ATOM     83  C   UNL     1      -7.461 -11.811   6.442  1.00  0.00     0.040 A 
ATOM     84  F   UNL     1      -7.734 -10.068   7.989  1.00  0.00    -0.206 F 
ATOM     85  C   UNL     1      -7.665 -12.340   5.170  1.00  0.00     0.006 A 
ENDBRANCH  57  78
BRANCH  69  86
ATOM     86  C   UNL     1     -14.949  -7.079   6.806  1.00  0.00     0.057 A 
ATOM     87  C   UNL     1     -15.437  -7.909   7.822  1.00  0.00     0.134 A 
ATOM     88  C   UNL     1     -15.799  -6.799   5.729  1.00  0.00     0.134 A 
ATOM     89  F   UNL     1     -14.664  -8.226   8.871  1.00  0.00    -0.206 F 
ATOM     90  C   UNL     1     -16.721  -8.454   7.761  1.00  0.00     0.040 A 
ATOM     91  C   UNL     1     -17.091  -7.322   5.666  1.00  0.00     0.040 A 
ATOM     92  F   UNL     1     -15.390  -6.007   4.726  1.00  0.00    -0.206 F 
ATOM     93  C   UNL     1     -17.553  -8.156   6.683  1.00  0.00     0.006 A 
ENDBRANCH  69  86
ENDBRANCH  43  44
ENDBRANCH  36  38
ENDBRANCH  35  36
ENDBRANCH  34  35
ENDBRANCH   1  34
TORSDOF 17
