REMARK SMILES O=C(OCCOC(=O)[C@H]1CCCCN1c1cc(-c2ccccc2)nc(-c2cccc(Cl)c2)n1)c1ccc(-c2c3nc(c(-c4c(F)cccc4F)c4ccc([nH]4)c(-c4c(F)cccc4F)c4nc(c(-c5c(F)cccc5F)c5ccc2[nH]5)C=C4)C=C3)cc1
REMARK SMILES IDX 4 1 3 2 2 3 1 4 34 5 35 6 87 7 36 8 86 9 37 10 38 11 39 12
REMARK SMILES IDX 80 13 40 14 85 15 79 16 81 17 41 18 84 19 78 20 77 21 42 23
REMARK SMILES IDX 68 24 51 25 67 26 52 27 55 28 66 29 82 30 53 31 54 32 65 34
REMARK SMILES IDX 83 35 56 36 43 37 44 38 49 39 45 40 46 41 48 42 50 43 47 44
REMARK SMILES IDX 69 45 70 46 75 47 71 48 72 49 74 50 76 51 73 52 57 53 58 54
REMARK SMILES IDX 63 55 59 56 60 57 62 58 64 59 61 60 5 61 6 62 7 63 8 64 9 65
REMARK SMILES IDX 10 66 14 67 11 68 13 69 12 70 15 71 16 72 33 73 17 74 25 75
REMARK SMILES IDX 24 76 18 77 19 78 23 79 20 80 22 81 21 82 26 83 27 84 32 85
REMARK SMILES IDX 28 86 30 87 29 88 31 89
REMARK H PARENT 81 22 55 33
REMARK Flexibility Score: inf
ROOT
ATOM      1  C   UNL     1       6.308  -0.958  -5.404  1.00  0.00     0.275 C 
ENDROOT
BRANCH   1   2
ATOM      2  O   UNL     1       6.411  -0.066  -4.255  1.00  0.00    -0.458 OA
BRANCH   2   3
ATOM      3  C   UNL     1       6.228   1.303  -4.329  1.00  0.00     0.338 C 
ATOM      4  O   UNL     1       7.038   2.103  -3.885  1.00  0.00    -0.246 OA
BRANCH   3   5
ATOM      5  C   UNL     1       4.796   1.712  -4.534  1.00  0.00     0.060 A 
ATOM      6  C   UNL     1       3.907   0.508  -5.255  1.00  0.00     0.016 A 
ATOM      7  C   UNL     1       4.081   2.788  -3.366  1.00  0.00     0.016 A 
ATOM      8  C   UNL     1       2.258   0.239  -4.764  1.00  0.00     0.010 A 
ATOM      9  C   UNL     1       2.423   2.695  -2.821  1.00  0.00     0.010 A 
ATOM     10  C   UNL     1       1.358   1.426  -3.494  1.00  0.00    -0.014 A 
BRANCH  10  11
ATOM     11  C   UNL     1      -0.138   2.243  -3.467  1.00  0.00     0.031 A 
ATOM     12  C   UNL     1      -0.375   3.705  -4.001  1.00  0.00     0.074 A 
ATOM     13  C   UNL     1      -1.281   1.666  -3.056  1.00  0.00     0.049 A 
ATOM     14  N   UNL     1      -1.502   4.240  -4.448  1.00  0.00    -0.248 NA
ATOM     15  C   UNL     1       0.724   4.683  -4.031  1.00  0.00     0.031 C 
ATOM     16  C   UNL     1      -1.276   0.451  -2.312  1.00  0.00     0.029 A 
ATOM     17  N   UNL     1      -2.620   1.891  -3.298  1.00  0.00    -0.354 N 
ATOM     18  C   UNL     1      -1.208   5.552  -4.835  1.00  0.00     0.074 A 
ATOM     19  C   UNL     1       0.198   5.739  -4.622  1.00  0.00     0.031 C 
ATOM     20  C   UNL     1      -2.458  -0.161  -2.433  1.00  0.00     0.029 A 
ATOM     21  C   UNL     1      -3.397   0.772  -3.039  1.00  0.00     0.049 A 
ATOM     22  H   UNL     1      -2.982   2.748  -3.619  1.00  0.00     0.167 HD
ATOM     23  C   UNL     1      -2.007   6.569  -5.247  1.00  0.00     0.037 A 
ATOM     24  C   UNL     1      -4.710   0.511  -3.222  1.00  0.00     0.037 A 
ATOM     25  C   UNL     1      -3.441   6.520  -5.265  1.00  0.00     0.049 A 
ATOM     26  C   UNL     1      -5.592   1.634  -3.675  1.00  0.00     0.074 A 
ATOM     27  C   UNL     1      -4.334   7.536  -5.559  1.00  0.00     0.029 A 
ATOM     28  N   UNL     1      -4.193   5.416  -4.901  1.00  0.00    -0.354 N 
ATOM     29  N   UNL     1      -5.246   2.826  -4.096  1.00  0.00    -0.248 NA
ATOM     30  C   UNL     1      -7.043   1.421  -3.591  1.00  0.00     0.031 C 
ATOM     31  C   UNL     1      -5.625   7.069  -5.295  1.00  0.00     0.029 A 
ATOM     32  C   UNL     1      -5.539   5.738  -4.920  1.00  0.00     0.049 A 
ATOM     33  H   UNL     1      -3.825   4.534  -4.665  1.00  0.00     0.167 HD
ATOM     34  C   UNL     1      -6.432   3.523  -4.269  1.00  0.00     0.074 A 
ATOM     35  C   UNL     1      -7.509   2.601  -3.975  1.00  0.00     0.031 C 
ATOM     36  C   UNL     1      -6.604   4.824  -4.604  1.00  0.00     0.037 A 
BRANCH  23  37
ATOM     37  C   UNL     1      -1.336   7.883  -5.576  1.00  0.00     0.057 A 
ATOM     38  C   UNL     1      -0.579   8.061  -6.743  1.00  0.00     0.134 A 
ATOM     39  C   UNL     1      -1.421   8.971  -4.696  1.00  0.00     0.134 A 
ATOM     40  F   UNL     1      -0.434   7.056  -7.619  1.00  0.00    -0.206 F 
ATOM     41  C   UNL     1       0.089   9.261  -7.007  1.00  0.00     0.040 A 
ATOM     42  C   UNL     1      -0.776  10.182  -4.960  1.00  0.00     0.040 A 
ATOM     43  F   UNL     1      -2.123   8.872  -3.557  1.00  0.00    -0.206 F 
ATOM     44  C   UNL     1      -0.010  10.327  -6.114  1.00  0.00     0.006 A 
ENDBRANCH  23  37
BRANCH  24  45
ATOM     45  C   UNL     1      -5.276  -0.829  -2.870  1.00  0.00     0.057 A 
ATOM     46  C   UNL     1      -5.904  -1.642  -3.822  1.00  0.00     0.134 A 
ATOM     47  C   UNL     1      -5.167  -1.350  -1.572  1.00  0.00     0.134 A 
ATOM     48  F   UNL     1      -6.096  -1.198  -5.074  1.00  0.00    -0.206 F 
ATOM     49  C   UNL     1      -6.367  -2.925  -3.505  1.00  0.00     0.040 A 
ATOM     50  C   UNL     1      -5.569  -2.648  -1.256  1.00  0.00     0.040 A 
ATOM     51  F   UNL     1      -4.615  -0.617  -0.593  1.00  0.00    -0.206 F 
ATOM     52  C   UNL     1      -6.175  -3.441  -2.225  1.00  0.00     0.006 A 
ENDBRANCH  24  45
BRANCH  36  53
ATOM     53  C   UNL     1      -8.008   5.339  -4.664  1.00  0.00     0.057 A 
ATOM     54  C   UNL     1      -8.760   5.567  -3.504  1.00  0.00     0.134 A 
ATOM     55  C   UNL     1      -8.593   5.663  -5.893  1.00  0.00     0.134 A 
ATOM     56  F   UNL     1      -8.256   5.270  -2.296  1.00  0.00    -0.206 F 
ATOM     57  C   UNL     1     -10.055   6.082  -3.567  1.00  0.00     0.040 A 
ATOM     58  C   UNL     1      -9.877   6.203  -5.968  1.00  0.00     0.040 A 
ATOM     59  F   UNL     1      -7.919   5.479  -7.038  1.00  0.00    -0.206 F 
ATOM     60  C   UNL     1     -10.613   6.409  -4.802  1.00  0.00     0.006 A 
ENDBRANCH  36  53
ENDBRANCH  10  11
ENDBRANCH   3   5
ENDBRANCH   2   3
ENDBRANCH   1   2
BRANCH   1  61
ATOM     61  C   UNL     1       5.356  -2.205  -5.216  1.00  0.00     0.274 C 
BRANCH  61  62
ATOM     62  O   UNL     1       3.987  -1.945  -4.771  1.00  0.00    -0.461 OA
BRANCH  62  63
ATOM     63  C   UNL     1       3.706  -1.925  -3.428  1.00  0.00     0.328 C 
ATOM     64  O   UNL     1       4.447  -2.458  -2.606  1.00  0.00    -0.250 OA
BRANCH  63  65
ATOM     65  C   UNL     1       2.523  -0.941  -3.014  1.00  0.00     0.193 C 
ATOM     66  C   UNL     1       3.201   0.775  -3.233  1.00  0.00     0.037 C 
ATOM     67  N   UNL     1       0.981  -1.229  -3.643  1.00  0.00    -0.343 N 
ATOM     68  C   UNL     1       2.507   2.051  -4.889  1.00  0.00     0.005 C 
ATOM     69  C   UNL     1       0.122  -0.331  -4.933  1.00  0.00     0.119 C 
ATOM     70  C   UNL     1       0.840   1.300  -5.720  1.00  0.00     0.022 C 
BRANCH  67  71
ATOM     71  C   UNL     1       0.362  -2.156  -2.786  1.00  0.00     0.134 A 
ATOM     72  C   UNL     1       0.002  -3.409  -3.200  1.00  0.00     0.076 A 
ATOM     73  N   UNL     1       0.288  -1.853  -1.466  1.00  0.00    -0.211 NA
ATOM     74  C   UNL     1      -0.430  -4.296  -2.213  1.00  0.00     0.076 A 
ATOM     75  C   UNL     1      -0.263  -2.717  -0.594  1.00  0.00     0.162 A 
ATOM     76  N   UNL     1      -0.617  -3.960  -0.916  1.00  0.00    -0.228 NA
BRANCH  74  77
ATOM     77  C   UNL     1      -0.622  -5.716  -2.514  1.00  0.00     0.000 A 
ATOM     78  C   UNL     1      -1.896  -6.301  -2.505  1.00  0.00     0.010 A 
ATOM     79  C   UNL     1       0.486  -6.524  -2.825  1.00  0.00     0.010 A 
ATOM     80  C   UNL     1      -2.063  -7.642  -2.864  1.00  0.00     0.001 A 
ATOM     81  C   UNL     1       0.320  -7.863  -3.176  1.00  0.00     0.001 A 
ATOM     82  C   UNL     1      -0.957  -8.416  -3.212  1.00  0.00     0.000 A 
ENDBRANCH  74  77
BRANCH  75  83
ATOM     83  C   UNL     1      -0.549  -2.233   0.774  1.00  0.00     0.021 A 
ATOM     84  C   UNL     1      -1.314  -1.068   0.994  1.00  0.00     0.012 A 
ATOM     85  C   UNL     1      -0.088  -2.911   1.915  1.00  0.00     0.032 A 
ATOM     86  C   UNL     1      -1.605  -0.592   2.278  1.00  0.00     0.002 A 
ATOM     87  C   UNL     1      -0.368  -2.428   3.202  1.00  0.00     0.041 A 
ATOM     88  C   UNL     1      -1.125  -1.273   3.388  1.00  0.00     0.020 A 
ATOM     89  Cl  UNL     1       0.233  -3.266   4.582  1.00  0.00    -0.084 Cl
ENDBRANCH  75  83
ENDBRANCH  67  71
ENDBRANCH  63  65
ENDBRANCH  62  63
ENDBRANCH  61  62
ENDBRANCH   1  61
TORSDOF 14
