REMARK SMILES O=C(OCCOC(=O)C1(Cc2ccccc2Cl)CCN(c2ncnc3[nH]ccc23)CC1)c1ccc(-c2c3nc(c(-c4c(F)cccc4F)c4ccc([nH]4)c(-c4c(F)cccc4F)c4nc(c(-c5c(F)cccc5F)c5ccc2[nH]5)C=C4)C=C3)cc1
REMARK SMILES IDX 4 1 3 2 2 3 1 4 32 5 33 6 85 7 34 8 84 9 35 10 36 11 37 12
REMARK SMILES IDX 78 13 38 14 83 15 77 16 79 17 39 18 82 19 76 20 75 21 40 23
REMARK SMILES IDX 66 24 49 25 65 26 50 27 53 28 64 29 80 30 51 31 52 32 63 34
REMARK SMILES IDX 81 35 54 36 41 37 42 38 47 39 43 40 44 41 46 42 48 43 45 44
REMARK SMILES IDX 67 45 68 46 73 47 69 48 70 49 72 50 74 51 71 52 55 53 56 54
REMARK SMILES IDX 61 55 57 56 58 57 60 58 62 59 59 60 5 61 6 62 7 63 8 64 9 65
REMARK SMILES IDX 18 66 31 67 19 68 30 69 20 70 10 71 11 72 12 73 16 74 13 75
REMARK SMILES IDX 15 76 17 77 14 78 21 79 22 80 29 81 23 82 25 83 28 84 24 85
REMARK SMILES IDX 26 86 27 87
REMARK H PARENT 79 22 53 33 26 88
REMARK Flexibility Score: inf
ROOT
ATOM      1  C   UNL     1       4.547  -1.793   0.188  1.00  0.00     0.275 C 
ENDROOT
BRANCH   1   2
ATOM      2  O   UNL     1       3.948  -0.910   1.129  1.00  0.00    -0.458 OA
BRANCH   2   3
ATOM      3  C   UNL     1       3.889   0.430   1.065  1.00  0.00     0.338 C 
ATOM      4  O   UNL     1       3.060   1.000   1.784  1.00  0.00    -0.246 OA
BRANCH   3   5
ATOM      5  C   UNL     1       4.752   1.285   0.173  1.00  0.00     0.060 A 
ATOM      6  C   UNL     1       5.704   0.897  -0.791  1.00  0.00     0.016 A 
ATOM      7  C   UNL     1       4.475   2.647   0.265  1.00  0.00     0.016 A 
ATOM      8  C   UNL     1       6.259   1.807  -1.719  1.00  0.00     0.010 A 
ATOM      9  C   UNL     1       4.994   3.535  -0.671  1.00  0.00     0.010 A 
ATOM     10  C   UNL     1       5.865   3.136  -1.712  1.00  0.00    -0.014 A 
BRANCH  10  11
ATOM     11  C   UNL     1       6.258   4.170  -2.726  1.00  0.00     0.031 A 
ATOM     12  C   UNL     1       6.626   5.525  -2.182  1.00  0.00     0.074 A 
ATOM     13  C   UNL     1       6.055   4.050  -4.060  1.00  0.00     0.049 A 
ATOM     14  N   UNL     1       6.572   6.698  -2.752  1.00  0.00    -0.248 NA
ATOM     15  C   UNL     1       6.953   5.563  -0.743  1.00  0.00     0.031 C 
ATOM     16  C   UNL     1       5.627   2.854  -4.787  1.00  0.00     0.029 A 
ATOM     17  N   UNL     1       6.088   5.020  -5.043  1.00  0.00    -0.354 N 
ATOM     18  C   UNL     1       6.770   7.587  -1.708  1.00  0.00     0.074 A 
ATOM     19  C   UNL     1       6.688   6.830  -0.483  1.00  0.00     0.031 C 
ATOM     20  C   UNL     1       5.344   3.180  -6.063  1.00  0.00     0.029 A 
ATOM     21  C   UNL     1       5.611   4.599  -6.266  1.00  0.00     0.049 A 
ATOM     22  H   UNL     1       6.422   5.932  -4.884  1.00  0.00     0.167 HD
ATOM     23  C   UNL     1       7.145   8.885  -1.747  1.00  0.00     0.037 A 
ATOM     24  C   UNL     1       5.420   5.278  -7.418  1.00  0.00     0.037 A 
ATOM     25  C   UNL     1       7.363   9.595  -2.968  1.00  0.00     0.049 A 
ATOM     26  C   UNL     1       5.859   6.719  -7.501  1.00  0.00     0.074 A 
ATOM     27  C   UNL     1       7.911  10.846  -3.159  1.00  0.00     0.029 A 
ATOM     28  N   UNL     1       7.058   9.083  -4.219  1.00  0.00    -0.354 N 
ATOM     29  N   UNL     1       6.243   7.522  -6.539  1.00  0.00    -0.248 NA
ATOM     30  C   UNL     1       5.909   7.329  -8.841  1.00  0.00     0.031 C 
ATOM     31  C   UNL     1       7.909  11.108  -4.532  1.00  0.00     0.029 A 
ATOM     32  C   UNL     1       7.399   9.999  -5.192  1.00  0.00     0.049 A 
ATOM     33  H   UNL     1       6.658   8.199  -4.387  1.00  0.00     0.167 HD
ATOM     34  C   UNL     1       6.674   8.687  -7.164  1.00  0.00     0.074 A 
ATOM     35  C   UNL     1       6.455   8.510  -8.582  1.00  0.00     0.031 C 
ATOM     36  C   UNL     1       7.235   9.787  -6.606  1.00  0.00     0.037 A 
BRANCH  23  37
ATOM     37  C   UNL     1       7.427   9.530  -0.423  1.00  0.00     0.057 A 
ATOM     38  C   UNL     1       8.436   9.045   0.429  1.00  0.00     0.134 A 
ATOM     39  C   UNL     1       6.616  10.560   0.060  1.00  0.00     0.134 A 
ATOM     40  F   UNL     1       9.249   8.054   0.028  1.00  0.00    -0.206 F 
ATOM     41  C   UNL     1       8.550   9.479   1.748  1.00  0.00     0.040 A 
ATOM     42  C   UNL     1       6.759  11.041   1.363  1.00  0.00     0.040 A 
ATOM     43  F   UNL     1       5.654  11.090  -0.709  1.00  0.00    -0.206 F 
ATOM     44  C   UNL     1       7.705  10.478   2.219  1.00  0.00     0.006 A 
ENDBRANCH  23  37
BRANCH  24  45
ATOM     45  C   UNL     1       4.909   4.593  -8.637  1.00  0.00     0.057 A 
ATOM     46  C   UNL     1       5.788   4.195  -9.653  1.00  0.00     0.134 A 
ATOM     47  C   UNL     1       3.543   4.378  -8.851  1.00  0.00     0.134 A 
ATOM     48  F   UNL     1       7.107   4.396  -9.516  1.00  0.00    -0.206 F 
ATOM     49  C   UNL     1       5.329   3.639 -10.849  1.00  0.00     0.040 A 
ATOM     50  C   UNL     1       3.070   3.809 -10.039  1.00  0.00     0.040 A 
ATOM     51  F   UNL     1       2.647   4.732  -7.919  1.00  0.00    -0.206 F 
ATOM     52  C   UNL     1       3.964   3.446 -11.046  1.00  0.00     0.006 A 
ENDBRANCH  24  45
BRANCH  36  53
ATOM     53  C   UNL     1       7.772  10.853  -7.509  1.00  0.00     0.057 A 
ATOM     54  C   UNL     1       6.941  11.767  -8.162  1.00  0.00     0.134 A 
ATOM     55  C   UNL     1       9.158  11.051  -7.599  1.00  0.00     0.134 A 
ATOM     56  F   UNL     1       5.607  11.623  -8.121  1.00  0.00    -0.206 F 
ATOM     57  C   UNL     1       7.469  12.851  -8.865  1.00  0.00     0.040 A 
ATOM     58  C   UNL     1       9.696  12.144  -8.275  1.00  0.00     0.040 A 
ATOM     59  F   UNL     1      10.006  10.211  -6.985  1.00  0.00    -0.206 F 
ATOM     60  C   UNL     1       8.849  13.051  -8.908  1.00  0.00     0.006 A 
ENDBRANCH  36  53
ENDBRANCH  10  11
ENDBRANCH   3   5
ENDBRANCH   2   3
ENDBRANCH   1   2
BRANCH   1  61
ATOM     61  C   UNL     1       3.813  -1.881  -1.154  1.00  0.00     0.274 C 
BRANCH  61  62
ATOM     62  O   UNL     1       3.448  -0.642  -1.827  1.00  0.00    -0.462 OA
BRANCH  62  63
ATOM     63  C   UNL     1       2.132  -0.289  -1.728  1.00  0.00     0.312 C 
ATOM     64  O   UNL     1       1.382  -0.802  -0.896  1.00  0.00    -0.252 OA
BRANCH  63  65
ATOM     65  C   UNL     1       1.591   0.640  -2.848  1.00  0.00     0.075 C 
ATOM     66  C   UNL     1       2.546   1.629  -3.535  1.00  0.00     0.040 C 
ATOM     67  C   UNL     1       0.400   1.465  -2.234  1.00  0.00     0.040 C 
ATOM     68  C   UNL     1       2.782   2.955  -2.878  1.00  0.00     0.119 C 
ATOM     69  C   UNL     1       0.831   2.747  -1.474  1.00  0.00     0.119 C 
ATOM     70  N   UNL     1       1.573   3.593  -2.406  1.00  0.00    -0.356 N 
BRANCH  65  71
ATOM     71  C   UNL     1       1.089  -0.345  -3.990  1.00  0.00     0.056 C 
BRANCH  71  72
ATOM     72  C   UNL     1       2.212  -0.958  -4.849  1.00  0.00    -0.028 A 
ATOM     73  C   UNL     1       2.767  -0.203  -5.906  1.00  0.00     0.005 A 
ATOM     74  C   UNL     1       2.817  -2.190  -4.566  1.00  0.00     0.044 A 
ATOM     75  C   UNL     1       3.977  -0.562  -6.508  1.00  0.00     0.000 A 
ATOM     76  C   UNL     1       4.042  -2.541  -5.154  1.00  0.00     0.021 A 
ATOM     77  Cl  UNL     1       2.065  -3.364  -3.549  1.00  0.00    -0.084 Cl
ATOM     78  C   UNL     1       4.640  -1.709  -6.098  1.00  0.00     0.002 A 
ENDBRANCH  71  72
ENDBRANCH  65  71
BRANCH  70  79
ATOM     79  C   UNL     1       1.849   4.926  -2.042  1.00  0.00     0.141 A 
ATOM     80  N   UNL     1       1.917   5.284  -0.730  1.00  0.00    -0.219 NA
ATOM     81  C   UNL     1       2.189   5.923  -2.996  1.00  0.00     0.061 A 
ATOM     82  C   UNL     1       2.328   6.534  -0.413  1.00  0.00     0.226 A 
ATOM     83  C   UNL     1       2.602   7.158  -2.515  1.00  0.00     0.142 A 
ATOM     84  C   UNL     1       2.255   6.012  -4.420  1.00  0.00     0.033 A 
ATOM     85  N   UNL     1       2.701   7.530  -1.232  1.00  0.00    -0.218 NA
ATOM     86  N   UNL     1       2.919   7.957  -3.583  1.00  0.00    -0.346 N 
ATOM     87  C   UNL     1       2.698   7.276  -4.752  1.00  0.00     0.085 A 
ATOM     88  H   UNL     1       3.255   8.881  -3.519  1.00  0.00     0.167 HD
ENDBRANCH  70  79
ENDBRANCH  63  65
ENDBRANCH  62  63
ENDBRANCH  61  62
ENDBRANCH   1  61
TORSDOF 14
