REMARK SMILES O=C(OCCOC(=O)c1cccc(OCC(F)F)c1)c1ccc(-c2c3nc(c(-c4c(F)cccc4F)c4ccc([nH]4)c(-c4c(F)cccc4F)c4nc(c(-c5c(F)cccc5F)c5ccc2[nH]5)C=C4)C=C3)cc1
REMARK SMILES IDX 5 1 4 2 3 3 2 4 1 5 20 6 21 7 73 8 22 9 72 10 23 11 24 12
REMARK SMILES IDX 25 13 66 14 26 15 71 16 65 17 67 18 27 19 70 20 64 21 63 22
REMARK SMILES IDX 28 24 54 25 37 26 53 27 38 28 41 29 52 30 68 31 39 32 40 33
REMARK SMILES IDX 51 35 69 36 42 37 29 38 30 39 35 40 31 41 32 42 34 43 36 44
REMARK SMILES IDX 33 45 55 46 56 47 61 48 57 49 58 50 60 51 62 52 59 53 43 54
REMARK SMILES IDX 44 55 49 56 45 57 46 58 48 59 50 60 47 61 6 62 7 63 8 64
REMARK SMILES IDX 9 65 10 66 19 67 11 68 13 69 12 70 14 71 15 72 16 73 17 74
REMARK SMILES IDX 18 75
REMARK H PARENT 67 23 41 34
REMARK Flexibility Score: inf
ROOT
ATOM      1  C   UNL     1       4.053  -1.455  -1.729  1.00  0.00     0.275 C 
ENDROOT
BRANCH   1   2
ATOM      2  C   UNL     1       4.338  -1.485  -0.227  1.00  0.00     0.275 C 
BRANCH   2   3
ATOM      3  O   UNL     1       3.222  -1.043   0.566  1.00  0.00    -0.458 OA
BRANCH   3   4
ATOM      4  C   UNL     1       2.856   0.177   1.015  1.00  0.00     0.338 C 
ATOM      5  O   UNL     1       1.862   0.239   1.741  1.00  0.00    -0.246 OA
BRANCH   4   6
ATOM      6  C   UNL     1       3.538   1.481   0.694  1.00  0.00     0.060 A 
ATOM      7  C   UNL     1       4.729   1.659  -0.011  1.00  0.00     0.016 A 
ATOM      8  C   UNL     1       2.889   2.648   1.158  1.00  0.00     0.016 A 
ATOM      9  C   UNL     1       5.272   2.935  -0.214  1.00  0.00     0.010 A 
ATOM     10  C   UNL     1       3.414   3.928   0.944  1.00  0.00     0.010 A 
ATOM     11  C   UNL     1       4.629   4.075   0.276  1.00  0.00    -0.014 A 
BRANCH  11  12
ATOM     12  C   UNL     1       5.296   5.391   0.147  1.00  0.00     0.031 A 
ATOM     13  C   UNL     1       6.095   5.918   1.290  1.00  0.00     0.074 A 
ATOM     14  C   UNL     1       5.226   6.080  -1.004  1.00  0.00     0.049 A 
ATOM     15  N   UNL     1       6.847   6.984   1.340  1.00  0.00    -0.248 NA
ATOM     16  C   UNL     1       6.010   5.167   2.551  1.00  0.00     0.031 C 
ATOM     17  C   UNL     1       4.399   5.685  -2.129  1.00  0.00     0.029 A 
ATOM     18  N   UNL     1       5.859   7.215  -1.441  1.00  0.00    -0.354 N 
ATOM     19  C   UNL     1       7.285   7.064   2.651  1.00  0.00     0.074 A 
ATOM     20  C   UNL     1       6.729   5.930   3.359  1.00  0.00     0.031 C 
ATOM     21  C   UNL     1       4.631   6.506  -3.164  1.00  0.00     0.029 A 
ATOM     22  C   UNL     1       5.638   7.480  -2.775  1.00  0.00     0.049 A 
ATOM     23  H   UNL     1       6.415   7.784  -0.861  1.00  0.00     0.167 HD
ATOM     24  C   UNL     1       8.055   8.025   3.213  1.00  0.00     0.037 A 
ATOM     25  C   UNL     1       6.222   8.374  -3.596  1.00  0.00     0.037 A 
ATOM     26  C   UNL     1       8.572   9.157   2.491  1.00  0.00     0.049 A 
ATOM     27  C   UNL     1       7.196   9.340  -2.985  1.00  0.00     0.074 A 
ATOM     28  C   UNL     1       9.319  10.220   2.963  1.00  0.00     0.029 A 
ATOM     29  N   UNL     1       8.385   9.372   1.131  1.00  0.00    -0.354 N 
ATOM     30  N   UNL     1       7.620   9.400  -1.745  1.00  0.00    -0.248 NA
ATOM     31  C   UNL     1       7.735  10.386  -3.862  1.00  0.00     0.031 C 
ATOM     32  C   UNL     1       9.559  11.093   1.895  1.00  0.00     0.029 A 
ATOM     33  C   UNL     1       8.998  10.553   0.747  1.00  0.00     0.049 A 
ATOM     34  H   UNL     1       7.890   8.772   0.528  1.00  0.00     0.167 HD
ATOM     35  C   UNL     1       8.440  10.515  -1.680  1.00  0.00     0.074 A 
ATOM     36  C   UNL     1       8.517  11.054  -3.025  1.00  0.00     0.031 C 
ATOM     37  C   UNL     1       9.036  11.072  -0.598  1.00  0.00     0.037 A 
BRANCH  24  38
ATOM     38  C   UNL     1       8.289   7.909   4.688  1.00  0.00     0.057 A 
ATOM     39  C   UNL     1       9.114   6.918   5.236  1.00  0.00     0.134 A 
ATOM     40  C   UNL     1       7.615   8.756   5.577  1.00  0.00     0.134 A 
ATOM     41  F   UNL     1       9.759   6.054   4.439  1.00  0.00    -0.206 F 
ATOM     42  C   UNL     1       9.230   6.750   6.618  1.00  0.00     0.040 A 
ATOM     43  C   UNL     1       7.743   8.614   6.959  1.00  0.00     0.040 A 
ATOM     44  F   UNL     1       6.801   9.718   5.117  1.00  0.00    -0.206 F 
ATOM     45  C   UNL     1       8.543   7.600   7.483  1.00  0.00     0.006 A 
ENDBRANCH  24  38
BRANCH  25  46
ATOM     46  C   UNL     1       5.963   8.361  -5.063  1.00  0.00     0.057 A 
ATOM     47  C   UNL     1       6.991   8.049  -5.965  1.00  0.00     0.134 A 
ATOM     48  C   UNL     1       4.706   8.644  -5.610  1.00  0.00     0.134 A 
ATOM     49  F   UNL     1       8.225   7.778  -5.513  1.00  0.00    -0.206 F 
ATOM     50  C   UNL     1       6.784   8.031  -7.346  1.00  0.00     0.040 A 
ATOM     51  C   UNL     1       4.476   8.599  -6.988  1.00  0.00     0.040 A 
ATOM     52  F   UNL     1       3.673   8.947  -4.811  1.00  0.00    -0.206 F 
ATOM     53  C   UNL     1       5.519   8.299  -7.862  1.00  0.00     0.006 A 
ENDBRANCH  25  46
BRANCH  37  54
ATOM     54  C   UNL     1       9.779  12.350  -0.834  1.00  0.00     0.057 A 
ATOM     55  C   UNL     1       9.100  13.552  -1.078  1.00  0.00     0.134 A 
ATOM     56  C   UNL     1      11.177  12.388  -0.793  1.00  0.00     0.134 A 
ATOM     57  F   UNL     1       7.759  13.574  -1.144  1.00  0.00    -0.206 F 
ATOM     58  C   UNL     1       9.787  14.745  -1.295  1.00  0.00     0.040 A 
ATOM     59  C   UNL     1      11.875  13.580  -0.986  1.00  0.00     0.040 A 
ATOM     60  F   UNL     1      11.882  11.271  -0.561  1.00  0.00    -0.206 F 
ATOM     61  C   UNL     1      11.180  14.761  -1.244  1.00  0.00     0.006 A 
ENDBRANCH  37  54
ENDBRANCH  11  12
ENDBRANCH   4   6
ENDBRANCH   3   4
ENDBRANCH   2   3
ENDBRANCH   1   2
BRANCH   1  62
ATOM     62  O   UNL     1       3.548  -0.186  -2.165  1.00  0.00    -0.458 OA
BRANCH  62  63
ATOM     63  C   UNL     1       2.195  -0.080  -2.234  1.00  0.00     0.338 C 
ATOM     64  O   UNL     1       1.372  -0.944  -1.998  1.00  0.00    -0.246 OA
BRANCH  63  65
ATOM     65  C   UNL     1       1.861   1.324  -2.538  1.00  0.00     0.063 A 
ATOM     66  C   UNL     1       0.897   1.978  -1.767  1.00  0.00     0.016 A 
ATOM     67  C   UNL     1       2.548   1.996  -3.555  1.00  0.00     0.062 A 
ATOM     68  C   UNL     1       0.641   3.327  -1.999  1.00  0.00     0.005 A 
ATOM     69  C   UNL     1       2.307   3.346  -3.779  1.00  0.00     0.120 A 
ATOM     70  C   UNL     1       1.339   4.003  -3.004  1.00  0.00     0.046 A 
BRANCH  69  71
ATOM     71  O   UNL     1       2.984   4.139  -4.663  1.00  0.00    -0.488 OA
BRANCH  71  72
ATOM     72  C   UNL     1       4.041   3.565  -5.444  1.00  0.00     0.302 C 
BRANCH  72  73
ATOM     73  C   UNL     1       5.384   3.431  -4.728  1.00  0.00     0.379 C 
ATOM     74  F   UNL     1       5.356   2.433  -3.809  1.00  0.00    -0.207 F 
ATOM     75  F   UNL     1       6.332   3.073  -5.636  1.00  0.00    -0.207 F 
ENDBRANCH  72  73
ENDBRANCH  71  72
ENDBRANCH  69  71
ENDBRANCH  63  65
ENDBRANCH  62  63
ENDBRANCH   1  62
TORSDOF 14
