REMARK SMILES C[N@@H+]1CCO[C@H](c2noc(-c3ccccc3C(=O)OCCOC(=O)c3ccc(-c4c5nc(c(-c6c(F)cccc6F)c6ccc([nH]6)c(-c6c(F)cccc6F)c6nc(c(-c7c(F)cccc7F)c7ccc4[nH]7)C=C6)C=C5)cc3)n2)C1
REMARK SMILES IDX 20 1 19 2 17 3 18 4 16 5 11 6 12 7 13 8 15 9 14 10 10 11
REMARK SMILES IDX 7 12 8 13 79 14 9 15 6 16 1 17 2 18 3 19 80 20 4 22 5 23
REMARK SMILES IDX 21 24 22 25 23 26 24 27 25 28 26 29 78 30 27 31 77 32 28 33
REMARK SMILES IDX 29 34 30 35 71 36 31 37 76 38 70 39 72 40 32 41 75 42 69 43
REMARK SMILES IDX 68 44 33 46 59 47 42 48 58 49 43 50 46 51 57 52 73 53 44 54
REMARK SMILES IDX 45 55 56 57 74 58 47 59 34 60 35 61 40 62 36 63 37 64 39 65
REMARK SMILES IDX 41 66 38 67 60 68 61 69 66 70 62 71 63 72 65 73 67 74 64 75
REMARK SMILES IDX 48 76 49 77 54 78 50 79 51 80 53 81 55 82 52 83
REMARK H PARENT 2 21 72 45 46 56
REMARK Flexibility Score: inf
ROOT
ATOM      1  C   UNL     1      -3.324  -3.697   1.297  1.00  0.00     0.275 C 
ENDROOT
BRANCH   1   2
ATOM      2  O   UNL     1      -2.934  -4.519   2.415  1.00  0.00    -0.458 OA
BRANCH   2   3
ATOM      3  C   UNL     1      -2.931  -3.933   3.639  1.00  0.00     0.339 C 
ATOM      4  O   UNL     1      -3.395  -2.846   3.928  1.00  0.00    -0.246 OA
BRANCH   3   5
ATOM      5  C   UNL     1      -2.382  -4.871   4.654  1.00  0.00     0.072 A 
ATOM      6  C   UNL     1      -1.200  -5.605   4.454  1.00  0.00     0.054 A 
ATOM      7  C   UNL     1      -0.779  -6.494   5.460  1.00  0.00     0.015 A 
ATOM      8  C   UNL     1      -1.512  -6.638   6.642  1.00  0.00     0.001 A 
ATOM      9  C   UNL     1      -3.087  -4.992   5.864  1.00  0.00     0.016 A 
ATOM     10  C   UNL     1      -2.663  -5.885   6.846  1.00  0.00     0.001 A 
BRANCH   6  11
ATOM     11  C   UNL     1      -0.383  -5.399   3.272  1.00  0.00     0.258 A 
ATOM     12  C   UNL     1       0.536  -4.738   1.512  1.00  0.00     0.206 A 
ATOM     13  N   UNL     1       0.784  -6.058   1.510  1.00  0.00    -0.059 NA
ATOM     14  N   UNL     1      -0.135  -4.287   2.621  1.00  0.00    -0.189 NA
ATOM     15  O   UNL     1       0.163  -6.503   2.683  1.00  0.00    -0.334 OA
BRANCH  12  16
ATOM     16  C   UNL     1       0.909  -3.836   0.373  1.00  0.00     0.245 C 
ATOM     17  C   UNL     1       0.875  -0.034   0.035  1.00  0.00     0.332 C 
ATOM     18  N   UNL     1       1.096  -1.425  -0.355  1.00  0.00    -0.333 N 
ATOM     19  C   UNL     1       0.277  -1.786  -1.527  1.00  0.00     0.290 C 
ATOM     20  C   UNL     1       0.756  -2.339   0.765  1.00  0.00     0.303 C 
ATOM     21  H   UNL     1       2.083  -1.521  -0.594  1.00  0.00     0.348 HD
ATOM     22  C   UNL     1       0.466  -3.268  -1.882  1.00  0.00     0.222 C 
ATOM     23  O   UNL     1       0.086  -4.112  -0.788  1.00  0.00    -0.358 OA
ENDBRANCH  12  16
ENDBRANCH   6  11
ENDBRANCH   3   5
ENDBRANCH   2   3
ENDBRANCH   1   2
BRANCH   1  24
ATOM     24  C   UNL     1      -4.537  -4.295   0.591  1.00  0.00     0.275 C 
BRANCH  24  25
ATOM     25  O   UNL     1      -5.675  -4.242   1.468  1.00  0.00    -0.458 OA
BRANCH  25  26
ATOM     26  C   UNL     1      -5.985  -5.412   2.068  1.00  0.00     0.338 C 
ATOM     27  O   UNL     1      -5.504  -6.514   1.872  1.00  0.00    -0.246 OA
BRANCH  26  28
ATOM     28  C   UNL     1      -6.967  -5.158   3.128  1.00  0.00     0.060 A 
ATOM     29  C   UNL     1      -6.495  -4.711   4.358  1.00  0.00     0.016 A 
ATOM     30  C   UNL     1      -8.304  -5.504   2.964  1.00  0.00     0.016 A 
ATOM     31  C   UNL     1      -7.338  -4.692   5.464  1.00  0.00     0.010 A 
ATOM     32  C   UNL     1      -9.172  -5.402   4.057  1.00  0.00     0.010 A 
ATOM     33  C   UNL     1      -8.690  -5.033   5.329  1.00  0.00    -0.014 A 
BRANCH  33  34
ATOM     34  C   UNL     1      -9.582  -5.065   6.522  1.00  0.00     0.031 A 
ATOM     35  C   UNL     1     -10.271  -6.348   6.912  1.00  0.00     0.074 A 
ATOM     36  C   UNL     1      -9.760  -3.961   7.276  1.00  0.00     0.049 A 
ATOM     37  N   UNL     1     -11.227  -6.544   7.785  1.00  0.00    -0.248 NA
ATOM     38  C   UNL     1      -9.834  -7.571   6.219  1.00  0.00     0.031 C 
ATOM     39  C   UNL     1      -9.111  -2.667   7.057  1.00  0.00     0.029 A 
ATOM     40  N   UNL     1     -10.541  -3.753   8.387  1.00  0.00    -0.354 N 
ATOM     41  C   UNL     1     -11.540  -7.896   7.708  1.00  0.00     0.074 A 
ATOM     42  C   UNL     1     -10.678  -8.473   6.699  1.00  0.00     0.031 C 
ATOM     43  C   UNL     1      -9.491  -1.814   8.020  1.00  0.00     0.029 A 
ATOM     44  C   UNL     1     -10.480  -2.467   8.869  1.00  0.00     0.049 A 
ATOM     45  H   UNL     1     -11.091  -4.458   8.799  1.00  0.00     0.167 HD
ATOM     46  C   UNL     1     -12.460  -8.593   8.417  1.00  0.00     0.037 A 
ATOM     47  C   UNL     1     -11.177  -1.865   9.852  1.00  0.00     0.037 A 
ATOM     48  C   UNL     1     -13.280  -8.026   9.457  1.00  0.00     0.049 A 
ATOM     49  C   UNL     1     -12.228  -2.647  10.588  1.00  0.00     0.074 A 
ATOM     50  C   UNL     1     -14.253  -8.645  10.224  1.00  0.00     0.029 A 
ATOM     51  N   UNL     1     -13.205  -6.712   9.892  1.00  0.00    -0.354 N 
ATOM     52  N   UNL     1     -12.569  -3.906  10.454  1.00  0.00    -0.248 NA
ATOM     53  C   UNL     1     -13.008  -1.917  11.598  1.00  0.00     0.031 C 
ATOM     54  C   UNL     1     -14.784  -7.698  11.106  1.00  0.00     0.029 A 
ATOM     55  C   UNL     1     -14.115  -6.500  10.915  1.00  0.00     0.049 A 
ATOM     56  H   UNL     1     -12.596  -6.030   9.527  1.00  0.00     0.167 HD
ATOM     57  C   UNL     1     -13.586  -4.123  11.373  1.00  0.00     0.074 A 
ATOM     58  C   UNL     1     -13.794  -2.872  12.073  1.00  0.00     0.031 C 
ATOM     59  C   UNL     1     -14.293  -5.254  11.611  1.00  0.00     0.037 A 
BRANCH  46  60
ATOM     60  C   UNL     1     -12.650 -10.043   8.082  1.00  0.00     0.057 A 
ATOM     61  C   UNL     1     -11.715 -11.019   8.447  1.00  0.00     0.134 A 
ATOM     62  C   UNL     1     -13.814 -10.476   7.431  1.00  0.00     0.134 A 
ATOM     63  F   UNL     1     -10.573 -10.671   9.060  1.00  0.00    -0.206 F 
ATOM     64  C   UNL     1     -11.922 -12.371   8.163  1.00  0.00     0.040 A 
ATOM     65  C   UNL     1     -14.044 -11.826   7.164  1.00  0.00     0.040 A 
ATOM     66  F   UNL     1     -14.754  -9.594   7.060  1.00  0.00    -0.206 F 
ATOM     67  C   UNL     1     -13.094 -12.778   7.527  1.00  0.00     0.006 A 
ENDBRANCH  46  60
BRANCH  47  68
ATOM     68  C   UNL     1     -10.945  -0.432  10.166  1.00  0.00     0.057 A 
ATOM     69  C   UNL     1     -10.398  -0.038  11.392  1.00  0.00     0.134 A 
ATOM     70  C   UNL     1     -11.290   0.580   9.261  1.00  0.00     0.134 A 
ATOM     71  F   UNL     1     -10.071  -0.958  12.312  1.00  0.00    -0.206 F 
ATOM     72  C   UNL     1     -10.218   1.308  11.715  1.00  0.00     0.040 A 
ATOM     73  C   UNL     1     -11.088   1.928   9.557  1.00  0.00     0.040 A 
ATOM     74  F   UNL     1     -11.820   0.271   8.068  1.00  0.00    -0.206 F 
ATOM     75  C   UNL     1     -10.559   2.296  10.792  1.00  0.00     0.006 A 
ENDBRANCH  47  68
BRANCH  59  76
ATOM     76  C   UNL     1     -15.318  -5.198  12.704  1.00  0.00     0.057 A 
ATOM     77  C   UNL     1     -16.535  -4.525  12.541  1.00  0.00     0.134 A 
ATOM     78  C   UNL     1     -15.091  -5.845  13.925  1.00  0.00     0.134 A 
ATOM     79  F   UNL     1     -16.805  -3.873  11.400  1.00  0.00    -0.206 F 
ATOM     80  C   UNL     1     -17.481  -4.476  13.566  1.00  0.00     0.040 A 
ATOM     81  C   UNL     1     -16.039  -5.823  14.948  1.00  0.00     0.040 A 
ATOM     82  F   UNL     1     -13.947  -6.513  14.140  1.00  0.00    -0.206 F 
ATOM     83  C   UNL     1     -17.236  -5.130  14.772  1.00  0.00     0.006 A 
ENDBRANCH  59  76
ENDBRANCH  33  34
ENDBRANCH  26  28
ENDBRANCH  25  26
ENDBRANCH  24  25
ENDBRANCH   1  24
TORSDOF 13
