REMARK SMILES CC(=O)NCC(=O)N[C@H]1CCCCC[C@@H]1C(=O)OCCOC(=O)c1ccc(-c2c3nc(c(-c4c(F)cccc4F)c4ccc([nH]4)c(-c4c(F)cccc4F)c4nc(c(-c5c(F)cccc5F)c5ccc2[nH]5)C=C4)C=C3)cc1
REMARK SMILES IDX 19 1 18 2 16 3 17 4 15 5 9 6 8 7 6 8 7 9 5 11 4 12 1 13 2 14
REMARK SMILES IDX 3 15 10 17 11 18 14 20 13 21 12 22 20 24 21 25 22 26 23 27
REMARK SMILES IDX 24 28 25 29 77 30 26 31 76 32 27 33 28 34 29 35 70 36 30 37
REMARK SMILES IDX 75 38 69 39 71 40 31 41 74 42 68 43 67 44 32 46 58 47 41 48
REMARK SMILES IDX 57 49 42 50 45 51 56 52 72 53 43 54 44 55 55 57 73 58 46 59
REMARK SMILES IDX 33 60 34 61 39 62 35 63 36 64 38 65 40 66 37 67 59 68 60 69
REMARK SMILES IDX 65 70 61 71 62 72 64 73 66 74 63 75 47 76 48 77 53 78 49 79
REMARK SMILES IDX 50 80 52 81 54 82 51 83
REMARK H PARENT 8 10 4 16 71 45 45 56
REMARK Flexibility Score: 90.00
ROOT
ATOM      1  C   UNL     1       7.802   2.780   0.620  1.00  0.00     0.274 C 
ENDROOT
BRANCH   1   2
ATOM      2  O   UNL     1       6.747   1.801   0.573  1.00  0.00    -0.462 OA
BRANCH   2   3
ATOM      3  C   UNL     1       5.602   2.202  -0.030  1.00  0.00     0.311 C 
ATOM      4  O   UNL     1       5.316   3.369  -0.273  1.00  0.00    -0.252 OA
BRANCH   3   5
ATOM      5  C   UNL     1       4.766   1.028  -0.525  1.00  0.00     0.121 C 
BRANCH   5   6
ATOM      6  C   UNL     1       3.023   1.675  -0.679  1.00  0.00     0.096 C 
BRANCH   6   7
ATOM      7  N   UNL     1       2.920   2.527  -1.853  1.00  0.00    -0.351 N 
ATOM      8  C   UNL     1       2.501   2.123  -3.083  1.00  0.00     0.239 C 
ATOM      9  O   UNL     1       2.354   2.936  -3.991  1.00  0.00    -0.273 OA
ATOM     10  H   UNL     1       3.175   3.473  -1.750  1.00  0.00     0.163 HD
BRANCH   8  11
ATOM     11  C   UNL     1       2.071   0.674  -3.199  1.00  0.00     0.216 C 
BRANCH  11  12
ATOM     12  N   UNL     1       2.958  -0.225  -2.451  1.00  0.00    -0.347 N 
ATOM     13  C   UNL     1       3.134  -0.216   0.677  1.00  0.00     0.114 C 
ATOM     14  C   UNL     1       3.398  -0.676  -1.249  1.00  0.00     0.217 C 
ATOM     15  O   UNL     1       4.205  -1.530  -1.699  1.00  0.00    -0.275 OA
ATOM     16  H   UNL     1       3.462  -0.731  -3.129  1.00  0.00     0.164 HD
ENDBRANCH  11  12
ENDBRANCH   8  11
ENDBRANCH   6   7
BRANCH   6  17
ATOM     17  C   UNL     1       1.454   0.707  -0.468  1.00  0.00     0.026 C 
BRANCH  17  18
ATOM     18  C   UNL     1       1.284  -1.144  -0.446  1.00  0.00     0.002 CG0
ATOM     19  G   UNL     1       2.547  -2.382   0.130  1.00  0.00     0.000 G0
ENDBRANCH  17  18
ENDBRANCH   6  17
ENDBRANCH   5   6
BRANCH   5  20
ATOM     20  C   UNL     1       5.341  -0.581   0.210  1.00  0.00     0.017 C 
BRANCH  20  21
ATOM     21  C   UNL     1       4.374  -2.181   0.412  1.00  0.00     0.001 C 
BRANCH  21  22
ATOM     22  C   UNL     1       2.547  -2.382   0.130  1.00  0.00     0.000 CG0
ATOM     23  G   UNL     1       1.284  -1.144  -0.446  1.00  0.00     0.000 G0
ENDBRANCH  21  22
ENDBRANCH  20  21
ENDBRANCH   5  20
ENDBRANCH   3   5
ENDBRANCH   2   3
ENDBRANCH   1   2
BRANCH   1  24
ATOM     24  C   UNL     1       9.032   2.202  -0.076  1.00  0.00     0.275 C 
BRANCH  24  25
ATOM     25  O   UNL     1       8.637   1.623  -1.337  1.00  0.00    -0.458 OA
BRANCH  25  26
ATOM     26  C   UNL     1       8.860   0.290  -1.455  1.00  0.00     0.338 C 
ATOM     27  O   UNL     1       9.465  -0.418  -0.667  1.00  0.00    -0.246 OA
BRANCH  26  28
ATOM     28  C   UNL     1       8.250  -0.247  -2.696  1.00  0.00     0.060 A 
ATOM     29  C   UNL     1       7.104   0.311  -3.264  1.00  0.00     0.016 A 
ATOM     30  C   UNL     1       8.797  -1.405  -3.254  1.00  0.00     0.016 A 
ATOM     31  C   UNL     1       6.457  -0.337  -4.323  1.00  0.00     0.010 A 
ATOM     32  C   UNL     1       8.211  -1.986  -4.383  1.00  0.00     0.010 A 
ATOM     33  C   UNL     1       7.017  -1.477  -4.920  1.00  0.00    -0.014 A 
BRANCH  33  34
ATOM     34  C   UNL     1       6.409  -2.131  -6.119  1.00  0.00     0.031 A 
ATOM     35  C   UNL     1       6.125  -3.614  -6.124  1.00  0.00     0.074 A 
ATOM     36  C   UNL     1       6.183  -1.423  -7.245  1.00  0.00     0.049 A 
ATOM     37  N   UNL     1       5.891  -4.410  -7.139  1.00  0.00    -0.248 NA
ATOM     38  C   UNL     1       6.127  -4.293  -4.820  1.00  0.00     0.031 C 
ATOM     39  C   UNL     1       6.383   0.018  -7.401  1.00  0.00     0.029 A 
ATOM     40  N   UNL     1       5.755  -1.832  -8.486  1.00  0.00    -0.354 N 
ATOM     41  C   UNL     1       5.791  -5.690  -6.606  1.00  0.00     0.074 A 
ATOM     42  C   UNL     1       5.982  -5.563  -5.175  1.00  0.00     0.031 C 
ATOM     43  C   UNL     1       6.061   0.376  -8.652  1.00  0.00     0.029 A 
ATOM     44  C   UNL     1       5.725  -0.819  -9.415  1.00  0.00     0.049 A 
ATOM     45  H   UNL     1       5.496  -2.760  -8.690  1.00  0.00     0.167 HD
ATOM     46  C   UNL     1       5.566  -6.862  -7.250  1.00  0.00     0.037 A 
ATOM     47  C   UNL     1       5.512  -0.843 -10.744  1.00  0.00     0.037 A 
ATOM     48  C   UNL     1       5.305  -6.983  -8.663  1.00  0.00     0.049 A 
ATOM     49  C   UNL     1       5.275  -2.151 -11.438  1.00  0.00     0.074 A 
ATOM     50  C   UNL     1       5.017  -8.126  -9.392  1.00  0.00     0.029 A 
ATOM     51  N   UNL     1       5.282  -5.926  -9.558  1.00  0.00    -0.354 N 
ATOM     52  N   UNL     1       5.234  -3.358 -10.931  1.00  0.00    -0.248 NA
ATOM     53  C   UNL     1       5.075  -2.100 -12.894  1.00  0.00     0.031 C 
ATOM     54  C   UNL     1       4.850  -7.763 -10.733  1.00  0.00     0.029 A 
ATOM     55  C   UNL     1       4.995  -6.390 -10.833  1.00  0.00     0.049 A 
ATOM     56  H   UNL     1       5.446  -4.983  -9.324  1.00  0.00     0.167 HD
ATOM     57  C   UNL     1       4.995  -4.209 -12.001  1.00  0.00     0.074 A 
ATOM     58  C   UNL     1       4.881  -3.379 -13.183  1.00  0.00     0.031 C 
ATOM     59  C   UNL     1       4.886  -5.559 -12.003  1.00  0.00     0.037 A 
BRANCH  46  60
ATOM     60  C   UNL     1       5.609  -8.127  -6.441  1.00  0.00     0.057 A 
ATOM     61  C   UNL     1       4.582  -8.487  -5.562  1.00  0.00     0.134 A 
ATOM     62  C   UNL     1       6.668  -9.032  -6.602  1.00  0.00     0.134 A 
ATOM     63  F   UNL     1       3.543  -7.664  -5.358  1.00  0.00    -0.206 F 
ATOM     64  C   UNL     1       4.614  -9.693  -4.858  1.00  0.00     0.040 A 
ATOM     65  C   UNL     1       6.699 -10.251  -5.923  1.00  0.00     0.040 A 
ATOM     66  F   UNL     1       7.680  -8.755  -7.440  1.00  0.00    -0.206 F 
ATOM     67  C   UNL     1       5.671 -10.583  -5.044  1.00  0.00     0.006 A 
ENDBRANCH  46  60
BRANCH  47  68
ATOM     68  C   UNL     1       5.559   0.425 -11.514  1.00  0.00     0.057 A 
ATOM     69  C   UNL     1       4.393   0.991 -12.038  1.00  0.00     0.134 A 
ATOM     70  C   UNL     1       6.763   1.108 -11.725  1.00  0.00     0.134 A 
ATOM     71  F   UNL     1       3.215   0.368 -11.889  1.00  0.00    -0.206 F 
ATOM     72  C   UNL     1       4.421   2.193 -12.746  1.00  0.00     0.040 A 
ATOM     73  C   UNL     1       6.802   2.324 -12.408  1.00  0.00     0.040 A 
ATOM     74  F   UNL     1       7.915   0.616 -11.245  1.00  0.00    -0.206 F 
ATOM     75  C   UNL     1       5.628   2.868 -12.924  1.00  0.00     0.006 A 
ENDBRANCH  47  68
BRANCH  59  76
ATOM     76  C   UNL     1       4.600  -6.218 -13.319  1.00  0.00     0.057 A 
ATOM     77  C   UNL     1       5.586  -6.353 -14.304  1.00  0.00     0.134 A 
ATOM     78  C   UNL     1       3.329  -6.734 -13.598  1.00  0.00     0.134 A 
ATOM     79  F   UNL     1       6.819  -5.865 -14.104  1.00  0.00    -0.206 F 
ATOM     80  C   UNL     1       5.311  -6.961 -15.531  1.00  0.00     0.040 A 
ATOM     81  C   UNL     1       3.047  -7.362 -14.812  1.00  0.00     0.040 A 
ATOM     82  F   UNL     1       2.342  -6.640 -12.694  1.00  0.00    -0.206 F 
ATOM     83  C   UNL     1       4.039  -7.471 -15.785  1.00  0.00     0.006 A 
ENDBRANCH  59  76
ENDBRANCH  33  34
ENDBRANCH  26  28
ENDBRANCH  25  26
ENDBRANCH  24  25
ENDBRANCH   1  24
TORSDOF 14
