REMARK SMILES C=CC[N@H+](CC(=O)OCCOC(=O)c1ccc(-c2c3nc(c(-c4c(F)cccc4F)c4ccc([nH]4)c(-c4c(F)cccc4F)c4nc(c(-c5c(F)cccc5F)c5ccc2[nH]5)C=C4)C=C3)cc1)C[C@H]1CNC(=O)O1
REMARK SMILES IDX 9 1 8 2 6 3 7 4 5 5 4 6 3 8 2 9 1 10 68 11 69 12 70 13 74 14
REMARK SMILES IDX 71 15 72 16 73 18 10 19 11 20 12 21 13 22 14 23 15 24 67 25
REMARK SMILES IDX 16 26 66 27 17 28 18 29 19 30 60 31 20 32 65 33 59 34 61 35
REMARK SMILES IDX 21 36 64 37 58 38 57 39 22 41 48 42 31 43 47 44 32 45 35 46
REMARK SMILES IDX 46 47 62 48 33 49 34 50 45 52 63 53 36 54 23 55 24 56 29 57
REMARK SMILES IDX 25 58 26 59 28 60 30 61 27 62 49 63 50 64 55 65 51 66 52 67
REMARK SMILES IDX 54 68 56 69 53 70 37 71 38 72 43 73 39 74 40 75 42 76 44 77
REMARK SMILES IDX 41 78
REMARK H PARENT 4 7 71 17 61 40 35 51
REMARK Flexibility Score: inf
ROOT
ATOM      1  C   UNL     1       0.043  -4.949  -2.167  1.00  0.00     0.274 C 
ENDROOT
BRANCH   1   2
ATOM      2  O   UNL     1      -1.003  -3.951  -2.213  1.00  0.00    -0.458 OA
BRANCH   2   3
ATOM      3  C   UNL     1      -2.273  -4.406  -2.021  1.00  0.00     0.361 C 
ATOM      4  O   UNL     1      -2.556  -5.571  -1.750  1.00  0.00    -0.245 OA
BRANCH   3   5
ATOM      5  C   UNL     1      -3.363  -3.364  -2.285  1.00  0.00     0.386 C 
BRANCH   5   6
ATOM      6  N   UNL     1      -3.008  -1.997  -1.880  1.00  0.00    -0.319 N 
ATOM      7  H   UNL     1      -2.130  -2.086  -1.369  1.00  0.00     0.348 HD
BRANCH   6   8
ATOM      8  C   UNL     1      -2.576  -1.141  -2.986  1.00  0.00     0.290 C 
BRANCH   8   9
ATOM      9  C   UNL     1      -2.765   0.343  -2.831  1.00  0.00     0.025 C 
ATOM     10  C   UNL     1      -1.774   1.231  -2.683  1.00  0.00     0.010 C 
ENDBRANCH   8   9
ENDBRANCH   6   8
BRANCH   6  11
ATOM     11  C   UNL     1      -3.758  -1.422  -0.761  1.00  0.00     0.310 C 
BRANCH  11  12
ATOM     12  C   UNL     1      -2.881  -1.062   0.467  1.00  0.00     0.252 C 
ATOM     13  C   UNL     1      -2.183  -2.270   1.048  1.00  0.00     0.170 C 
ATOM     14  O   UNL     1      -1.804  -0.175   0.123  1.00  0.00    -0.438 OA
ATOM     15  N   UNL     1      -0.886  -2.170   0.490  1.00  0.00    -0.318 N 
ATOM     16  C   UNL     1      -0.682  -0.935  -0.041  1.00  0.00     0.407 C 
ATOM     17  H   UNL     1      -0.221  -2.897   0.487  1.00  0.00     0.167 HD
ATOM     18  O   UNL     1       0.359  -0.558  -0.559  1.00  0.00    -0.225 OA
ENDBRANCH  11  12
ENDBRANCH   6  11
ENDBRANCH   5   6
ENDBRANCH   3   5
ENDBRANCH   2   3
ENDBRANCH   1   2
BRANCH   1  19
ATOM     19  C   UNL     1       0.720  -5.033  -0.796  1.00  0.00     0.275 C 
BRANCH  19  20
ATOM     20  O   UNL     1      -0.272  -5.311   0.206  1.00  0.00    -0.458 OA
BRANCH  20  21
ATOM     21  C   UNL     1       0.126  -5.236   1.499  1.00  0.00     0.338 C 
ATOM     22  O   UNL     1       1.259  -5.007   1.885  1.00  0.00    -0.246 OA
BRANCH  21  23
ATOM     23  C   UNL     1      -1.060  -5.362   2.396  1.00  0.00     0.060 A 
ATOM     24  C   UNL     1      -2.351  -5.530   1.884  1.00  0.00     0.016 A 
ATOM     25  C   UNL     1      -0.893  -5.247   3.780  1.00  0.00     0.016 A 
ATOM     26  C   UNL     1      -3.460  -5.529   2.732  1.00  0.00     0.010 A 
ATOM     27  C   UNL     1      -2.000  -5.347   4.638  1.00  0.00     0.010 A 
ATOM     28  C   UNL     1      -3.299  -5.496   4.125  1.00  0.00    -0.014 A 
BRANCH  28  29
ATOM     29  C   UNL     1      -4.467  -5.712   5.030  1.00  0.00     0.031 A 
ATOM     30  C   UNL     1      -4.830  -4.718   6.103  1.00  0.00     0.074 A 
ATOM     31  C   UNL     1      -5.191  -6.846   4.920  1.00  0.00     0.049 A 
ATOM     32  N   UNL     1      -5.677  -4.845   7.096  1.00  0.00    -0.248 NA
ATOM     33  C   UNL     1      -4.149  -3.417   6.060  1.00  0.00     0.031 C 
ATOM     34  C   UNL     1      -4.975  -7.900   3.925  1.00  0.00     0.029 A 
ATOM     35  N   UNL     1      -6.254  -7.309   5.660  1.00  0.00    -0.354 N 
ATOM     36  C   UNL     1      -5.594  -3.665   7.826  1.00  0.00     0.074 A 
ATOM     37  C   UNL     1      -4.616  -2.831   7.155  1.00  0.00     0.031 C 
ATOM     38  C   UNL     1      -5.890  -8.864   4.094  1.00  0.00     0.029 A 
ATOM     39  C   UNL     1      -6.697  -8.550   5.265  1.00  0.00     0.049 A 
ATOM     40  H   UNL     1      -6.658  -6.802   6.400  1.00  0.00     0.167 HD
ATOM     41  C   UNL     1      -6.263  -3.314   8.952  1.00  0.00     0.037 A 
ATOM     42  C   UNL     1      -7.610  -9.377   5.806  1.00  0.00     0.037 A 
ATOM     43  C   UNL     1      -7.261  -4.127   9.603  1.00  0.00     0.049 A 
ATOM     44  C   UNL     1      -8.317  -8.976   7.066  1.00  0.00     0.074 A 
ATOM     45  C   UNL     1      -8.000  -3.843  10.741  1.00  0.00     0.029 A 
ATOM     46  N   UNL     1      -7.670  -5.380   9.171  1.00  0.00    -0.354 N 
ATOM     47  N   UNL     1      -8.196  -7.876   7.767  1.00  0.00    -0.248 NA
ATOM     48  C   UNL     1      -9.276  -9.942   7.619  1.00  0.00     0.031 C 
ATOM     49  C   UNL     1      -8.830  -4.936  11.015  1.00  0.00     0.029 A 
ATOM     50  C   UNL     1      -8.642  -5.883  10.024  1.00  0.00     0.049 A 
ATOM     51  H   UNL     1      -7.322  -5.844   8.376  1.00  0.00     0.167 HD
ATOM     52  C   UNL     1      -9.070  -8.012   8.836  1.00  0.00     0.074 A 
ATOM     53  C   UNL     1      -9.733  -9.290   8.678  1.00  0.00     0.031 C 
ATOM     54  C   UNL     1      -9.296  -7.155   9.862  1.00  0.00     0.037 A 
BRANCH  41  55
ATOM     55  C   UNL     1      -5.915  -1.996   9.585  1.00  0.00     0.057 A 
ATOM     56  C   UNL     1      -6.308  -0.773   9.026  1.00  0.00     0.134 A 
ATOM     57  C   UNL     1      -5.218  -1.954  10.800  1.00  0.00     0.134 A 
ATOM     58  F   UNL     1      -6.970  -0.741   7.859  1.00  0.00    -0.206 F 
ATOM     59  C   UNL     1      -6.001   0.443   9.641  1.00  0.00     0.040 A 
ATOM     60  C   UNL     1      -4.926  -0.747  11.437  1.00  0.00     0.040 A 
ATOM     61  F   UNL     1      -4.821  -3.089  11.396  1.00  0.00    -0.206 F 
ATOM     62  C   UNL     1      -5.314   0.458  10.854  1.00  0.00     0.006 A 
ENDBRANCH  41  55
BRANCH  42  63
ATOM     63  C   UNL     1      -7.875 -10.695   5.177  1.00  0.00     0.057 A 
ATOM     64  C   UNL     1      -9.091 -10.956   4.536  1.00  0.00     0.134 A 
ATOM     65  C   UNL     1      -6.921 -11.720   5.199  1.00  0.00     0.134 A 
ATOM     66  F   UNL     1     -10.051 -10.020   4.504  1.00  0.00    -0.206 F 
ATOM     67  C   UNL     1      -9.353 -12.193   3.948  1.00  0.00     0.040 A 
ATOM     68  C   UNL     1      -7.159 -12.951   4.590  1.00  0.00     0.040 A 
ATOM     69  F   UNL     1      -5.734 -11.528   5.794  1.00  0.00    -0.206 F 
ATOM     70  C   UNL     1      -8.382 -13.193   3.967  1.00  0.00     0.006 A 
ENDBRANCH  42  63
BRANCH  54  71
ATOM     71  C   UNL     1     -10.330  -7.565  10.869  1.00  0.00     0.057 A 
ATOM     72  C   UNL     1     -10.093  -8.586  11.799  1.00  0.00     0.134 A 
ATOM     73  C   UNL     1     -11.582  -6.937  10.902  1.00  0.00     0.134 A 
ATOM     74  F   UNL     1      -8.922  -9.240  11.807  1.00  0.00    -0.206 F 
ATOM     75  C   UNL     1     -11.075  -8.988  12.706  1.00  0.00     0.040 A 
ATOM     76  C   UNL     1     -12.563  -7.314  11.820  1.00  0.00     0.040 A 
ATOM     77  F   UNL     1     -11.872  -5.950  10.041  1.00  0.00    -0.206 F 
ATOM     78  C   UNL     1     -12.314  -8.349  12.720  1.00  0.00     0.006 A 
ENDBRANCH  54  71
ENDBRANCH  28  29
ENDBRANCH  21  23
ENDBRANCH  20  21
ENDBRANCH  19  20
ENDBRANCH   1  19
TORSDOF 16
