REMARK SMILES C[C@H]1[C@H](C(=O)OCCOC(=O)c2ccc(-c3c4nc(c(-c5c(F)cccc5F)c5ccc([nH]5)c(-c5c(F)cccc5F)c5nc(c(-c6c(F)cccc6F)c6ccc3[nH]6)C=C5)C=C4)cc2)CCN1c1nc2c(cc1C(N)=O)CCC2
REMARK SMILES IDX 7 1 6 2 4 3 5 4 3 5 1 6 2 7 68 8 66 9 67 10 69 11 70 12
REMARK SMILES IDX 74 13 71 14 73 15 72 16 80 17 78 18 79 19 75 20 76 21 77 22
REMARK SMILES IDX 8 25 9 26 10 27 11 28 12 29 13 30 65 31 14 32 64 33 15 34
REMARK SMILES IDX 16 35 17 36 58 37 18 38 63 39 57 40 59 41 19 42 62 43 56 44
REMARK SMILES IDX 55 45 20 47 46 48 29 49 45 50 30 51 33 52 44 53 60 54 31 55
REMARK SMILES IDX 32 56 43 58 61 59 34 60 21 61 22 62 27 63 23 64 24 65 26 66
REMARK SMILES IDX 28 67 25 68 47 69 48 70 53 71 49 72 50 73 52 74 54 75 51 76
REMARK SMILES IDX 35 77 36 78 41 79 37 80 38 81 40 82 42 83 39 84
REMARK H PARENT 76 23 76 24 59 46 33 57
REMARK Flexibility Score: inf
ROOT
ATOM      1  C   UNL     1      -0.455   2.905   3.314  1.00  0.00     0.274 C 
ENDROOT
BRANCH   1   2
ATOM      2  O   UNL     1      -0.364   1.827   2.366  1.00  0.00    -0.462 OA
BRANCH   2   3
ATOM      3  C   UNL     1      -0.762   2.079   1.097  1.00  0.00     0.311 C 
ATOM      4  O   UNL     1      -1.234   3.145   0.714  1.00  0.00    -0.252 OA
BRANCH   3   5
ATOM      5  C   UNL     1      -0.577   0.909   0.156  1.00  0.00     0.123 C 
ATOM      6  C   UNL     1       1.676  -0.151  -0.320  1.00  0.00     0.032 C 
ATOM      7  C   UNL     1       0.450  -0.154   0.602  1.00  0.00     0.095 C 
ATOM      8  N   UNL     1      -0.278  -1.406   0.432  1.00  0.00    -0.352 N 
ATOM      9  C   UNL     1      -1.896   0.156  -0.035  1.00  0.00     0.039 C 
ATOM     10  C   UNL     1      -1.458  -1.260  -0.386  1.00  0.00     0.119 C 
BRANCH   8  11
ATOM     11  C   UNL     1       0.121  -2.625   0.889  1.00  0.00     0.141 A 
ATOM     12  N   UNL     1       0.282  -3.578  -0.068  1.00  0.00    -0.235 NA
ATOM     13  C   UNL     1       0.376  -2.899   2.252  1.00  0.00     0.082 A 
ATOM     14  C   UNL     1       0.720  -4.778   0.337  1.00  0.00     0.046 A 
ATOM     15  C   UNL     1       0.836  -4.170   2.635  1.00  0.00     0.023 A 
ATOM     16  C   UNL     1       1.008  -5.115   1.649  1.00  0.00    -0.025 A 
ATOM     17  C   UNL     1       0.987  -5.933  -0.585  1.00  0.00     0.057 C 
ATOM     18  C   UNL     1       1.480  -6.526   1.753  1.00  0.00     0.038 C 
ATOM     19  C   UNL     1       0.991  -7.099   0.413  1.00  0.00     0.011 C 
BRANCH  13  20
ATOM     20  C   UNL     1       0.030  -1.929   3.324  1.00  0.00     0.252 C 
ATOM     21  N   UNL     1       0.898  -1.847   4.381  1.00  0.00    -0.365 N 
ATOM     22  O   UNL     1      -0.987  -1.247   3.313  1.00  0.00    -0.269 OA
ATOM     23  H   UNL     1       1.716  -2.394   4.390  1.00  0.00     0.159 HD
ATOM     24  H   UNL     1       0.704  -1.240   5.132  1.00  0.00     0.159 HD
ENDBRANCH  13  20
ENDBRANCH   8  11
ENDBRANCH   3   5
ENDBRANCH   2   3
ENDBRANCH   1   2
BRANCH   1  25
ATOM     25  C   UNL     1       0.923   3.518   3.574  1.00  0.00     0.275 C 
BRANCH  25  26
ATOM     26  O   UNL     1       1.415   4.209   2.410  1.00  0.00    -0.458 OA
BRANCH  26  27
ATOM     27  C   UNL     1       2.192   3.467   1.589  1.00  0.00     0.338 C 
ATOM     28  O   UNL     1       2.561   2.317   1.748  1.00  0.00    -0.246 OA
BRANCH  27  29
ATOM     29  C   UNL     1       2.466   4.231   0.366  1.00  0.00     0.060 A 
ATOM     30  C   UNL     1       1.829   3.854  -0.819  1.00  0.00     0.016 A 
ATOM     31  C   UNL     1       3.408   5.259   0.373  1.00  0.00     0.016 A 
ATOM     32  C   UNL     1       2.139   4.494  -2.014  1.00  0.00     0.010 A 
ATOM     33  C   UNL     1       3.709   5.910  -0.824  1.00  0.00     0.010 A 
ATOM     34  C   UNL     1       3.085   5.524  -2.024  1.00  0.00    -0.014 A 
BRANCH  34  35
ATOM     35  C   UNL     1       3.468   6.182  -3.292  1.00  0.00     0.031 A 
ATOM     36  C   UNL     1       4.817   5.909  -3.884  1.00  0.00     0.074 A 
ATOM     37  C   UNL     1       2.623   7.045  -3.884  1.00  0.00     0.049 A 
ATOM     38  N   UNL     1       5.440   6.534  -4.848  1.00  0.00    -0.248 NA
ATOM     39  C   UNL     1       5.570   4.785  -3.304  1.00  0.00     0.031 C 
ATOM     40  C   UNL     1       1.262   7.338  -3.437  1.00  0.00     0.029 A 
ATOM     41  N   UNL     1       2.801   7.854  -4.977  1.00  0.00    -0.354 N 
ATOM     42  C   UNL     1       6.671   5.904  -4.969  1.00  0.00     0.074 A 
ATOM     43  C   UNL     1       6.708   4.848  -3.980  1.00  0.00     0.031 C 
ATOM     44  C   UNL     1       0.734   8.279  -4.236  1.00  0.00     0.029 A 
ATOM     45  C   UNL     1       1.740   8.695  -5.208  1.00  0.00     0.049 A 
ATOM     46  H   UNL     1       3.608   7.834  -5.540  1.00  0.00     0.167 HD
ATOM     47  C   UNL     1       7.679   6.192  -5.825  1.00  0.00     0.037 A 
ATOM     48  C   UNL     1       1.617   9.719  -6.073  1.00  0.00     0.037 A 
ATOM     49  C   UNL     1       7.620   7.234  -6.816  1.00  0.00     0.049 A 
ATOM     50  C   UNL     1       2.773  10.065  -6.968  1.00  0.00     0.074 A 
ATOM     51  C   UNL     1       8.584   7.608  -7.735  1.00  0.00     0.029 A 
ATOM     52  N   UNL     1       6.529   8.068  -7.016  1.00  0.00    -0.354 N 
ATOM     53  N   UNL     1       3.949   9.490  -7.057  1.00  0.00    -0.248 NA
ATOM     54  C   UNL     1       2.595  11.209  -7.873  1.00  0.00     0.031 C 
ATOM     55  C   UNL     1       8.089   8.690  -8.470  1.00  0.00     0.029 A 
ATOM     56  C   UNL     1       6.802   8.964  -8.035  1.00  0.00     0.049 A 
ATOM     57  H   UNL     1       5.687   8.028  -6.508  1.00  0.00     0.167 HD
ATOM     58  C   UNL     1       4.638  10.182  -8.044  1.00  0.00     0.074 A 
ATOM     59  C   UNL     1       3.750  11.220  -8.525  1.00  0.00     0.031 C 
ATOM     60  C   UNL     1       5.893   9.975  -8.511  1.00  0.00     0.037 A 
BRANCH  47  61
ATOM     61  C   UNL     1       8.942   5.395  -5.701  1.00  0.00     0.057 A 
ATOM     62  C   UNL     1       9.028   4.068  -6.138  1.00  0.00     0.134 A 
ATOM     63  C   UNL     1      10.097   5.976  -5.162  1.00  0.00     0.134 A 
ATOM     64  F   UNL     1       7.953   3.450  -6.650  1.00  0.00    -0.206 F 
ATOM     65  C   UNL     1      10.214   3.341  -6.027  1.00  0.00     0.040 A 
ATOM     66  C   UNL     1      11.294   5.266  -5.066  1.00  0.00     0.040 A 
ATOM     67  F   UNL     1      10.082   7.245  -4.727  1.00  0.00    -0.206 F 
ATOM     68  C   UNL     1      11.354   3.942  -5.495  1.00  0.00     0.006 A 
ENDBRANCH  47  61
BRANCH  48  69
ATOM     69  C   UNL     1       0.365  10.515  -6.101  1.00  0.00     0.057 A 
ATOM     70  C   UNL     1      -0.518  10.434  -7.183  1.00  0.00     0.134 A 
ATOM     71  C   UNL     1       0.019  11.368  -5.046  1.00  0.00     0.134 A 
ATOM     72  F   UNL     1      -0.229   9.650  -8.232  1.00  0.00    -0.206 F 
ATOM     73  C   UNL     1      -1.698  11.179  -7.219  1.00  0.00     0.040 A 
ATOM     74  C   UNL     1      -1.168  12.101  -5.058  1.00  0.00     0.040 A 
ATOM     75  F   UNL     1       0.824  11.489  -3.980  1.00  0.00    -0.206 F 
ATOM     76  C   UNL     1      -2.029  12.011  -6.151  1.00  0.00     0.006 A 
ENDBRANCH  48  69
BRANCH  60  77
ATOM     77  C   UNL     1       6.363  10.851  -9.630  1.00  0.00     0.057 A 
ATOM     78  C   UNL     1       6.783  12.167  -9.410  1.00  0.00     0.134 A 
ATOM     79  C   UNL     1       6.462  10.344 -10.932  1.00  0.00     0.134 A 
ATOM     80  F   UNL     1       6.702  12.712  -8.187  1.00  0.00    -0.206 F 
ATOM     81  C   UNL     1       7.280  12.954 -10.451  1.00  0.00     0.040 A 
ATOM     82  C   UNL     1       6.974  11.114 -11.976  1.00  0.00     0.040 A 
ATOM     83  F   UNL     1       6.081   9.087 -11.204  1.00  0.00    -0.206 F 
ATOM     84  C   UNL     1       7.384  12.424 -11.736  1.00  0.00     0.006 A 
ENDBRANCH  60  77
ENDBRANCH  34  35
ENDBRANCH  27  29
ENDBRANCH  26  27
ENDBRANCH  25  26
ENDBRANCH   1  25
TORSDOF 13
