REMARK SMILES Cc1cccc(-n2c(C)cc(/C=N\c3ccc(O)c(C(=O)OCCOC(=O)c4ccc(-c5c6nc(c(-c7c(F)cccc7F)c7ccc([nH]7)c(-c7c(F)cccc7F)c7nc(c(-c8c(F)cccc8F)c8ccc5[nH]8)C=C7)C=C6)cc4)c3)c2C)c1
REMARK SMILES IDX 23 1 22 2 20 3 21 4 19 5 14 6 15 7 82 8 16 9 17 10 13 11
REMARK SMILES IDX 12 12 11 13 7 14 8 15 83 16 9 17 10 18 84 19 6 20 1 21 2 22
REMARK SMILES IDX 3 23 85 24 4 25 5 26 18 27 24 29 25 30 26 31 27 32 28 33
REMARK SMILES IDX 29 34 81 35 30 36 80 37 31 38 32 39 33 40 74 41 34 42 79 43
REMARK SMILES IDX 73 44 75 45 35 46 78 47 72 48 71 49 36 51 62 52 45 53 61 54
REMARK SMILES IDX 46 55 49 56 60 57 76 58 47 59 48 60 59 62 77 63 50 64 37 65
REMARK SMILES IDX 38 66 43 67 39 68 40 69 42 70 44 71 41 72 63 73 64 74 69 75
REMARK SMILES IDX 65 76 66 77 68 78 70 79 67 80 51 81 52 82 57 83 53 84 54 85
REMARK SMILES IDX 56 86 58 87 55 88
REMARK H PARENT 18 28 75 50 49 61
REMARK Flexibility Score: inf
ROOT
ATOM      1  C   UNL     1      -7.552  -2.042   6.697  1.00  0.00     0.275 C 
ENDROOT
BRANCH   1   2
ATOM      2  O   UNL     1      -6.409  -1.724   5.880  1.00  0.00    -0.458 OA
BRANCH   2   3
ATOM      3  C   UNL     1      -6.423  -0.405   5.162  1.00  0.00     0.342 C 
ATOM      4  O   UNL     1      -7.676  -0.268   5.029  1.00  0.00    -0.246 OA
BRANCH   3   5
ATOM      5  C   UNL     1      -4.736   0.828   4.629  1.00  0.00     0.103 A 
ATOM      6  C   UNL     1      -3.727   3.171   3.571  1.00  0.00     0.064 A 
ATOM      7  C   UNL     1      -2.484   2.998   4.109  1.00  0.00     0.032 A 
ATOM      8  C   UNL     1      -4.740   2.212   3.885  1.00  0.00     0.048 A 
ATOM      9  C   UNL     1      -2.215   1.775   4.691  1.00  0.00     0.049 A 
ATOM     10  C   UNL     1      -3.211   0.740   4.833  1.00  0.00     0.130 A 
BRANCH   6  11
ATOM     11  N   UNL     1      -4.072   4.290   2.810  1.00  0.00    -0.256 NA
ATOM     12  C   UNL     1      -3.727   4.516   1.573  1.00  0.00     0.121 C 
BRANCH  12  13
ATOM     13  C   UNL     1      -2.920   3.778   0.597  1.00  0.00     0.014 A 
ATOM     14  N   UNL     1      -1.676   2.286  -0.568  1.00  0.00    -0.318 N 
ATOM     15  C   UNL     1      -1.558   3.491  -1.230  1.00  0.00     0.021 A 
ATOM     16  C   UNL     1      -2.590   2.430   0.476  1.00  0.00     0.029 A 
ATOM     17  C   UNL     1      -0.761   3.661  -2.478  1.00  0.00     0.065 C 
ATOM     18  C   UNL     1      -2.331   4.410  -0.548  1.00  0.00     0.033 A 
ATOM     19  C   UNL     1      -2.981   1.267   1.310  1.00  0.00     0.065 C 
BRANCH  14  20
ATOM     20  C   UNL     1      -0.884   1.128  -0.780  1.00  0.00     0.046 A 
ATOM     21  C   UNL     1       2.671   0.031  -0.002  1.00  0.00     0.044 C 
ATOM     22  C   UNL     1       1.215   0.005  -0.360  1.00  0.00    -0.049 A 
ATOM     23  C   UNL     1       0.563  -1.227  -0.518  1.00  0.00     0.003 A 
ATOM     24  C   UNL     1       0.484   1.192  -0.495  1.00  0.00     0.030 A 
ATOM     25  C   UNL     1      -0.786  -1.280  -0.866  1.00  0.00     0.002 A 
ATOM     26  C   UNL     1      -1.507  -0.100  -1.022  1.00  0.00     0.026 A 
ENDBRANCH  14  20
ENDBRANCH  12  13
ENDBRANCH   6  11
BRANCH  10  27
ATOM     27  O   UNL     1      -2.457  -0.437   4.997  1.00  0.00    -0.507 OA
ATOM     28  H   UNL     1      -1.529  -0.386   5.115  1.00  0.00     0.293 HD
ENDBRANCH  10  27
ENDBRANCH   3   5
ENDBRANCH   2   3
ENDBRANCH   1   2
BRANCH   1  29
ATOM     29  C   UNL     1      -7.482  -1.194   7.974  1.00  0.00     0.275 C 
BRANCH  29  30
ATOM     30  O   UNL     1      -7.669   0.237   7.773  1.00  0.00    -0.458 OA
BRANCH  30  31
ATOM     31  C   UNL     1      -6.593   1.077   7.793  1.00  0.00     0.338 C 
ATOM     32  O   UNL     1      -6.388   1.937   8.629  1.00  0.00    -0.246 OA
BRANCH  31  33
ATOM     33  C   UNL     1      -5.832   1.015   6.525  1.00  0.00     0.060 A 
ATOM     34  C   UNL     1      -6.714   1.628   5.068  1.00  0.00     0.016 A 
ATOM     35  C   UNL     1      -4.749  -0.418   6.394  1.00  0.00     0.016 A 
ATOM     36  C   UNL     1      -6.559   0.725   3.455  1.00  0.00     0.010 A 
ATOM     37  C   UNL     1      -4.619  -1.321   4.793  1.00  0.00     0.010 A 
ATOM     38  C   UNL     1      -5.535  -0.755   3.346  1.00  0.00    -0.014 A 
BRANCH  38  39
ATOM     39  C   UNL     1      -5.937  -1.871   2.486  1.00  0.00     0.031 A 
ATOM     40  C   UNL     1      -4.907  -2.654   1.786  1.00  0.00     0.074 A 
ATOM     41  C   UNL     1      -7.231  -2.276   2.502  1.00  0.00     0.049 A 
ATOM     42  N   UNL     1      -5.169  -3.404   0.777  1.00  0.00    -0.248 NA
ATOM     43  C   UNL     1      -3.488  -2.638   2.120  1.00  0.00     0.031 C 
ATOM     44  C   UNL     1      -7.821  -3.524   2.023  1.00  0.00     0.029 A 
ATOM     45  N   UNL     1      -8.349  -1.570   2.901  1.00  0.00    -0.354 N 
ATOM     46  C   UNL     1      -4.054  -4.155   0.494  1.00  0.00     0.074 A 
ATOM     47  C   UNL     1      -3.014  -3.603   1.325  1.00  0.00     0.031 C 
ATOM     48  C   UNL     1      -9.157  -3.373   1.923  1.00  0.00     0.029 A 
ATOM     49  C   UNL     1      -9.483  -1.989   2.224  1.00  0.00     0.049 A 
ATOM     50  H   UNL     1      -8.341  -0.858   3.581  1.00  0.00     0.167 HD
ATOM     51  C   UNL     1      -4.193  -5.222  -0.342  1.00  0.00     0.037 A 
ATOM     52  C   UNL     1     -10.113  -1.109   1.387  1.00  0.00     0.037 A 
ATOM     53  C   UNL     1      -5.577  -5.312  -0.818  1.00  0.00     0.049 A 
ATOM     54  C   UNL     1      -9.780  -1.395  -0.074  1.00  0.00     0.074 A 
ATOM     55  C   UNL     1      -6.698  -6.012  -0.403  1.00  0.00     0.029 A 
ATOM     56  N   UNL     1      -6.053  -4.291  -1.616  1.00  0.00    -0.354 N 
ATOM     57  N   UNL     1      -9.052  -2.404  -0.477  1.00  0.00    -0.248 NA
ATOM     58  C   UNL     1     -10.185  -0.544  -1.192  1.00  0.00     0.031 C 
ATOM     59  C   UNL     1      -7.851  -5.363  -0.948  1.00  0.00     0.029 A 
ATOM     60  C   UNL     1      -7.429  -4.296  -1.723  1.00  0.00     0.049 A 
ATOM     61  H   UNL     1      -5.474  -3.631  -2.061  1.00  0.00     0.167 HD
ATOM     62  C   UNL     1      -8.836  -2.331  -1.825  1.00  0.00     0.074 A 
ATOM     63  C   UNL     1      -9.557  -1.134  -2.226  1.00  0.00     0.031 C 
ATOM     64  C   UNL     1      -8.066  -3.240  -2.503  1.00  0.00     0.037 A 
BRANCH  51  65
ATOM     65  C   UNL     1      -3.154  -6.292  -0.566  1.00  0.00     0.057 A 
ATOM     66  C   UNL     1      -3.544  -7.584  -0.969  1.00  0.00     0.134 A 
ATOM     67  C   UNL     1      -1.767  -6.135  -0.387  1.00  0.00     0.134 A 
ATOM     68  F   UNL     1      -4.817  -7.872  -1.267  1.00  0.00    -0.206 F 
ATOM     69  C   UNL     1      -2.645  -8.652  -1.086  1.00  0.00     0.040 A 
ATOM     70  C   UNL     1      -0.862  -7.206  -0.454  1.00  0.00     0.040 A 
ATOM     71  F   UNL     1      -1.210  -4.933  -0.199  1.00  0.00    -0.206 F 
ATOM     72  C   UNL     1      -1.302  -8.475  -0.796  1.00  0.00     0.006 A 
ENDBRANCH  51  65
BRANCH  52  73
ATOM     73  C   UNL     1     -10.323   0.232   2.028  1.00  0.00     0.057 A 
ATOM     74  C   UNL     1     -11.024   0.263   3.255  1.00  0.00     0.134 A 
ATOM     75  C   UNL     1      -9.591   1.379   1.709  1.00  0.00     0.134 A 
ATOM     76  F   UNL     1     -11.794  -0.777   3.615  1.00  0.00    -0.206 F 
ATOM     77  C   UNL     1     -10.863   1.291   4.187  1.00  0.00     0.040 A 
ATOM     78  C   UNL     1      -9.450   2.438   2.626  1.00  0.00     0.040 A 
ATOM     79  F   UNL     1      -8.874   1.445   0.579  1.00  0.00    -0.206 F 
ATOM     80  C   UNL     1     -10.046   2.372   3.885  1.00  0.00     0.006 A 
ENDBRANCH  52  73
BRANCH  64  81
ATOM     81  C   UNL     1      -7.837  -3.184  -3.995  1.00  0.00     0.057 A 
ATOM     82  C   UNL     1      -8.858  -2.859  -4.897  1.00  0.00     0.134 A 
ATOM     83  C   UNL     1      -6.612  -3.558  -4.594  1.00  0.00     0.134 A 
ATOM     84  F   UNL     1     -10.107  -2.619  -4.473  1.00  0.00    -0.206 F 
ATOM     85  C   UNL     1      -8.645  -2.796  -6.279  1.00  0.00     0.040 A 
ATOM     86  C   UNL     1      -6.408  -3.567  -5.975  1.00  0.00     0.040 A 
ATOM     87  F   UNL     1      -5.535  -3.910  -3.880  1.00  0.00    -0.206 F 
ATOM     88  C   UNL     1      -7.417  -3.151  -6.823  1.00  0.00     0.006 A 
ENDBRANCH  64  81
ENDBRANCH  38  39
ENDBRANCH  31  33
ENDBRANCH  30  31
ENDBRANCH  29  30
ENDBRANCH   1  29
TORSDOF 15
