REMARK SMILES COC(=O)c1ccc([C@H]2CC(=O)Nc3c(C(=O)OCCOC(=O)c4ccc(-c5c6nc(c(-c7c(F)cccc7F)c7ccc([nH]7)c(-c7c(F)cccc7F)c7nc(c(-c8c(F)cccc8F)c8ccc5[nH]8)C=C7)C=C6)cc4)cn(-c4ccccc4)c32)cc1
REMARK SMILES IDX 19 1 18 2 16 3 17 4 15 5 9 6 10 7 86 8 11 9 14 10 79 11
REMARK SMILES IDX 12 12 13 13 78 14 8 16 5 17 6 18 88 19 7 20 87 21 3 22 4 23
REMARK SMILES IDX 2 24 1 25 80 26 81 27 85 28 82 29 84 30 83 31 20 32 21 33
REMARK SMILES IDX 22 34 23 35 24 36 25 37 77 38 26 39 76 40 27 41 28 42 29 43
REMARK SMILES IDX 70 44 30 45 75 46 69 47 71 48 31 49 74 50 68 51 67 52 32 54
REMARK SMILES IDX 58 55 41 56 57 57 42 58 45 59 56 60 72 61 43 62 44 63 55 65
REMARK SMILES IDX 73 66 46 67 33 68 34 69 39 70 35 71 36 72 38 73 40 74 37 75
REMARK SMILES IDX 59 76 60 77 65 78 61 79 62 80 64 81 66 82 63 83 47 84 48 85
REMARK SMILES IDX 53 86 49 87 50 88 52 89 54 90 51 91
REMARK H PARENT 13 15 71 53 45 64
REMARK Flexibility Score: inf
ROOT
ATOM      1  C   UNL     1      -6.730  -2.379   7.849  1.00  0.00     0.275 C 
ENDROOT
BRANCH   1   2
ATOM      2  O   UNL     1      -5.540  -2.886   7.221  1.00  0.00    -0.458 OA
BRANCH   2   3
ATOM      3  C   UNL     1      -4.352  -2.351   7.639  1.00  0.00     0.341 C 
ATOM      4  O   UNL     1      -4.251  -1.355   8.350  1.00  0.00    -0.246 OA
BRANCH   3   5
ATOM      5  C   UNL     1      -3.209  -3.145   7.211  1.00  0.00     0.102 A 
ATOM      6  C   UNL     1      -1.460  -5.760   5.219  1.00  0.00     0.078 C 
ATOM      7  C   UNL     1      -2.708  -6.526   4.742  1.00  0.00     0.115 C 
ATOM      8  C   UNL     1      -1.864  -4.655   6.162  1.00  0.00     0.055 A 
ATOM      9  C   UNL     1      -3.953  -5.679   4.552  1.00  0.00     0.225 C 
ATOM     10  C   UNL     1      -3.149  -4.168   6.241  1.00  0.00     0.078 A 
ATOM     11  N   UNL     1      -1.085  -3.896   7.024  1.00  0.00    -0.317 N 
ATOM     12  O   UNL     1      -4.818  -5.975   3.729  1.00  0.00    -0.275 OA
ATOM     13  N   UNL     1      -4.141  -4.639   5.418  1.00  0.00    -0.324 N 
ATOM     14  C   UNL     1      -1.928  -3.066   7.740  1.00  0.00     0.109 A 
ATOM     15  H   UNL     1      -5.026  -4.208   5.452  1.00  0.00     0.170 HD
BRANCH   6  16
ATOM     16  C   UNL     1      -0.420  -6.778   5.691  1.00  0.00    -0.038 A 
ATOM     17  C   UNL     1       1.725  -8.471   6.416  1.00  0.00     0.060 A 
ATOM     18  C   UNL     1       1.370  -8.318   5.073  1.00  0.00     0.016 A 
ATOM     19  C   UNL     1       0.942  -7.859   7.400  1.00  0.00     0.016 A 
ATOM     20  C   UNL     1       0.315  -7.475   4.715  1.00  0.00     0.005 A 
ATOM     21  C   UNL     1      -0.147  -7.054   7.038  1.00  0.00     0.005 A 
BRANCH  17  22
ATOM     22  C   UNL     1       2.960  -9.241   6.727  1.00  0.00     0.337 C 
ATOM     23  O   UNL     1       3.697  -9.700   5.869  1.00  0.00    -0.246 OA
BRANCH  22  24
ATOM     24  O   UNL     1       3.163  -9.315   8.066  1.00  0.00    -0.465 OA
ATOM     25  C   UNL     1       4.383  -9.962   8.433  1.00  0.00     0.282 C 
ENDBRANCH  22  24
ENDBRANCH  17  22
ENDBRANCH   6  16
BRANCH  11  26
ATOM     26  C   UNL     1       0.320  -3.923   7.177  1.00  0.00     0.045 A 
ATOM     27  C   UNL     1       1.141  -3.879   6.046  1.00  0.00     0.026 A 
ATOM     28  C   UNL     1       0.874  -4.072   8.455  1.00  0.00     0.026 A 
ATOM     29  C   UNL     1       2.519  -4.028   6.190  1.00  0.00     0.002 A 
ATOM     30  C   UNL     1       2.251  -4.263   8.584  1.00  0.00     0.002 A 
ATOM     31  C   UNL     1       3.070  -4.243   7.453  1.00  0.00     0.000 A 
ENDBRANCH  11  26
ENDBRANCH   3   5
ENDBRANCH   2   3
ENDBRANCH   1   2
BRANCH   1  32
ATOM     32  C   UNL     1      -7.032  -3.110   9.151  1.00  0.00     0.275 C 
BRANCH  32  33
ATOM     33  O   UNL     1      -6.090  -2.762  10.163  1.00  0.00    -0.458 OA
BRANCH  33  34
ATOM     34  C   UNL     1      -5.047  -3.611  10.296  1.00  0.00     0.338 C 
ATOM     35  O   UNL     1      -4.703  -4.488   9.523  1.00  0.00    -0.246 OA
BRANCH  34  36
ATOM     36  C   UNL     1      -4.496  -3.474  11.646  1.00  0.00     0.060 A 
ATOM     37  C   UNL     1      -3.360  -4.228  11.955  1.00  0.00     0.016 A 
ATOM     38  C   UNL     1      -5.279  -2.866  12.637  1.00  0.00     0.016 A 
ATOM     39  C   UNL     1      -3.115  -4.530  13.277  1.00  0.00     0.010 A 
ATOM     40  C   UNL     1      -5.048  -3.186  13.950  1.00  0.00     0.010 A 
ATOM     41  C   UNL     1      -4.018  -4.075  14.244  1.00  0.00    -0.014 A 
BRANCH  41  42
ATOM     42  C   UNL     1      -3.814  -4.473  15.619  1.00  0.00     0.031 A 
ATOM     43  C   UNL     1      -2.679  -3.771  16.260  1.00  0.00     0.074 A 
ATOM     44  C   UNL     1      -4.692  -5.268  16.259  1.00  0.00     0.049 A 
ATOM     45  N   UNL     1      -1.593  -4.280  16.739  1.00  0.00    -0.248 NA
ATOM     46  C   UNL     1      -2.683  -2.298  16.214  1.00  0.00     0.031 C 
ATOM     47  C   UNL     1      -5.993  -5.748  15.781  1.00  0.00     0.029 A 
ATOM     48  N   UNL     1      -4.649  -5.729  17.536  1.00  0.00    -0.354 N 
ATOM     49  C   UNL     1      -0.872  -3.203  17.245  1.00  0.00     0.074 A 
ATOM     50  C   UNL     1      -1.485  -2.014  16.721  1.00  0.00     0.031 C 
ATOM     51  C   UNL     1      -6.701  -6.232  16.828  1.00  0.00     0.029 A 
ATOM     52  C   UNL     1      -5.861  -6.212  18.012  1.00  0.00     0.049 A 
ATOM     53  H   UNL     1      -3.828  -5.721  18.078  1.00  0.00     0.167 HD
ATOM     54  C   UNL     1      -0.003  -3.366  18.276  1.00  0.00     0.037 A 
ATOM     55  C   UNL     1      -6.153  -6.491  19.307  1.00  0.00     0.037 A 
ATOM     56  C   UNL     1       0.400  -4.743  18.404  1.00  0.00     0.049 A 
ATOM     57  C   UNL     1      -4.866  -6.603  20.040  1.00  0.00     0.074 A 
ATOM     58  C   UNL     1       1.048  -5.647  17.585  1.00  0.00     0.029 A 
ATOM     59  N   UNL     1      -0.195  -5.491  19.389  1.00  0.00    -0.354 N 
ATOM     60  N   UNL     1      -4.008  -7.568  19.861  1.00  0.00    -0.248 NA
ATOM     61  C   UNL     1      -4.324  -5.392  20.640  1.00  0.00     0.031 C 
ATOM     62  C   UNL     1       0.423  -6.901  17.848  1.00  0.00     0.029 A 
ATOM     63  C   UNL     1      -0.531  -6.703  18.847  1.00  0.00     0.049 A 
ATOM     64  H   UNL     1      -0.352  -5.207  20.319  1.00  0.00     0.167 HD
ATOM     65  C   UNL     1      -2.764  -6.954  19.920  1.00  0.00     0.074 A 
ATOM     66  C   UNL     1      -3.019  -5.634  20.491  1.00  0.00     0.031 C 
ATOM     67  C   UNL     1      -1.698  -7.462  19.235  1.00  0.00     0.037 A 
BRANCH  54  68
ATOM     68  C   UNL     1       0.144  -2.370  19.404  1.00  0.00     0.057 A 
ATOM     69  C   UNL     1       1.129  -2.595  20.381  1.00  0.00     0.134 A 
ATOM     70  C   UNL     1      -0.815  -1.390  19.739  1.00  0.00     0.134 A 
ATOM     71  F   UNL     1       2.095  -3.506  20.188  1.00  0.00    -0.206 F 
ATOM     72  C   UNL     1       1.105  -1.963  21.629  1.00  0.00     0.040 A 
ATOM     73  C   UNL     1      -0.816  -0.714  20.961  1.00  0.00     0.040 A 
ATOM     74  F   UNL     1      -1.861  -1.098  18.957  1.00  0.00    -0.206 F 
ATOM     75  C   UNL     1       0.124  -1.026  21.927  1.00  0.00     0.006 A 
ENDBRANCH  54  68
BRANCH  55  76
ATOM     76  C   UNL     1      -7.449  -6.346  20.009  1.00  0.00     0.057 A 
ATOM     77  C   UNL     1      -7.685  -6.977  21.238  1.00  0.00     0.134 A 
ATOM     78  C   UNL     1      -8.386  -5.370  19.627  1.00  0.00     0.134 A 
ATOM     79  F   UNL     1      -6.823  -7.889  21.710  1.00  0.00    -0.206 F 
ATOM     80  C   UNL     1      -8.780  -6.646  22.048  1.00  0.00     0.040 A 
ATOM     81  C   UNL     1      -9.487  -5.034  20.422  1.00  0.00     0.040 A 
ATOM     82  F   UNL     1      -8.217  -4.644  18.512  1.00  0.00    -0.206 F 
ATOM     83  C   UNL     1      -9.681  -5.664  21.644  1.00  0.00     0.006 A 
ENDBRANCH  55  76
BRANCH  67  84
ATOM     84  C   UNL     1      -1.847  -8.830  18.628  1.00  0.00     0.057 A 
ATOM     85  C   UNL     1      -2.751  -9.138  17.600  1.00  0.00     0.134 A 
ATOM     86  C   UNL     1      -0.941  -9.831  18.992  1.00  0.00     0.134 A 
ATOM     87  F   UNL     1      -3.588  -8.214  17.113  1.00  0.00    -0.206 F 
ATOM     88  C   UNL     1      -2.781 -10.398  16.994  1.00  0.00     0.040 A 
ATOM     89  C   UNL     1      -0.937 -11.083  18.372  1.00  0.00     0.040 A 
ATOM     90  F   UNL     1      -0.009  -9.590  19.927  1.00  0.00    -0.206 F 
ATOM     91  C   UNL     1      -1.866 -11.374  17.377  1.00  0.00     0.006 A 
ENDBRANCH  67  84
ENDBRANCH  41  42
ENDBRANCH  34  36
ENDBRANCH  33  34
ENDBRANCH  32  33
ENDBRANCH   1  32
TORSDOF 15
