REMARK SMILES [NH3+][C@]1(C(=O)OCCOC(=O)c2ccc(-c3c4nc(c(-c5c(F)cccc5F)c5ccc([nH]5)c(-c5c(F)cccc5F)c5nc(c(-c6c(F)cccc6F)c6ccc3[nH]6)C=C5)C=C4)cc2)CC[N@H+](Cc2ccccc2O)C1
REMARK SMILES IDX 6 1 5 2 3 3 4 4 2 5 65 6 76 7 66 8 67 9 1 11 68 15 69 16
REMARK SMILES IDX 70 17 74 18 71 19 73 20 72 21 75 22 7 24 8 25 9 26 10 27
REMARK SMILES IDX 11 28 12 29 64 30 13 31 63 32 14 33 15 34 16 35 57 36 17 37
REMARK SMILES IDX 62 38 56 39 58 40 18 41 61 42 55 43 54 44 19 46 45 47 28 48
REMARK SMILES IDX 44 49 29 50 32 51 43 52 59 53 30 54 31 55 42 57 60 58 33 59
REMARK SMILES IDX 20 60 21 61 26 62 22 63 23 64 25 65 27 66 24 67 46 68 47 69
REMARK SMILES IDX 52 70 48 71 49 72 51 73 53 74 50 75 34 76 35 77 40 78 36 79
REMARK SMILES IDX 37 80 39 81 41 82 38 83
REMARK H PARENT 67 10 1 12 1 13 1 14 75 23 58 45 32 56
REMARK Flexibility Score: inf
ROOT
ATOM      1  C   UNL     1       3.220  -0.872  -0.976  1.00  0.00     0.274 C 
ENDROOT
BRANCH   1   2
ATOM      2  O   UNL     1       2.414   0.314  -1.128  1.00  0.00    -0.457 OA
BRANCH   2   3
ATOM      3  C   UNL     1       1.130   0.201  -0.687  1.00  0.00     0.374 C 
ATOM      4  O   UNL     1       0.636  -0.844  -0.270  1.00  0.00    -0.244 OA
BRANCH   3   5
ATOM      5  C   UNL     1       0.347   1.523  -0.790  1.00  0.00     0.246 C 
ATOM      6  C   UNL     1      -0.291   1.838   0.561  1.00  0.00     0.148 C 
ATOM      7  C   UNL     1       1.204   2.792  -0.976  1.00  0.00     0.344 C 
ATOM      8  C   UNL     1      -0.590   3.322   0.509  1.00  0.00     0.270 C 
ATOM      9  N   UNL     1       0.477   3.892  -0.313  1.00  0.00    -0.325 N 
ATOM     10  H   UNL     1       1.141   4.363   0.302  1.00  0.00     0.348 HD
BRANCH   5  11
ATOM     11  N   UNL     1      -0.689   1.372  -1.844  1.00  0.00    -0.338 N 
ATOM     12  H   UNL     1      -1.219   2.239  -1.927  1.00  0.00     0.345 HD
ATOM     13  H   UNL     1      -1.320   0.611  -1.593  1.00  0.00     0.345 HD
ATOM     14  H   UNL     1      -0.240   1.161  -2.735  1.00  0.00     0.345 HD
ENDBRANCH   5  11
BRANCH   9  15
ATOM     15  C   UNL     1       0.116   5.048  -1.133  1.00  0.00     0.303 C 
BRANCH  15  16
ATOM     16  C   UNL     1      -0.823   4.779  -2.292  1.00  0.00     0.048 A 
ATOM     17  C   UNL     1      -0.263   4.439  -3.539  1.00  0.00     0.013 A 
ATOM     18  C   UNL     1      -2.222   4.772  -2.186  1.00  0.00     0.124 A 
ATOM     19  C   UNL     1      -1.062   4.027  -4.607  1.00  0.00     0.001 A 
ATOM     20  C   UNL     1      -3.021   4.343  -3.246  1.00  0.00     0.046 A 
ATOM     21  C   UNL     1      -2.441   3.958  -4.452  1.00  0.00     0.004 A 
BRANCH  18  22
ATOM     22  O   UNL     1      -2.904   5.150  -1.064  1.00  0.00    -0.507 OA
ATOM     23  H   UNL     1      -2.436   5.450  -0.310  1.00  0.00     0.293 HD
ENDBRANCH  18  22
ENDBRANCH  15  16
ENDBRANCH   9  15
ENDBRANCH   3   5
ENDBRANCH   2   3
ENDBRANCH   1   2
BRANCH   1  24
ATOM     24  C   UNL     1       4.005  -0.821   0.334  1.00  0.00     0.275 C 
BRANCH  24  25
ATOM     25  O   UNL     1       3.101  -0.805   1.456  1.00  0.00    -0.458 OA
BRANCH  25  26
ATOM     26  C   UNL     1       3.251   0.222   2.324  1.00  0.00     0.338 C 
ATOM     27  O   UNL     1       4.090   1.107   2.273  1.00  0.00    -0.246 OA
BRANCH  26  28
ATOM     28  C   UNL     1       2.240   0.152   3.401  1.00  0.00     0.060 A 
ATOM     29  C   UNL     1       0.904  -0.138   3.124  1.00  0.00     0.016 A 
ATOM     30  C   UNL     1       2.614   0.505   4.699  1.00  0.00     0.016 A 
ATOM     31  C   UNL     1      -0.069   0.044   4.109  1.00  0.00     0.010 A 
ATOM     32  C   UNL     1       1.653   0.560   5.714  1.00  0.00     0.010 A 
ATOM     33  C   UNL     1       0.292   0.365   5.427  1.00  0.00    -0.014 A 
BRANCH  33  34
ATOM     34  C   UNL     1      -0.738   0.479   6.502  1.00  0.00     0.031 A 
ATOM     35  C   UNL     1      -0.846   1.726   7.345  1.00  0.00     0.074 A 
ATOM     36  C   UNL     1      -1.573  -0.551   6.751  1.00  0.00     0.049 A 
ATOM     37  N   UNL     1      -1.527   1.923   8.448  1.00  0.00    -0.248 NA
ATOM     38  C   UNL     1      -0.077   2.898   6.901  1.00  0.00     0.031 C 
ATOM     39  C   UNL     1      -1.605  -1.817   6.016  1.00  0.00     0.029 A 
ATOM     40  N   UNL     1      -2.560  -0.696   7.695  1.00  0.00    -0.354 N 
ATOM     41  C   UNL     1      -1.216   3.212   8.864  1.00  0.00     0.074 A 
ATOM     42  C   UNL     1      -0.292   3.756   7.890  1.00  0.00     0.031 C 
ATOM     43  C   UNL     1      -2.589  -2.587   6.502  1.00  0.00     0.029 A 
ATOM     44  C   UNL     1      -3.197  -1.912   7.642  1.00  0.00     0.049 A 
ATOM     45  H   UNL     1      -2.789   0.005   8.348  1.00  0.00     0.167 HD
ATOM     46  C   UNL     1      -1.654   3.878   9.960  1.00  0.00     0.037 A 
ATOM     47  C   UNL     1      -4.134  -2.453   8.441  1.00  0.00     0.037 A 
ATOM     48  C   UNL     1      -2.624   3.367  10.896  1.00  0.00     0.049 A 
ATOM     49  C   UNL     1      -4.615  -1.692   9.638  1.00  0.00     0.074 A 
ATOM     50  C   UNL     1      -3.145   3.982  12.023  1.00  0.00     0.029 A 
ATOM     51  N   UNL     1      -3.235   2.126  10.803  1.00  0.00    -0.354 N 
ATOM     52  N   UNL     1      -4.259  -0.503  10.056  1.00  0.00    -0.248 NA
ATOM     53  C   UNL     1      -5.611  -2.359  10.488  1.00  0.00     0.031 C 
ATOM     54  C   UNL     1      -4.057   3.105  12.622  1.00  0.00     0.029 A 
ATOM     55  C   UNL     1      -4.125   1.956  11.852  1.00  0.00     0.049 A 
ATOM     56  H   UNL     1      -3.062   1.464  10.095  1.00  0.00     0.167 HD
ATOM     57  C   UNL     1      -4.979  -0.281  11.221  1.00  0.00     0.074 A 
ATOM     58  C   UNL     1      -5.816  -1.445  11.427  1.00  0.00     0.031 C 
ATOM     59  C   UNL     1      -4.940   0.788  12.052  1.00  0.00     0.037 A 
BRANCH  46  60
ATOM     60  C   UNL     1      -1.070   5.234  10.231  1.00  0.00     0.057 A 
ATOM     61  C   UNL     1      -1.452   6.368   9.507  1.00  0.00     0.134 A 
ATOM     62  C   UNL     1      -0.150   5.411  11.274  1.00  0.00     0.134 A 
ATOM     63  F   UNL     1      -2.320   6.264   8.489  1.00  0.00    -0.206 F 
ATOM     64  C   UNL     1      -0.929   7.630   9.800  1.00  0.00     0.040 A 
ATOM     65  C   UNL     1       0.364   6.670  11.589  1.00  0.00     0.040 A 
ATOM     66  F   UNL     1       0.252   4.365  12.012  1.00  0.00    -0.206 F 
ATOM     67  C   UNL     1      -0.024   7.784  10.849  1.00  0.00     0.006 A 
ENDBRANCH  46  60
BRANCH  47  68
ATOM     68  C   UNL     1      -4.647  -3.813   8.149  1.00  0.00     0.057 A 
ATOM     69  C   UNL     1      -5.938  -4.003   7.645  1.00  0.00     0.134 A 
ATOM     70  C   UNL     1      -3.851  -4.949   8.339  1.00  0.00     0.134 A 
ATOM     71  F   UNL     1      -6.753  -2.954   7.465  1.00  0.00    -0.206 F 
ATOM     72  C   UNL     1      -6.420  -5.276   7.340  1.00  0.00     0.040 A 
ATOM     73  C   UNL     1      -4.311  -6.225   8.016  1.00  0.00     0.040 A 
ATOM     74  F   UNL     1      -2.603  -4.829   8.816  1.00  0.00    -0.206 F 
ATOM     75  C   UNL     1      -5.602  -6.391   7.517  1.00  0.00     0.006 A 
ENDBRANCH  47  68
BRANCH  59  76
ATOM     76  C   UNL     1      -5.835   0.739  13.252  1.00  0.00     0.057 A 
ATOM     77  C   UNL     1      -5.522  -0.051  14.365  1.00  0.00     0.134 A 
ATOM     78  C   UNL     1      -7.020   1.482  13.293  1.00  0.00     0.134 A 
ATOM     79  F   UNL     1      -4.408  -0.798  14.377  1.00  0.00    -0.206 F 
ATOM     80  C   UNL     1      -6.371  -0.118  15.470  1.00  0.00     0.040 A 
ATOM     81  C   UNL     1      -7.869   1.436  14.400  1.00  0.00     0.040 A 
ATOM     82  F   UNL     1      -7.374   2.259  12.258  1.00  0.00    -0.206 F 
ATOM     83  C   UNL     1      -7.548   0.629  15.490  1.00  0.00     0.006 A 
ENDBRANCH  59  76
ENDBRANCH  33  34
ENDBRANCH  26  28
ENDBRANCH  25  26
ENDBRANCH  24  25
ENDBRANCH   1  24
TORSDOF 15
