REMARK SMILES O=C(OCCOC(=O)c1ccc(-c2c3nc(c(-c4c(F)cccc4F)c4ccc([nH]4)c(-c4c(F)cccc4F)c4nc(c(-c5c(F)cccc5F)c5ccc2[nH]5)C=C4)C=C3)cc1)C1=Cc2c(ccc(Cl)c2Oc2ccccc2)O[C@H]1C(F)(F)F
REMARK SMILES IDX 4 1 3 2 2 3 1 4 63 5 64 6 80 7 65 8 79 9 66 10 71 11 67 12
REMARK SMILES IDX 69 13 68 14 70 15 81 16 82 17 83 18 84 19 72 20 73 21 74 22
REMARK SMILES IDX 78 23 75 24 77 25 76 26 5 27 6 28 7 29 8 30 9 31 10 32 62 33
REMARK SMILES IDX 11 34 61 35 12 36 13 37 14 38 55 39 15 40 60 41 54 42 56 43
REMARK SMILES IDX 16 44 59 45 53 46 52 47 17 49 43 50 26 51 42 52 27 53 30 54
REMARK SMILES IDX 41 55 57 56 28 57 29 58 40 60 58 61 31 62 18 63 19 64 24 65
REMARK SMILES IDX 20 66 21 67 23 68 25 69 22 70 44 71 45 72 50 73 46 74 47 75
REMARK SMILES IDX 49 76 51 77 48 78 32 79 33 80 38 81 34 82 35 83 37 84 39 85
REMARK SMILES IDX 36 86
REMARK H PARENT 56 48 30 59
REMARK Flexibility Score: inf
ROOT
ATOM      1  C   UNL     1       2.438  -0.288  -0.752  1.00  0.00     0.275 C 
ENDROOT
BRANCH   1   2
ATOM      2  O   UNL     1       2.240  -1.112   0.395  1.00  0.00    -0.459 OA
BRANCH   2   3
ATOM      3  C   UNL     1       2.995  -1.107   1.505  1.00  0.00     0.338 C 
ATOM      4  O   UNL     1       2.648  -1.797   2.461  1.00  0.00    -0.246 OA
BRANCH   3   5
ATOM      5  C   UNL     1       4.251  -0.304   1.615  1.00  0.00     0.088 C 
ATOM      6  C   UNL     1       4.877   0.584   0.799  1.00  0.00     0.031 C 
ATOM      7  C   UNL     1       5.198  -0.987   2.551  1.00  0.00     0.316 C 
ATOM      8  C   UNL     1       5.615  -0.101  -0.276  1.00  0.00     0.062 A 
ATOM      9  O   UNL     1       6.474  -1.191   1.829  1.00  0.00    -0.475 OA
ATOM     10  C   UNL     1       6.418  -1.095   0.418  1.00  0.00     0.131 A 
ATOM     11  C   UNL     1       5.628   0.058  -1.715  1.00  0.00     0.156 A 
ATOM     12  C   UNL     1       7.206  -1.972  -0.292  1.00  0.00     0.049 A 
ATOM     13  C   UNL     1       6.463  -0.889  -2.365  1.00  0.00     0.084 A 
ATOM     14  C   UNL     1       7.213  -1.872  -1.680  1.00  0.00     0.028 A 
ATOM     15  Cl  UNL     1       6.606  -0.923  -4.103  1.00  0.00    -0.080 Cl
BRANCH   7  16
ATOM     16  C   UNL     1       5.223  -0.157   3.858  1.00  0.00     0.430 C 
ATOM     17  F   UNL     1       3.971   0.230   4.228  1.00  0.00    -0.167 F 
ATOM     18  F   UNL     1       5.735  -0.845   4.902  1.00  0.00    -0.167 F 
ATOM     19  F   UNL     1       5.943   0.982   3.721  1.00  0.00    -0.167 F 
ENDBRANCH   7  16
BRANCH  11  20
ATOM     20  O   UNL     1       5.037   0.874  -2.711  1.00  0.00    -0.455 OA
BRANCH  20  21
ATOM     21  C   UNL     1       4.040   1.830  -2.764  1.00  0.00     0.127 A 
ATOM     22  C   UNL     1       2.749   1.525  -3.273  1.00  0.00     0.047 A 
ATOM     23  C   UNL     1       4.282   3.166  -2.426  1.00  0.00     0.047 A 
ATOM     24  C   UNL     1       1.673   2.449  -3.146  1.00  0.00     0.004 A 
ATOM     25  C   UNL     1       3.217   4.092  -2.317  1.00  0.00     0.004 A 
ATOM     26  C   UNL     1       1.903   3.716  -2.606  1.00  0.00     0.000 A 
ENDBRANCH  20  21
ENDBRANCH  11  20
ENDBRANCH   3   5
ENDBRANCH   2   3
ENDBRANCH   1   2
BRANCH   1  27
ATOM     27  C   UNL     1       2.649   1.169  -0.425  1.00  0.00     0.275 C 
BRANCH  27  28
ATOM     28  O   UNL     1       2.312   1.486   0.873  1.00  0.00    -0.458 OA
BRANCH  28  29
ATOM     29  C   UNL     1       1.043   1.874   0.828  1.00  0.00     0.338 C 
ATOM     30  O   UNL     1       0.159   1.588   0.060  1.00  0.00    -0.246 OA
BRANCH  29  31
ATOM     31  C   UNL     1       1.017   2.823   1.890  1.00  0.00     0.060 A 
ATOM     32  C   UNL     1      -0.195   2.787   2.534  1.00  0.00     0.016 A 
ATOM     33  C   UNL     1       2.135   3.631   2.222  1.00  0.00     0.016 A 
ATOM     34  C   UNL     1      -0.329   3.646   3.559  1.00  0.00     0.010 A 
ATOM     35  C   UNL     1       2.029   4.430   3.316  1.00  0.00     0.010 A 
ATOM     36  C   UNL     1       0.788   4.420   3.940  1.00  0.00    -0.014 A 
BRANCH  36  37
ATOM     37  C   UNL     1       0.551   5.245   5.086  1.00  0.00     0.031 A 
ATOM     38  C   UNL     1       0.093   6.612   4.786  1.00  0.00     0.074 A 
ATOM     39  C   UNL     1       0.450   4.525   6.208  1.00  0.00     0.049 A 
ATOM     40  N   UNL     1      -0.610   7.395   5.535  1.00  0.00    -0.248 NA
ATOM     41  C   UNL     1       0.417   7.156   3.450  1.00  0.00     0.031 C 
ATOM     42  C   UNL     1       0.872   3.118   6.354  1.00  0.00     0.029 A 
ATOM     43  N   UNL     1      -0.176   4.816   7.368  1.00  0.00    -0.354 N 
ATOM     44  C   UNL     1      -0.835   8.518   4.763  1.00  0.00     0.074 A 
ATOM     45  C   UNL     1      -0.155   8.347   3.503  1.00  0.00     0.031 C 
ATOM     46  C   UNL     1       0.412   2.648   7.519  1.00  0.00     0.029 A 
ATOM     47  C   UNL     1      -0.275   3.732   8.199  1.00  0.00     0.049 A 
ATOM     48  H   UNL     1      -0.523   5.709   7.591  1.00  0.00     0.167 HD
ATOM     49  C   UNL     1      -1.583   9.578   5.121  1.00  0.00     0.037 A 
ATOM     50  C   UNL     1      -0.882   3.669   9.389  1.00  0.00     0.037 A 
ATOM     51  C   UNL     1      -2.198   9.637   6.419  1.00  0.00     0.049 A 
ATOM     52  C   UNL     1      -1.629   4.906   9.784  1.00  0.00     0.074 A 
ATOM     53  C   UNL     1      -2.904  10.663   7.003  1.00  0.00     0.029 A 
ATOM     54  N   UNL     1      -2.158   8.589   7.343  1.00  0.00    -0.354 N 
ATOM     55  N   UNL     1      -1.821   6.009   9.088  1.00  0.00    -0.248 NA
ATOM     56  C   UNL     1      -2.245   4.903  11.105  1.00  0.00     0.031 C 
ATOM     57  C   UNL     1      -3.241  10.255   8.300  1.00  0.00     0.029 A 
ATOM     58  C   UNL     1      -2.807   8.949   8.504  1.00  0.00     0.049 A 
ATOM     59  H   UNL     1      -1.726   7.717   7.187  1.00  0.00     0.167 HD
ATOM     60  C   UNL     1      -2.577   6.843   9.887  1.00  0.00     0.074 A 
ATOM     61  C   UNL     1      -2.850   6.082  11.101  1.00  0.00     0.031 C 
ATOM     62  C   UNL     1      -3.002   8.116   9.671  1.00  0.00     0.037 A 
BRANCH  49  63
ATOM     63  C   UNL     1      -1.674  10.705   4.145  1.00  0.00     0.057 A 
ATOM     64  C   UNL     1      -2.361  10.589   2.928  1.00  0.00     0.134 A 
ATOM     65  C   UNL     1      -1.000  11.906   4.391  1.00  0.00     0.134 A 
ATOM     66  F   UNL     1      -2.980   9.444   2.601  1.00  0.00    -0.206 F 
ATOM     67  C   UNL     1      -2.369  11.625   1.990  1.00  0.00     0.040 A 
ATOM     68  C   UNL     1      -1.021  12.958   3.473  1.00  0.00     0.040 A 
ATOM     69  F   UNL     1      -0.289  12.069   5.517  1.00  0.00    -0.206 F 
ATOM     70  C   UNL     1      -1.704  12.817   2.267  1.00  0.00     0.006 A 
ENDBRANCH  49  63
BRANCH  50  71
ATOM     71  C   UNL     1      -0.742   2.459  10.228  1.00  0.00     0.057 A 
ATOM     72  C   UNL     1      -1.836   1.685  10.616  1.00  0.00     0.134 A 
ATOM     73  C   UNL     1       0.530   2.029  10.643  1.00  0.00     0.134 A 
ATOM     74  F   UNL     1      -3.076   2.028  10.239  1.00  0.00    -0.206 F 
ATOM     75  C   UNL     1      -1.677   0.548  11.412  1.00  0.00     0.040 A 
ATOM     76  C   UNL     1       0.706   0.879  11.409  1.00  0.00     0.040 A 
ATOM     77  F   UNL     1       1.629   2.711  10.284  1.00  0.00    -0.206 F 
ATOM     78  C   UNL     1      -0.403   0.142  11.809  1.00  0.00     0.006 A 
ENDBRANCH  50  71
BRANCH  62  79
ATOM     79  C   UNL     1      -3.800   8.709  10.787  1.00  0.00     0.057 A 
ATOM     80  C   UNL     1      -3.212   9.042  12.013  1.00  0.00     0.134 A 
ATOM     81  C   UNL     1      -5.170   8.941  10.625  1.00  0.00     0.134 A 
ATOM     82  F   UNL     1      -1.905   8.824  12.223  1.00  0.00    -0.206 F 
ATOM     83  C   UNL     1      -3.976   9.539  13.064  1.00  0.00     0.040 A 
ATOM     84  C   UNL     1      -5.934   9.480  11.654  1.00  0.00     0.040 A 
ATOM     85  F   UNL     1      -5.779   8.656   9.464  1.00  0.00    -0.206 F 
ATOM     86  C   UNL     1      -5.340   9.763  12.883  1.00  0.00     0.006 A 
ENDBRANCH  62  79
ENDBRANCH  36  37
ENDBRANCH  29  31
ENDBRANCH  28  29
ENDBRANCH  27  28
ENDBRANCH   1  27
TORSDOF 14
