REMARK SMILES O=C(CCCC[C@@H]1CCSS1)OCCOC(=O)c1ccc(-c2c3nc(c(-c4c(F)cccc4F)c4ccc([nH]4)c(-c4c(F)cccc4F)c4nc(c(-c5c(F)cccc5F)c5ccc2[nH]5)C=C4)C=C3)cc1
REMARK SMILES IDX 13 1 12 2 2 3 1 4 3 5 4 6 5 7 6 8 7 9 8 10 11 11 9 12 10 13
REMARK SMILES IDX 14 14 15 15 16 16 17 17 18 18 19 19 71 20 20 21 70 22 21 23
REMARK SMILES IDX 22 24 23 25 64 26 24 27 69 28 63 29 65 30 25 31 68 32 62 33
REMARK SMILES IDX 61 34 26 36 52 37 35 38 51 39 36 40 39 41 50 42 66 43 37 44
REMARK SMILES IDX 38 45 49 47 67 48 40 49 27 50 28 51 33 52 29 53 30 54 32 55
REMARK SMILES IDX 34 56 31 57 53 58 54 59 59 60 55 61 56 62 58 63 60 64 57 65
REMARK SMILES IDX 41 66 42 67 47 68 43 69 44 70 46 71 48 72 45 73
REMARK H PARENT 65 35 39 46
REMARK Flexibility Score: inf
ROOT
ATOM      1  C   UNL     1       3.676  -1.542  -0.365  1.00  0.00     0.274 C 
ENDROOT
BRANCH   1   2
ATOM      2  O   UNL     1       2.416  -1.030   0.102  1.00  0.00    -0.462 OA
BRANCH   2   3
ATOM      3  C   UNL     1       2.389  -0.027   1.016  1.00  0.00     0.305 C 
ATOM      4  O   UNL     1       1.654  -0.087   1.997  1.00  0.00    -0.252 OA
BRANCH   3   5
ATOM      5  C   UNL     1       3.167   1.229   0.681  1.00  0.00     0.123 C 
BRANCH   5   6
ATOM      6  C   UNL     1       4.144   1.670   1.768  1.00  0.00     0.012 C 
BRANCH   6   7
ATOM      7  C   UNL     1       5.488   0.928   1.802  1.00  0.00     0.002 C 
BRANCH   7   8
ATOM      8  C   UNL     1       6.311   0.856   0.499  1.00  0.00     0.015 C 
BRANCH   8   9
ATOM      9  C   UNL     1       7.215   2.031   0.106  1.00  0.00     0.059 C 
ATOM     10  C   UNL     1       8.370   2.269   1.084  1.00  0.00     0.027 C 
ATOM     11  S   UNL     1       6.339   3.606  -0.128  1.00  0.00    -0.091 SA
ATOM     12  C   UNL     1       9.090   3.563   0.724  1.00  0.00     0.083 C 
ATOM     13  S   UNL     1       7.804   4.829   0.617  1.00  0.00    -0.094 SA
ENDBRANCH   8   9
ENDBRANCH   7   8
ENDBRANCH   6   7
ENDBRANCH   5   6
ENDBRANCH   3   5
ENDBRANCH   2   3
ENDBRANCH   1   2
BRANCH   1  14
ATOM     14  C   UNL     1       3.848  -1.409  -1.881  1.00  0.00     0.275 C 
BRANCH  14  15
ATOM     15  O   UNL     1       3.618  -0.060  -2.316  1.00  0.00    -0.458 OA
BRANCH  15  16
ATOM     16  C   UNL     1       2.339   0.190  -2.701  1.00  0.00     0.338 C 
ATOM     17  O   UNL     1       1.454  -0.629  -2.864  1.00  0.00    -0.246 OA
BRANCH  16  18
ATOM     18  C   UNL     1       2.101   1.650  -2.743  1.00  0.00     0.060 A 
ATOM     19  C   UNL     1       0.875   2.115  -2.254  1.00  0.00     0.016 A 
ATOM     20  C   UNL     1       3.042   2.550  -3.254  1.00  0.00     0.016 A 
ATOM     21  C   UNL     1       0.569   3.474  -2.309  1.00  0.00     0.010 A 
ATOM     22  C   UNL     1       2.731   3.913  -3.316  1.00  0.00     0.010 A 
ATOM     23  C   UNL     1       1.483   4.378  -2.868  1.00  0.00    -0.014 A 
BRANCH  23  24
ATOM     24  C   UNL     1       1.073   5.787  -3.085  1.00  0.00     0.031 A 
ATOM     25  C   UNL     1       0.503   6.189  -4.416  1.00  0.00     0.074 A 
ATOM     26  C   UNL     1       1.174   6.693  -2.096  1.00  0.00     0.049 A 
ATOM     27  N   UNL     1       0.039   7.350  -4.803  1.00  0.00    -0.248 NA
ATOM     28  C   UNL     1       0.445   5.142  -5.449  1.00  0.00     0.031 C 
ATOM     29  C   UNL     1       1.697   6.432  -0.757  1.00  0.00     0.029 A 
ATOM     30  N   UNL     1       0.839   8.024  -2.075  1.00  0.00    -0.354 N 
ATOM     31  C   UNL     1      -0.378   7.172  -6.115  1.00  0.00     0.074 A 
ATOM     32  C   UNL     1      -0.081   5.802  -6.472  1.00  0.00     0.031 C 
ATOM     33  C   UNL     1       1.657   7.572  -0.045  1.00  0.00     0.029 A 
ATOM     34  C   UNL     1       1.118   8.643  -0.882  1.00  0.00     0.049 A 
ATOM     35  H   UNL     1       0.437   8.491  -2.843  1.00  0.00     0.167 HD
ATOM     36  C   UNL     1      -0.969   8.065  -6.943  1.00  0.00     0.037 A 
ATOM     37  C   UNL     1       0.964   9.929  -0.513  1.00  0.00     0.037 A 
ATOM     38  C   UNL     1      -1.262   9.430  -6.599  1.00  0.00     0.049 A 
ATOM     39  C   UNL     1       0.370  10.919  -1.480  1.00  0.00     0.074 A 
ATOM     40  C   UNL     1      -1.893  10.396  -7.365  1.00  0.00     0.029 A 
ATOM     41  N   UNL     1      -0.931  10.028  -5.394  1.00  0.00    -0.354 N 
ATOM     42  N   UNL     1      -0.082  10.723  -2.694  1.00  0.00    -0.248 NA
ATOM     43  C   UNL     1       0.261  12.312  -1.019  1.00  0.00     0.031 C 
ATOM     44  C   UNL     1      -1.905  11.591  -6.639  1.00  0.00     0.029 A 
ATOM     45  C   UNL     1      -1.317  11.359  -5.407  1.00  0.00     0.049 A 
ATOM     46  H   UNL     1      -0.488   9.575  -4.641  1.00  0.00     0.167 HD
ATOM     47  C   UNL     1      -0.551  11.956  -3.131  1.00  0.00     0.074 A 
ATOM     48  C   UNL     1      -0.340  12.893  -2.049  1.00  0.00     0.031 C 
ATOM     49  C   UNL     1      -1.107  12.281  -4.322  1.00  0.00     0.037 A 
BRANCH  36  50
ATOM     50  C   UNL     1      -1.337   7.592  -8.316  1.00  0.00     0.057 A 
ATOM     51  C   UNL     1      -2.448   6.769  -8.533  1.00  0.00     0.134 A 
ATOM     52  C   UNL     1      -0.605   8.007  -9.435  1.00  0.00     0.134 A 
ATOM     53  F   UNL     1      -3.181   6.330  -7.500  1.00  0.00    -0.206 F 
ATOM     54  C   UNL     1      -2.813   6.364  -9.818  1.00  0.00     0.040 A 
ATOM     55  C   UNL     1      -0.970   7.623 -10.726  1.00  0.00     0.040 A 
ATOM     56  F   UNL     1       0.469   8.798  -9.291  1.00  0.00    -0.206 F 
ATOM     57  C   UNL     1      -2.076   6.798 -10.919  1.00  0.00     0.006 A 
ENDBRANCH  36  50
BRANCH  37  58
ATOM     58  C   UNL     1       1.387  10.374   0.838  1.00  0.00     0.057 A 
ATOM     59  C   UNL     1       0.449  10.748   1.806  1.00  0.00     0.134 A 
ATOM     60  C   UNL     1       2.742  10.485   1.172  1.00  0.00     0.134 A 
ATOM     61  F   UNL     1      -0.863  10.690   1.533  1.00  0.00    -0.206 F 
ATOM     62  C   UNL     1       0.842  11.236   3.053  1.00  0.00     0.040 A 
ATOM     63  C   UNL     1       3.149  10.951   2.422  1.00  0.00     0.040 A 
ATOM     64  F   UNL     1       3.688  10.148   0.283  1.00  0.00    -0.206 F 
ATOM     65  C   UNL     1       2.197  11.337   3.364  1.00  0.00     0.006 A 
ENDBRANCH  37  58
BRANCH  49  66
ATOM     66  C   UNL     1      -1.551  13.701  -4.513  1.00  0.00     0.057 A 
ATOM     67  C   UNL     1      -0.633  14.738  -4.721  1.00  0.00     0.134 A 
ATOM     68  C   UNL     1      -2.913  14.029  -4.531  1.00  0.00     0.134 A 
ATOM     69  F   UNL     1       0.686  14.492  -4.703  1.00  0.00    -0.206 F 
ATOM     70  C   UNL     1      -1.053  16.054  -4.924  1.00  0.00     0.040 A 
ATOM     71  C   UNL     1      -3.346  15.336  -4.755  1.00  0.00     0.040 A 
ATOM     72  F   UNL     1      -3.844  13.081  -4.346  1.00  0.00    -0.206 F 
ATOM     73  C   UNL     1      -2.414  16.354  -4.948  1.00  0.00     0.006 A 
ENDBRANCH  49  66
ENDBRANCH  23  24
ENDBRANCH  16  18
ENDBRANCH  15  16
ENDBRANCH  14  15
ENDBRANCH   1  14
TORSDOF 15
