REMARK SMILES CN(CCS(C)(=O)=O)S(=O)(=O)c1cc(C(=O)OCCOC(=O)c2ccc(-c3c4nc(c(-c5c(F)cccc5F)c5ccc([nH]5)c(-c5c(F)cccc5F)c5nc(c(-c6c(F)cccc6F)c6ccc3[nH]6)C=C5)C=C4)cc2)ccc1F
REMARK SMILES IDX 17 1 15 2 16 3 14 4 12 5 13 6 79 7 78 8 80 9 77 10 9 11
REMARK SMILES IDX 10 12 11 13 2 14 1 15 3 16 4 17 5 18 6 19 7 20 8 21 18 22
REMARK SMILES IDX 19 23 20 24 21 25 22 26 23 27 24 28 76 29 25 30 75 31 26 32
REMARK SMILES IDX 27 33 28 34 69 35 29 36 74 37 68 38 70 39 30 40 73 41 67 42
REMARK SMILES IDX 66 43 31 45 57 46 40 47 56 48 41 49 44 50 55 51 71 52 42 53
REMARK SMILES IDX 43 54 54 56 72 57 45 58 32 59 33 60 38 61 34 62 35 63 37 64
REMARK SMILES IDX 39 65 36 66 58 67 59 68 64 69 60 70 61 71 63 72 65 73 62 74
REMARK SMILES IDX 46 75 47 76 52 77 48 78 49 79 51 80 53 81 50 82
REMARK H PARENT 70 44 44 55
REMARK Flexibility Score: inf
ROOT
ATOM      1  O   UNL     1      -0.843   1.724  -7.490  1.00  0.00    -0.458 OA
ENDROOT
BRANCH   1   2
ATOM      2  C   UNL     1      -1.146   1.651  -6.175  1.00  0.00     0.338 C 
ATOM      3  O   UNL     1      -1.980   0.940  -5.639  1.00  0.00    -0.246 OA
BRANCH   2   4
ATOM      4  C   UNL     1      -0.249   2.518  -5.384  1.00  0.00     0.061 A 
ATOM      5  C   UNL     1       1.076   2.796  -3.366  1.00  0.00     0.119 A 
ATOM      6  C   UNL     1       0.324   1.989  -4.222  1.00  0.00     0.040 A 
ATOM      7  C   UNL     1       1.281   4.128  -3.690  1.00  0.00     0.143 A 
ATOM      8  C   UNL     1       0.719   4.662  -4.856  1.00  0.00     0.041 A 
ATOM      9  F   UNL     1       2.031   4.929  -2.926  1.00  0.00    -0.206 F 
ATOM     10  C   UNL     1      -0.050   3.860  -5.708  1.00  0.00     0.019 A 
BRANCH   5  11
ATOM     11  S   UNL     1       1.778   2.105  -1.903  1.00  0.00     0.245 S 
ATOM     12  O   UNL     1       1.891   3.102  -0.874  1.00  0.00    -0.207 OA
ATOM     13  O   UNL     1       2.930   1.339  -2.344  1.00  0.00    -0.207 OA
BRANCH  11  14
ATOM     14  N   UNL     1       0.631   0.960  -1.328  1.00  0.00    -0.200 NA
ATOM     15  C   UNL     1       1.158   0.185  -0.166  1.00  0.00     0.124 C 
BRANCH  14  16
ATOM     16  C   UNL     1      -0.819   1.285  -1.213  1.00  0.00     0.118 C 
BRANCH  16  17
ATOM     17  C   UNL     1      -1.276   2.150  -0.059  1.00  0.00     0.153 C 
BRANCH  17  18
ATOM     18  S   UNL     1      -1.706   3.840  -0.460  1.00  0.00     0.148 S 
ATOM     19  C   UNL     1      -2.607   3.817  -1.991  1.00  0.00     0.158 C 
ATOM     20  O   UNL     1      -2.644   4.285   0.557  1.00  0.00    -0.229 OA
ATOM     21  O   UNL     1      -0.500   4.592  -0.719  1.00  0.00    -0.229 OA
ENDBRANCH  17  18
ENDBRANCH  16  17
ENDBRANCH  14  16
ENDBRANCH  11  14
ENDBRANCH   5  11
ENDBRANCH   2   4
ENDBRANCH   1   2
BRANCH   1  22
ATOM     22  C   UNL     1      -1.561   0.815  -8.354  1.00  0.00     0.275 C 
BRANCH  22  23
ATOM     23  C   UNL     1      -0.678  -0.373  -8.738  1.00  0.00     0.275 C 
BRANCH  23  24
ATOM     24  O   UNL     1      -0.422  -1.168  -7.565  1.00  0.00    -0.458 OA
BRANCH  24  25
ATOM     25  C   UNL     1       0.874  -1.478  -7.326  1.00  0.00     0.338 C 
ATOM     26  O   UNL     1       1.835  -1.228  -8.033  1.00  0.00    -0.246 OA
BRANCH  25  27
ATOM     27  C   UNL     1       0.998  -2.135  -6.008  1.00  0.00     0.060 A 
ATOM     28  C   UNL     1       0.367  -1.574  -4.904  1.00  0.00     0.016 A 
ATOM     29  C   UNL     1       1.869  -3.208  -5.830  1.00  0.00     0.016 A 
ATOM     30  C   UNL     1       0.731  -1.968  -3.618  1.00  0.00     0.010 A 
ATOM     31  C   UNL     1       2.123  -3.696  -4.539  1.00  0.00     0.010 A 
ATOM     32  C   UNL     1       1.611  -3.039  -3.405  1.00  0.00    -0.014 A 
BRANCH  32  33
ATOM     33  C   UNL     1       2.036  -3.400  -2.014  1.00  0.00     0.031 A 
ATOM     34  C   UNL     1       3.503  -3.483  -1.651  1.00  0.00     0.074 A 
ATOM     35  C   UNL     1       1.124  -3.585  -1.034  1.00  0.00     0.049 A 
ATOM     36  N   UNL     1       4.057  -3.917  -0.544  1.00  0.00    -0.248 NA
ATOM     37  C   UNL     1       4.473  -3.042  -2.665  1.00  0.00     0.031 C 
ATOM     38  C   UNL     1      -0.328  -3.506  -1.196  1.00  0.00     0.029 A 
ATOM     39  N   UNL     1       1.286  -3.834   0.310  1.00  0.00    -0.354 N 
ATOM     40  C   UNL     1       5.430  -3.879  -0.764  1.00  0.00     0.074 A 
ATOM     41  C   UNL     1       5.627  -3.373  -2.104  1.00  0.00     0.031 C 
ATOM     42  C   UNL     1      -0.914  -3.594   0.006  1.00  0.00     0.029 A 
ATOM     43  C   UNL     1       0.107  -3.851   1.016  1.00  0.00     0.049 A 
ATOM     44  H   UNL     1       2.165  -3.986   0.726  1.00  0.00     0.167 HD
ATOM     45  C   UNL     1       6.437  -4.232   0.073  1.00  0.00     0.037 A 
ATOM     46  C   UNL     1      -0.140  -4.073   2.322  1.00  0.00     0.037 A 
ATOM     47  C   UNL     1       6.258  -4.640   1.442  1.00  0.00     0.049 A 
ATOM     48  C   UNL     1       0.992  -4.436   3.240  1.00  0.00     0.074 A 
ATOM     49  C   UNL     1       7.223  -5.019   2.361  1.00  0.00     0.029 A 
ATOM     50  N   UNL     1       5.042  -4.679   2.102  1.00  0.00    -0.354 N 
ATOM     51  N   UNL     1       2.273  -4.507   2.980  1.00  0.00    -0.248 NA
ATOM     52  C   UNL     1       0.637  -4.788   4.623  1.00  0.00     0.031 C 
ATOM     53  C   UNL     1       6.586  -5.309   3.572  1.00  0.00     0.029 A 
ATOM     54  C   UNL     1       5.231  -5.075   3.417  1.00  0.00     0.049 A 
ATOM     55  H   UNL     1       4.172  -4.458   1.698  1.00  0.00     0.167 HD
ATOM     56  C   UNL     1       2.876  -4.925   4.159  1.00  0.00     0.074 A 
ATOM     57  C   UNL     1       1.826  -5.051   5.148  1.00  0.00     0.031 C 
ATOM     58  C   UNL     1       4.181  -5.200   4.393  1.00  0.00     0.037 A 
BRANCH  45  59
ATOM     59  C   UNL     1       7.837  -4.220  -0.471  1.00  0.00     0.057 A 
ATOM     60  C   UNL     1       8.504  -5.428  -0.722  1.00  0.00     0.134 A 
ATOM     61  C   UNL     1       8.548  -3.034  -0.680  1.00  0.00     0.134 A 
ATOM     62  F   UNL     1       7.883  -6.602  -0.530  1.00  0.00    -0.206 F 
ATOM     63  C   UNL     1       9.831  -5.455  -1.152  1.00  0.00     0.040 A 
ATOM     64  C   UNL     1       9.869  -3.047  -1.135  1.00  0.00     0.040 A 
ATOM     65  F   UNL     1       7.964  -1.845  -0.468  1.00  0.00    -0.206 F 
ATOM     66  C   UNL     1      10.517  -4.261  -1.363  1.00  0.00     0.006 A 
ENDBRANCH  45  59
BRANCH  46  67
ATOM     67  C   UNL     1      -1.528  -3.976   2.841  1.00  0.00     0.057 A 
ATOM     68  C   UNL     1      -2.516  -4.902   2.485  1.00  0.00     0.134 A 
ATOM     69  C   UNL     1      -1.900  -2.935   3.700  1.00  0.00     0.134 A 
ATOM     70  F   UNL     1      -2.224  -5.920   1.663  1.00  0.00    -0.206 F 
ATOM     71  C   UNL     1      -3.829  -4.782   2.941  1.00  0.00     0.040 A 
ATOM     72  C   UNL     1      -3.202  -2.819   4.188  1.00  0.00     0.040 A 
ATOM     73  F   UNL     1      -0.993  -2.028   4.092  1.00  0.00    -0.206 F 
ATOM     74  C   UNL     1      -4.174  -3.739   3.799  1.00  0.00     0.006 A 
ENDBRANCH  46  67
BRANCH  58  75
ATOM     75  C   UNL     1       4.552  -5.666   5.769  1.00  0.00     0.057 A 
ATOM     76  C   UNL     1       5.252  -4.830   6.646  1.00  0.00     0.134 A 
ATOM     77  C   UNL     1       4.257  -6.963   6.206  1.00  0.00     0.134 A 
ATOM     78  F   UNL     1       5.572  -3.578   6.285  1.00  0.00    -0.206 F 
ATOM     79  C   UNL     1       5.651  -5.269   7.910  1.00  0.00     0.040 A 
ATOM     80  C   UNL     1       4.632  -7.408   7.475  1.00  0.00     0.040 A 
ATOM     81  F   UNL     1       3.578  -7.809   5.415  1.00  0.00    -0.206 F 
ATOM     82  C   UNL     1       5.337  -6.561   8.328  1.00  0.00     0.006 A 
ENDBRANCH  58  75
ENDBRANCH  32  33
ENDBRANCH  25  27
ENDBRANCH  24  25
ENDBRANCH  23  24
ENDBRANCH  22  23
ENDBRANCH   1  22
TORSDOF 16
