REMARK SMILES [NH3+][C@H](C(=O)OCCOC(=O)c1ccc(-c2c3nc(c(-c4c(F)cccc4F)c4ccc([nH]4)c(-c4c(F)cccc4F)c4nc(c(-c5c(F)cccc5F)c5ccc2[nH]5)C=C4)C=C3)cc1)c1cc(F)c(Cl)c(Cl)c1
REMARK SMILES IDX 7 1 6 2 5 3 3 4 4 5 2 6 1 7 65 11 66 12 73 13 67 14 71 15
REMARK SMILES IDX 68 16 69 17 72 18 70 19 8 20 9 21 10 22 11 23 12 24 64 25
REMARK SMILES IDX 13 26 63 27 14 28 15 29 16 30 57 31 17 32 62 33 56 34 58 35
REMARK SMILES IDX 18 36 61 37 55 38 54 39 19 41 45 42 28 43 44 44 29 45 32 46
REMARK SMILES IDX 43 47 59 48 30 49 31 50 42 52 60 53 33 54 20 55 21 56 26 57
REMARK SMILES IDX 22 58 23 59 25 60 27 61 24 62 46 63 47 64 52 65 48 66 49 67
REMARK SMILES IDX 51 68 53 69 50 70 34 71 35 72 40 73 36 74 37 75 39 76 41 77
REMARK SMILES IDX 38 78
REMARK H PARENT 1 8 1 9 1 10 58 40 32 51
REMARK Flexibility Score: inf
ROOT
ATOM      1  C   UNL     1       3.528  -1.756   0.084  1.00  0.00     0.275 C 
ENDROOT
BRANCH   1   2
ATOM      2  C   UNL     1       2.051  -2.163   0.045  1.00  0.00     0.274 C 
BRANCH   2   3
ATOM      3  O   UNL     1       1.284  -1.257  -0.771  1.00  0.00    -0.457 OA
BRANCH   3   4
ATOM      4  C   UNL     1       0.584  -0.289  -0.110  1.00  0.00     0.369 C 
ATOM      5  O   UNL     1       0.476  -0.224   1.110  1.00  0.00    -0.245 OA
BRANCH   4   6
ATOM      6  C   UNL     1      -0.027   0.754  -1.078  1.00  0.00     0.323 C 
BRANCH   6   7
ATOM      7  N   UNL     1       0.294   0.498  -2.496  1.00  0.00    -0.342 N 
ATOM      8  H   UNL     1      -0.136   1.217  -3.077  1.00  0.00     0.345 HD
ATOM      9  H   UNL     1      -0.066  -0.418  -2.766  1.00  0.00     0.345 HD
ATOM     10  H   UNL     1       1.306   0.517  -2.624  1.00  0.00     0.345 HD
ENDBRANCH   6   7
BRANCH   6  11
ATOM     11  C   UNL     1      -1.518   0.921  -0.872  1.00  0.00     0.025 A 
ATOM     12  C   UNL     1      -2.064   2.202  -0.700  1.00  0.00     0.051 A 
ATOM     13  C   UNL     1      -2.384  -0.184  -0.846  1.00  0.00     0.032 A 
ATOM     14  C   UNL     1      -3.431   2.362  -0.479  1.00  0.00     0.143 A 
ATOM     15  C   UNL     1      -3.758  -0.015  -0.620  1.00  0.00     0.063 A 
ATOM     16  F   UNL     1      -3.903   3.606  -0.304  1.00  0.00    -0.205 F 
ATOM     17  C   UNL     1      -4.289   1.264  -0.431  1.00  0.00     0.095 A 
ATOM     18  Cl  UNL     1      -4.735  -1.440  -0.578  1.00  0.00    -0.083 Cl
ATOM     19  Cl  UNL     1      -5.970   1.531  -0.136  1.00  0.00    -0.079 Cl
ENDBRANCH   6  11
ENDBRANCH   4   6
ENDBRANCH   3   4
ENDBRANCH   2   3
ENDBRANCH   1   2
BRANCH   1  20
ATOM     20  O   UNL     1       3.746  -0.559   0.857  1.00  0.00    -0.458 OA
BRANCH  20  21
ATOM     21  C   UNL     1       3.606   0.601   0.176  1.00  0.00     0.338 C 
ATOM     22  O   UNL     1       3.317   0.739  -1.001  1.00  0.00    -0.246 OA
BRANCH  21  23
ATOM     23  C   UNL     1       3.707   1.739   1.102  1.00  0.00     0.060 A 
ATOM     24  C   UNL     1       2.570   2.527   1.295  1.00  0.00     0.016 A 
ATOM     25  C   UNL     1       4.923   2.092   1.687  1.00  0.00     0.016 A 
ATOM     26  C   UNL     1       2.649   3.697   2.038  1.00  0.00     0.010 A 
ATOM     27  C   UNL     1       4.995   3.257   2.458  1.00  0.00     0.010 A 
ATOM     28  C   UNL     1       3.864   4.076   2.620  1.00  0.00    -0.014 A 
BRANCH  28  29
ATOM     29  C   UNL     1       3.944   5.356   3.361  1.00  0.00     0.031 A 
ATOM     30  C   UNL     1       4.691   6.517   2.773  1.00  0.00     0.074 A 
ATOM     31  C   UNL     1       3.309   5.485   4.540  1.00  0.00     0.049 A 
ATOM     32  N   UNL     1       4.954   7.684   3.302  1.00  0.00    -0.248 NA
ATOM     33  C   UNL     1       5.212   6.341   1.408  1.00  0.00     0.031 C 
ATOM     34  C   UNL     1       2.504   4.446   5.184  1.00  0.00     0.029 A 
ATOM     35  N   UNL     1       3.237   6.548   5.403  1.00  0.00    -0.354 N 
ATOM     36  C   UNL     1       5.696   8.371   2.350  1.00  0.00     0.074 A 
ATOM     37  C   UNL     1       5.847   7.489   1.213  1.00  0.00     0.031 C 
ATOM     38  C   UNL     1       2.011   4.926   6.337  1.00  0.00     0.029 A 
ATOM     39  C   UNL     1       2.510   6.283   6.537  1.00  0.00     0.049 A 
ATOM     40  H   UNL     1       3.667   7.416   5.227  1.00  0.00     0.167 HD
ATOM     41  C   UNL     1       6.203   9.624   2.422  1.00  0.00     0.037 A 
ATOM     42  C   UNL     1       2.295   7.040   7.629  1.00  0.00     0.037 A 
ATOM     43  C   UNL     1       6.027  10.507   3.546  1.00  0.00     0.049 A 
ATOM     44  C   UNL     1       2.906   8.410   7.703  1.00  0.00     0.074 A 
ATOM     45  C   UNL     1       6.502  11.796   3.715  1.00  0.00     0.029 A 
ATOM     46  N   UNL     1       5.309  10.191   4.689  1.00  0.00    -0.354 N 
ATOM     47  N   UNL     1       3.639   9.036   6.814  1.00  0.00    -0.248 NA
ATOM     48  C   UNL     1       2.671   9.174   8.936  1.00  0.00     0.031 C 
ATOM     49  C   UNL     1       6.095  12.250   4.974  1.00  0.00     0.029 A 
ATOM     50  C   UNL     1       5.339  11.256   5.574  1.00  0.00     0.049 A 
ATOM     51  H   UNL     1       4.847   9.337   4.849  1.00  0.00     0.167 HD
ATOM     52  C   UNL     1       3.944  10.268   7.374  1.00  0.00     0.074 A 
ATOM     53  C   UNL     1       3.303  10.309   8.672  1.00  0.00     0.031 C 
ATOM     54  C   UNL     1       4.693  11.275   6.861  1.00  0.00     0.037 A 
BRANCH  41  55
ATOM     55  C   UNL     1       7.026  10.100   1.264  1.00  0.00     0.057 A 
ATOM     56  C   UNL     1       6.445  10.484   0.050  1.00  0.00     0.134 A 
ATOM     57  C   UNL     1       8.419  10.198   1.376  1.00  0.00     0.134 A 
ATOM     58  F   UNL     1       5.118  10.398  -0.126  1.00  0.00    -0.206 F 
ATOM     59  C   UNL     1       7.223  10.932  -1.020  1.00  0.00     0.040 A 
ATOM     60  C   UNL     1       9.205  10.663   0.321  1.00  0.00     0.040 A 
ATOM     61  F   UNL     1       9.037   9.846   2.514  1.00  0.00    -0.206 F 
ATOM     62  C   UNL     1       8.607  11.028  -0.883  1.00  0.00     0.006 A 
ENDBRANCH  41  55
BRANCH  42  63
ATOM     63  C   UNL     1       1.491   6.502   8.752  1.00  0.00     0.057 A 
ATOM     64  C   UNL     1       0.212   6.996   9.030  1.00  0.00     0.134 A 
ATOM     65  C   UNL     1       1.980   5.475   9.569  1.00  0.00     0.134 A 
ATOM     66  F   UNL     1      -0.300   7.994   8.296  1.00  0.00    -0.206 F 
ATOM     67  C   UNL     1      -0.550   6.493  10.086  1.00  0.00     0.040 A 
ATOM     68  C   UNL     1       1.220   4.947  10.613  1.00  0.00     0.040 A 
ATOM     69  F   UNL     1       3.199   4.959   9.350  1.00  0.00    -0.206 F 
ATOM     70  C   UNL     1      -0.048   5.461  10.876  1.00  0.00     0.006 A 
ENDBRANCH  42  63
BRANCH  54  71
ATOM     71  C   UNL     1       4.838  12.507   7.700  1.00  0.00     0.057 A 
ATOM     72  C   UNL     1       5.692  12.543   8.809  1.00  0.00     0.134 A 
ATOM     73  C   UNL     1       4.140  13.677   7.378  1.00  0.00     0.134 A 
ATOM     74  F   UNL     1       6.376  11.448   9.176  1.00  0.00    -0.206 F 
ATOM     75  C   UNL     1       5.834  13.697   9.580  1.00  0.00     0.040 A 
ATOM     76  C   UNL     1       4.288  14.842   8.130  1.00  0.00     0.040 A 
ATOM     77  F   UNL     1       3.311  13.707   6.324  1.00  0.00    -0.206 F 
ATOM     78  C   UNL     1       5.134  14.853   9.237  1.00  0.00     0.006 A 
ENDBRANCH  54  71
ENDBRANCH  28  29
ENDBRANCH  21  23
ENDBRANCH  20  21
ENDBRANCH   1  20
TORSDOF 13
