REMARK SMILES N#C/C(=C/c1cc(Br)ccc1OCC(=O)OCCOC(=O)c1ccc(-c2c3nc(c(-c4c(F)cccc4F)c4ccc([nH]4)c(-c4c(F)cccc4F)c4nc(c(-c5c(F)cccc5F)c5ccc2[nH]5)C=C4)C=C3)cc1)c1ccc(F)cc1
REMARK SMILES IDX 17 1 16 2 14 3 15 4 13 5 12 6 11 7 5 8 6 9 7 10 10 11 8 12
REMARK SMILES IDX 9 13 4 14 3 15 2 16 1 17 76 18 77 19 82 20 78 21 81 22 79 23
REMARK SMILES IDX 80 24 18 25 19 26 20 27 21 28 22 29 23 30 75 31 24 32 74 33
REMARK SMILES IDX 25 34 26 35 27 36 68 37 28 38 73 39 67 40 69 41 29 42 72 43
REMARK SMILES IDX 66 44 65 45 30 47 56 48 39 49 55 50 40 51 43 52 54 53 70 54
REMARK SMILES IDX 41 55 42 56 53 58 71 59 44 60 31 61 32 62 37 63 33 64 34 65
REMARK SMILES IDX 36 66 38 67 35 68 57 69 58 70 63 71 59 72 60 73 62 74 64 75
REMARK SMILES IDX 61 76 45 77 46 78 51 79 47 80 48 81 50 82 52 83 49 84
REMARK H PARENT 69 46 43 57
REMARK Flexibility Score: inf
ROOT
ATOM      1  C   UNL     1       4.017  -3.849   3.966  1.00  0.00     0.274 C 
ENDROOT
BRANCH   1   2
ATOM      2  O   UNL     1       4.818  -3.878   2.769  1.00  0.00    -0.460 OA
BRANCH   2   3
ATOM      3  C   UNL     1       4.141  -4.306   1.669  1.00  0.00     0.344 C 
ATOM      4  O   UNL     1       2.980  -4.655   1.662  1.00  0.00    -0.248 OA
BRANCH   3   5
ATOM      5  C   UNL     1       4.984  -4.296   0.394  1.00  0.00     0.352 C 
BRANCH   5   6
ATOM      6  O   UNL     1       6.304  -3.839   0.310  1.00  0.00    -0.481 OA
BRANCH   6   7
ATOM      7  C   UNL     1       6.710  -2.556   0.511  1.00  0.00     0.127 A 
ATOM      8  C   UNL     1       5.994  -1.354   0.696  1.00  0.00     0.019 A 
ATOM      9  C   UNL     1       6.768  -0.239   1.107  1.00  0.00     0.027 A 
ATOM     10  C   UNL     1       8.168  -0.240   1.102  1.00  0.00     0.018 A 
ATOM     11  C   UNL     1       8.129  -2.540   0.521  1.00  0.00     0.048 A 
ATOM     12  Br  UNL     1       9.116   1.348   1.495  1.00  0.00    -0.051 Br
ATOM     13  C   UNL     1       8.861  -1.387   0.777  1.00  0.00     0.019 A 
BRANCH   8  14
ATOM     14  C   UNL     1       4.513  -1.133   0.495  1.00  0.00     0.032 C 
ATOM     15  C   UNL     1       3.849  -0.061  -0.041  1.00  0.00     0.060 C 
BRANCH  15  16
ATOM     16  C   UNL     1       2.329  -0.061  -0.041  1.00  0.00     0.100 C 
ATOM     17  N   UNL     1       1.068  -0.061  -0.041  1.00  0.00    -0.192 NA
ENDBRANCH  15  16
BRANCH  15  18
ATOM     18  C   UNL     1       4.632   1.075  -0.576  1.00  0.00    -0.008 A 
ATOM     19  C   UNL     1       5.588   0.844  -1.593  1.00  0.00     0.012 A 
ATOM     20  C   UNL     1       4.587   2.339   0.033  1.00  0.00     0.012 A 
ATOM     21  C   UNL     1       6.487   1.843  -1.974  1.00  0.00     0.040 A 
ATOM     22  C   UNL     1       5.493   3.336  -0.352  1.00  0.00     0.040 A 
ATOM     23  C   UNL     1       6.433   3.079  -1.346  1.00  0.00     0.123 A 
ATOM     24  F   UNL     1       7.299   4.035  -1.705  1.00  0.00    -0.207 F 
ENDBRANCH  15  18
ENDBRANCH   8  14
ENDBRANCH   6   7
ENDBRANCH   5   6
ENDBRANCH   3   5
ENDBRANCH   2   3
ENDBRANCH   1   2
BRANCH   1  25
ATOM     25  C   UNL     1       3.218  -2.521   4.089  1.00  0.00     0.275 C 
BRANCH  25  26
ATOM     26  O   UNL     1       2.054  -2.378   3.121  1.00  0.00    -0.458 OA
BRANCH  26  27
ATOM     27  C   UNL     1       1.697  -1.121   2.648  1.00  0.00     0.338 C 
ATOM     28  O   UNL     1       2.460  -0.164   2.931  1.00  0.00    -0.246 OA
BRANCH  27  29
ATOM     29  C   UNL     1       0.283  -0.870   1.613  1.00  0.00     0.060 A 
ATOM     30  C   UNL     1       0.266  -1.858   0.128  1.00  0.00     0.016 A 
ATOM     31  C   UNL     1       0.079   0.891   1.396  1.00  0.00     0.016 A 
ATOM     32  C   UNL     1       0.344  -1.080  -1.497  1.00  0.00     0.010 A 
ATOM     33  C   UNL     1       0.133   1.681  -0.208  1.00  0.00     0.010 A 
ATOM     34  C   UNL     1       0.401   0.731  -1.665  1.00  0.00    -0.014 A 
BRANCH  34  35
ATOM     35  C   UNL     1       0.839   1.418  -3.007  1.00  0.00     0.031 A 
ATOM     36  C   UNL     1       1.772   2.652  -3.449  1.00  0.00     0.074 A 
ATOM     37  C   UNL     1      -0.382   1.318  -3.578  1.00  0.00     0.049 A 
ATOM     38  N   UNL     1       1.460   3.775  -4.092  1.00  0.00    -0.248 NA
ATOM     39  C   UNL     1       3.243   2.548  -3.335  1.00  0.00     0.031 C 
ATOM     40  C   UNL     1      -1.338   0.276  -3.190  1.00  0.00     0.029 A 
ATOM     41  N   UNL     1      -1.147   2.362  -3.995  1.00  0.00    -0.354 N 
ATOM     42  C   UNL     1       2.655   4.487  -4.394  1.00  0.00     0.074 A 
ATOM     43  C   UNL     1       3.725   3.695  -3.839  1.00  0.00     0.031 C 
ATOM     44  C   UNL     1      -2.521   0.891  -2.920  1.00  0.00     0.029 A 
ATOM     45  C   UNL     1      -2.399   2.195  -3.484  1.00  0.00     0.049 A 
ATOM     46  H   UNL     1      -0.849   3.107  -4.566  1.00  0.00     0.167 HD
ATOM     47  C   UNL     1       2.824   5.638  -5.129  1.00  0.00     0.037 A 
ATOM     48  C   UNL     1      -3.478   3.033  -3.487  1.00  0.00     0.037 A 
ATOM     49  C   UNL     1       1.706   6.282  -5.796  1.00  0.00     0.049 A 
ATOM     50  C   UNL     1      -3.315   4.184  -4.367  1.00  0.00     0.074 A 
ATOM     51  C   UNL     1       1.694   7.301  -6.739  1.00  0.00     0.029 A 
ATOM     52  N   UNL     1       0.382   5.932  -5.580  1.00  0.00    -0.354 N 
ATOM     53  N   UNL     1      -2.219   4.789  -4.755  1.00  0.00    -0.248 NA
ATOM     54  C   UNL     1      -4.555   4.673  -4.951  1.00  0.00     0.031 C 
ATOM     55  C   UNL     1       0.359   7.580  -7.067  1.00  0.00     0.029 A 
ATOM     56  C   UNL     1      -0.454   6.714  -6.355  1.00  0.00     0.049 A 
ATOM     57  H   UNL     1       0.081   5.227  -4.963  1.00  0.00     0.167 HD
ATOM     58  C   UNL     1      -2.633   5.718  -5.681  1.00  0.00     0.074 A 
ATOM     59  C   UNL     1      -4.074   5.587  -5.792  1.00  0.00     0.031 C 
ATOM     60  C   UNL     1      -1.886   6.597  -6.392  1.00  0.00     0.037 A 
BRANCH  47  61
ATOM     61  C   UNL     1       4.197   6.291  -5.369  1.00  0.00     0.057 A 
ATOM     62  C   UNL     1       5.204   5.690  -6.141  1.00  0.00     0.134 A 
ATOM     63  C   UNL     1       4.439   7.634  -5.003  1.00  0.00     0.134 A 
ATOM     64  F   UNL     1       5.055   4.434  -6.587  1.00  0.00    -0.206 F 
ATOM     65  C   UNL     1       6.384   6.367  -6.505  1.00  0.00     0.040 A 
ATOM     66  C   UNL     1       5.602   8.330  -5.381  1.00  0.00     0.040 A 
ATOM     67  F   UNL     1       3.521   8.325  -4.309  1.00  0.00    -0.206 F 
ATOM     68  C   UNL     1       6.583   7.694  -6.132  1.00  0.00     0.006 A 
ENDBRANCH  47  61
BRANCH  48  69
ATOM     69  C   UNL     1      -4.719   2.459  -2.968  1.00  0.00     0.057 A 
ATOM     70  C   UNL     1      -5.476   1.606  -3.787  1.00  0.00     0.134 A 
ATOM     71  C   UNL     1      -4.988   2.461  -1.594  1.00  0.00     0.134 A 
ATOM     72  F   UNL     1      -5.166   1.474  -5.086  1.00  0.00    -0.206 F 
ATOM     73  C   UNL     1      -6.481   0.802  -3.264  1.00  0.00     0.040 A 
ATOM     74  C   UNL     1      -5.992   1.658  -1.059  1.00  0.00     0.040 A 
ATOM     75  F   UNL     1      -4.205   3.153  -0.753  1.00  0.00    -0.206 F 
ATOM     76  C   UNL     1      -6.743   0.829  -1.895  1.00  0.00     0.006 A 
ENDBRANCH  48  69
BRANCH  60  77
ATOM     77  C   UNL     1      -2.657   7.504  -7.285  1.00  0.00     0.057 A 
ATOM     78  C   UNL     1      -3.459   8.519  -6.749  1.00  0.00     0.134 A 
ATOM     79  C   UNL     1      -2.635   7.341  -8.673  1.00  0.00     0.134 A 
ATOM     80  F   UNL     1      -3.538   8.694  -5.421  1.00  0.00    -0.206 F 
ATOM     81  C   UNL     1      -4.245   9.324  -7.567  1.00  0.00     0.040 A 
ATOM     82  C   UNL     1      -3.395   8.162  -9.503  1.00  0.00     0.040 A 
ATOM     83  F   UNL     1      -1.889   6.381  -9.238  1.00  0.00    -0.206 F 
ATOM     84  C   UNL     1      -4.210   9.149  -8.949  1.00  0.00     0.006 A 
ENDBRANCH  60  77
ENDBRANCH  34  35
ENDBRANCH  27  29
ENDBRANCH  26  27
ENDBRANCH  25  26
ENDBRANCH   1  25
TORSDOF 16
