REMARK SMILES C[NH2+][C@H](CC(=O)OCCOC(=O)c1ccc(-c2c3nc(c(-c4c(F)cccc4F)c4ccc([nH]4)c(-c4c(F)cccc4F)c4nc(c(-c5c(F)cccc5F)c5ccc2[nH]5)C=C4)C=C3)cc1)c1cccc(C2CC2)c1
REMARK SMILES IDX 8 1 7 2 5 3 6 4 4 5 3 6 2 7 1 8 67 11 68 12 75 13 69 14
REMARK SMILES IDX 71 15 70 16 72 17 73 18 74 19 9 20 10 21 11 22 12 23 13 24
REMARK SMILES IDX 14 25 66 26 15 27 65 28 16 29 17 30 18 31 59 32 19 33 64 34
REMARK SMILES IDX 58 35 60 36 20 37 63 38 57 39 56 40 21 42 47 43 30 44 46 45
REMARK SMILES IDX 31 46 34 47 45 48 61 49 32 50 33 51 44 53 62 54 35 55 22 56
REMARK SMILES IDX 23 57 28 58 24 59 25 60 27 61 29 62 26 63 48 64 49 65 54 66
REMARK SMILES IDX 50 67 51 68 53 69 55 70 52 71 36 72 37 73 42 74 38 75 39 76
REMARK SMILES IDX 41 77 43 78 40 79
REMARK H PARENT 2 9 2 10 60 41 34 52
REMARK Flexibility Score: inf
ROOT
ATOM      1  C   UNL     1       2.026   3.248   3.386  1.00  0.00     0.274 C 
ENDROOT
BRANCH   1   2
ATOM      2  O   UNL     1       1.063   3.032   2.340  1.00  0.00    -0.462 OA
BRANCH   2   3
ATOM      3  C   UNL     1       1.343   2.087   1.412  1.00  0.00     0.312 C 
ATOM      4  O   UNL     1       2.390   1.450   1.367  1.00  0.00    -0.252 OA
BRANCH   3   5
ATOM      5  C   UNL     1       0.273   1.993   0.348  1.00  0.00     0.192 C 
BRANCH   5   6
ATOM      6  C   UNL     1      -1.176   1.719   0.814  1.00  0.00     0.224 C 
BRANCH   6   7
ATOM      7  N   UNL     1      -1.266   0.317   1.262  1.00  0.00    -0.342 N 
ATOM      8  C   UNL     1      -2.587  -0.264   1.064  1.00  0.00     0.331 C 
ATOM      9  H   UNL     1      -0.587  -0.235   0.739  1.00  0.00     0.346 HD
ATOM     10  H   UNL     1      -1.077   0.306   2.265  1.00  0.00     0.346 HD
ENDBRANCH   6   7
BRANCH   6  11
ATOM     11  C   UNL     1      -1.727   2.777   1.771  1.00  0.00     0.010 A 
ATOM     12  C   UNL     1      -1.705   4.123   1.378  1.00  0.00     0.010 A 
ATOM     13  C   UNL     1      -2.205   2.486   3.066  1.00  0.00     0.014 A 
ATOM     14  C   UNL     1      -2.063   5.130   2.269  1.00  0.00     0.001 A 
ATOM     15  C   UNL     1      -2.575   3.477   3.997  1.00  0.00    -0.044 A 
ATOM     16  C   UNL     1      -2.476   4.807   3.563  1.00  0.00     0.004 A 
BRANCH  15  17
ATOM     17  C   UNL     1      -3.046   3.176   5.410  1.00  0.00     0.019 C 
ATOM     18  C   UNL     1      -3.483   1.804   5.866  1.00  0.00     0.009 C 
ATOM     19  C   UNL     1      -2.177   2.366   6.345  1.00  0.00     0.009 C 
ENDBRANCH  15  17
ENDBRANCH   6  11
ENDBRANCH   5   6
ENDBRANCH   3   5
ENDBRANCH   2   3
ENDBRANCH   1   2
BRANCH   1  20
ATOM     20  C   UNL     1       1.676   2.436   4.632  1.00  0.00     0.275 C 
BRANCH  20  21
ATOM     21  O   UNL     1       2.024   1.050   4.458  1.00  0.00    -0.458 OA
BRANCH  21  22
ATOM     22  C   UNL     1       1.004   0.220   4.158  1.00  0.00     0.338 C 
ATOM     23  O   UNL     1      -0.184   0.472   4.079  1.00  0.00    -0.246 OA
BRANCH  22  24
ATOM     24  C   UNL     1       1.522  -1.107   3.838  1.00  0.00     0.060 A 
ATOM     25  C   UNL     1       1.556  -1.497   2.497  1.00  0.00     0.016 A 
ATOM     26  C   UNL     1       1.859  -1.991   4.862  1.00  0.00     0.016 A 
ATOM     27  C   UNL     1       1.953  -2.784   2.168  1.00  0.00     0.010 A 
ATOM     28  C   UNL     1       2.264  -3.281   4.530  1.00  0.00     0.010 A 
ATOM     29  C   UNL     1       2.313  -3.679   3.183  1.00  0.00    -0.014 A 
BRANCH  29  30
ATOM     30  C   UNL     1       2.773  -5.033   2.829  1.00  0.00     0.031 A 
ATOM     31  C   UNL     1       1.857  -6.204   2.990  1.00  0.00     0.074 A 
ATOM     32  C   UNL     1       4.028  -5.186   2.373  1.00  0.00     0.049 A 
ATOM     33  N   UNL     1       2.110  -7.475   2.822  1.00  0.00    -0.248 NA
ATOM     34  C   UNL     1       0.475  -5.908   3.397  1.00  0.00     0.031 C 
ATOM     35  C   UNL     1       4.982  -4.097   2.154  1.00  0.00     0.029 A 
ATOM     36  N   UNL     1       4.717  -6.315   2.022  1.00  0.00    -0.354 N 
ATOM     37  C   UNL     1       0.926  -8.135   3.116  1.00  0.00     0.074 A 
ATOM     38  C   UNL     1      -0.044  -7.125   3.485  1.00  0.00     0.031 C 
ATOM     39  C   UNL     1       6.139  -4.614   1.711  1.00  0.00     0.029 A 
ATOM     40  C   UNL     1       6.015  -6.066   1.655  1.00  0.00     0.049 A 
ATOM     41  H   UNL     1       4.321  -7.216   2.033  1.00  0.00     0.167 HD
ATOM     42  C   UNL     1       0.680  -9.466   3.080  1.00  0.00     0.037 A 
ATOM     43  C   UNL     1       7.001  -6.923   1.335  1.00  0.00     0.037 A 
ATOM     44  C   UNL     1       1.657 -10.455   2.707  1.00  0.00     0.049 A 
ATOM     45  C   UNL     1       6.712  -8.395   1.343  1.00  0.00     0.074 A 
ATOM     46  C   UNL     1       1.510 -11.828   2.627  1.00  0.00     0.029 A 
ATOM     47  N   UNL     1       2.968 -10.171   2.352  1.00  0.00    -0.354 N 
ATOM     48  N   UNL     1       5.590  -9.013   1.626  1.00  0.00    -0.248 NA
ATOM     49  C   UNL     1       7.824  -9.288   0.995  1.00  0.00     0.031 C 
ATOM     50  C   UNL     1       2.742 -12.378   2.252  1.00  0.00     0.029 A 
ATOM     51  C   UNL     1       3.647 -11.344   2.068  1.00  0.00     0.049 A 
ATOM     52  H   UNL     1       3.358  -9.268   2.309  1.00  0.00     0.167 HD
ATOM     53  C   UNL     1       5.855 -10.366   1.477  1.00  0.00     0.074 A 
ATOM     54  C   UNL     1       7.241 -10.477   1.066  1.00  0.00     0.031 C 
ATOM     55  C   UNL     1       5.027 -11.423   1.664  1.00  0.00     0.037 A 
BRANCH  42  56
ATOM     56  C   UNL     1      -0.689  -9.923   3.479  1.00  0.00     0.057 A 
ATOM     57  C   UNL     1      -1.796  -9.765   2.636  1.00  0.00     0.134 A 
ATOM     58  C   UNL     1      -0.899 -10.551   4.713  1.00  0.00     0.134 A 
ATOM     59  F   UNL     1      -1.663  -9.156   1.447  1.00  0.00    -0.206 F 
ATOM     60  C   UNL     1      -3.067 -10.202   3.012  1.00  0.00     0.040 A 
ATOM     61  C   UNL     1      -2.162 -11.008   5.093  1.00  0.00     0.040 A 
ATOM     62  F   UNL     1       0.120 -10.732   5.567  1.00  0.00    -0.206 F 
ATOM     63  C   UNL     1      -3.251 -10.831   4.243  1.00  0.00     0.006 A 
ENDBRANCH  42  56
BRANCH  43  64
ATOM     64  C   UNL     1       8.345  -6.401   0.997  1.00  0.00     0.057 A 
ATOM     65  C   UNL     1       8.816  -6.420  -0.320  1.00  0.00     0.134 A 
ATOM     66  C   UNL     1       9.178  -5.846   1.976  1.00  0.00     0.134 A 
ATOM     67  F   UNL     1       8.068  -6.955  -1.296  1.00  0.00    -0.206 F 
ATOM     68  C   UNL     1      10.072  -5.911  -0.651  1.00  0.00     0.040 A 
ATOM     69  C   UNL     1      10.427  -5.315   1.655  1.00  0.00     0.040 A 
ATOM     70  F   UNL     1       8.778  -5.794   3.255  1.00  0.00    -0.206 F 
ATOM     71  C   UNL     1      10.879  -5.350   0.338  1.00  0.00     0.006 A 
ENDBRANCH  43  64
BRANCH  55  72
ATOM     72  C   UNL     1       5.603 -12.781   1.407  1.00  0.00     0.057 A 
ATOM     73  C   UNL     1       6.462 -13.397   2.324  1.00  0.00     0.134 A 
ATOM     74  C   UNL     1       5.273 -13.486   0.244  1.00  0.00     0.134 A 
ATOM     75  F   UNL     1       6.825 -12.762   3.449  1.00  0.00    -0.206 F 
ATOM     76  C   UNL     1       6.990 -14.666   2.083  1.00  0.00     0.040 A 
ATOM     77  C   UNL     1       5.780 -14.763   0.001  1.00  0.00     0.040 A 
ATOM     78  F   UNL     1       4.451 -12.949  -0.669  1.00  0.00    -0.206 F 
ATOM     79  C   UNL     1       6.645 -15.354   0.921  1.00  0.00     0.006 A 
ENDBRANCH  55  72
ENDBRANCH  29  30
ENDBRANCH  22  24
ENDBRANCH  21  22
ENDBRANCH  20  21
ENDBRANCH   1  20
TORSDOF 15
