REMARK SMILES O=C(OCCOC(=O)c1cc(-c2ccc(C(F)(F)F)cc2)cc([N+](=O)[O-])c1)c1ccc(-c2c3nc(c(-c4c(F)cccc4F)c4ccc([nH]4)c(-c4c(F)cccc4F)c4nc(c(-c5c(F)cccc5F)c5ccc2[nH]5)C=C4)C=C3)cc1
REMARK SMILES IDX 4 1 3 2 2 3 1 4 28 5 29 6 81 7 30 8 80 9 31 10 32 11 33 12
REMARK SMILES IDX 74 13 34 14 79 15 73 16 75 17 35 18 78 19 72 20 71 21 36 23
REMARK SMILES IDX 62 24 45 25 61 26 46 27 49 28 60 29 76 30 47 31 48 32 59 34
REMARK SMILES IDX 77 35 50 36 37 37 38 38 43 39 39 40 40 41 42 42 44 43 41 44
REMARK SMILES IDX 63 45 64 46 69 47 65 48 66 49 68 50 70 51 67 52 51 53 52 54
REMARK SMILES IDX 57 55 53 56 54 57 56 58 58 59 55 60 5 61 6 62 7 63 8 64 9 65
REMARK SMILES IDX 10 66 27 67 11 68 23 69 22 70 12 71 13 72 21 73 14 74 20 75
REMARK SMILES IDX 15 76 16 77 17 78 18 79 19 80 24 81 25 82 26 83
REMARK H PARENT 75 22 49 33
REMARK Flexibility Score: inf
ROOT
ATOM      1  C   UNL     1       4.110  -0.772   1.416  1.00  0.00     0.275 C 
ENDROOT
BRANCH   1   2
ATOM      2  O   UNL     1       3.030   0.156   1.222  1.00  0.00    -0.458 OA
BRANCH   2   3
ATOM      3  C   UNL     1       2.831   1.075   0.251  1.00  0.00     0.338 C 
ATOM      4  O   UNL     1       1.905   1.876   0.380  1.00  0.00    -0.246 OA
BRANCH   3   5
ATOM      5  C   UNL     1       3.579   1.096  -1.050  1.00  0.00     0.060 A 
ATOM      6  C   UNL     1       4.835   0.540  -1.298  1.00  0.00     0.016 A 
ATOM      7  C   UNL     1       2.917   1.710  -2.129  1.00  0.00     0.016 A 
ATOM      8  C   UNL     1       5.377   0.514  -2.583  1.00  0.00     0.010 A 
ATOM      9  C   UNL     1       3.440   1.671  -3.424  1.00  0.00     0.010 A 
ATOM     10  C   UNL     1       4.682   1.070  -3.654  1.00  0.00    -0.014 A 
BRANCH  10  11
ATOM     11  C   UNL     1       5.348   1.188  -4.965  1.00  0.00     0.031 A 
ATOM     12  C   UNL     1       5.873   2.531  -5.364  1.00  0.00     0.074 A 
ATOM     13  C   UNL     1       5.549   0.115  -5.750  1.00  0.00     0.049 A 
ATOM     14  N   UNL     1       6.497   2.880  -6.455  1.00  0.00    -0.248 NA
ATOM     15  C   UNL     1       5.711   3.616  -4.381  1.00  0.00     0.031 C 
ATOM     16  C   UNL     1       5.224  -1.264  -5.398  1.00  0.00     0.029 A 
ATOM     17  N   UNL     1       6.062   0.019  -7.017  1.00  0.00    -0.354 N 
ATOM     18  C   UNL     1       6.844   4.209  -6.269  1.00  0.00     0.074 A 
ATOM     19  C   UNL     1       6.285   4.630  -5.005  1.00  0.00     0.031 C 
ATOM     20  C   UNL     1       5.451  -2.056  -6.460  1.00  0.00     0.029 A 
ATOM     21  C   UNL     1       5.937  -1.238  -7.560  1.00  0.00     0.049 A 
ATOM     22  H   UNL     1       6.478   0.774  -7.491  1.00  0.00     0.167 HD
ATOM     23  C   UNL     1       7.604   4.992  -7.066  1.00  0.00     0.037 A 
ATOM     24  C   UNL     1       6.167  -1.670  -8.813  1.00  0.00     0.037 A 
ATOM     25  C   UNL     1       8.126   4.563  -8.334  1.00  0.00     0.049 A 
ATOM     26  C   UNL     1       6.818  -0.726  -9.776  1.00  0.00     0.074 A 
ATOM     27  C   UNL     1       8.903   5.268  -9.232  1.00  0.00     0.029 A 
ATOM     28  N   UNL     1       7.896   3.312  -8.893  1.00  0.00    -0.354 N 
ATOM     29  N   UNL     1       7.174   0.522  -9.585  1.00  0.00    -0.248 NA
ATOM     30  C   UNL     1       7.156  -1.258 -11.101  1.00  0.00     0.031 C 
ATOM     31  C   UNL     1       9.085   4.467 -10.366  1.00  0.00     0.029 A 
ATOM     32  C   UNL     1       8.478   3.239 -10.146  1.00  0.00     0.049 A 
ATOM     33  H   UNL     1       7.393   2.584  -8.461  1.00  0.00     0.167 HD
ATOM     34  C   UNL     1       7.834   0.908 -10.740  1.00  0.00     0.074 A 
ATOM     35  C   UNL     1       7.809  -0.235 -11.634  1.00  0.00     0.031 C 
ATOM     36  C   UNL     1       8.433   2.092 -11.020  1.00  0.00     0.037 A 
BRANCH  23  37
ATOM     37  C   UNL     1       7.862   6.388  -6.583  1.00  0.00     0.057 A 
ATOM     38  C   UNL     1       8.665   6.649  -5.463  1.00  0.00     0.134 A 
ATOM     39  C   UNL     1       7.250   7.479  -7.208  1.00  0.00     0.134 A 
ATOM     40  F   UNL     1       9.256   5.643  -4.799  1.00  0.00    -0.206 F 
ATOM     41  C   UNL     1       8.815   7.942  -4.957  1.00  0.00     0.040 A 
ATOM     42  C   UNL     1       7.416   8.779  -6.730  1.00  0.00     0.040 A 
ATOM     43  F   UNL     1       6.464   7.298  -8.279  1.00  0.00    -0.206 F 
ATOM     44  C   UNL     1       8.189   9.012  -5.594  1.00  0.00     0.006 A 
ENDBRANCH  23  37
BRANCH  24  45
ATOM     45  C   UNL     1       5.772  -3.041  -9.217  1.00  0.00     0.057 A 
ATOM     46  C   UNL     1       6.706  -4.065  -9.392  1.00  0.00     0.134 A 
ATOM     47  C   UNL     1       4.425  -3.350  -9.447  1.00  0.00     0.134 A 
ATOM     48  F   UNL     1       8.013  -3.823  -9.218  1.00  0.00    -0.206 F 
ATOM     49  C   UNL     1       6.317  -5.349  -9.784  1.00  0.00     0.040 A 
ATOM     50  C   UNL     1       4.018  -4.634  -9.814  1.00  0.00     0.040 A 
ATOM     51  F   UNL     1       3.489  -2.397  -9.335  1.00  0.00    -0.206 F 
ATOM     52  C   UNL     1       4.968  -5.638  -9.988  1.00  0.00     0.006 A 
ENDBRANCH  24  45
BRANCH  36  53
ATOM     53  C   UNL     1       9.152   2.193 -12.331  1.00  0.00     0.057 A 
ATOM     54  C   UNL     1       8.468   2.260 -13.550  1.00  0.00     0.134 A 
ATOM     55  C   UNL     1      10.550   2.268 -12.364  1.00  0.00     0.134 A 
ATOM     56  F   UNL     1       7.129   2.176 -13.585  1.00  0.00    -0.206 F 
ATOM     57  C   UNL     1       9.152   2.379 -14.760  1.00  0.00     0.040 A 
ATOM     58  C   UNL     1      11.243   2.420 -13.563  1.00  0.00     0.040 A 
ATOM     59  F   UNL     1      11.263   2.214 -11.228  1.00  0.00    -0.206 F 
ATOM     60  C   UNL     1      10.543   2.469 -14.767  1.00  0.00     0.006 A 
ENDBRANCH  36  53
ENDBRANCH  10  11
ENDBRANCH   3   5
ENDBRANCH   2   3
ENDBRANCH   1   2
BRANCH   1  61
ATOM     61  C   UNL     1       3.951  -2.108   0.678  1.00  0.00     0.275 C 
BRANCH  61  62
ATOM     62  O   UNL     1       3.489  -1.980  -0.679  1.00  0.00    -0.458 OA
BRANCH  62  63
ATOM     63  C   UNL     1       2.143  -2.040  -0.839  1.00  0.00     0.338 C 
ATOM     64  O   UNL     1       1.310  -2.234   0.034  1.00  0.00    -0.246 OA
BRANCH  63  65
ATOM     65  C   UNL     1       1.786  -1.712  -2.234  1.00  0.00     0.067 A 
ATOM     66  C   UNL     1       0.795  -0.741  -2.460  1.00  0.00     0.025 A 
ATOM     67  C   UNL     1       2.348  -2.410  -3.303  1.00  0.00     0.101 A 
ATOM     68  C   UNL     1       0.403  -0.404  -3.766  1.00  0.00    -0.011 A 
ATOM     69  C   UNL     1       1.927  -2.100  -4.603  1.00  0.00     0.270 A 
ATOM     70  C   UNL     1       1.015  -1.066  -4.840  1.00  0.00     0.094 A 
BRANCH  68  71
ATOM     71  C   UNL     1      -0.748   0.469  -4.022  1.00  0.00    -0.018 A 
ATOM     72  C   UNL     1      -0.772   1.834  -3.712  1.00  0.00     0.009 A 
ATOM     73  C   UNL     1      -1.895  -0.103  -4.595  1.00  0.00     0.009 A 
ATOM     74  C   UNL     1      -1.926   2.595  -3.944  1.00  0.00     0.014 A 
ATOM     75  C   UNL     1      -3.044   0.649  -4.825  1.00  0.00     0.014 A 
ATOM     76  C   UNL     1      -3.078   2.005  -4.487  1.00  0.00     0.056 A 
BRANCH  76  77
ATOM     77  C   UNL     1      -4.340   2.809  -4.679  1.00  0.00     0.416 C 
ATOM     78  F   UNL     1      -4.812   3.319  -3.508  1.00  0.00    -0.166 F 
ATOM     79  F   UNL     1      -4.165   3.873  -5.510  1.00  0.00    -0.166 F 
ATOM     80  F   UNL     1      -5.366   2.086  -5.210  1.00  0.00    -0.166 F 
ENDBRANCH  76  77
ENDBRANCH  68  71
BRANCH  69  81
ATOM     81  N   UNL     1       2.340  -2.946  -5.729  1.00  0.00     0.062 N 
ATOM     82  O   UNL     1       1.965  -2.623  -6.863  1.00  0.00    -0.258 OA
ATOM     83  O   UNL     1       3.005  -3.959  -5.468  1.00  0.00    -0.258 OA
ENDBRANCH  69  81
ENDBRANCH  63  65
ENDBRANCH  62  63
ENDBRANCH  61  62
ENDBRANCH   1  61
TORSDOF 14
