REMARK SMILES CCCCCCNC(=O)Oc1cccc(-c2ccc([C@@H](C)C(=O)OCCOC(=O)c3ccc(-c4c5nc(c(-c6c(F)cccc6F)c6ccc([nH]6)c(-c6c(F)cccc6F)c6nc(c(-c7c(F)cccc7F)c7ccc4[nH]7)C=C6)C=C5)cc3)cc2C(F)(F)F)c1
REMARK SMILES IDX 20 1 21 2 19 3 16 4 17 5 85 6 18 7 84 8 15 9 11 10 12 11
REMARK SMILES IDX 90 12 13 13 14 14 10 15 8 16 7 17 9 19 6 20 5 21 4 22 3 23
REMARK SMILES IDX 2 24 1 25 86 26 87 27 88 28 89 29 22 30 23 31 24 32 25 33
REMARK SMILES IDX 26 34 27 35 28 36 29 37 30 38 31 39 83 40 32 41 82 42 33 43
REMARK SMILES IDX 34 44 35 45 76 46 36 47 81 48 75 49 77 50 37 51 80 52 74 53
REMARK SMILES IDX 73 54 38 56 64 57 47 58 63 59 48 60 51 61 62 62 78 63 49 64
REMARK SMILES IDX 50 65 61 67 79 68 52 69 39 70 40 71 45 72 41 73 42 74 44 75
REMARK SMILES IDX 46 76 43 77 65 78 66 79 71 80 67 81 68 82 70 83 72 84 69 85
REMARK SMILES IDX 53 86 54 87 59 88 55 89 56 90 58 91 60 92 57 93
REMARK H PARENT 7 18 77 55 51 66
REMARK Flexibility Score: inf
ROOT
ATOM      1  C   UNL     1      -4.945  -4.946  12.923  1.00  0.00     0.126 C 
ATOM      2  C   UNL     1      -6.268  -5.400  13.534  1.00  0.00     0.025 C 
ENDROOT
BRANCH   1   3
ATOM      3  C   UNL     1      -4.931  -5.074  11.407  1.00  0.00    -0.033 A 
ATOM      4  C   UNL     1      -4.938  -5.231   8.556  1.00  0.00    -0.006 A 
ATOM      5  C   UNL     1      -5.120  -6.370   9.366  1.00  0.00     0.009 A 
ATOM      6  C   UNL     1      -4.745  -3.988   9.196  1.00  0.00     0.064 A 
ATOM      7  C   UNL     1      -5.128  -6.295  10.761  1.00  0.00     0.005 A 
ATOM      8  C   UNL     1      -4.731  -3.935  10.610  1.00  0.00     0.018 A 
BRANCH   4   9
ATOM      9  C   UNL     1      -5.017  -5.392   7.092  1.00  0.00    -0.014 A 
ATOM     10  C   UNL     1      -4.117  -5.134   4.857  1.00  0.00     0.133 A 
ATOM     11  C   UNL     1      -5.288  -5.637   4.295  1.00  0.00     0.047 A 
ATOM     12  C   UNL     1      -3.965  -5.019   6.241  1.00  0.00     0.056 A 
ATOM     13  C   UNL     1      -6.325  -6.041   5.127  1.00  0.00     0.004 A 
ATOM     14  C   UNL     1      -6.192  -5.912   6.511  1.00  0.00     0.009 A 
BRANCH  10  15
ATOM     15  O   UNL     1      -3.178  -4.599   3.955  1.00  0.00    -0.410 OA
BRANCH  15  16
ATOM     16  C   UNL     1      -1.828  -4.869   4.109  1.00  0.00     0.412 C 
ATOM     17  N   UNL     1      -1.045  -4.166   3.233  1.00  0.00    -0.321 N 
ATOM     18  H   UNL     1      -0.075  -4.329   3.280  1.00  0.00     0.167 HD
ATOM     19  O   UNL     1      -1.335  -5.651   4.911  1.00  0.00    -0.224 OA
BRANCH  17  20
ATOM     20  C   UNL     1      -1.495  -3.208   2.242  1.00  0.00     0.119 C 
BRANCH  20  21
ATOM     21  C   UNL     1      -0.914  -1.814   2.482  1.00  0.00     0.021 C 
BRANCH  21  22
ATOM     22  C   UNL     1       0.614  -1.724   2.376  1.00  0.00     0.002 C 
BRANCH  22  23
ATOM     23  C   UNL     1       1.212  -2.172   1.038  1.00  0.00    -0.000 C 
BRANCH  23  24
ATOM     24  C   UNL     1       0.724  -1.403  -0.192  1.00  0.00    -0.003 C 
ATOM     25  C   UNL     1       1.094   0.072  -0.166  1.00  0.00     0.004 C 
ENDBRANCH  23  24
ENDBRANCH  22  23
ENDBRANCH  21  22
ENDBRANCH  20  21
ENDBRANCH  17  20
ENDBRANCH  15  16
ENDBRANCH  10  15
ENDBRANCH   4   9
BRANCH   6  26
ATOM     26  C   UNL     1      -4.533  -2.689   8.448  1.00  0.00     0.417 C 
ATOM     27  F   UNL     1      -4.938  -1.600   9.171  1.00  0.00    -0.166 F 
ATOM     28  F   UNL     1      -3.220  -2.458   8.160  1.00  0.00    -0.166 F 
ATOM     29  F   UNL     1      -5.205  -2.586   7.269  1.00  0.00    -0.166 F 
ENDBRANCH   6  26
ENDBRANCH   1   3
BRANCH   1  30
ATOM     30  C   UNL     1      -3.777  -5.589  13.663  1.00  0.00     0.313 C 
ATOM     31  O   UNL     1      -3.352  -5.135  14.722  1.00  0.00    -0.252 OA
BRANCH  30  32
ATOM     32  O   UNL     1      -3.298  -6.709  13.064  1.00  0.00    -0.462 OA
BRANCH  32  33
ATOM     33  C   UNL     1      -2.152  -7.335  13.673  1.00  0.00     0.274 C 
BRANCH  33  34
ATOM     34  C   UNL     1      -0.858  -6.956  12.949  1.00  0.00     0.275 C 
BRANCH  34  35
ATOM     35  O   UNL     1      -0.511  -5.577  13.180  1.00  0.00    -0.458 OA
BRANCH  35  36
ATOM     36  C   UNL     1      -0.934  -4.716  12.227  1.00  0.00     0.338 C 
ATOM     37  O   UNL     1      -1.525  -4.980  11.195  1.00  0.00    -0.246 OA
BRANCH  36  38
ATOM     38  C   UNL     1      -0.692  -3.335  12.664  1.00  0.00     0.060 A 
ATOM     39  C   UNL     1      -1.802  -2.522  12.905  1.00  0.00     0.016 A 
ATOM     40  C   UNL     1       0.600  -2.814  12.733  1.00  0.00     0.016 A 
ATOM     41  C   UNL     1      -1.632  -1.173  13.191  1.00  0.00     0.010 A 
ATOM     42  C   UNL     1       0.772  -1.458  13.030  1.00  0.00     0.010 A 
ATOM     43  C   UNL     1      -0.343  -0.627  13.240  1.00  0.00    -0.014 A 
BRANCH  43  44
ATOM     44  C   UNL     1      -0.176   0.831  13.442  1.00  0.00     0.031 A 
ATOM     45  C   UNL     1       0.208   1.702  12.281  1.00  0.00     0.074 A 
ATOM     46  C   UNL     1      -0.402   1.373  14.652  1.00  0.00     0.049 A 
ATOM     47  N   UNL     1       0.476   2.983  12.261  1.00  0.00    -0.248 NA
ATOM     48  C   UNL     1       0.305   1.044  10.969  1.00  0.00     0.031 C 
ATOM     49  C   UNL     1      -0.828   0.636  15.842  1.00  0.00     0.029 A 
ATOM     50  N   UNL     1      -0.303   2.673  15.079  1.00  0.00    -0.354 N 
ATOM     51  C   UNL     1       0.795   3.280  10.943  1.00  0.00     0.074 A 
ATOM     52  C   UNL     1       0.701   2.045  10.195  1.00  0.00     0.031 C 
ATOM     53  C   UNL     1      -0.956   1.497  16.865  1.00  0.00     0.029 A 
ATOM     54  C   UNL     1      -0.580   2.834  16.414  1.00  0.00     0.049 A 
ATOM     55  H   UNL     1      -0.059   3.419  14.484  1.00  0.00     0.167 HD
ATOM     56  C   UNL     1       1.132   4.477  10.406  1.00  0.00     0.037 A 
ATOM     57  C   UNL     1      -0.511   3.932  17.189  1.00  0.00     0.037 A 
ATOM     58  C   UNL     1       1.203   5.708  11.149  1.00  0.00     0.049 A 
ATOM     59  C   UNL     1      -0.087   5.239  16.579  1.00  0.00     0.074 A 
ATOM     60  C   UNL     1       1.526   6.974  10.693  1.00  0.00     0.029 A 
ATOM     61  N   UNL     1       0.942   5.826  12.505  1.00  0.00    -0.354 N 
ATOM     62  N   UNL     1       0.226   5.507  15.334  1.00  0.00    -0.248 NA
ATOM     63  C   UNL     1       0.001   6.394  17.483  1.00  0.00     0.031 C 
ATOM     64  C   UNL     1       1.492   7.853  11.781  1.00  0.00     0.029 A 
ATOM     65  C   UNL     1       1.112   7.141  12.907  1.00  0.00     0.049 A 
ATOM     66  H   UNL     1       0.676   5.085  13.096  1.00  0.00     0.167 HD
ATOM     67  C   UNL     1       0.528   6.862  15.301  1.00  0.00     0.074 A 
ATOM     68  C   UNL     1       0.348   7.364  16.648  1.00  0.00     0.031 C 
ATOM     69  C   UNL     1       0.922   7.622  14.251  1.00  0.00     0.037 A 
BRANCH  56  70
ATOM     70  C   UNL     1       1.475   4.506   8.947  1.00  0.00     0.057 A 
ATOM     71  C   UNL     1       0.495   4.402   7.953  1.00  0.00     0.134 A 
ATOM     72  C   UNL     1       2.803   4.668   8.533  1.00  0.00     0.134 A 
ATOM     73  F   UNL     1      -0.794   4.230   8.285  1.00  0.00    -0.206 F 
ATOM     74  C   UNL     1       0.826   4.439   6.597  1.00  0.00     0.040 A 
ATOM     75  C   UNL     1       3.144   4.729   7.181  1.00  0.00     0.040 A 
ATOM     76  F   UNL     1       3.790   4.778   9.436  1.00  0.00    -0.206 F 
ATOM     77  C   UNL     1       2.153   4.609   6.209  1.00  0.00     0.006 A 
ENDBRANCH  56  70
BRANCH  57  78
ATOM     78  C   UNL     1      -0.830   3.839  18.635  1.00  0.00     0.057 A 
ATOM     79  C   UNL     1      -1.986   4.426  19.161  1.00  0.00     0.134 A 
ATOM     80  C   UNL     1       0.018   3.171  19.525  1.00  0.00     0.134 A 
ATOM     81  F   UNL     1      -2.825   5.100  18.360  1.00  0.00    -0.206 F 
ATOM     82  C   UNL     1      -2.282   4.362  20.523  1.00  0.00     0.040 A 
ATOM     83  C   UNL     1      -0.276   3.079  20.886  1.00  0.00     0.040 A 
ATOM     84  F   UNL     1       1.142   2.588  19.082  1.00  0.00    -0.206 F 
ATOM     85  C   UNL     1      -1.427   3.682  21.389  1.00  0.00     0.006 A 
ENDBRANCH  57  78
BRANCH  69  86
ATOM     86  C   UNL     1       1.155   9.079  14.512  1.00  0.00     0.057 A 
ATOM     87  C   UNL     1       2.295   9.533  15.185  1.00  0.00     0.134 A 
ATOM     88  C   UNL     1       0.245  10.040  14.053  1.00  0.00     0.134 A 
ATOM     89  F   UNL     1       3.196   8.661  15.661  1.00  0.00    -0.206 F 
ATOM     90  C   UNL     1       2.514  10.893  15.409  1.00  0.00     0.040 A 
ATOM     91  C   UNL     1       0.464  11.404  14.252  1.00  0.00     0.040 A 
ATOM     92  F   UNL     1      -0.864   9.670  13.395  1.00  0.00    -0.206 F 
ATOM     93  C   UNL     1       1.600  11.833  14.937  1.00  0.00     0.006 A 
ENDBRANCH  69  86
ENDBRANCH  43  44
ENDBRANCH  36  38
ENDBRANCH  35  36
ENDBRANCH  34  35
ENDBRANCH  33  34
ENDBRANCH  32  33
ENDBRANCH  30  32
ENDBRANCH   1  30
TORSDOF 21
