REMARK SMILES Cc1cc2c(c(C)c1Cl)C=C(C(=O)OCCOC(=O)c1ccc(-c3c4nc(c(-c5c(F)cccc5F)c5ccc([nH]5)c(-c5c(F)cccc5F)c5nc(c(-c6c(F)cccc6F)c6ccc3[nH]6)C=C5)C=C4)cc1)[C@@H](C(F)(F)F)O2
REMARK SMILES IDX 16 1 15 2 14 3 12 4 13 5 11 6 1 7 2 8 3 9 8 10 4 11 6 12
REMARK SMILES IDX 9 13 5 14 79 15 7 16 10 17 74 18 75 19 76 20 77 21 78 22
REMARK SMILES IDX 17 23 18 24 19 25 20 26 21 27 73 28 22 29 72 30 23 31 24 32
REMARK SMILES IDX 25 33 66 34 26 35 71 36 65 37 67 38 27 39 70 40 64 41 63 42
REMARK SMILES IDX 28 44 54 45 37 46 53 47 38 48 41 49 52 50 68 51 39 52 40 53
REMARK SMILES IDX 51 55 69 56 42 57 29 58 30 59 35 60 31 61 32 62 34 63 36 64
REMARK SMILES IDX 33 65 55 66 56 67 61 68 57 69 58 70 60 71 62 72 59 73 43 74
REMARK SMILES IDX 44 75 49 76 45 77 46 78 48 79 50 80 47 81
REMARK H PARENT 67 43 41 54
REMARK Flexibility Score: inf
ROOT
ATOM      1  C   UNL     1      -2.909   4.639  -8.607  1.00  0.00     0.275 C 
ENDROOT
BRANCH   1   2
ATOM      2  C   UNL     1      -2.056   3.384  -8.786  1.00  0.00     0.275 C 
BRANCH   2   3
ATOM      3  O   UNL     1      -1.887   2.690  -7.530  1.00  0.00    -0.459 OA
BRANCH   3   4
ATOM      4  C   UNL     1      -0.686   2.855  -6.932  1.00  0.00     0.338 C 
ATOM      5  O   UNL     1       0.258   3.507  -7.349  1.00  0.00    -0.246 OA
BRANCH   4   6
ATOM      6  C   UNL     1      -0.646   2.130  -5.650  1.00  0.00     0.087 C 
ATOM      7  C   UNL     1       0.893  -0.353   0.135  1.00  0.00     0.046 C 
ATOM      8  C   UNL     1       0.541   0.527  -1.034  1.00  0.00    -0.028 A 
ATOM      9  C   UNL     1      -0.008  -0.060  -2.181  1.00  0.00     0.052 A 
ATOM     10  C   UNL     1       0.776   1.916  -1.022  1.00  0.00     0.047 A 
ATOM     11  C   UNL     1      -0.286   0.704  -3.312  1.00  0.00     0.128 A 
ATOM     12  C   UNL     1       0.472   2.714  -2.148  1.00  0.00    -0.021 A 
ATOM     13  Cl  UNL     1       1.473   2.625   0.405  1.00  0.00    -0.084 Cl
ATOM     14  C   UNL     1      -0.036   2.080  -3.313  1.00  0.00     0.022 A 
ATOM     15  O   UNL     1      -0.816   0.013  -4.367  1.00  0.00    -0.475 OA
ATOM     16  C   UNL     1       0.705   4.208  -2.142  1.00  0.00     0.047 C 
ATOM     17  C   UNL     1      -0.269   2.806  -4.559  1.00  0.00     0.027 C 
ATOM     18  C   UNL     1      -0.880   0.652  -5.668  1.00  0.00     0.316 C 
BRANCH  18  19
ATOM     19  C   UNL     1       0.085  -0.065  -6.627  1.00  0.00     0.430 C 
ATOM     20  F   UNL     1      -0.111  -1.405  -6.613  1.00  0.00    -0.167 F 
ATOM     21  F   UNL     1      -0.101   0.338  -7.908  1.00  0.00    -0.167 F 
ATOM     22  F   UNL     1       1.380   0.162  -6.314  1.00  0.00    -0.167 F 
ENDBRANCH  18  19
ENDBRANCH   4   6
ENDBRANCH   3   4
ENDBRANCH   2   3
ENDBRANCH   1   2
BRANCH   1  23
ATOM     23  O   UNL     1      -2.203   5.591  -7.791  1.00  0.00    -0.458 OA
BRANCH  23  24
ATOM     24  C   UNL     1      -2.745   5.846  -6.579  1.00  0.00     0.338 C 
ATOM     25  O   UNL     1      -3.792   5.416  -6.127  1.00  0.00    -0.246 OA
BRANCH  24  26
ATOM     26  C   UNL     1      -1.839   6.707  -5.799  1.00  0.00     0.060 A 
ATOM     27  C   UNL     1      -0.529   6.297  -5.582  1.00  0.00     0.016 A 
ATOM     28  C   UNL     1      -2.332   7.832  -5.139  1.00  0.00     0.016 A 
ATOM     29  C   UNL     1       0.236   6.908  -4.593  1.00  0.00     0.010 A 
ATOM     30  C   UNL     1      -1.507   8.530  -4.246  1.00  0.00     0.010 A 
ATOM     31  C   UNL     1      -0.232   8.041  -3.911  1.00  0.00    -0.014 A 
BRANCH  31  32
ATOM     32  C   UNL     1       0.588   8.654  -2.821  1.00  0.00     0.031 A 
ATOM     33  C   UNL     1       0.001   8.862  -1.443  1.00  0.00     0.074 A 
ATOM     34  C   UNL     1       1.882   8.976  -3.030  1.00  0.00     0.049 A 
ATOM     35  N   UNL     1       0.503   9.506  -0.418  1.00  0.00    -0.248 NA
ATOM     36  C   UNL     1      -1.330   8.288  -1.187  1.00  0.00     0.031 C 
ATOM     37  C   UNL     1       2.610   8.792  -4.288  1.00  0.00     0.029 A 
ATOM     38  N   UNL     1       2.830   9.497  -2.181  1.00  0.00    -0.354 N 
ATOM     39  C   UNL     1      -0.473   9.470   0.572  1.00  0.00     0.074 A 
ATOM     40  C   UNL     1      -1.601   8.750   0.026  1.00  0.00     0.031 C 
ATOM     41  C   UNL     1       3.901   9.102  -4.103  1.00  0.00     0.029 A 
ATOM     42  C   UNL     1       4.075   9.623  -2.752  1.00  0.00     0.049 A 
ATOM     43  H   UNL     1       2.636   9.755  -1.251  1.00  0.00     0.167 HD
ATOM     44  C   UNL     1      -0.430   9.983   1.826  1.00  0.00     0.037 A 
ATOM     45  C   UNL     1       5.223  10.134  -2.268  1.00  0.00     0.037 A 
ATOM     46  C   UNL     1       0.723  10.624   2.402  1.00  0.00     0.049 A 
ATOM     47  C   UNL     1       5.236  10.732  -0.891  1.00  0.00     0.074 A 
ATOM     48  C   UNL     1       0.867  11.154   3.673  1.00  0.00     0.029 A 
ATOM     49  N   UNL     1       1.937  10.796   1.756  1.00  0.00    -0.354 N 
ATOM     50  N   UNL     1       4.279  10.760   0.003  1.00  0.00    -0.248 NA
ATOM     51  C   UNL     1       6.473  11.407  -0.472  1.00  0.00     0.031 C 
ATOM     52  C   UNL     1       2.158  11.678   3.784  1.00  0.00     0.029 A 
ATOM     53  C   UNL     1       2.829  11.441   2.596  1.00  0.00     0.049 A 
ATOM     54  H   UNL     1       2.136  10.503   0.838  1.00  0.00     0.167 HD
ATOM     55  C   UNL     1       4.794  11.458   1.087  1.00  0.00     0.074 A 
ATOM     56  C   UNL     1       6.157  11.811   0.751  1.00  0.00     0.031 C 
ATOM     57  C   UNL     1       4.183  11.790   2.249  1.00  0.00     0.037 A 
BRANCH  44  58
ATOM     58  C   UNL     1      -1.670   9.890   2.667  1.00  0.00     0.057 A 
ATOM     59  C   UNL     1      -2.096   8.685   3.238  1.00  0.00     0.134 A 
ATOM     60  C   UNL     1      -2.412  11.043   2.964  1.00  0.00     0.134 A 
ATOM     61  F   UNL     1      -1.438   7.544   2.986  1.00  0.00    -0.206 F 
ATOM     62  C   UNL     1      -3.224   8.626   4.060  1.00  0.00     0.040 A 
ATOM     63  C   UNL     1      -3.525  11.000   3.805  1.00  0.00     0.040 A 
ATOM     64  F   UNL     1      -2.053  12.232   2.459  1.00  0.00    -0.206 F 
ATOM     65  C   UNL     1      -3.936   9.787   4.353  1.00  0.00     0.006 A 
ENDBRANCH  44  58
BRANCH  45  66
ATOM     66  C   UNL     1       6.445  10.140  -3.114  1.00  0.00     0.057 A 
ATOM     67  C   UNL     1       7.547   9.340  -2.793  1.00  0.00     0.134 A 
ATOM     68  C   UNL     1       6.532  10.921  -4.274  1.00  0.00     0.134 A 
ATOM     69  F   UNL     1       7.535   8.590  -1.681  1.00  0.00    -0.206 F 
ATOM     70  C   UNL     1       8.688   9.311  -3.596  1.00  0.00     0.040 A 
ATOM     71  C   UNL     1       7.655  10.880  -5.102  1.00  0.00     0.040 A 
ATOM     72  F   UNL     1       5.512  11.712  -4.636  1.00  0.00    -0.206 F 
ATOM     73  C   UNL     1       8.739  10.075  -4.762  1.00  0.00     0.006 A 
ENDBRANCH  45  66
BRANCH  57  74
ATOM     74  C   UNL     1       4.973  12.579   3.247  1.00  0.00     0.057 A 
ATOM     75  C   UNL     1       5.200  13.949   3.074  1.00  0.00     0.134 A 
ATOM     76  C   UNL     1       5.434  11.987   4.429  1.00  0.00     0.134 A 
ATOM     77  F   UNL     1       4.792  14.570   1.956  1.00  0.00    -0.206 F 
ATOM     78  C   UNL     1       5.862  14.705   4.042  1.00  0.00     0.040 A 
ATOM     79  C   UNL     1       6.079  12.736   5.414  1.00  0.00     0.040 A 
ATOM     80  F   UNL     1       5.239  10.680   4.657  1.00  0.00    -0.206 F 
ATOM     81  C   UNL     1       6.294  14.100   5.221  1.00  0.00     0.006 A 
ENDBRANCH  57  74
ENDBRANCH  31  32
ENDBRANCH  24  26
ENDBRANCH  23  24
ENDBRANCH   1  23
TORSDOF 12
