REMARK SMILES O=C(OCCOC(=O)c1ccc(S(=O)(=O)Cc2ncccn2)c(F)c1)c1ccc(-c2c3nc(c(-c4c(F)cccc4F)c4ccc([nH]4)c(-c4c(F)cccc4F)c4nc(c(-c5c(F)cccc5F)c5ccc2[nH]5)C=C4)C=C3)cc1
REMARK SMILES IDX 5 1 4 2 3 3 2 4 1 5 26 6 27 7 79 8 28 9 78 10 29 11 30 12
REMARK SMILES IDX 31 13 72 14 32 15 77 16 71 17 73 18 33 19 76 20 70 21 69 22
REMARK SMILES IDX 34 24 60 25 43 26 59 27 44 28 47 29 58 30 74 31 45 32 46 33
REMARK SMILES IDX 57 35 75 36 48 37 35 38 36 39 41 40 37 41 38 42 40 43 42 44
REMARK SMILES IDX 39 45 61 46 62 47 67 48 63 49 64 50 66 51 68 52 65 53 49 54
REMARK SMILES IDX 50 55 55 56 51 57 52 58 54 59 56 60 53 61 6 62 7 63 8 64
REMARK SMILES IDX 9 65 10 66 25 67 11 68 23 69 12 70 24 71 13 72 14 73 15 74
REMARK SMILES IDX 16 75 17 76 18 77 22 78 19 79 21 80 20 81
REMARK H PARENT 73 23 47 34
REMARK Flexibility Score: inf
ROOT
ATOM      1  C   UNL     1       3.967   1.837   1.140  1.00  0.00     0.275 C 
ENDROOT
BRANCH   1   2
ATOM      2  C   UNL     1       4.050   1.543  -0.360  1.00  0.00     0.275 C 
BRANCH   2   3
ATOM      3  O   UNL     1       2.973   0.741  -0.877  1.00  0.00    -0.458 OA
BRANCH   3   4
ATOM      4  C   UNL     1       2.875  -0.601  -1.030  1.00  0.00     0.338 C 
ATOM      5  O   UNL     1       1.964  -1.050  -1.726  1.00  0.00    -0.246 OA
BRANCH   4   6
ATOM      6  C   UNL     1       3.705  -1.587  -0.270  1.00  0.00     0.060 A 
ATOM      7  C   UNL     1       5.012  -1.390   0.174  1.00  0.00     0.016 A 
ATOM      8  C   UNL     1       3.094  -2.825   0.021  1.00  0.00     0.016 A 
ATOM      9  C   UNL     1       5.656  -2.350   0.958  1.00  0.00     0.010 A 
ATOM     10  C   UNL     1       3.724  -3.781   0.824  1.00  0.00     0.010 A 
ATOM     11  C   UNL     1       5.012  -3.541   1.302  1.00  0.00    -0.014 A 
BRANCH  11  12
ATOM     12  C   UNL     1       5.757  -4.556   2.076  1.00  0.00     0.031 A 
ATOM     13  C   UNL     1       6.349  -5.724   1.351  1.00  0.00     0.074 A 
ATOM     14  C   UNL     1       5.989  -4.365   3.388  1.00  0.00     0.049 A 
ATOM     15  N   UNL     1       7.155  -6.648   1.802  1.00  0.00    -0.248 NA
ATOM     16  C   UNL     1       6.030  -5.847  -0.082  1.00  0.00     0.031 C 
ATOM     17  C   UNL     1       5.522  -3.219   4.165  1.00  0.00     0.029 A 
ATOM     18  N   UNL     1       6.687  -5.117   4.297  1.00  0.00    -0.354 N 
ATOM     19  C   UNL     1       7.479  -7.427   0.702  1.00  0.00     0.074 A 
ATOM     20  C   UNL     1       6.735  -6.914  -0.425  1.00  0.00     0.031 C 
ATOM     21  C   UNL     1       5.915  -3.357   5.442  1.00  0.00     0.029 A 
ATOM     22  C   UNL     1       6.671  -4.598   5.570  1.00  0.00     0.049 A 
ATOM     23  H   UNL     1       7.156  -5.950   4.061  1.00  0.00     0.167 HD
ATOM     24  C   UNL     1       8.352  -8.456   0.637  1.00  0.00     0.037 A 
ATOM     25  C   UNL     1       7.213  -5.073   6.708  1.00  0.00     0.037 A 
ATOM     26  C   UNL     1       9.060  -8.978   1.774  1.00  0.00     0.049 A 
ATOM     27  C   UNL     1       8.056  -6.316   6.633  1.00  0.00     0.074 A 
ATOM     28  C   UNL     1       9.947 -10.037   1.823  1.00  0.00     0.029 A 
ATOM     29  N   UNL     1       8.944  -8.485   3.065  1.00  0.00    -0.354 N 
ATOM     30  N   UNL     1       8.394  -7.019   5.579  1.00  0.00    -0.248 NA
ATOM     31  C   UNL     1       8.616  -6.818   7.895  1.00  0.00     0.031 C 
ATOM     32  C   UNL     1      10.335 -10.212   3.155  1.00  0.00     0.029 A 
ATOM     33  C   UNL     1       9.725  -9.235   3.926  1.00  0.00     0.049 A 
ATOM     34  H   UNL     1       8.389  -7.715   3.330  1.00  0.00     0.167 HD
ATOM     35  C   UNL     1       9.230  -8.024   6.042  1.00  0.00     0.074 A 
ATOM     36  C   UNL     1       9.359  -7.832   7.472  1.00  0.00     0.031 C 
ATOM     37  C   UNL     1       9.840  -9.015   5.346  1.00  0.00     0.037 A 
BRANCH  24  38
ATOM     38  C   UNL     1       8.588  -9.072  -0.706  1.00  0.00     0.057 A 
ATOM     39  C   UNL     1       8.073 -10.335  -1.020  1.00  0.00     0.134 A 
ATOM     40  C   UNL     1       9.356  -8.422  -1.681  1.00  0.00     0.134 A 
ATOM     41  F   UNL     1       7.325 -11.005  -0.131  1.00  0.00    -0.206 F 
ATOM     42  C   UNL     1       8.325 -10.936  -2.254  1.00  0.00     0.040 A 
ATOM     43  C   UNL     1       9.600  -9.005  -2.925  1.00  0.00     0.040 A 
ATOM     44  F   UNL     1       9.858  -7.200  -1.447  1.00  0.00    -0.206 F 
ATOM     45  C   UNL     1       9.091 -10.271  -3.210  1.00  0.00     0.006 A 
ENDBRANCH  24  38
BRANCH  25  46
ATOM     46  C   UNL     1       6.995  -4.367   7.997  1.00  0.00     0.057 A 
ATOM     47  C   UNL     1       5.731  -4.334   8.600  1.00  0.00     0.134 A 
ATOM     48  C   UNL     1       8.042  -3.726   8.669  1.00  0.00     0.134 A 
ATOM     49  F   UNL     1       4.683  -4.924   8.008  1.00  0.00    -0.206 F 
ATOM     50  C   UNL     1       5.515  -3.689   9.820  1.00  0.00     0.040 A 
ATOM     51  C   UNL     1       7.846  -3.097   9.901  1.00  0.00     0.040 A 
ATOM     52  F   UNL     1       9.280  -3.733   8.153  1.00  0.00    -0.206 F 
ATOM     53  C   UNL     1       6.577  -3.075  10.478  1.00  0.00     0.006 A 
ENDBRANCH  25  46
BRANCH  37  54
ATOM     54  C   UNL     1      10.719  -9.952   6.117  1.00  0.00     0.057 A 
ATOM     55  C   UNL     1      12.110  -9.922   5.953  1.00  0.00     0.134 A 
ATOM     56  C   UNL     1      10.185 -10.927   6.967  1.00  0.00     0.134 A 
ATOM     57  F   UNL     1      12.682  -9.018   5.144  1.00  0.00    -0.206 F 
ATOM     58  C   UNL     1      12.938 -10.841   6.597  1.00  0.00     0.040 A 
ATOM     59  C   UNL     1      11.005 -11.833   7.639  1.00  0.00     0.040 A 
ATOM     60  F   UNL     1       8.861 -10.998   7.174  1.00  0.00    -0.206 F 
ATOM     61  C   UNL     1      12.385 -11.798   7.446  1.00  0.00     0.006 A 
ENDBRANCH  37  54
ENDBRANCH  11  12
ENDBRANCH   4   6
ENDBRANCH   3   4
ENDBRANCH   2   3
ENDBRANCH   1   2
BRANCH   1  62
ATOM     62  O   UNL     1       3.570   0.703   1.925  1.00  0.00    -0.458 OA
BRANCH  62  63
ATOM     63  C   UNL     1       2.243   0.642   2.201  1.00  0.00     0.338 C 
ATOM     64  O   UNL     1       1.380   1.443   1.887  1.00  0.00    -0.246 OA
BRANCH  63  65
ATOM     65  C   UNL     1       1.948  -0.647   2.843  1.00  0.00     0.063 A 
ATOM     66  C   UNL     1       2.498  -0.988   4.082  1.00  0.00     0.017 A 
ATOM     67  C   UNL     1       1.111  -1.535   2.166  1.00  0.00     0.056 A 
ATOM     68  C   UNL     1       2.201  -2.234   4.643  1.00  0.00     0.024 A 
ATOM     69  C   UNL     1       0.891  -2.802   2.693  1.00  0.00     0.142 A 
ATOM     70  C   UNL     1       1.403  -3.144   3.936  1.00  0.00     0.103 A 
ATOM     71  F   UNL     1       0.198  -3.680   1.957  1.00  0.00    -0.206 F 
BRANCH  70  72
ATOM     72  S   UNL     1       1.049  -4.711   4.671  1.00  0.00     0.188 S 
ATOM     73  O   UNL     1       2.135  -5.570   4.222  1.00  0.00    -0.223 OA
ATOM     74  O   UNL     1       0.875  -4.475   6.096  1.00  0.00    -0.223 OA
BRANCH  72  75
ATOM     75  C   UNL     1      -0.432  -5.414   4.046  1.00  0.00     0.219 C 
BRANCH  75  76
ATOM     76  C   UNL     1      -1.618  -4.508   4.116  1.00  0.00     0.143 A 
ATOM     77  N   UNL     1      -2.791  -5.073   3.755  1.00  0.00    -0.240 NA
ATOM     78  N   UNL     1      -1.479  -3.190   4.345  1.00  0.00    -0.240 NA
ATOM     79  C   UNL     1      -3.849  -4.254   3.604  1.00  0.00     0.115 A 
ATOM     80  C   UNL     1      -2.563  -2.411   4.167  1.00  0.00     0.115 A 
ATOM     81  C   UNL     1      -3.787  -2.895   3.783  1.00  0.00     0.040 A 
ENDBRANCH  75  76
ENDBRANCH  72  75
ENDBRANCH  70  72
ENDBRANCH  63  65
ENDBRANCH  62  63
ENDBRANCH   1  62
TORSDOF 14
