REMARK SMILES Cc1nn(-c2ccccc2)c(C)c1CNC(=O)[C@@H]1[C@@H](C(=O)OCCOC(=O)c2ccc(-c3c4nc(c(-c5c(F)cccc5F)c5ccc([nH]5)c(-c5c(F)cccc5F)c5nc(c(-c6c(F)cccc6F)c6ccc3[nH]6)C=C5)C=C4)cc2)[C@@H]2C=C[C@H]1C2
REMARK SMILES IDX 23 1 22 2 20 3 21 4 19 5 18 6 85 7 82 8 84 9 86 10 83 11
REMARK SMILES IDX 16 12 15 13 17 15 14 16 13 17 1 18 2 19 3 20 4 21 11 22
REMARK SMILES IDX 12 23 5 24 6 25 10 26 7 27 9 28 8 29 24 30 25 31 26 32 27 33
REMARK SMILES IDX 28 34 29 35 81 36 30 37 80 38 31 39 32 40 33 41 74 42 34 43
REMARK SMILES IDX 79 44 73 45 75 46 35 47 78 48 72 49 71 50 36 52 62 53 45 54
REMARK SMILES IDX 61 55 46 56 49 57 60 58 76 59 47 60 48 61 59 63 77 64 50 65
REMARK SMILES IDX 37 66 38 67 43 68 39 69 40 70 42 71 44 72 41 73 63 74 64 75
REMARK SMILES IDX 69 76 65 77 66 78 68 79 70 80 67 81 51 82 52 83 57 84 53 85
REMARK SMILES IDX 54 86 56 87 58 88 55 89
REMARK H PARENT 15 14 75 51 49 62
REMARK Flexibility Score: inf
ROOT
ATOM      1  C   UNL     1       2.643   6.928   3.321  1.00  0.00     0.274 C 
ENDROOT
BRANCH   1   2
ATOM      2  O   UNL     1       1.658   5.950   3.680  1.00  0.00    -0.462 OA
BRANCH   2   3
ATOM      3  C   UNL     1       0.914   5.404   2.676  1.00  0.00     0.310 C 
ATOM      4  O   UNL     1       0.805   5.878   1.564  1.00  0.00    -0.252 OA
BRANCH   3   5
ATOM      5  C   UNL     1       0.321   4.050   3.084  1.00  0.00     0.119 C 
ATOM      6  C   UNL     1      -1.205   4.071   3.352  1.00  0.00     0.100 C 
ATOM      7  C   UNL     1      -1.307   3.628   4.847  1.00  0.00     0.025 C 
ATOM      8  C   UNL     1       0.878   3.593   4.448  1.00  0.00     0.027 C 
ATOM      9  C   UNL     1      -0.830   2.205   5.018  1.00  0.00    -0.027 C 
ATOM     10  C   UNL     1      -0.080   4.310   5.423  1.00  0.00     0.017 C 
ATOM     11  C   UNL     1       0.472   2.170   4.710  1.00  0.00    -0.027 C 
BRANCH   6  12
ATOM     12  C   UNL     1      -2.251   3.291   2.561  1.00  0.00     0.224 C 
ATOM     13  N   UNL     1      -2.094   2.139   1.876  1.00  0.00    -0.352 N 
ATOM     14  H   UNL     1      -2.952   1.684   1.715  1.00  0.00     0.163 HD
ATOM     15  O   UNL     1      -3.427   3.680   2.643  1.00  0.00    -0.275 OA
BRANCH  13  16
ATOM     16  C   UNL     1      -0.981   1.411   1.324  1.00  0.00     0.155 C 
BRANCH  16  17
ATOM     17  C   UNL     1      -0.724   0.068   1.936  1.00  0.00     0.016 A 
ATOM     18  C   UNL     1       1.294  -0.574   0.382  1.00  0.00     0.069 C 
ATOM     19  C   UNL     1       0.348  -0.767   1.514  1.00  0.00     0.065 A 
ATOM     20  N   UNL     1       0.476  -1.848   2.274  1.00  0.00    -0.173 NA
ATOM     21  N   UNL     1      -0.545  -1.798   3.167  1.00  0.00    -0.237 N 
ATOM     22  C   UNL     1      -1.357  -0.680   2.932  1.00  0.00     0.046 A 
ATOM     23  C   UNL     1      -2.587  -0.383   3.715  1.00  0.00     0.067 C 
BRANCH  21  24
ATOM     24  C   UNL     1      -0.594  -2.804   4.188  1.00  0.00     0.065 A 
ATOM     25  C   UNL     1       0.594  -3.487   4.511  1.00  0.00     0.028 A 
ATOM     26  C   UNL     1      -1.757  -3.118   4.899  1.00  0.00     0.028 A 
ATOM     27  C   UNL     1       0.630  -4.403   5.567  1.00  0.00     0.002 A 
ATOM     28  C   UNL     1      -1.718  -4.038   5.953  1.00  0.00     0.002 A 
ATOM     29  C   UNL     1      -0.524  -4.667   6.297  1.00  0.00     0.000 A 
ENDBRANCH  21  24
ENDBRANCH  16  17
ENDBRANCH  13  16
ENDBRANCH   6  12
ENDBRANCH   3   5
ENDBRANCH   2   3
ENDBRANCH   1   2
BRANCH   1  30
ATOM     30  C   UNL     1       3.663   7.093   4.459  1.00  0.00     0.275 C 
BRANCH  30  31
ATOM     31  O   UNL     1       4.108   5.831   4.993  1.00  0.00    -0.458 OA
BRANCH  31  32
ATOM     32  C   UNL     1       3.389   5.432   6.067  1.00  0.00     0.338 C 
ATOM     33  O   UNL     1       2.420   6.007   6.552  1.00  0.00    -0.246 OA
BRANCH  32  34
ATOM     34  C   UNL     1       3.866   4.156   6.617  1.00  0.00     0.060 A 
ATOM     35  C   UNL     1       2.886   3.302   7.128  1.00  0.00     0.016 A 
ATOM     36  C   UNL     1       5.220   3.883   6.817  1.00  0.00     0.016 A 
ATOM     37  C   UNL     1       3.222   2.227   7.906  1.00  0.00     0.010 A 
ATOM     38  C   UNL     1       5.570   2.822   7.649  1.00  0.00     0.010 A 
ATOM     39  C   UNL     1       4.558   2.055   8.243  1.00  0.00    -0.014 A 
BRANCH  39  40
ATOM     40  C   UNL     1       4.754   1.177   9.386  1.00  0.00     0.031 A 
ATOM     41  C   UNL     1       4.439  -0.265   9.189  1.00  0.00     0.074 A 
ATOM     42  C   UNL     1       5.082   1.715  10.575  1.00  0.00     0.049 A 
ATOM     43  N   UNL     1       3.657  -1.029   9.886  1.00  0.00    -0.248 NA
ATOM     44  C   UNL     1       5.018  -0.916   8.004  1.00  0.00     0.031 C 
ATOM     45  C   UNL     1       5.570   3.072  10.845  1.00  0.00     0.029 A 
ATOM     46  N   UNL     1       5.155   1.114  11.792  1.00  0.00    -0.354 N 
ATOM     47  C   UNL     1       3.764  -2.299   9.322  1.00  0.00     0.074 A 
ATOM     48  C   UNL     1       4.532  -2.151   8.113  1.00  0.00     0.031 C 
ATOM     49  C   UNL     1       6.141   3.095  12.067  1.00  0.00     0.029 A 
ATOM     50  C   UNL     1       5.961   1.794  12.687  1.00  0.00     0.049 A 
ATOM     51  H   UNL     1       4.681   0.280  12.014  1.00  0.00     0.167 HD
ATOM     52  C   UNL     1       3.374  -3.428   9.972  1.00  0.00     0.037 A 
ATOM     53  C   UNL     1       6.571   1.260  13.770  1.00  0.00     0.037 A 
ATOM     54  C   UNL     1       2.371  -3.170  10.965  1.00  0.00     0.049 A 
ATOM     55  C   UNL     1       5.868   0.001  14.123  1.00  0.00     0.074 A 
ATOM     56  C   UNL     1       1.080  -2.676  10.932  1.00  0.00     0.029 A 
ATOM     57  N   UNL     1       2.724  -3.181  12.291  1.00  0.00    -0.354 N 
ATOM     58  N   UNL     1       4.666  -0.053  14.628  1.00  0.00    -0.248 NA
ATOM     59  C   UNL     1       6.338  -1.233  13.507  1.00  0.00     0.031 C 
ATOM     60  C   UNL     1       0.915  -1.976  12.162  1.00  0.00     0.029 A 
ATOM     61  C   UNL     1       2.114  -2.095  12.864  1.00  0.00     0.049 A 
ATOM     62  H   UNL     1       3.302  -3.839  12.741  1.00  0.00     0.167 HD
ATOM     63  C   UNL     1       4.084  -1.172  14.048  1.00  0.00     0.074 A 
ATOM     64  C   UNL     1       5.188  -1.908  13.441  1.00  0.00     0.031 C 
ATOM     65  C   UNL     1       2.733  -1.265  13.867  1.00  0.00     0.037 A 
BRANCH  52  66
ATOM     66  C   UNL     1       4.142  -4.723   9.905  1.00  0.00     0.057 A 
ATOM     67  C   UNL     1       3.599  -5.893  10.464  1.00  0.00     0.134 A 
ATOM     68  C   UNL     1       5.510  -4.798   9.568  1.00  0.00     0.134 A 
ATOM     69  F   UNL     1       2.315  -5.943  10.848  1.00  0.00    -0.206 F 
ATOM     70  C   UNL     1       4.377  -7.029  10.727  1.00  0.00     0.040 A 
ATOM     71  C   UNL     1       6.282  -5.943   9.779  1.00  0.00     0.040 A 
ATOM     72  F   UNL     1       6.193  -3.741   9.112  1.00  0.00    -0.206 F 
ATOM     73  C   UNL     1       5.724  -7.054  10.389  1.00  0.00     0.006 A 
ENDBRANCH  52  66
BRANCH  53  74
ATOM     74  C   UNL     1       7.939   1.592  14.228  1.00  0.00     0.057 A 
ATOM     75  C   UNL     1       8.371   1.275  15.519  1.00  0.00     0.134 A 
ATOM     76  C   UNL     1       8.934   2.043  13.337  1.00  0.00     0.134 A 
ATOM     77  F   UNL     1       7.513   0.775  16.419  1.00  0.00    -0.206 F 
ATOM     78  C   UNL     1       9.711   1.418  15.908  1.00  0.00     0.040 A 
ATOM     79  C   UNL     1      10.267   2.211  13.716  1.00  0.00     0.040 A 
ATOM     80  F   UNL     1       8.667   2.262  12.041  1.00  0.00    -0.206 F 
ATOM     81  C   UNL     1      10.662   1.890  15.006  1.00  0.00     0.006 A 
ENDBRANCH  53  74
BRANCH  65  82
ATOM     82  C   UNL     1       1.866  -0.224  14.510  1.00  0.00     0.057 A 
ATOM     83  C   UNL     1       1.902   1.130  14.145  1.00  0.00     0.134 A 
ATOM     84  C   UNL     1       0.858  -0.617  15.396  1.00  0.00     0.134 A 
ATOM     85  F   UNL     1       2.761   1.571  13.216  1.00  0.00    -0.206 F 
ATOM     86  C   UNL     1       1.007   2.060  14.678  1.00  0.00     0.040 A 
ATOM     87  C   UNL     1      -0.063   0.298  15.913  1.00  0.00     0.040 A 
ATOM     88  F   UNL     1       0.719  -1.909  15.734  1.00  0.00    -0.206 F 
ATOM     89  C   UNL     1       0.017   1.644  15.563  1.00  0.00     0.006 A 
ENDBRANCH  65  82
ENDBRANCH  39  40
ENDBRANCH  32  34
ENDBRANCH  31  32
ENDBRANCH  30  31
ENDBRANCH   1  30
TORSDOF 15
