REMARK SMILES CC1=C(C(=O)OCCOC(=O)c2ccc(-c3c4nc(c(-c5c(F)cccc5F)c5ccc([nH]5)c(-c5c(F)cccc5F)c5nc(c(-c6c(F)cccc6F)c6ccc3[nH]6)C=C5)C=C4)cc2)N2C(=O)[C@H](NC(=O)c3c(Cl)c(C(F)(F)F)nn3C)[C@@H]2SC1
REMARK SMILES IDX 7 1 6 2 4 3 5 4 3 5 1 6 2 7 86 8 66 9 85 10 67 11 84 12
REMARK SMILES IDX 68 13 69 14 70 15 71 16 72 18 73 19 74 20 82 21 75 22 76 23
REMARK SMILES IDX 81 24 83 25 77 26 78 27 79 28 80 29 8 30 9 31 10 32 11 33
REMARK SMILES IDX 12 34 13 35 65 36 14 37 64 38 15 39 16 40 17 41 58 42 18 43
REMARK SMILES IDX 63 44 57 45 59 46 19 47 62 48 56 49 55 50 20 52 46 53 29 54
REMARK SMILES IDX 45 55 30 56 33 57 44 58 60 59 31 60 32 61 43 63 61 64 34 65
REMARK SMILES IDX 21 66 22 67 27 68 23 69 24 70 26 71 28 72 25 73 47 74 48 75
REMARK SMILES IDX 53 76 49 77 50 78 52 79 54 80 51 81 35 82 36 83 41 84 37 85
REMARK SMILES IDX 38 86 40 87 42 88 39 89
REMARK H PARENT 70 17 59 51 33 62
REMARK Flexibility Score: inf
ROOT
ATOM      1  C   UNL     1       2.531  -2.830  -1.841  1.00  0.00     0.275 C 
ENDROOT
BRANCH   1   2
ATOM      2  O   UNL     1       1.875  -2.115  -0.772  1.00  0.00    -0.457 OA
BRANCH   2   3
ATOM      3  C   UNL     1       0.798  -2.709  -0.190  1.00  0.00     0.355 C 
ATOM      4  O   UNL     1       0.383  -3.817  -0.484  1.00  0.00    -0.244 OA
BRANCH   3   5
ATOM      5  C   UNL     1       0.251  -1.873   0.953  1.00  0.00     0.131 C 
ATOM      6  C   UNL     1       0.884   0.343  -0.108  1.00  0.00     0.043 C 
ATOM      7  C   UNL     1       0.288  -0.511   0.988  1.00  0.00    -0.032 C 
ATOM      8  C   UNL     1      -0.300   0.341   2.110  1.00  0.00     0.105 C 
ATOM      9  N   UNL     1      -0.284  -2.540   2.022  1.00  0.00    -0.289 N 
ATOM     10  S   UNL     1      -1.412  -0.538   3.255  1.00  0.00    -0.129 SA
ATOM     11  C   UNL     1      -0.738  -3.766   2.370  1.00  0.00     0.253 C 
ATOM     12  C   UNL     1      -0.318  -1.960   3.347  1.00  0.00     0.181 C 
ATOM     13  O   UNL     1      -0.943  -4.795   1.779  1.00  0.00    -0.272 OA
ATOM     14  C   UNL     1      -0.863  -3.313   3.860  1.00  0.00     0.206 C 
BRANCH  14  15
ATOM     15  N   UNL     1      -2.204  -3.391   4.476  1.00  0.00    -0.336 N 
ATOM     16  C   UNL     1      -2.558  -3.960   5.682  1.00  0.00     0.271 C 
ATOM     17  H   UNL     1      -2.937  -2.986   3.960  1.00  0.00     0.164 HD
ATOM     18  O   UNL     1      -3.755  -4.156   5.879  1.00  0.00    -0.267 OA
BRANCH  16  19
ATOM     19  C   UNL     1      -1.543  -4.293   6.654  1.00  0.00     0.145 A 
ATOM     20  C   UNL     1      -1.449  -5.426   7.448  1.00  0.00     0.104 A 
ATOM     21  N   UNL     1      -0.550  -3.477   7.132  1.00  0.00    -0.261 N 
ATOM     22  Cl  UNL     1      -2.489  -6.766   7.464  1.00  0.00    -0.079 Cl
ATOM     23  C   UNL     1      -0.313  -5.251   8.280  1.00  0.00     0.185 A 
ATOM     24  N   UNL     1       0.276  -4.068   8.010  1.00  0.00    -0.166 NA
ATOM     25  C   UNL     1      -0.342  -2.070   6.885  1.00  0.00     0.174 C 
BRANCH  23  26
ATOM     26  C   UNL     1       0.192  -6.191   9.341  1.00  0.00     0.436 C 
ATOM     27  F   UNL     1      -0.804  -6.584  10.182  1.00  0.00    -0.164 F 
ATOM     28  F   UNL     1       0.726  -7.312   8.806  1.00  0.00    -0.164 F 
ATOM     29  F   UNL     1       1.151  -5.632  10.128  1.00  0.00    -0.164 F 
ENDBRANCH  23  26
ENDBRANCH  16  19
ENDBRANCH  14  15
ENDBRANCH   3   5
ENDBRANCH   2   3
ENDBRANCH   1   2
BRANCH   1  30
ATOM     30  C   UNL     1       3.970  -3.195  -1.459  1.00  0.00     0.275 C 
BRANCH  30  31
ATOM     31  O   UNL     1       3.998  -4.186  -0.413  1.00  0.00    -0.458 OA
BRANCH  31  32
ATOM     32  C   UNL     1       4.080  -3.681   0.839  1.00  0.00     0.338 C 
ATOM     33  O   UNL     1       4.208  -2.509   1.157  1.00  0.00    -0.246 OA
BRANCH  32  34
ATOM     34  C   UNL     1       3.747  -4.720   1.827  1.00  0.00     0.060 A 
ATOM     35  C   UNL     1       2.602  -4.480   2.577  1.00  0.00     0.016 A 
ATOM     36  C   UNL     1       4.542  -5.831   2.107  1.00  0.00     0.016 A 
ATOM     37  C   UNL     1       2.239  -5.334   3.607  1.00  0.00     0.010 A 
ATOM     38  C   UNL     1       4.176  -6.693   3.159  1.00  0.00     0.010 A 
ATOM     39  C   UNL     1       3.023  -6.441   3.926  1.00  0.00    -0.014 A 
BRANCH  39  40
ATOM     40  C   UNL     1       2.659  -7.195   5.157  1.00  0.00     0.031 A 
ATOM     41  C   UNL     1       3.493  -7.023   6.396  1.00  0.00     0.074 A 
ATOM     42  C   UNL     1       1.505  -7.892   5.227  1.00  0.00     0.049 A 
ATOM     43  N   UNL     1       3.360  -7.580   7.572  1.00  0.00    -0.248 NA
ATOM     44  C   UNL     1       4.619  -6.082   6.302  1.00  0.00     0.031 C 
ATOM     45  C   UNL     1       0.529  -8.023   4.144  1.00  0.00     0.029 A 
ATOM     46  N   UNL     1       0.944  -8.598   6.264  1.00  0.00    -0.354 N 
ATOM     47  C   UNL     1       4.394  -7.077   8.352  1.00  0.00     0.074 A 
ATOM     48  C   UNL     1       5.159  -6.185   7.507  1.00  0.00     0.031 C 
ATOM     49  C   UNL     1      -0.505  -8.765   4.574  1.00  0.00     0.029 A 
ATOM     50  C   UNL     1      -0.243  -9.213   5.939  1.00  0.00     0.049 A 
ATOM     51  H   UNL     1       1.353  -8.659   7.158  1.00  0.00     0.167 HD
ATOM     52  C   UNL     1       4.679  -7.337   9.651  1.00  0.00     0.037 A 
ATOM     53  C   UNL     1      -1.020 -10.058   6.649  1.00  0.00     0.037 A 
ATOM     54  C   UNL     1       3.906  -8.213  10.495  1.00  0.00     0.049 A 
ATOM     55  C   UNL     1      -0.622 -10.421   8.057  1.00  0.00     0.074 A 
ATOM     56  C   UNL     1       4.125  -8.547  11.820  1.00  0.00     0.029 A 
ATOM     57  N   UNL     1       2.762  -8.893  10.099  1.00  0.00    -0.354 N 
ATOM     58  N   UNL     1       0.412 -10.018   8.755  1.00  0.00    -0.248 NA
ATOM     59  C   UNL     1      -1.501 -11.349   8.781  1.00  0.00     0.031 C 
ATOM     60  C   UNL     1       3.152  -9.476  12.206  1.00  0.00     0.029 A 
ATOM     61  C   UNL     1       2.279  -9.663  11.147  1.00  0.00     0.049 A 
ATOM     62  H   UNL     1       2.353  -8.837   9.205  1.00  0.00     0.167 HD
ATOM     63  C   UNL     1       0.280 -10.593  10.012  1.00  0.00     0.074 A 
ATOM     64  C   UNL     1      -0.935 -11.381   9.979  1.00  0.00     0.031 C 
ATOM     65  C   UNL     1       1.083 -10.469  11.098  1.00  0.00     0.037 A 
BRANCH  52  66
ATOM     66  C   UNL     1       5.928  -6.719  10.215  1.00  0.00     0.057 A 
ATOM     67  C   UNL     1       6.052  -5.343  10.453  1.00  0.00     0.134 A 
ATOM     68  C   UNL     1       7.030  -7.526  10.526  1.00  0.00     0.134 A 
ATOM     69  F   UNL     1       5.045  -4.507  10.157  1.00  0.00    -0.206 F 
ATOM     70  C   UNL     1       7.236  -4.792  10.947  1.00  0.00     0.040 A 
ATOM     71  C   UNL     1       8.207  -6.991  11.052  1.00  0.00     0.040 A 
ATOM     72  F   UNL     1       6.982  -8.852  10.327  1.00  0.00    -0.206 F 
ATOM     73  C   UNL     1       8.316  -5.617  11.254  1.00  0.00     0.006 A 
ENDBRANCH  52  66
BRANCH  53  74
ATOM     74  C   UNL     1      -2.243 -10.648   6.036  1.00  0.00     0.057 A 
ATOM     75  C   UNL     1      -3.525 -10.387   6.539  1.00  0.00     0.134 A 
ATOM     76  C   UNL     1      -2.155 -11.525   4.947  1.00  0.00     0.134 A 
ATOM     77  F   UNL     1      -3.685  -9.605   7.615  1.00  0.00    -0.206 F 
ATOM     78  C   UNL     1      -4.665 -10.979   5.992  1.00  0.00     0.040 A 
ATOM     79  C   UNL     1      -3.288 -12.103   4.372  1.00  0.00     0.040 A 
ATOM     80  F   UNL     1      -0.960 -11.835   4.422  1.00  0.00    -0.206 F 
ATOM     81  C   UNL     1      -4.549 -11.835   4.899  1.00  0.00     0.006 A 
ENDBRANCH  53  74
BRANCH  65  82
ATOM     82  C   UNL     1       0.659 -11.190  12.348  1.00  0.00     0.057 A 
ATOM     83  C   UNL     1       0.656 -12.589  12.438  1.00  0.00     0.134 A 
ATOM     84  C   UNL     1       0.254 -10.475  13.484  1.00  0.00     0.134 A 
ATOM     85  F   UNL     1       1.024 -13.339  11.387  1.00  0.00    -0.206 F 
ATOM     86  C   UNL     1       0.224 -13.248  13.590  1.00  0.00     0.040 A 
ATOM     87  C   UNL     1      -0.146 -11.122  14.654  1.00  0.00     0.040 A 
ATOM     88  F   UNL     1       0.244  -9.133  13.479  1.00  0.00    -0.206 F 
ATOM     89  C   UNL     1      -0.174 -12.514  14.705  1.00  0.00     0.006 A 
ENDBRANCH  65  82
ENDBRANCH  39  40
ENDBRANCH  32  34
ENDBRANCH  31  32
ENDBRANCH  30  31
ENDBRANCH   1  30
TORSDOF 14
