REMARK SMILES O=C(OCCOC(=O)[C@@H]1[C@@H](C(=O)Nc2cccc([N+](=O)[O-])c2)[C@H]2C=C[C@@H]1O2)c1ccc(-c2c3nc(c(-c4c(F)cccc4F)c4ccc([nH]4)c(-c4c(F)cccc4F)c4nc(c(-c5c(F)cccc5F)c5ccc2[nH]5)C=C4)C=C3)cc1
REMARK SMILES IDX 5 1 4 2 3 3 2 4 1 5 28 6 29 7 81 8 30 9 80 10 31 11 32 12
REMARK SMILES IDX 33 13 74 14 34 15 79 16 73 17 75 18 35 19 78 20 72 21 71 22
REMARK SMILES IDX 36 24 62 25 45 26 61 27 46 28 49 29 60 30 76 31 47 32 48 33
REMARK SMILES IDX 59 35 77 36 50 37 37 38 38 39 43 40 39 41 40 42 42 43 44 44
REMARK SMILES IDX 41 45 63 46 64 47 69 48 65 49 66 50 68 51 70 52 67 53 51 54
REMARK SMILES IDX 52 55 57 56 53 57 54 58 56 59 58 60 55 61 6 62 7 63 8 64
REMARK SMILES IDX 9 65 10 66 26 67 23 68 25 69 27 70 24 71 11 72 12 73 13 74
REMARK SMILES IDX 14 76 15 77 22 78 16 79 18 80 17 81 19 82 20 83 21 84
REMARK H PARENT 75 23 49 34 13 75
REMARK Flexibility Score: inf
ROOT
ATOM      1  C   UNL     1       4.013  -0.746   1.912  1.00  0.00     0.274 C 
ENDROOT
BRANCH   1   2
ATOM      2  C   UNL     1       4.370   0.691   1.504  1.00  0.00     0.275 C 
BRANCH   2   3
ATOM      3  O   UNL     1       3.464   1.329   0.591  1.00  0.00    -0.458 OA
BRANCH   3   4
ATOM      4  C   UNL     1       3.415   1.270  -0.759  1.00  0.00     0.338 C 
ATOM      5  O   UNL     1       2.700   2.063  -1.367  1.00  0.00    -0.246 OA
BRANCH   4   6
ATOM      6  C   UNL     1       4.080   0.185  -1.552  1.00  0.00     0.060 A 
ATOM      7  C   UNL     1       5.240  -0.517  -1.205  1.00  0.00     0.016 A 
ATOM      8  C   UNL     1       3.448  -0.168  -2.750  1.00  0.00     0.016 A 
ATOM      9  C   UNL     1       5.677  -1.631  -1.937  1.00  0.00     0.010 A 
ATOM     10  C   UNL     1       3.916  -1.240  -3.512  1.00  0.00     0.010 A 
ATOM     11  C   UNL     1       5.006  -2.017  -3.093  1.00  0.00    -0.014 A 
BRANCH  11  12
ATOM     12  C   UNL     1       5.568  -3.063  -3.986  1.00  0.00     0.031 A 
ATOM     13  C   UNL     1       6.209  -2.574  -5.258  1.00  0.00     0.074 A 
ATOM     14  C   UNL     1       5.471  -4.384  -3.711  1.00  0.00     0.049 A 
ATOM     15  N   UNL     1       6.632  -3.250  -6.290  1.00  0.00    -0.248 NA
ATOM     16  C   UNL     1       6.363  -1.111  -5.394  1.00  0.00     0.031 C 
ATOM     17  C   UNL     1       4.863  -4.972  -2.513  1.00  0.00     0.029 A 
ATOM     18  N   UNL     1       5.834  -5.487  -4.455  1.00  0.00    -0.354 N 
ATOM     19  C   UNL     1       7.107  -2.298  -7.186  1.00  0.00     0.074 A 
ATOM     20  C   UNL     1       6.841  -0.998  -6.622  1.00  0.00     0.031 C 
ATOM     21  C   UNL     1       4.836  -6.316  -2.634  1.00  0.00     0.029 A 
ATOM     22  C   UNL     1       5.416  -6.692  -3.920  1.00  0.00     0.049 A 
ATOM     23  H   UNL     1       6.346  -5.422  -5.293  1.00  0.00     0.167 HD
ATOM     24  C   UNL     1       7.750  -2.496  -8.358  1.00  0.00     0.037 A 
ATOM     25  C   UNL     1       5.459  -7.938  -4.445  1.00  0.00     0.037 A 
ATOM     26  C   UNL     1       8.036  -3.799  -8.883  1.00  0.00     0.049 A 
ATOM     27  C   UNL     1       6.075  -8.112  -5.807  1.00  0.00     0.074 A 
ATOM     28  C   UNL     1       8.768  -4.136 -10.005  1.00  0.00     0.029 A 
ATOM     29  N   UNL     1       7.588  -4.982  -8.316  1.00  0.00    -0.354 N 
ATOM     30  N   UNL     1       6.558  -7.203  -6.619  1.00  0.00    -0.248 NA
ATOM     31  C   UNL     1       6.164  -9.488  -6.315  1.00  0.00     0.031 C 
ATOM     32  C   UNL     1       8.714  -5.524 -10.149  1.00  0.00     0.029 A 
ATOM     33  C   UNL     1       7.990  -6.052  -9.090  1.00  0.00     0.049 A 
ATOM     34  H   UNL     1       7.062  -5.049  -7.487  1.00  0.00     0.167 HD
ATOM     35  C   UNL     1       7.044  -7.899  -7.718  1.00  0.00     0.074 A 
ATOM     36  C   UNL     1       6.773  -9.302  -7.477  1.00  0.00     0.031 C 
ATOM     37  C   UNL     1       7.682  -7.431  -8.817  1.00  0.00     0.037 A 
BRANCH  24  38
ATOM     38  C   UNL     1       8.195  -1.288  -9.127  1.00  0.00     0.057 A 
ATOM     39  C   UNL     1       9.233  -0.462  -8.673  1.00  0.00     0.134 A 
ATOM     40  C   UNL     1       7.600  -0.961 -10.351  1.00  0.00     0.134 A 
ATOM     41  F   UNL     1       9.833  -0.709  -7.498  1.00  0.00    -0.206 F 
ATOM     42  C   UNL     1       9.648   0.656  -9.398  1.00  0.00     0.040 A 
ATOM     43  C   UNL     1       8.023   0.139 -11.098  1.00  0.00     0.040 A 
ATOM     44  F   UNL     1       6.599  -1.708 -10.842  1.00  0.00    -0.206 F 
ATOM     45  C   UNL     1       9.047   0.954 -10.619  1.00  0.00     0.006 A 
ENDBRANCH  24  38
BRANCH  25  46
ATOM     46  C   UNL     1       4.903  -9.134  -3.745  1.00  0.00     0.057 A 
ATOM     47  C   UNL     1       5.679  -9.898  -2.870  1.00  0.00     0.134 A 
ATOM     48  C   UNL     1       3.626  -9.633  -4.037  1.00  0.00     0.134 A 
ATOM     49  F   UNL     1       6.960  -9.569  -2.647  1.00  0.00    -0.206 F 
ATOM     50  C   UNL     1       5.182 -11.062  -2.267  1.00  0.00     0.040 A 
ATOM     51  C   UNL     1       3.089 -10.750  -3.394  1.00  0.00     0.040 A 
ATOM     52  F   UNL     1       2.917  -9.121  -5.048  1.00  0.00    -0.206 F 
ATOM     53  C   UNL     1       3.870 -11.471  -2.501  1.00  0.00     0.006 A 
ENDBRANCH  25  46
BRANCH  37  54
ATOM     54  C   UNL     1       8.146  -8.442  -9.818  1.00  0.00     0.057 A 
ATOM     55  C   UNL     1       7.256  -9.073 -10.692  1.00  0.00     0.134 A 
ATOM     56  C   UNL     1       9.511  -8.728  -9.951  1.00  0.00     0.134 A 
ATOM     57  F   UNL     1       5.936  -8.850 -10.597  1.00  0.00    -0.206 F 
ATOM     58  C   UNL     1       7.708  -9.963 -11.665  1.00  0.00     0.040 A 
ATOM     59  C   UNL     1       9.977  -9.593 -10.938  1.00  0.00     0.040 A 
ATOM     60  F   UNL     1      10.411  -8.146  -9.143  1.00  0.00    -0.206 F 
ATOM     61  C   UNL     1       9.073 -10.214 -11.797  1.00  0.00     0.006 A 
ENDBRANCH  37  54
ENDBRANCH  11  12
ENDBRANCH   4   6
ENDBRANCH   3   4
ENDBRANCH   2   3
ENDBRANCH   1   2
BRANCH   1  62
ATOM     62  O   UNL     1       3.606  -1.616   0.837  1.00  0.00    -0.462 OA
BRANCH  62  63
ATOM     63  C   UNL     1       2.277  -1.532   0.511  1.00  0.00     0.312 C 
ATOM     64  O   UNL     1       1.507  -0.762   1.053  1.00  0.00    -0.252 OA
BRANCH  63  65
ATOM     65  C   UNL     1       1.899  -2.559  -0.559  1.00  0.00     0.147 C 
ATOM     66  C   UNL     1       0.499  -2.257  -1.182  1.00  0.00     0.129 C 
ATOM     67  C   UNL     1       1.605  -3.817   0.257  1.00  0.00     0.157 C 
ATOM     68  C   UNL     1      -0.372  -3.362  -0.561  1.00  0.00     0.155 C 
ATOM     69  C   UNL     1       1.216  -4.994  -0.577  1.00  0.00     0.004 C 
ATOM     70  O   UNL     1       0.272  -3.463   0.749  1.00  0.00    -0.365 OA
ATOM     71  C   UNL     1      -0.041  -4.752  -0.966  1.00  0.00     0.004 C 
BRANCH  66  72
ATOM     72  C   UNL     1       0.402  -1.790  -2.651  1.00  0.00     0.231 C 
ATOM     73  O   UNL     1      -0.026  -0.639  -2.849  1.00  0.00    -0.274 OA
ATOM     74  N   UNL     1       0.865  -2.373  -3.786  1.00  0.00    -0.325 N 
ATOM     75  H   UNL     1       1.050  -1.712  -4.492  1.00  0.00     0.169 HD
BRANCH  74  76
ATOM     76  C   UNL     1       1.143  -3.672  -4.201  1.00  0.00     0.048 A 
ATOM     77  C   UNL     1       2.174  -3.885  -5.125  1.00  0.00     0.026 A 
ATOM     78  C   UNL     1       0.354  -4.740  -3.831  1.00  0.00     0.111 A 
ATOM     79  C   UNL     1       2.568  -5.177  -5.466  1.00  0.00     0.009 A 
ATOM     80  C   UNL     1       0.782  -6.034  -4.122  1.00  0.00     0.271 A 
ATOM     81  C   UNL     1       1.900  -6.256  -4.914  1.00  0.00     0.086 A 
BRANCH  80  82
ATOM     82  N   UNL     1       0.090  -7.164  -3.524  1.00  0.00     0.062 N 
ATOM     83  O   UNL     1       0.787  -8.044  -2.999  1.00  0.00    -0.258 OA
ATOM     84  O   UNL     1      -1.148  -7.142  -3.533  1.00  0.00    -0.258 OA
ENDBRANCH  80  82
ENDBRANCH  74  76
ENDBRANCH  66  72
ENDBRANCH  63  65
ENDBRANCH  62  63
ENDBRANCH   1  62
TORSDOF 14
