REMARK SMILES Cc1c(CCC(=O)N[C@@H](C)C(=O)OCCOC(=O)c2ccc(-c3c4nc(c(-c5c(F)cccc5F)c5ccc([nH]5)c(-c5c(F)cccc5F)c5nc(c(-c6c(F)cccc6F)c6ccc3[nH]6)C=C5)C=C4)cc2)c(=O)oc2cc3oc4c(c3cc12)CCCC4
REMARK SMILES IDX 14 1 13 2 11 3 12 4 9 5 10 6 8 7 6 8 7 9 5 11 4 12 3 13 1 14
REMARK SMILES IDX 2 15 84 16 73 17 76 18 83 19 74 20 75 21 77 22 82 23 78 24
REMARK SMILES IDX 81 25 79 26 80 27 85 28 88 29 86 30 87 31 15 32 16 33 17 34
REMARK SMILES IDX 18 35 19 36 20 37 72 38 21 39 71 40 22 41 23 42 24 43 65 44
REMARK SMILES IDX 25 45 70 46 64 47 66 48 26 49 69 50 63 51 62 52 27 54 53 55
REMARK SMILES IDX 36 56 52 57 37 58 40 59 51 60 67 61 38 62 39 63 50 65 68 66
REMARK SMILES IDX 41 67 28 68 29 69 34 70 30 71 31 72 33 73 35 74 32 75 54 76
REMARK SMILES IDX 55 77 60 78 56 79 57 80 59 81 61 82 58 83 42 84 43 85 48 86
REMARK SMILES IDX 44 87 45 88 47 89 49 90 46 91
REMARK H PARENT 8 10 66 53 40 64
REMARK Flexibility Score: inf
ROOT
ATOM      1  C   UNL     1       3.457  -0.258   4.758  1.00  0.00     0.274 C 
ENDROOT
BRANCH   1   2
ATOM      2  O   UNL     1       3.165  -0.654   3.404  1.00  0.00    -0.461 OA
BRANCH   2   3
ATOM      3  C   UNL     1       2.553   0.282   2.633  1.00  0.00     0.328 C 
ATOM      4  O   UNL     1       2.203   1.387   3.027  1.00  0.00    -0.250 OA
BRANCH   3   5
ATOM      5  C   UNL     1       2.369  -0.182   1.189  1.00  0.00     0.189 C 
ATOM      6  C   UNL     1       1.922  -1.644   1.084  1.00  0.00     0.043 C 
BRANCH   5   7
ATOM      7  N   UNL     1       3.420   0.129   0.225  1.00  0.00    -0.343 N 
ATOM      8  C   UNL     1       3.257   0.909  -0.890  1.00  0.00     0.221 C 
ATOM      9  O   UNL     1       3.497   0.425  -1.996  1.00  0.00    -0.275 OA
ATOM     10  H   UNL     1       4.314  -0.251   0.387  1.00  0.00     0.164 HD
BRANCH   8  11
ATOM     11  C   UNL     1       2.919   2.383  -0.720  1.00  0.00     0.105 C 
BRANCH  11  12
ATOM     12  C   UNL     1       1.560   2.832  -1.279  1.00  0.00     0.053 C 
BRANCH  12  13
ATOM     13  C   UNL     1       0.529   2.856  -0.178  1.00  0.00     0.042 A 
ATOM     14  C   UNL     1      -0.579   0.716  -0.930  1.00  0.00     0.046 C 
ATOM     15  C   UNL     1      -0.308   1.832   0.041  1.00  0.00    -0.030 A 
ATOM     16  C   UNL     1      -0.794   1.729   1.412  1.00  0.00     0.022 A 
ATOM     17  C   UNL     1       0.503   4.053   0.720  1.00  0.00     0.339 A 
ATOM     18  C   UNL     1      -1.009   2.878   2.167  1.00  0.00     0.142 A 
ATOM     19  C   UNL     1      -0.914   0.485   2.021  1.00  0.00     0.024 A 
ATOM     20  O   UNL     1       1.271   4.992   0.541  1.00  0.00    -0.246 OA
ATOM     21  O   UNL     1      -0.506   4.099   1.686  1.00  0.00    -0.422 OA
ATOM     22  C   UNL     1      -1.674   2.854   3.403  1.00  0.00     0.095 A 
ATOM     23  C   UNL     1      -1.432   0.421   3.310  1.00  0.00     0.025 A 
ATOM     24  C   UNL     1      -1.962   1.575   3.875  1.00  0.00     0.138 A 
ATOM     25  C   UNL     1      -1.758  -0.649   4.160  1.00  0.00     0.001 A 
ATOM     26  O   UNL     1      -2.890   1.200   4.819  1.00  0.00    -0.461 OA
ATOM     27  C   UNL     1      -2.880  -0.165   4.793  1.00  0.00     0.108 A 
ATOM     28  C   UNL     1      -1.581  -2.103   3.944  1.00  0.00     0.040 C 
ATOM     29  C   UNL     1      -4.146  -0.958   4.779  1.00  0.00     0.076 C 
ATOM     30  C   UNL     1      -2.827  -2.642   3.225  1.00  0.00     0.005 C 
ATOM     31  C   UNL     1      -4.117  -1.795   3.453  1.00  0.00     0.008 C 
ENDBRANCH  12  13
ENDBRANCH  11  12
ENDBRANCH   8  11
ENDBRANCH   5   7
ENDBRANCH   3   5
ENDBRANCH   2   3
ENDBRANCH   1   2
BRANCH   1  32
ATOM     32  C   UNL     1       4.885   0.272   4.845  1.00  0.00     0.275 C 
BRANCH  32  33
ATOM     33  O   UNL     1       4.920   1.663   4.506  1.00  0.00    -0.458 OA
BRANCH  33  34
ATOM     34  C   UNL     1       5.189   1.976   3.209  1.00  0.00     0.338 C 
ATOM     35  O   UNL     1       5.464   1.243   2.300  1.00  0.00    -0.246 OA
BRANCH  34  36
ATOM     36  C   UNL     1       5.071   3.441   3.147  1.00  0.00     0.060 A 
ATOM     37  C   UNL     1       6.154   4.207   3.566  1.00  0.00     0.016 A 
ATOM     38  C   UNL     1       3.844   4.028   2.831  1.00  0.00     0.016 A 
ATOM     39  C   UNL     1       5.978   5.574   3.733  1.00  0.00     0.010 A 
ATOM     40  C   UNL     1       3.669   5.395   2.996  1.00  0.00     0.010 A 
ATOM     41  C   UNL     1       4.727   6.164   3.479  1.00  0.00    -0.014 A 
BRANCH  41  42
ATOM     42  C   UNL     1       4.562   7.586   3.802  1.00  0.00     0.031 A 
ATOM     43  C   UNL     1       3.843   8.436   2.807  1.00  0.00     0.074 A 
ATOM     44  C   UNL     1       4.523   7.947   5.101  1.00  0.00     0.049 A 
ATOM     45  N   UNL     1       2.552   8.603   2.787  1.00  0.00    -0.248 NA
ATOM     46  C   UNL     1       4.528   8.971   1.631  1.00  0.00     0.031 C 
ATOM     47  C   UNL     1       3.957   7.109   6.170  1.00  0.00     0.029 A 
ATOM     48  N   UNL     1       4.761   9.155   5.703  1.00  0.00    -0.354 N 
ATOM     49  C   UNL     1       2.239   9.205   1.580  1.00  0.00     0.074 A 
ATOM     50  C   UNL     1       3.499   9.442   0.910  1.00  0.00     0.031 C 
ATOM     51  C   UNL     1       3.736   7.882   7.251  1.00  0.00     0.029 A 
ATOM     52  C   UNL     1       4.281   9.212   7.007  1.00  0.00     0.049 A 
ATOM     53  H   UNL     1       5.222   9.903   5.259  1.00  0.00     0.167 HD
ATOM     54  C   UNL     1       0.968   9.462   1.174  1.00  0.00     0.037 A 
ATOM     55  C   UNL     1       3.870  10.345   7.634  1.00  0.00     0.037 A 
ATOM     56  C   UNL     1      -0.075   9.044   2.058  1.00  0.00     0.049 A 
ATOM     57  C   UNL     1       2.593  10.633   6.882  1.00  0.00     0.074 A 
ATOM     58  C   UNL     1      -0.895   7.945   2.194  1.00  0.00     0.029 A 
ATOM     59  N   UNL     1      -0.393   9.856   3.120  1.00  0.00    -0.354 N 
ATOM     60  N   UNL     1       1.435  10.061   7.086  1.00  0.00    -0.248 NA
ATOM     61  C   UNL     1       2.705  11.343   5.605  1.00  0.00     0.031 C 
ATOM     62  C   UNL     1      -1.325   7.955   3.556  1.00  0.00     0.029 A 
ATOM     63  C   UNL     1      -0.690   9.030   4.174  1.00  0.00     0.049 A 
ATOM     64  H   UNL     1      -0.404  10.840   3.124  1.00  0.00     0.167 HD
ATOM     65  C   UNL     1       0.783  10.099   5.850  1.00  0.00     0.074 A 
ATOM     66  C   UNL     1       1.607  10.925   4.992  1.00  0.00     0.031 C 
ATOM     67  C   UNL     1      -0.283   9.311   5.532  1.00  0.00     0.037 A 
BRANCH  54  68
ATOM     68  C   UNL     1       0.615  10.227  -0.036  1.00  0.00     0.057 A 
ATOM     69  C   UNL     1       0.198  11.556   0.116  1.00  0.00     0.134 A 
ATOM     70  C   UNL     1       0.480   9.639  -1.293  1.00  0.00     0.134 A 
ATOM     71  F   UNL     1       0.296  12.162   1.311  1.00  0.00    -0.206 F 
ATOM     72  C   UNL     1      -0.372  12.269  -0.937  1.00  0.00     0.040 A 
ATOM     73  C   UNL     1      -0.084  10.345  -2.360  1.00  0.00     0.040 A 
ATOM     74  F   UNL     1       0.848   8.366  -1.497  1.00  0.00    -0.206 F 
ATOM     75  C   UNL     1      -0.525  11.657  -2.179  1.00  0.00     0.006 A 
ENDBRANCH  54  68
BRANCH  55  76
ATOM     76  C   UNL     1       4.951  11.355   7.860  1.00  0.00     0.057 A 
ATOM     77  C   UNL     1       6.165  10.929   8.442  1.00  0.00     0.134 A 
ATOM     78  C   UNL     1       4.874  12.717   7.553  1.00  0.00     0.134 A 
ATOM     79  F   UNL     1       6.305   9.667   8.881  1.00  0.00    -0.206 F 
ATOM     80  C   UNL     1       7.268  11.773   8.588  1.00  0.00     0.040 A 
ATOM     81  C   UNL     1       5.978  13.571   7.675  1.00  0.00     0.040 A 
ATOM     82  F   UNL     1       3.735  13.269   7.116  1.00  0.00    -0.206 F 
ATOM     83  C   UNL     1       7.186  13.096   8.175  1.00  0.00     0.006 A 
ENDBRANCH  55  76
BRANCH  67  84
ATOM     84  C   UNL     1      -0.867   8.518   6.648  1.00  0.00     0.057 A 
ATOM     85  C   UNL     1      -1.655   9.141   7.619  1.00  0.00     0.134 A 
ATOM     86  C   UNL     1      -0.707   7.129   6.731  1.00  0.00     0.134 A 
ATOM     87  F   UNL     1      -1.857  10.468   7.587  1.00  0.00    -0.206 F 
ATOM     88  C   UNL     1      -2.285   8.404   8.624  1.00  0.00     0.040 A 
ATOM     89  C   UNL     1      -1.350   6.379   7.717  1.00  0.00     0.040 A 
ATOM     90  F   UNL     1       0.046   6.465   5.840  1.00  0.00    -0.206 F 
ATOM     91  C   UNL     1      -2.145   7.018   8.666  1.00  0.00     0.006 A 
ENDBRANCH  67  84
ENDBRANCH  41  42
ENDBRANCH  34  36
ENDBRANCH  33  34
ENDBRANCH  32  33
ENDBRANCH   1  32
TORSDOF 15
