REMARK SMILES O=C(OCCOC(=O)c1nnn(-c2ccc(C(F)(F)F)cc2)c1-c1cccc(Cl)c1)c1ccc(-c2c3nc(c(-c4c(F)cccc4F)c4ccc([nH]4)c(-c4c(F)cccc4F)c4nc(c(-c5c(F)cccc5F)c5ccc2[nH]5)C=C4)C=C3)cc1
REMARK SMILES IDX 4 1 3 2 2 3 1 4 31 5 32 6 84 7 33 8 83 9 34 10 35 11 36 12
REMARK SMILES IDX 77 13 37 14 82 15 76 16 78 17 38 18 81 19 75 20 74 21 39 23
REMARK SMILES IDX 65 24 48 25 64 26 49 27 52 28 63 29 79 30 50 31 51 32 62 34
REMARK SMILES IDX 80 35 53 36 40 37 41 38 46 39 42 40 43 41 45 42 47 43 44 44
REMARK SMILES IDX 66 45 67 46 72 47 68 48 69 49 71 50 73 51 70 52 54 53 55 54
REMARK SMILES IDX 60 55 56 56 57 57 59 58 61 59 58 60 5 61 6 62 7 63 8 64 9 65
REMARK SMILES IDX 10 66 23 67 11 68 12 69 24 70 25 71 30 72 26 73 28 74 27 75
REMARK SMILES IDX 29 76 13 77 14 78 22 79 15 80 21 81 16 82 17 83 18 84 19 85
REMARK SMILES IDX 20 86
REMARK H PARENT 78 22 52 33
REMARK Flexibility Score: inf
ROOT
ATOM      1  C   UNL     1       4.595  -0.762  -0.929  1.00  0.00     0.275 C 
ENDROOT
BRANCH   1   2
ATOM      2  O   UNL     1       3.450  -1.578  -0.601  1.00  0.00    -0.458 OA
BRANCH   2   3
ATOM      3  C   UNL     1       2.292  -0.964  -0.274  1.00  0.00     0.338 C 
ATOM      4  O   UNL     1       1.438  -0.642  -1.083  1.00  0.00    -0.246 OA
BRANCH   3   5
ATOM      5  C   UNL     1       2.119  -0.844   1.195  1.00  0.00     0.060 A 
ATOM      6  C   UNL     1       3.168  -1.114   2.083  1.00  0.00     0.016 A 
ATOM      7  C   UNL     1       0.864  -0.459   1.685  1.00  0.00     0.016 A 
ATOM      8  C   UNL     1       2.940  -1.091   3.448  1.00  0.00     0.010 A 
ATOM      9  C   UNL     1       0.635  -0.435   3.055  1.00  0.00     0.010 A 
ATOM     10  C   UNL     1       1.660  -0.806   3.928  1.00  0.00    -0.014 A 
BRANCH  10  11
ATOM     11  C   UNL     1       1.440  -0.959   5.361  1.00  0.00     0.031 A 
ATOM     12  C   UNL     1       2.139   0.003   6.258  1.00  0.00     0.074 A 
ATOM     13  C   UNL     1       0.599  -1.891   5.851  1.00  0.00     0.049 A 
ATOM     14  N   UNL     1       2.981  -0.251   7.209  1.00  0.00    -0.248 NA
ATOM     15  C   UNL     1       1.902   1.436   6.035  1.00  0.00     0.031 C 
ATOM     16  C   UNL     1      -0.356  -2.719   5.109  1.00  0.00     0.029 A 
ATOM     17  N   UNL     1       0.354  -2.223   7.149  1.00  0.00    -0.354 N 
ATOM     18  C   UNL     1       3.251   0.972   7.825  1.00  0.00     0.074 A 
ATOM     19  C   UNL     1       2.646   1.983   6.997  1.00  0.00     0.031 C 
ATOM     20  C   UNL     1      -1.222  -3.284   5.979  1.00  0.00     0.029 A 
ATOM     21  C   UNL     1      -0.798  -2.970   7.333  1.00  0.00     0.049 A 
ATOM     22  H   UNL     1       0.944  -1.955   7.891  1.00  0.00     0.167 HD
ATOM     23  C   UNL     1       3.788   1.042   9.076  1.00  0.00     0.037 A 
ATOM     24  C   UNL     1      -1.403  -3.252   8.511  1.00  0.00     0.037 A 
ATOM     25  C   UNL     1       4.468  -0.177   9.430  1.00  0.00     0.049 A 
ATOM     26  C   UNL     1      -0.409  -3.063   9.594  1.00  0.00     0.074 A 
ATOM     27  C   UNL     1       5.526  -0.896   8.907  1.00  0.00     0.029 A 
ATOM     28  N   UNL     1       3.876  -1.018  10.338  1.00  0.00    -0.354 N 
ATOM     29  N   UNL     1       0.617  -3.841   9.793  1.00  0.00    -0.248 NA
ATOM     30  C   UNL     1      -0.329  -1.752  10.222  1.00  0.00     0.031 C 
ATOM     31  C   UNL     1       5.199  -2.264   9.148  1.00  0.00     0.029 A 
ATOM     32  C   UNL     1       3.984  -2.284   9.831  1.00  0.00     0.049 A 
ATOM     33  H   UNL     1       3.454  -0.760  11.190  1.00  0.00     0.167 HD
ATOM     34  C   UNL     1       1.634  -2.987  10.193  1.00  0.00     0.074 A 
ATOM     35  C   UNL     1       0.966  -1.737  10.543  1.00  0.00     0.031 C 
ATOM     36  C   UNL     1       2.944  -3.278   9.937  1.00  0.00     0.037 A 
BRANCH  23  37
ATOM     37  C   UNL     1       3.389   2.063  10.122  1.00  0.00     0.057 A 
ATOM     38  C   UNL     1       4.041   2.057  11.372  1.00  0.00     0.134 A 
ATOM     39  C   UNL     1       2.199   2.817  10.079  1.00  0.00     0.134 A 
ATOM     40  F   UNL     1       5.193   1.391  11.547  1.00  0.00    -0.206 F 
ATOM     41  C   UNL     1       3.488   2.649  12.515  1.00  0.00     0.040 A 
ATOM     42  C   UNL     1       1.664   3.453  11.204  1.00  0.00     0.040 A 
ATOM     43  F   UNL     1       1.441   2.904   8.981  1.00  0.00    -0.206 F 
ATOM     44  C   UNL     1       2.284   3.335  12.436  1.00  0.00     0.006 A 
ENDBRANCH  23  37
BRANCH  24  45
ATOM     45  C   UNL     1      -2.851  -3.390   8.776  1.00  0.00     0.057 A 
ATOM     46  C   UNL     1      -3.325  -4.012   9.937  1.00  0.00     0.134 A 
ATOM     47  C   UNL     1      -3.804  -2.683   8.019  1.00  0.00     0.134 A 
ATOM     48  F   UNL     1      -2.485  -4.670  10.749  1.00  0.00    -0.206 F 
ATOM     49  C   UNL     1      -4.667  -3.925  10.332  1.00  0.00     0.040 A 
ATOM     50  C   UNL     1      -5.146  -2.597   8.395  1.00  0.00     0.040 A 
ATOM     51  F   UNL     1      -3.446  -1.978   6.936  1.00  0.00    -0.206 F 
ATOM     52  C   UNL     1      -5.581  -3.208   9.564  1.00  0.00     0.006 A 
ENDBRANCH  24  45
BRANCH  36  53
ATOM     53  C   UNL     1       3.278  -4.659   9.454  1.00  0.00     0.057 A 
ATOM     54  C   UNL     1       2.830  -5.184   8.232  1.00  0.00     0.134 A 
ATOM     55  C   UNL     1       4.206  -5.422  10.170  1.00  0.00     0.134 A 
ATOM     56  F   UNL     1       2.026  -4.478   7.427  1.00  0.00    -0.206 F 
ATOM     57  C   UNL     1       3.251  -6.434   7.769  1.00  0.00     0.040 A 
ATOM     58  C   UNL     1       4.660  -6.658   9.703  1.00  0.00     0.040 A 
ATOM     59  F   UNL     1       4.726  -4.955  11.316  1.00  0.00    -0.206 F 
ATOM     60  C   UNL     1       4.173  -7.173   8.503  1.00  0.00     0.006 A 
ENDBRANCH  36  53
ENDBRANCH  10  11
ENDBRANCH   3   5
ENDBRANCH   2   3
ENDBRANCH   1   2
BRANCH   1  61
ATOM     61  C   UNL     1       4.325   0.694  -1.296  1.00  0.00     0.275 C 
BRANCH  61  62
ATOM     62  O   UNL     1       3.890   1.410  -0.127  1.00  0.00    -0.457 OA
BRANCH  62  63
ATOM     63  C   UNL     1       2.808   2.224  -0.289  1.00  0.00     0.361 C 
ATOM     64  O   UNL     1       2.170   2.357  -1.326  1.00  0.00    -0.244 OA
BRANCH  63  65
ATOM     65  C   UNL     1       2.626   3.091   0.849  1.00  0.00     0.198 A 
ATOM     66  N   UNL     1       2.056   2.751   2.047  1.00  0.00    -0.122 NA
ATOM     67  C   UNL     1       3.137   4.371   0.926  1.00  0.00     0.109 A 
ATOM     68  N   UNL     1       2.173   3.792   2.868  1.00  0.00    -0.061 NA
ATOM     69  N   UNL     1       2.706   4.818   2.162  1.00  0.00    -0.212 N 
BRANCH  67  70
ATOM     70  C   UNL     1       4.097   5.031   0.047  1.00  0.00     0.004 A 
ATOM     71  C   UNL     1       5.374   5.357   0.530  1.00  0.00     0.010 A 
ATOM     72  C   UNL     1       3.786   5.275  -1.294  1.00  0.00     0.031 A 
ATOM     73  C   UNL     1       6.321   5.939  -0.311  1.00  0.00     0.002 A 
ATOM     74  C   UNL     1       4.738   5.855  -2.129  1.00  0.00     0.041 A 
ATOM     75  C   UNL     1       6.001   6.190  -1.644  1.00  0.00     0.020 A 
ATOM     76  Cl  UNL     1       4.352   6.154  -3.779  1.00  0.00    -0.084 Cl
ENDBRANCH  67  70
BRANCH  69  77
ATOM     77  C   UNL     1       2.835   6.124   2.678  1.00  0.00     0.067 A 
ATOM     78  C   UNL     1       3.209   6.321   4.007  1.00  0.00     0.029 A 
ATOM     79  C   UNL     1       2.683   7.214   1.809  1.00  0.00     0.029 A 
ATOM     80  C   UNL     1       3.545   7.612   4.428  1.00  0.00     0.015 A 
ATOM     81  C   UNL     1       2.987   8.499   2.244  1.00  0.00     0.015 A 
ATOM     82  C   UNL     1       3.458   8.707   3.546  1.00  0.00     0.056 A 
BRANCH  82  83
ATOM     83  C   UNL     1       3.906  10.081   3.983  1.00  0.00     0.416 C 
ATOM     84  F   UNL     1       3.270  10.510   5.106  1.00  0.00    -0.166 F 
ATOM     85  F   UNL     1       5.238  10.119   4.264  1.00  0.00    -0.166 F 
ATOM     86  F   UNL     1       3.698  11.043   3.041  1.00  0.00    -0.166 F 
ENDBRANCH  82  83
ENDBRANCH  69  77
ENDBRANCH  63  65
ENDBRANCH  62  63
ENDBRANCH  61  62
ENDBRANCH   1  61
TORSDOF 14
