REMARK SMILES O=C(OCCOC(=O)c1cc(S(=O)(=O)ON2C(=O)c3cccc4cccc(c34)C2=O)ccc1Br)c1ccc(-c2c3nc(c(-c4c(F)cccc4F)c4ccc([nH]4)c(-c4c(F)cccc4F)c4nc(c(-c5c(F)cccc5F)c5ccc2[nH]5)C=C4)C=C3)cc1
REMARK SMILES IDX 5 1 4 2 3 3 2 4 1 5 35 6 36 7 88 8 37 9 87 10 38 11 39 12
REMARK SMILES IDX 40 13 81 14 41 15 86 16 80 17 82 18 42 19 85 20 79 21 78 22
REMARK SMILES IDX 43 24 69 25 52 26 68 27 53 28 56 29 67 30 83 31 54 32 55 33
REMARK SMILES IDX 66 35 84 36 57 37 44 38 45 39 50 40 46 41 47 42 49 43 51 44
REMARK SMILES IDX 48 45 70 46 71 47 76 48 72 49 73 50 75 51 77 52 74 53 58 54
REMARK SMILES IDX 59 55 64 56 60 57 61 58 63 59 65 60 62 61 6 62 7 63 8 64
REMARK SMILES IDX 9 65 10 66 33 67 11 68 32 69 34 70 31 71 12 72 13 73 14 74
REMARK SMILES IDX 15 75 16 76 17 77 29 78 18 79 19 80 27 81 30 82 20 83 28 84
REMARK SMILES IDX 26 85 21 86 23 87 25 88 22 89 24 90
REMARK H PARENT 82 23 56 34
REMARK Flexibility Score: inf
ROOT
ATOM      1  C   UNL     1       3.916  -0.202  -2.243  1.00  0.00     0.275 C 
ENDROOT
BRANCH   1   2
ATOM      2  C   UNL     1       4.156  -1.180  -1.091  1.00  0.00     0.275 C 
BRANCH   2   3
ATOM      3  O   UNL     1       3.128  -1.182  -0.089  1.00  0.00    -0.458 OA
BRANCH   3   4
ATOM      4  C   UNL     1       2.973  -0.392   0.997  1.00  0.00     0.338 C 
ATOM      5  O   UNL     1       2.087  -0.673   1.803  1.00  0.00    -0.246 OA
BRANCH   4   6
ATOM      6  C   UNL     1       3.732   0.880   1.219  1.00  0.00     0.060 A 
ATOM      7  C   UNL     1       5.009   1.188   0.746  1.00  0.00     0.016 A 
ATOM      8  C   UNL     1       3.075   1.854   1.988  1.00  0.00     0.016 A 
ATOM      9  C   UNL     1       5.578   2.448   0.955  1.00  0.00     0.010 A 
ATOM     10  C   UNL     1       3.627   3.122   2.187  1.00  0.00     0.010 A 
ATOM     11  C   UNL     1       4.891   3.423   1.674  1.00  0.00    -0.014 A 
BRANCH  11  12
ATOM     12  C   UNL     1       5.573   4.677   2.054  1.00  0.00     0.031 A 
ATOM     13  C   UNL     1       6.060   4.810   3.464  1.00  0.00     0.074 A 
ATOM     14  C   UNL     1       5.793   5.650   1.153  1.00  0.00     0.049 A 
ATOM     15  N   UNL     1       6.735   5.782   4.016  1.00  0.00    -0.248 NA
ATOM     16  C   UNL     1       5.766   3.685   4.368  1.00  0.00     0.031 C 
ATOM     17  C   UNL     1       5.435   5.581  -0.260  1.00  0.00     0.029 A 
ATOM     18  N   UNL     1       6.366   6.887   1.287  1.00  0.00    -0.354 N 
ATOM     19  C   UNL     1       6.974   5.368   5.318  1.00  0.00     0.074 A 
ATOM     20  C   UNL     1       6.301   4.103   5.501  1.00  0.00     0.031 C 
ATOM     21  C   UNL     1       5.748   6.743  -0.857  1.00  0.00     0.029 A 
ATOM     22  C   UNL     1       6.347   7.631   0.132  1.00  0.00     0.049 A 
ATOM     23  H   UNL     1       6.755   7.212   2.131  1.00  0.00     0.167 HD
ATOM     24  C   UNL     1       7.728   5.971   6.265  1.00  0.00     0.037 A 
ATOM     25  C   UNL     1       6.780   8.885  -0.097  1.00  0.00     0.037 A 
ATOM     26  C   UNL     1       8.366   7.243   6.075  1.00  0.00     0.049 A 
ATOM     27  C   UNL     1       7.495   9.603   1.014  1.00  0.00     0.074 A 
ATOM     28  C   UNL     1       9.146   7.962   6.960  1.00  0.00     0.029 A 
ATOM     29  N   UNL     1       8.275   7.996   4.911  1.00  0.00    -0.354 N 
ATOM     30  N   UNL     1       7.766   9.181   2.226  1.00  0.00    -0.248 NA
ATOM     31  C   UNL     1       8.001  10.948   0.717  1.00  0.00     0.031 C 
ATOM     32  C   UNL     1       9.483   9.176   6.349  1.00  0.00     0.029 A 
ATOM     33  C   UNL     1       8.960   9.188   5.063  1.00  0.00     0.049 A 
ATOM     34  H   UNL     1       7.794   7.721   4.097  1.00  0.00     0.167 HD
ATOM     35  C   UNL     1       8.526  10.179   2.818  1.00  0.00     0.074 A 
ATOM     36  C   UNL     1       8.659  11.235   1.832  1.00  0.00     0.031 C 
ATOM     37  C   UNL     1       9.082  10.213   4.055  1.00  0.00     0.037 A 
BRANCH  24  38
ATOM     38  C   UNL     1       7.848   5.252   7.575  1.00  0.00     0.057 A 
ATOM     39  C   UNL     1       8.550   4.042   7.692  1.00  0.00     0.134 A 
ATOM     40  C   UNL     1       7.184   5.725   8.712  1.00  0.00     0.134 A 
ATOM     41  F   UNL     1       9.184   3.519   6.631  1.00  0.00    -0.206 F 
ATOM     42  C   UNL     1       8.542   3.305   8.877  1.00  0.00     0.040 A 
ATOM     43  C   UNL     1       7.193   5.010   9.911  1.00  0.00     0.040 A 
ATOM     44  F   UNL     1       6.490   6.872   8.668  1.00  0.00    -0.206 F 
ATOM     45  C   UNL     1       7.861   3.789   9.991  1.00  0.00     0.006 A 
ENDBRANCH  24  38
BRANCH  25  46
ATOM     46  C   UNL     1       6.598   9.509  -1.433  1.00  0.00     0.057 A 
ATOM     47  C   UNL     1       7.684   9.733  -2.287  1.00  0.00     0.134 A 
ATOM     48  C   UNL     1       5.332   9.898  -1.888  1.00  0.00     0.134 A 
ATOM     49  F   UNL     1       8.923   9.392  -1.906  1.00  0.00    -0.206 F 
ATOM     50  C   UNL     1       7.522  10.338  -3.536  1.00  0.00     0.040 A 
ATOM     51  C   UNL     1       5.152  10.489  -3.142  1.00  0.00     0.040 A 
ATOM     52  F   UNL     1       4.247   9.701  -1.124  1.00  0.00    -0.206 F 
ATOM     53  C   UNL     1       6.252  10.716  -3.967  1.00  0.00     0.006 A 
ENDBRANCH  25  46
BRANCH  37  54
ATOM     54  C   UNL     1       9.932  11.403   4.386  1.00  0.00     0.057 A 
ATOM     55  C   UNL     1       9.381  12.667   4.626  1.00  0.00     0.134 A 
ATOM     56  C   UNL     1      11.320  11.263   4.515  1.00  0.00     0.134 A 
ATOM     57  F   UNL     1       8.060  12.868   4.505  1.00  0.00    -0.206 F 
ATOM     58  C   UNL     1      10.185  13.757   4.962  1.00  0.00     0.040 A 
ATOM     59  C   UNL     1      12.130  12.337   4.880  1.00  0.00     0.040 A 
ATOM     60  F   UNL     1      11.907  10.074   4.306  1.00  0.00    -0.206 F 
ATOM     61  C   UNL     1      11.563  13.590   5.099  1.00  0.00     0.006 A 
ENDBRANCH  37  54
ENDBRANCH  11  12
ENDBRANCH   4   6
ENDBRANCH   3   4
ENDBRANCH   2   3
ENDBRANCH   1   2
BRANCH   1  62
ATOM     62  O   UNL     1       3.539   1.121  -1.820  1.00  0.00    -0.458 OA
BRANCH  62  63
ATOM     63  C   UNL     1       2.220   1.426  -1.937  1.00  0.00     0.339 C 
ATOM     64  O   UNL     1       1.330   0.680  -2.310  1.00  0.00    -0.246 OA
BRANCH  63  65
ATOM     65  C   UNL     1       1.954   2.786  -1.418  1.00  0.00     0.075 A 
ATOM     66  C   UNL     1       1.053   2.896  -0.351  1.00  0.00     0.039 A 
ATOM     67  C   UNL     1       2.521   3.945  -1.951  1.00  0.00     0.032 A 
ATOM     68  C   UNL     1       0.785   4.148   0.234  1.00  0.00     0.097 A 
ATOM     69  C   UNL     1       2.229   5.196  -1.372  1.00  0.00     0.018 A 
ATOM     70  Br  UNL     1       3.650   3.920  -3.478  1.00  0.00    -0.050 Br
ATOM     71  C   UNL     1       1.380   5.303  -0.261  1.00  0.00     0.024 A 
BRANCH  68  72
ATOM     72  S   UNL     1      -0.318   4.145   1.641  1.00  0.00     0.318 S 
ATOM     73  O   UNL     1      -1.567   3.655   1.091  1.00  0.00    -0.192 OA
ATOM     74  O   UNL     1       0.440   3.460   2.669  1.00  0.00    -0.192 OA
BRANCH  72  75
ATOM     75  O   UNL     1      -0.537   5.690   2.122  1.00  0.00    -0.134 OA
BRANCH  75  76
ATOM     76  N   UNL     1      -1.275   5.940   3.325  1.00  0.00    -0.127 N 
ATOM     77  C   UNL     1      -1.902   4.941   4.050  1.00  0.00     0.286 C 
ATOM     78  C   UNL     1      -1.320   7.307   3.602  1.00  0.00     0.286 C 
ATOM     79  O   UNL     1      -1.961   3.749   3.780  1.00  0.00    -0.266 OA
ATOM     80  C   UNL     1      -2.611   5.364   5.277  1.00  0.00     0.051 A 
ATOM     81  C   UNL     1      -2.119   7.706   4.794  1.00  0.00     0.051 A 
ATOM     82  O   UNL     1      -0.767   8.173   2.928  1.00  0.00    -0.266 OA
ATOM     83  C   UNL     1      -3.199   4.387   6.096  1.00  0.00     0.014 A 
ATOM     84  C   UNL     1      -2.723   6.721   5.586  1.00  0.00     0.007 A 
ATOM     85  C   UNL     1      -2.270   9.061   5.119  1.00  0.00     0.014 A 
ATOM     86  C   UNL     1      -3.923   4.761   7.222  1.00  0.00     0.001 A 
ATOM     87  C   UNL     1      -3.475   7.100   6.726  1.00  0.00    -0.017 A 
ATOM     88  C   UNL     1      -3.026   9.434   6.231  1.00  0.00     0.001 A 
ATOM     89  C   UNL     1      -4.068   6.111   7.530  1.00  0.00     0.009 A 
ATOM     90  C   UNL     1      -3.623   8.460   7.030  1.00  0.00     0.009 A 
ENDBRANCH  75  76
ENDBRANCH  72  75
ENDBRANCH  68  72
ENDBRANCH  63  65
ENDBRANCH  62  63
ENDBRANCH   1  62
TORSDOF 14
