REMARK SMILES NC(=O)CC[C@H](C(=O)OCCOC(=O)c1ccc(-c2c3nc(c(-c4c(F)cccc4F)c4ccc([nH]4)c(-c4c(F)cccc4F)c4nc(c(-c5c(F)cccc5F)c5ccc2[nH]5)C=C4)C=C3)cc1)N1C(=O)/C(=C/c2ccc(O)c(O)c2)SC1=S
REMARK SMILES IDX 10 1 9 2 7 3 8 4 6 5 5 6 4 7 2 8 1 9 3 12 69 13 70 14 83 15
REMARK SMILES IDX 71 16 72 17 82 18 84 19 73 20 74 21 75 22 81 23 76 24 79 25
REMARK SMILES IDX 77 26 80 27 78 29 11 31 12 32 13 33 14 34 15 35 16 36 68 37
REMARK SMILES IDX 17 38 67 39 18 40 19 41 20 42 61 43 21 44 66 45 60 46 62 47
REMARK SMILES IDX 22 48 65 49 59 50 58 51 23 53 49 54 32 55 48 56 33 57 36 58
REMARK SMILES IDX 47 59 63 60 34 61 35 62 46 64 64 65 37 66 24 67 25 68 30 69
REMARK SMILES IDX 26 70 27 71 29 72 31 73 28 74 50 75 51 76 56 77 52 78 53 79
REMARK SMILES IDX 55 80 57 81 54 82 38 83 39 84 44 85 40 86 41 87 43 88 45 89
REMARK SMILES IDX 42 90
REMARK H PARENT 1 10 1 11 80 28 78 30 62 52 36 63
REMARK Flexibility Score: inf
ROOT
ATOM      1  C   UNL     1       0.855   4.218  -2.033  1.00  0.00     0.274 C 
ENDROOT
BRANCH   1   2
ATOM      2  O   UNL     1       2.019   3.466  -1.640  1.00  0.00    -0.461 OA
BRANCH   2   3
ATOM      3  C   UNL     1       2.066   3.051  -0.349  1.00  0.00     0.329 C 
ATOM      4  O   UNL     1       1.193   3.270   0.487  1.00  0.00    -0.250 OA
BRANCH   3   5
ATOM      5  C   UNL     1       3.369   2.311  -0.001  1.00  0.00     0.202 C 
BRANCH   5   6
ATOM      6  C   UNL     1       4.253   1.754  -1.135  1.00  0.00     0.047 C 
BRANCH   6   7
ATOM      7  C   UNL     1       4.864   2.695  -2.162  1.00  0.00     0.102 C 
BRANCH   7   8
ATOM      8  C   UNL     1       5.888   3.626  -1.572  1.00  0.00     0.217 C 
ATOM      9  N   UNL     1       5.505   4.927  -1.505  1.00  0.00    -0.370 N 
ATOM     10  H   UNL     1       6.117   5.602  -1.131  1.00  0.00     0.159 HD
ATOM     11  H   UNL     1       4.616   5.196  -1.830  1.00  0.00     0.159 HD
ATOM     12  O   UNL     1       6.976   3.258  -1.148  1.00  0.00    -0.275 OA
ENDBRANCH   7   8
ENDBRANCH   6   7
ENDBRANCH   5   6
BRANCH   5  13
ATOM     13  N   UNL     1       4.063   2.960   1.127  1.00  0.00    -0.278 N 
ATOM     14  C   UNL     1       4.077   4.340   1.212  1.00  0.00     0.266 C 
ATOM     15  C   UNL     1       4.721   2.283   2.138  1.00  0.00     0.149 C 
ATOM     16  O   UNL     1       3.577   5.123   0.413  1.00  0.00    -0.268 OA
ATOM     17  C   UNL     1       4.808   4.781   2.423  1.00  0.00     0.081 C 
ATOM     18  S   UNL     1       5.470   3.433   3.242  1.00  0.00    -0.054 SA
ATOM     19  S   UNL     1       4.841   0.635   2.381  1.00  0.00    -0.052 S 
ATOM     20  C   UNL     1       4.897   6.080   2.734  1.00  0.00     0.029 C 
BRANCH  20  21
ATOM     21  C   UNL     1       5.737   6.662   3.781  1.00  0.00    -0.020 A 
ATOM     22  C   UNL     1       5.171   7.432   4.807  1.00  0.00     0.012 A 
ATOM     23  C   UNL     1       7.132   6.540   3.685  1.00  0.00     0.058 A 
ATOM     24  C   UNL     1       5.994   8.082   5.731  1.00  0.00     0.051 A 
ATOM     25  C   UNL     1       7.939   7.193   4.605  1.00  0.00     0.157 A 
ATOM     26  C   UNL     1       7.372   7.962   5.615  1.00  0.00     0.157 A 
BRANCH  25  27
ATOM     27  O   UNL     1       9.303   7.123   4.540  1.00  0.00    -0.504 OA
ATOM     28  H   UNL     1       9.826   7.572   5.173  1.00  0.00     0.293 HD
ENDBRANCH  25  27
BRANCH  26  29
ATOM     29  O   UNL     1       8.178   8.623   6.496  1.00  0.00    -0.504 OA
ATOM     30  H   UNL     1       7.800   9.143   7.178  1.00  0.00     0.293 HD
ENDBRANCH  26  29
ENDBRANCH  20  21
ENDBRANCH   5  13
ENDBRANCH   3   5
ENDBRANCH   2   3
ENDBRANCH   1   2
BRANCH   1  31
ATOM     31  C   UNL     1      -0.183   3.328  -2.723  1.00  0.00     0.275 C 
BRANCH  31  32
ATOM     32  O   UNL     1      -0.837   2.446  -1.791  1.00  0.00    -0.458 OA
BRANCH  32  33
ATOM     33  C   UNL     1      -0.182   1.286  -1.551  1.00  0.00     0.338 C 
ATOM     34  O   UNL     1       0.842   0.897  -2.088  1.00  0.00    -0.246 OA
BRANCH  33  35
ATOM     35  C   UNL     1      -0.762   0.607  -0.381  1.00  0.00     0.060 A 
ATOM     36  C   UNL     1       0.125   0.193   0.617  1.00  0.00     0.016 A 
ATOM     37  C   UNL     1      -2.122   0.310  -0.284  1.00  0.00     0.016 A 
ATOM     38  C   UNL     1      -0.325  -0.532   1.708  1.00  0.00     0.010 A 
ATOM     39  C   UNL     1      -2.577  -0.442   0.805  1.00  0.00     0.010 A 
ATOM     40  C   UNL     1      -1.674  -0.883   1.789  1.00  0.00    -0.014 A 
BRANCH  40  41
ATOM     41  C   UNL     1      -2.074  -1.858   2.825  1.00  0.00     0.031 A 
ATOM     42  C   UNL     1      -2.232  -3.298   2.431  1.00  0.00     0.074 A 
ATOM     43  C   UNL     1      -2.175  -1.480   4.111  1.00  0.00     0.049 A 
ATOM     44  N   UNL     1      -2.622  -4.317   3.151  1.00  0.00    -0.248 NA
ATOM     45  C   UNL     1      -1.896  -3.637   1.038  1.00  0.00     0.031 C 
ATOM     46  C   UNL     1      -1.938  -0.128   4.617  1.00  0.00     0.029 A 
ATOM     47  N   UNL     1      -2.487  -2.208   5.229  1.00  0.00    -0.354 N 
ATOM     48  C   UNL     1      -2.590  -5.412   2.298  1.00  0.00     0.074 A 
ATOM     49  C   UNL     1      -2.161  -4.934   1.002  1.00  0.00     0.031 C 
ATOM     50  C   UNL     1      -2.115  -0.124   5.949  1.00  0.00     0.029 A 
ATOM     51  C   UNL     1      -2.517  -1.460   6.380  1.00  0.00     0.049 A 
ATOM     52  H   UNL     1      -2.672  -3.175   5.209  1.00  0.00     0.167 HD
ATOM     53  C   UNL     1      -2.888  -6.702   2.577  1.00  0.00     0.037 A 
ATOM     54  C   UNL     1      -2.858  -1.816   7.632  1.00  0.00     0.037 A 
ATOM     55  C   UNL     1      -3.307  -7.167   3.871  1.00  0.00     0.049 A 
ATOM     56  C   UNL     1      -3.253  -3.244   7.898  1.00  0.00     0.074 A 
ATOM     57  C   UNL     1      -3.713  -8.434   4.248  1.00  0.00     0.029 A 
ATOM     58  N   UNL     1      -3.355  -6.374   5.008  1.00  0.00    -0.354 N 
ATOM     59  N   UNL     1      -3.299  -4.259   7.068  1.00  0.00    -0.248 NA
ATOM     60  C   UNL     1      -3.643  -3.577   9.275  1.00  0.00     0.031 C 
ATOM     61  C   UNL     1      -4.023  -8.405   5.612  1.00  0.00     0.029 A 
ATOM     62  C   UNL     1      -3.773  -7.128   6.091  1.00  0.00     0.049 A 
ATOM     63  H   UNL     1      -3.125  -5.418   5.041  1.00  0.00     0.167 HD
ATOM     64  C   UNL     1      -3.692  -5.354   7.826  1.00  0.00     0.074 A 
ATOM     65  C   UNL     1      -3.858  -4.881   9.186  1.00  0.00     0.031 C 
ATOM     66  C   UNL     1      -3.901  -6.635   7.437  1.00  0.00     0.037 A 
BRANCH  53  67
ATOM     67  C   UNL     1      -2.797  -7.686   1.450  1.00  0.00     0.057 A 
ATOM     68  C   UNL     1      -1.563  -8.133   0.960  1.00  0.00     0.134 A 
ATOM     69  C   UNL     1      -3.955  -8.201   0.856  1.00  0.00     0.134 A 
ATOM     70  F   UNL     1      -0.417  -7.659   1.470  1.00  0.00    -0.206 F 
ATOM     71  C   UNL     1      -1.486  -9.048  -0.092  1.00  0.00     0.040 A 
ATOM     72  C   UNL     1      -3.891  -9.132  -0.182  1.00  0.00     0.040 A 
ATOM     73  F   UNL     1      -5.168  -7.809   1.277  1.00  0.00    -0.206 F 
ATOM     74  C   UNL     1      -2.653  -9.555  -0.662  1.00  0.00     0.006 A 
ENDBRANCH  53  67
BRANCH  54  75
ATOM     75  C   UNL     1      -2.876  -0.809   8.723  1.00  0.00     0.057 A 
ATOM     76  C   UNL     1      -1.980  -0.878   9.795  1.00  0.00     0.134 A 
ATOM     77  C   UNL     1      -3.824   0.222   8.741  1.00  0.00     0.134 A 
ATOM     78  F   UNL     1      -1.064  -1.856   9.848  1.00  0.00    -0.206 F 
ATOM     79  C   UNL     1      -2.042   0.024  10.860  1.00  0.00     0.040 A 
ATOM     80  C   UNL     1      -3.881   1.146   9.784  1.00  0.00     0.040 A 
ATOM     81  F   UNL     1      -4.712   0.344   7.743  1.00  0.00    -0.206 F 
ATOM     82  C   UNL     1      -2.994   1.042  10.854  1.00  0.00     0.006 A 
ENDBRANCH  54  75
BRANCH  66  83
ATOM     83  C   UNL     1      -4.267  -7.618   8.507  1.00  0.00     0.057 A 
ATOM     84  C   UNL     1      -5.539  -7.638   9.091  1.00  0.00     0.134 A 
ATOM     85  C   UNL     1      -3.337  -8.571   8.941  1.00  0.00     0.134 A 
ATOM     86  F   UNL     1      -6.469  -6.742   8.726  1.00  0.00    -0.206 F 
ATOM     87  C   UNL     1      -5.864  -8.554  10.092  1.00  0.00     0.040 A 
ATOM     88  C   UNL     1      -3.658  -9.507   9.923  1.00  0.00     0.040 A 
ATOM     89  F   UNL     1      -2.104  -8.609   8.412  1.00  0.00    -0.206 F 
ATOM     90  C   UNL     1      -4.923  -9.495  10.508  1.00  0.00     0.006 A 
ENDBRANCH  66  83
ENDBRANCH  40  41
ENDBRANCH  33  35
ENDBRANCH  32  33
ENDBRANCH  31  32
ENDBRANCH   1  31
TORSDOF 18
