REMARK SMILES Cc1cc(C(=O)Nc2ccn(C)n2)sc1/C=C/C(=O)OCCOC(=O)c1ccc(-c2c3nc(c(-c4c(F)cccc4F)c4ccc([nH]4)c(-c4c(F)cccc4F)c4nc(c(-c5c(F)cccc5F)c5ccc2[nH]5)C=C4)C=C3)cc1
REMARK SMILES IDX 21 1 20 2 18 3 19 4 17 5 16 6 15 7 1 8 2 9 3 10 4 11 14 12
REMARK SMILES IDX 5 13 6 14 7 15 8 17 9 18 13 19 10 20 11 21 12 22 22 23 23 24
REMARK SMILES IDX 24 25 25 26 26 27 27 28 79 29 28 30 78 31 29 32 30 33 31 34
REMARK SMILES IDX 72 35 32 36 77 37 71 38 73 39 33 40 76 41 70 42 69 43 34 45
REMARK SMILES IDX 60 46 43 47 59 48 44 49 47 50 58 51 74 52 45 53 46 54 57 56
REMARK SMILES IDX 75 57 48 58 35 59 36 60 41 61 37 62 38 63 40 64 42 65 39 66
REMARK SMILES IDX 61 67 62 68 67 69 63 70 64 71 66 72 68 73 65 74 49 75 50 76
REMARK SMILES IDX 55 77 51 78 52 79 54 80 56 81 53 82
REMARK H PARENT 7 16 73 44 47 55
REMARK Flexibility Score: inf
ROOT
ATOM      1  C   UNL     1       1.301  -6.694  -0.090  1.00  0.00     0.275 C 
ENDROOT
BRANCH   1   2
ATOM      2  O   UNL     1       1.181  -5.265  -0.226  1.00  0.00    -0.459 OA
BRANCH   2   3
ATOM      3  C   UNL     1       0.147  -4.836  -0.986  1.00  0.00     0.330 C 
ATOM      4  O   UNL     1      -0.659  -5.545  -1.571  1.00  0.00    -0.247 OA
BRANCH   3   5
ATOM      5  C   UNL     1       0.006  -3.367  -0.993  1.00  0.00     0.095 C 
ATOM      6  C   UNL     1       0.858  -2.486  -0.444  1.00  0.00     0.027 C 
BRANCH   6   7
ATOM      7  C   UNL     1       0.598  -1.074  -0.370  1.00  0.00     0.031 A 
ATOM      8  C   UNL     1       2.911  -0.150   0.312  1.00  0.00     0.046 C 
ATOM      9  C   UNL     1       1.444  -0.043   0.036  1.00  0.00    -0.032 A 
ATOM     10  C   UNL     1       0.733   1.201   0.179  1.00  0.00     0.029 A 
ATOM     11  C   UNL     1      -0.602   1.127  -0.173  1.00  0.00     0.093 A 
ATOM     12  S   UNL     1      -0.926  -0.410  -0.828  1.00  0.00    -0.130 S 
BRANCH  11  13
ATOM     13  C   UNL     1      -1.552   2.242  -0.199  1.00  0.00     0.266 C 
ATOM     14  O   UNL     1      -1.156   3.411  -0.152  1.00  0.00    -0.268 OA
ATOM     15  N   UNL     1      -2.898   2.049  -0.401  1.00  0.00    -0.304 N 
ATOM     16  H   UNL     1      -3.356   2.787  -0.865  1.00  0.00     0.171 HD
BRANCH  15  17
ATOM     17  C   UNL     1      -3.705   0.996  -0.062  1.00  0.00     0.154 A 
ATOM     18  C   UNL     1      -3.573   0.064   0.993  1.00  0.00     0.068 A 
ATOM     19  N   UNL     1      -4.826   0.788  -0.755  1.00  0.00    -0.155 NA
ATOM     20  C   UNL     1      -4.642  -0.790   0.851  1.00  0.00     0.110 A 
ATOM     21  N   UNL     1      -5.303  -0.370  -0.264  1.00  0.00    -0.274 N 
ATOM     22  C   UNL     1      -6.356  -1.061  -0.970  1.00  0.00     0.173 C 
ENDBRANCH  15  17
ENDBRANCH  11  13
ENDBRANCH   6   7
ENDBRANCH   3   5
ENDBRANCH   2   3
ENDBRANCH   1   2
BRANCH   1  23
ATOM     23  C   UNL     1       0.714  -7.197   1.234  1.00  0.00     0.275 C 
BRANCH  23  24
ATOM     24  O   UNL     1      -0.721  -7.072   1.275  1.00  0.00    -0.458 OA
BRANCH  24  25
ATOM     25  C   UNL     1      -1.179  -5.924   1.826  1.00  0.00     0.338 C 
ATOM     26  O   UNL     1      -0.517  -5.020   2.305  1.00  0.00    -0.246 OA
BRANCH  25  27
ATOM     27  C   UNL     1      -2.640  -5.836   1.658  1.00  0.00     0.060 A 
ATOM     28  C   UNL     1      -3.144  -4.730   0.973  1.00  0.00     0.016 A 
ATOM     29  C   UNL     1      -3.508  -6.774   2.225  1.00  0.00     0.016 A 
ATOM     30  C   UNL     1      -4.520  -4.554   0.859  1.00  0.00     0.010 A 
ATOM     31  C   UNL     1      -4.893  -6.585   2.117  1.00  0.00     0.010 A 
ATOM     32  C   UNL     1      -5.410  -5.461   1.450  1.00  0.00    -0.014 A 
BRANCH  32  33
ATOM     33  C   UNL     1      -6.871  -5.190   1.399  1.00  0.00     0.031 A 
ATOM     34  C   UNL     1      -7.607  -4.758   2.638  1.00  0.00     0.074 A 
ATOM     35  C   UNL     1      -7.532  -5.279   0.230  1.00  0.00     0.049 A 
ATOM     36  N   UNL     1      -8.883  -4.508   2.797  1.00  0.00    -0.248 NA
ATOM     37  C   UNL     1      -6.802  -4.576   3.855  1.00  0.00     0.031 C 
ATOM     38  C   UNL     1      -6.933  -5.648  -1.052  1.00  0.00     0.029 A 
ATOM     39  N   UNL     1      -8.856  -5.064  -0.068  1.00  0.00    -0.354 N 
ATOM     40  C   UNL     1      -9.038  -4.160   4.134  1.00  0.00     0.074 A 
ATOM     41  C   UNL     1      -7.728  -4.244   4.744  1.00  0.00     0.031 C 
ATOM     42  C   UNL     1      -7.884  -5.632  -2.000  1.00  0.00     0.029 A 
ATOM     43  C   UNL     1      -9.166  -5.296  -1.385  1.00  0.00     0.049 A 
ATOM     44  H   UNL     1      -9.518  -4.771   0.599  1.00  0.00     0.167 HD
ATOM     45  C   UNL     1     -10.167  -3.798   4.792  1.00  0.00     0.037 A 
ATOM     46  C   UNL     1     -10.353  -5.271  -2.022  1.00  0.00     0.037 A 
ATOM     47  C   UNL     1     -11.470  -3.700   4.187  1.00  0.00     0.049 A 
ATOM     48  C   UNL     1     -11.600  -4.925  -1.257  1.00  0.00     0.074 A 
ATOM     49  C   UNL     1     -12.668  -3.326   4.774  1.00  0.00     0.029 A 
ATOM     50  N   UNL     1     -11.749  -3.979   2.858  1.00  0.00    -0.354 N 
ATOM     51  N   UNL     1     -11.731  -4.598   0.005  1.00  0.00    -0.248 NA
ATOM     52  C   UNL     1     -12.865  -4.949  -2.006  1.00  0.00     0.031 C 
ATOM     53  C   UNL     1     -13.677  -3.416   3.809  1.00  0.00     0.029 A 
ATOM     54  C   UNL     1     -13.101  -3.804   2.611  1.00  0.00     0.049 A 
ATOM     55  H   UNL     1     -11.084  -4.261   2.189  1.00  0.00     0.167 HD
ATOM     56  C   UNL     1     -13.086  -4.360   0.198  1.00  0.00     0.074 A 
ATOM     57  C   UNL     1     -13.734  -4.565  -1.081  1.00  0.00     0.031 C 
ATOM     58  C   UNL     1     -13.735  -4.007   1.333  1.00  0.00     0.037 A 
BRANCH  45  59
ATOM     59  C   UNL     1     -10.047  -3.501   6.258  1.00  0.00     0.057 A 
ATOM     60  C   UNL     1      -9.454  -2.323   6.728  1.00  0.00     0.134 A 
ATOM     61  C   UNL     1     -10.570  -4.387   7.209  1.00  0.00     0.134 A 
ATOM     62  F   UNL     1      -8.925  -1.439   5.868  1.00  0.00    -0.206 F 
ATOM     63  C   UNL     1      -9.367  -2.045   8.093  1.00  0.00     0.040 A 
ATOM     64  C   UNL     1     -10.508  -4.110   8.576  1.00  0.00     0.040 A 
ATOM     65  F   UNL     1     -11.157  -5.530   6.825  1.00  0.00    -0.206 F 
ATOM     66  C   UNL     1      -9.901  -2.938   9.021  1.00  0.00     0.006 A 
ENDBRANCH  45  59
BRANCH  46  67
ATOM     67  C   UNL     1     -10.423  -5.608  -3.465  1.00  0.00     0.057 A 
ATOM     68  C   UNL     1     -10.706  -4.630  -4.425  1.00  0.00     0.134 A 
ATOM     69  C   UNL     1     -10.217  -6.917  -3.916  1.00  0.00     0.134 A 
ATOM     70  F   UNL     1     -10.934  -3.363  -4.050  1.00  0.00    -0.206 F 
ATOM     71  C   UNL     1     -10.793  -4.944  -5.782  1.00  0.00     0.040 A 
ATOM     72  C   UNL     1     -10.277  -7.241  -5.271  1.00  0.00     0.040 A 
ATOM     73  F   UNL     1      -9.943  -7.898  -3.043  1.00  0.00    -0.206 F 
ATOM     74  C   UNL     1     -10.572  -6.253  -6.209  1.00  0.00     0.006 A 
ENDBRANCH  46  67
BRANCH  58  75
ATOM     75  C   UNL     1     -15.216  -3.789   1.239  1.00  0.00     0.057 A 
ATOM     76  C   UNL     1     -16.113  -4.858   1.119  1.00  0.00     0.134 A 
ATOM     77  C   UNL     1     -15.753  -2.497   1.301  1.00  0.00     0.134 A 
ATOM     78  F   UNL     1     -15.661  -6.119   1.040  1.00  0.00    -0.206 F 
ATOM     79  C   UNL     1     -17.491  -4.648   1.044  1.00  0.00     0.040 A 
ATOM     80  C   UNL     1     -17.130  -2.276   1.250  1.00  0.00     0.040 A 
ATOM     81  F   UNL     1     -14.949  -1.430   1.422  1.00  0.00    -0.206 F 
ATOM     82  C   UNL     1     -18.003  -3.353   1.116  1.00  0.00     0.006 A 
ENDBRANCH  58  75
ENDBRANCH  32  33
ENDBRANCH  25  27
ENDBRANCH  24  25
ENDBRANCH  23  24
ENDBRANCH   1  23
TORSDOF 14
