REMARK SMILES [NH3+][C@@H](Cc1c[nH]c2ccccc12)C(=O)N[C@@H](CS)C(=O)N[C@@H](CO)C(=O)OCCOC(=O)c1ccc(-c2c3nc(c(-c4c(F)cccc4F)c4ccc([nH]4)c(-c4c(F)cccc4F)c4nc(c(-c5c(F)cccc5F)c5ccc2[nH]5)C=C4)C=C3)cc1
REMARK SMILES IDX 25 1 26 2 22 3 21 4 19 5 20 6 16 8 15 9 13 10 14 11 2 13
REMARK SMILES IDX 1 14 3 18 4 19 5 20 12 21 6 22 7 23 11 24 8 26 10 27 9 28
REMARK SMILES IDX 17 29 18 30 23 32 24 33 27 35 28 36 29 37 30 38 31 39 32 40
REMARK SMILES IDX 33 41 34 42 86 43 35 44 85 45 36 46 37 47 38 48 79 49 39 50
REMARK SMILES IDX 84 51 78 52 80 53 40 54 83 55 77 56 76 57 41 59 67 60 50 61
REMARK SMILES IDX 66 62 51 63 54 64 65 65 81 66 52 67 53 68 64 70 82 71 55 72
REMARK SMILES IDX 42 73 43 74 48 75 44 76 45 77 47 78 49 79 46 80 68 81 69 82
REMARK SMILES IDX 74 83 70 84 71 85 73 86 75 87 72 88 56 89 57 90 62 91 58 92
REMARK SMILES IDX 59 93 61 94 63 95 60 96
REMARK H PARENT 21 7 15 12 1 15 1 16 1 17 6 25 18 31 24 34 80 58 54 69
REMARK Flexibility Score: inf
ROOT
ATOM      1  C   UNL     1      -5.509  -3.497   1.694  1.00  0.00     0.331 C 
ATOM      2  O   UNL     1      -6.460  -2.794   2.020  1.00  0.00    -0.250 OA
ENDROOT
BRANCH   1   3
ATOM      3  C   UNL     1      -4.775  -3.311   0.360  1.00  0.00     0.218 C 
BRANCH   3   4
ATOM      4  N   UNL     1      -3.528  -4.066   0.204  1.00  0.00    -0.339 N 
ATOM      5  C   UNL     1      -2.353  -3.731  -0.387  1.00  0.00     0.244 C 
ATOM      6  O   UNL     1      -1.775  -4.663  -0.963  1.00  0.00    -0.273 OA
ATOM      7  H   UNL     1      -3.546  -4.969   0.594  1.00  0.00     0.164 HD
BRANCH   5   8
ATOM      8  C   UNL     1      -1.742  -2.299  -0.409  1.00  0.00     0.181 C 
BRANCH   8   9
ATOM      9  N   UNL     1      -1.614  -1.761  -1.757  1.00  0.00    -0.338 N 
ATOM     10  C   UNL     1      -0.567  -1.128  -2.351  1.00  0.00     0.279 C 
ATOM     11  O   UNL     1      -0.769  -0.703  -3.497  1.00  0.00    -0.268 OA
ATOM     12  H   UNL     1      -2.409  -1.873  -2.327  1.00  0.00     0.164 HD
BRANCH  10  13
ATOM     13  C   UNL     1       0.793  -0.837  -1.662  1.00  0.00     0.275 C 
BRANCH  13  14
ATOM     14  N   UNL     1       0.626   0.095  -0.527  1.00  0.00    -0.347 N 
ATOM     15  H   UNL     1       1.533   0.269  -0.093  1.00  0.00     0.345 HD
ATOM     16  H   UNL     1      -0.007  -0.315   0.160  1.00  0.00     0.345 HD
ATOM     17  H   UNL     1       0.237   0.975  -0.865  1.00  0.00     0.345 HD
ENDBRANCH  13  14
BRANCH  13  18
ATOM     18  C   UNL     1       1.790  -2.004  -1.487  1.00  0.00     0.113 C 
BRANCH  18  19
ATOM     19  C   UNL     1       1.609  -3.067  -0.437  1.00  0.00    -0.016 A 
ATOM     20  C   UNL     1       1.625  -4.423  -0.718  1.00  0.00     0.087 A 
ATOM     21  C   UNL     1       1.408  -2.962   0.988  1.00  0.00     0.003 A 
ATOM     22  N   UNL     1       1.373  -5.120   0.429  1.00  0.00    -0.361 N 
ATOM     23  C   UNL     1       1.192  -4.254   1.477  1.00  0.00     0.046 A 
ATOM     24  C   UNL     1       1.294  -1.898   1.905  1.00  0.00     0.010 A 
ATOM     25  H   UNL     1       1.326  -6.101   0.494  1.00  0.00     0.166 HD
ATOM     26  C   UNL     1       0.836  -4.527   2.804  1.00  0.00     0.026 A 
ATOM     27  C   UNL     1       0.887  -2.151   3.217  1.00  0.00     0.001 A 
ATOM     28  C   UNL     1       0.666  -3.445   3.663  1.00  0.00     0.002 A 
ENDBRANCH  18  19
ENDBRANCH  13  18
ENDBRANCH  10  13
ENDBRANCH   8   9
BRANCH   8  29
ATOM     29  C   UNL     1      -2.188  -1.298   0.656  1.00  0.00     0.101 C 
BRANCH  29  30
ATOM     30  S   UNL     1      -3.300   0.042   0.087  1.00  0.00    -0.177 SA
ATOM     31  H   UNL     1      -2.649   0.817  -0.821  1.00  0.00     0.102 HD
ENDBRANCH  29  30
ENDBRANCH   8  29
ENDBRANCH   5   8
ENDBRANCH   3   4
BRANCH   3  32
ATOM     32  C   UNL     1      -5.747  -3.680  -0.772  1.00  0.00     0.193 C 
BRANCH  32  33
ATOM     33  O   UNL     1      -5.852  -5.099  -0.916  1.00  0.00    -0.394 OA
ATOM     34  H   UNL     1      -4.981  -5.467  -1.135  1.00  0.00     0.210 HD
ENDBRANCH  32  33
ENDBRANCH   3  32
ENDBRANCH   1   3
BRANCH   1  35
ATOM     35  O   UNL     1      -5.029  -4.540   2.426  1.00  0.00    -0.460 OA
BRANCH  35  36
ATOM     36  C   UNL     1      -5.777  -4.868   3.615  1.00  0.00     0.274 C 
BRANCH  36  37
ATOM     37  C   UNL     1      -4.921  -4.703   4.866  1.00  0.00     0.275 C 
BRANCH  37  38
ATOM     38  O   UNL     1      -4.502  -3.331   5.002  1.00  0.00    -0.458 OA
BRANCH  38  39
ATOM     39  C   UNL     1      -3.171  -3.135   4.872  1.00  0.00     0.338 C 
ATOM     40  O   UNL     1      -2.317  -3.980   4.673  1.00  0.00    -0.246 OA
BRANCH  39  41
ATOM     41  C   UNL     1      -2.838  -1.708   5.004  1.00  0.00     0.060 A 
ATOM     42  C   UNL     1      -3.139  -0.838   3.963  1.00  0.00     0.016 A 
ATOM     43  C   UNL     1      -2.050  -1.277   6.072  1.00  0.00     0.016 A 
ATOM     44  C   UNL     1      -2.530   0.419   3.920  1.00  0.00     0.010 A 
ATOM     45  C   UNL     1      -1.541   0.029   6.080  1.00  0.00     0.010 A 
ATOM     46  C   UNL     1      -1.719   0.877   4.975  1.00  0.00    -0.014 A 
BRANCH  46  47
ATOM     47  C   UNL     1      -1.062   2.222   4.893  1.00  0.00     0.031 A 
ATOM     48  C   UNL     1       0.442   2.379   4.955  1.00  0.00     0.074 A 
ATOM     49  C   UNL     1      -1.811   3.326   4.692  1.00  0.00     0.049 A 
ATOM     50  N   UNL     1       1.171   3.464   4.831  1.00  0.00    -0.248 NA
ATOM     51  C   UNL     1       1.239   1.163   5.159  1.00  0.00     0.031 C 
ATOM     52  C   UNL     1      -3.270   3.352   4.577  1.00  0.00     0.029 A 
ATOM     53  N   UNL     1      -1.445   4.642   4.532  1.00  0.00    -0.354 N 
ATOM     54  C   UNL     1       2.497   3.052   4.912  1.00  0.00     0.074 A 
ATOM     55  C   UNL     1       2.481   1.620   5.106  1.00  0.00     0.031 C 
ATOM     56  C   UNL     1      -3.670   4.604   4.315  1.00  0.00     0.029 A 
ATOM     57  C   UNL     1      -2.509   5.488   4.329  1.00  0.00     0.049 A 
ATOM     58  H   UNL     1      -0.510   4.949   4.561  1.00  0.00     0.167 HD
ATOM     59  C   UNL     1       3.633   3.788   4.852  1.00  0.00     0.037 A 
ATOM     60  C   UNL     1      -2.562   6.828   4.209  1.00  0.00     0.037 A 
ATOM     61  C   UNL     1       3.679   5.221   4.747  1.00  0.00     0.049 A 
ATOM     62  C   UNL     1      -1.303   7.638   4.305  1.00  0.00     0.074 A 
ATOM     63  C   UNL     1       4.789   6.050   4.729  1.00  0.00     0.029 A 
ATOM     64  N   UNL     1       2.567   6.042   4.678  1.00  0.00    -0.354 N 
ATOM     65  N   UNL     1      -0.063   7.227   4.393  1.00  0.00    -0.248 NA
ATOM     66  C   UNL     1      -1.457   9.100   4.321  1.00  0.00     0.031 C 
ATOM     67  C   UNL     1       4.345   7.377   4.704  1.00  0.00     0.029 A 
ATOM     68  C   UNL     1       2.961   7.370   4.662  1.00  0.00     0.049 A 
ATOM     69  H   UNL     1       1.634   5.728   4.644  1.00  0.00     0.167 HD
ATOM     70  C   UNL     1       0.710   8.377   4.485  1.00  0.00     0.074 A 
ATOM     71  C   UNL     1      -0.197   9.503   4.414  1.00  0.00     0.031 C 
ATOM     72  C   UNL     1       2.053   8.485   4.624  1.00  0.00     0.037 A 
BRANCH  59  73
ATOM     73  C   UNL     1       4.935   3.053   4.954  1.00  0.00     0.057 A 
ATOM     74  C   UNL     1       5.490   2.389   3.854  1.00  0.00     0.134 A 
ATOM     75  C   UNL     1       5.660   3.047   6.152  1.00  0.00     0.134 A 
ATOM     76  F   UNL     1       4.837   2.349   2.683  1.00  0.00    -0.206 F 
ATOM     77  C   UNL     1       6.723   1.739   3.944  1.00  0.00     0.040 A 
ATOM     78  C   UNL     1       6.898   2.412   6.251  1.00  0.00     0.040 A 
ATOM     79  F   UNL     1       5.177   3.664   7.241  1.00  0.00    -0.206 F 
ATOM     80  C   UNL     1       7.433   1.755   5.144  1.00  0.00     0.006 A 
ENDBRANCH  59  73
BRANCH  60  81
ATOM     81  C   UNL     1      -3.879   7.495   4.054  1.00  0.00     0.057 A 
ATOM     82  C   UNL     1      -4.248   8.108   2.854  1.00  0.00     0.134 A 
ATOM     83  C   UNL     1      -4.804   7.517   5.106  1.00  0.00     0.134 A 
ATOM     84  F   UNL     1      -3.391   8.145   1.823  1.00  0.00    -0.206 F 
ATOM     85  C   UNL     1      -5.495   8.716   2.701  1.00  0.00     0.040 A 
ATOM     86  C   UNL     1      -6.063   8.097   4.959  1.00  0.00     0.040 A 
ATOM     87  F   UNL     1      -4.504   6.950   6.284  1.00  0.00    -0.206 F 
ATOM     88  C   UNL     1      -6.411   8.701   3.753  1.00  0.00     0.006 A 
ENDBRANCH  60  81
BRANCH  72  89
ATOM     89  C   UNL     1       2.620   9.867   4.730  1.00  0.00     0.057 A 
ATOM     90  C   UNL     1       2.505  10.613   5.910  1.00  0.00     0.134 A 
ATOM     91  C   UNL     1       3.305  10.449   3.658  1.00  0.00     0.134 A 
ATOM     92  F   UNL     1       1.848  10.114   6.968  1.00  0.00    -0.206 F 
ATOM     93  C   UNL     1       3.037  11.899   6.013  1.00  0.00     0.040 A 
ATOM     94  C   UNL     1       3.857  11.727   3.754  1.00  0.00     0.040 A 
ATOM     95  F   UNL     1       3.455   9.783   2.503  1.00  0.00    -0.206 F 
ATOM     96  C   UNL     1       3.719  12.458   4.933  1.00  0.00     0.006 A 
ENDBRANCH  72  89
ENDBRANCH  46  47
ENDBRANCH  39  41
ENDBRANCH  38  39
ENDBRANCH  37  38
ENDBRANCH  36  37
ENDBRANCH  35  36
ENDBRANCH   1  35
TORSDOF 22
