REMARK SMILES Cc1ccc([C@H](C)Nc2ccc(C(=O)OCCOC(=O)c3ccc(-c4c5nc(c(-c6c(F)cccc6F)c6ccc([nH]6)c(-c6c(F)cccc6F)c6nc(c(-c7c(F)cccc7F)c7ccc4[nH]7)C=C6)C=C5)cc3)cc2Cl)cc1F
REMARK SMILES IDX 16 1 15 2 13 3 14 4 12 5 9 6 10 7 76 8 11 9 75 10 77 11 8 12
REMARK SMILES IDX 6 14 7 15 5 16 1 17 2 18 3 19 79 20 4 21 78 22 80 23 17 24
REMARK SMILES IDX 18 25 19 26 20 27 21 28 22 29 74 30 23 31 73 32 24 33 25 34
REMARK SMILES IDX 26 35 67 36 27 37 72 38 66 39 68 40 28 41 71 42 65 43 64 44
REMARK SMILES IDX 29 46 55 47 38 48 54 49 39 50 42 51 53 52 69 53 40 54 41 55
REMARK SMILES IDX 52 57 70 58 43 59 30 60 31 61 36 62 32 63 33 64 35 65 37 66
REMARK SMILES IDX 34 67 56 68 57 69 62 70 58 71 59 72 61 73 63 74 60 75 44 76
REMARK SMILES IDX 45 77 50 78 46 79 47 80 49 81 51 82 48 83
REMARK H PARENT 8 13 68 45 42 56
REMARK Flexibility Score: inf
ROOT
ATOM      1  C   UNL     1      -9.643  -1.650   5.452  1.00  0.00     0.275 C 
ENDROOT
BRANCH   1   2
ATOM      2  O   UNL     1      -8.580  -1.723   4.477  1.00  0.00    -0.458 OA
BRANCH   2   3
ATOM      3  C   UNL     1      -7.360  -1.227   4.840  1.00  0.00     0.338 C 
ATOM      4  O   UNL     1      -7.083  -0.683   5.883  1.00  0.00    -0.246 OA
BRANCH   3   5
ATOM      5  C   UNL     1      -6.342  -1.567   3.804  1.00  0.00     0.061 A 
ATOM      6  C   UNL     1      -4.369  -2.294   1.897  1.00  0.00     0.053 A 
ATOM      7  C   UNL     1      -4.031  -2.040   3.235  1.00  0.00     0.028 A 
ATOM      8  C   UNL     1      -5.723  -2.126   1.533  1.00  0.00     0.065 A 
ATOM      9  C   UNL     1      -4.994  -1.634   4.164  1.00  0.00     0.018 A 
ATOM     10  C   UNL     1      -6.701  -1.817   2.486  1.00  0.00     0.038 A 
ATOM     11  Cl  UNL     1      -6.323  -2.331  -0.076  1.00  0.00    -0.082 Cl
BRANCH   6  12
ATOM     12  N   UNL     1      -3.329  -2.636   1.046  1.00  0.00    -0.377 N 
ATOM     13  H   UNL     1      -2.777  -3.416   1.280  1.00  0.00     0.161 HD
BRANCH  12  14
ATOM     14  C   UNL     1      -3.003  -1.907  -0.180  1.00  0.00     0.106 C 
ATOM     15  C   UNL     1      -1.830  -0.967   0.149  1.00  0.00     0.036 C 
BRANCH  14  16
ATOM     16  C   UNL     1      -2.790  -2.912  -1.312  1.00  0.00    -0.023 A 
ATOM     17  C   UNL     1      -2.800  -5.526  -4.777  1.00  0.00     0.047 C 
ATOM     18  C   UNL     1      -2.746  -4.646  -3.568  1.00  0.00    -0.015 A 
ATOM     19  C   UNL     1      -1.816  -3.610  -3.444  1.00  0.00     0.007 A 
ATOM     20  C   UNL     1      -3.672  -4.825  -2.548  1.00  0.00     0.126 A 
ATOM     21  C   UNL     1      -1.842  -2.750  -2.334  1.00  0.00     0.006 A 
ATOM     22  C   UNL     1      -3.684  -3.993  -1.437  1.00  0.00     0.045 A 
ATOM     23  F   UNL     1      -4.593  -5.795  -2.640  1.00  0.00    -0.207 F 
ENDBRANCH  14  16
ENDBRANCH  12  14
ENDBRANCH   6  12
ENDBRANCH   3   5
ENDBRANCH   2   3
ENDBRANCH   1   2
BRANCH   1  24
ATOM     24  C   UNL     1      -9.743  -2.901   6.325  1.00  0.00     0.275 C 
BRANCH  24  25
ATOM     25  O   UNL     1      -8.659  -2.938   7.250  1.00  0.00    -0.458 OA
BRANCH  25  26
ATOM     26  C   UNL     1      -7.556  -3.498   6.718  1.00  0.00     0.338 C 
ATOM     27  O   UNL     1      -7.419  -3.972   5.598  1.00  0.00    -0.246 OA
BRANCH  26  28
ATOM     28  C   UNL     1      -6.518  -3.629   7.734  1.00  0.00     0.060 A 
ATOM     29  C   UNL     1      -5.218  -3.691   7.208  1.00  0.00     0.016 A 
ATOM     30  C   UNL     1      -6.938  -4.411   8.804  1.00  0.00     0.016 A 
ATOM     31  C   UNL     1      -4.441  -4.784   7.494  1.00  0.00     0.010 A 
ATOM     32  C   UNL     1      -6.176  -5.508   9.078  1.00  0.00     0.010 A 
ATOM     33  C   UNL     1      -4.987  -5.720   8.353  1.00  0.00    -0.014 A 
BRANCH  33  34
ATOM     34  C   UNL     1      -4.280  -6.903   8.751  1.00  0.00     0.031 A 
ATOM     35  C   UNL     1      -3.372  -6.725   9.885  1.00  0.00     0.074 A 
ATOM     36  C   UNL     1      -4.786  -8.070   8.310  1.00  0.00     0.049 A 
ATOM     37  N   UNL     1      -2.642  -7.652  10.378  1.00  0.00    -0.248 NA
ATOM     38  C   UNL     1      -3.173  -5.426  10.533  1.00  0.00     0.031 C 
ATOM     39  C   UNL     1      -4.777  -9.359   8.975  1.00  0.00     0.029 A 
ATOM     40  N   UNL     1      -5.275  -8.337   7.026  1.00  0.00    -0.354 N 
ATOM     41  C   UNL     1      -2.180  -7.189  11.590  1.00  0.00     0.074 A 
ATOM     42  C   UNL     1      -2.384  -5.765  11.553  1.00  0.00     0.031 C 
ATOM     43  C   UNL     1      -4.986 -10.319   8.056  1.00  0.00     0.029 A 
ATOM     44  C   UNL     1      -4.914  -9.677   6.752  1.00  0.00     0.049 A 
ATOM     45  H   UNL     1      -5.768  -7.721   6.437  1.00  0.00     0.167 HD
ATOM     46  C   UNL     1      -1.848  -8.115  12.529  1.00  0.00     0.037 A 
ATOM     47  C   UNL     1      -3.942  -9.937   5.819  1.00  0.00     0.037 A 
ATOM     48  C   UNL     1      -1.946  -9.455  11.948  1.00  0.00     0.049 A 
ATOM     49  C   UNL     1      -2.686 -10.560   6.400  1.00  0.00     0.074 A 
ATOM     50  C   UNL     1      -2.918 -10.441  11.935  1.00  0.00     0.029 A 
ATOM     51  N   UNL     1      -1.065  -9.774  10.939  1.00  0.00    -0.354 N 
ATOM     52  N   UNL     1      -2.413 -10.595   7.676  1.00  0.00    -0.248 NA
ATOM     53  C   UNL     1      -1.617 -11.149   5.594  1.00  0.00     0.031 C 
ATOM     54  C   UNL     1      -2.609 -11.341  10.868  1.00  0.00     0.029 A 
ATOM     55  C   UNL     1      -1.448 -10.902  10.255  1.00  0.00     0.049 A 
ATOM     56  H   UNL     1      -0.255  -9.254  10.733  1.00  0.00     0.167 HD
ATOM     57  C   UNL     1      -1.188 -11.167   7.875  1.00  0.00     0.074 A 
ATOM     58  C   UNL     1      -0.718 -11.486   6.539  1.00  0.00     0.031 C 
ATOM     59  C   UNL     1      -0.642 -11.310   9.116  1.00  0.00     0.037 A 
BRANCH  46  60
ATOM     60  C   UNL     1      -1.632  -7.885  14.002  1.00  0.00     0.057 A 
ATOM     61  C   UNL     1      -1.566  -8.997  14.867  1.00  0.00     0.134 A 
ATOM     62  C   UNL     1      -1.524  -6.645  14.656  1.00  0.00     0.134 A 
ATOM     63  F   UNL     1      -1.586 -10.255  14.403  1.00  0.00    -0.206 F 
ATOM     64  C   UNL     1      -1.472  -8.884  16.258  1.00  0.00     0.040 A 
ATOM     65  C   UNL     1      -1.438  -6.516  16.049  1.00  0.00     0.040 A 
ATOM     66  F   UNL     1      -1.463  -5.485  14.003  1.00  0.00    -0.206 F 
ATOM     67  C   UNL     1      -1.423  -7.638  16.858  1.00  0.00     0.006 A 
ENDBRANCH  46  60
BRANCH  47  68
ATOM     68  C   UNL     1      -3.970  -8.938   4.707  1.00  0.00     0.057 A 
ATOM     69  C   UNL     1      -5.127  -8.883   3.906  1.00  0.00     0.134 A 
ATOM     70  C   UNL     1      -3.182  -7.784   4.770  1.00  0.00     0.134 A 
ATOM     71  F   UNL     1      -5.918  -9.962   3.790  1.00  0.00    -0.206 F 
ATOM     72  C   UNL     1      -5.575  -7.683   3.347  1.00  0.00     0.040 A 
ATOM     73  C   UNL     1      -3.619  -6.579   4.207  1.00  0.00     0.040 A 
ATOM     74  F   UNL     1      -2.053  -7.767   5.494  1.00  0.00    -0.206 F 
ATOM     75  C   UNL     1      -4.842  -6.515   3.541  1.00  0.00     0.006 A 
ENDBRANCH  47  68
BRANCH  59  76
ATOM     76  C   UNL     1       0.739 -11.835   9.365  1.00  0.00     0.057 A 
ATOM     77  C   UNL     1       1.194 -13.036   8.816  1.00  0.00     0.134 A 
ATOM     78  C   UNL     1       1.615 -11.203  10.274  1.00  0.00     0.134 A 
ATOM     79  F   UNL     1       0.423 -13.744   7.977  1.00  0.00    -0.206 F 
ATOM     80  C   UNL     1       2.453 -13.560   9.129  1.00  0.00     0.040 A 
ATOM     81  C   UNL     1       2.843 -11.748  10.643  1.00  0.00     0.040 A 
ATOM     82  F   UNL     1       1.330 -10.012  10.822  1.00  0.00    -0.206 F 
ATOM     83  C   UNL     1       3.274 -12.925  10.057  1.00  0.00     0.006 A 
ENDBRANCH  59  76
ENDBRANCH  33  34
ENDBRANCH  26  28
ENDBRANCH  25  26
ENDBRANCH  24  25
ENDBRANCH   1  24
TORSDOF 14
