REMARK SMILES O=C(OCCOC(=O)c1ccc2nc(-c3c[nH]nc3-c3ccc(F)cc3F)[nH]c2c1)c1ccc(-c2c3nc(c(-c4c(F)cccc4F)c4ccc([nH]4)c(-c4c(F)cccc4F)c4nc(c(-c5c(F)cccc5F)c5ccc2[nH]5)C=C4)C=C3)cc1
REMARK SMILES IDX 4 1 3 2 2 3 1 4 31 5 32 6 84 7 33 8 83 9 34 10 35 11 36 12
REMARK SMILES IDX 77 13 37 14 82 15 76 16 78 17 38 18 81 19 75 20 74 21 39 23
REMARK SMILES IDX 65 24 48 25 64 26 49 27 52 28 63 29 79 30 50 31 51 32 62 34
REMARK SMILES IDX 80 35 53 36 40 37 41 38 46 39 42 40 43 41 45 42 47 43 44 44
REMARK SMILES IDX 66 45 67 46 72 47 68 48 69 49 71 50 73 51 70 52 54 53 55 54
REMARK SMILES IDX 60 55 56 56 57 57 59 58 61 59 58 60 5 61 6 62 7 63 8 64 9 65
REMARK SMILES IDX 10 66 30 67 11 68 29 69 12 70 28 71 13 72 14 73 15 75 16 76
REMARK SMILES IDX 19 77 17 78 18 79 20 81 21 82 26 83 22 84 25 85 27 86 23 87
REMARK SMILES IDX 24 88
REMARK H PARENT 78 22 52 33 28 74 17 80
REMARK Flexibility Score: inf
ROOT
ATOM      1  C   UNL     1       4.077  -0.438  -1.541  1.00  0.00     0.275 C 
ENDROOT
BRANCH   1   2
ATOM      2  O   UNL     1       3.042  -0.934  -0.673  1.00  0.00    -0.458 OA
BRANCH   2   3
ATOM      3  C   UNL     1       2.939  -0.897   0.674  1.00  0.00     0.338 C 
ATOM      4  O   UNL     1       2.079  -1.583   1.227  1.00  0.00    -0.246 OA
BRANCH   3   5
ATOM      5  C   UNL     1       3.712   0.044   1.540  1.00  0.00     0.060 A 
ATOM      6  C   UNL     1       5.031   0.452   1.340  1.00  0.00     0.016 A 
ATOM      7  C   UNL     1       3.043   0.516   2.686  1.00  0.00     0.016 A 
ATOM      8  C   UNL     1       5.643   1.355   2.215  1.00  0.00     0.010 A 
ATOM      9  C   UNL     1       3.640   1.436   3.551  1.00  0.00     0.010 A 
ATOM     10  C   UNL     1       4.953   1.850   3.325  1.00  0.00    -0.014 A 
BRANCH  10  11
ATOM     11  C   UNL     1       5.676   2.656   4.332  1.00  0.00     0.031 A 
ATOM     12  C   UNL     1       6.116   1.985   5.599  1.00  0.00     0.074 A 
ATOM     13  C   UNL     1       5.988   3.941   4.090  1.00  0.00     0.049 A 
ATOM     14  N   UNL     1       6.856   2.454   6.569  1.00  0.00    -0.248 NA
ATOM     15  C   UNL     1       5.677   0.593   5.794  1.00  0.00     0.031 C 
ATOM     16  C   UNL     1       5.628   4.682   2.883  1.00  0.00     0.029 A 
ATOM     17  N   UNL     1       6.687   4.848   4.843  1.00  0.00    -0.354 N 
ATOM     18  C   UNL     1       7.005   1.403   7.463  1.00  0.00     0.074 A 
ATOM     19  C   UNL     1       6.212   0.301   6.968  1.00  0.00     0.031 C 
ATOM     20  C   UNL     1       6.095   5.938   2.982  1.00  0.00     0.029 A 
ATOM     21  C   UNL     1       6.794   6.085   4.255  1.00  0.00     0.049 A 
ATOM     22  H   UNL     1       7.074   4.634   5.722  1.00  0.00     0.167 HD
ATOM     23  C   UNL     1       7.773   1.346   8.574  1.00  0.00     0.037 A 
ATOM     24  C   UNL     1       7.404   7.202   4.694  1.00  0.00     0.037 A 
ATOM     25  C   UNL     1       8.541   2.452   9.072  1.00  0.00     0.049 A 
ATOM     26  C   UNL     1       8.171   7.149   5.987  1.00  0.00     0.074 A 
ATOM     27  C   UNL     1       9.341   2.513  10.197  1.00  0.00     0.029 A 
ATOM     28  N   UNL     1       8.591   3.702   8.470  1.00  0.00    -0.354 N 
ATOM     29  N   UNL     1       8.353   6.132   6.796  1.00  0.00    -0.248 NA
ATOM     30  C   UNL     1       8.842   8.384   6.414  1.00  0.00     0.031 C 
ATOM     31  C   UNL     1       9.852   3.812  10.293  1.00  0.00     0.029 A 
ATOM     32  C   UNL     1       9.400   4.547   9.207  1.00  0.00     0.049 A 
ATOM     33  H   UNL     1       8.122   3.950   7.641  1.00  0.00     0.167 HD
ATOM     34  C   UNL     1       9.190   6.591   7.804  1.00  0.00     0.074 A 
ATOM     35  C   UNL     1       9.478   7.980   7.506  1.00  0.00     0.031 C 
ATOM     36  C   UNL     1       9.684   5.921   8.874  1.00  0.00     0.037 A 
BRANCH  23  37
ATOM     37  C   UNL     1       7.807   0.036   9.298  1.00  0.00     0.057 A 
ATOM     38  C   UNL     1       7.138  -0.136  10.514  1.00  0.00     0.134 A 
ATOM     39  C   UNL     1       8.475  -1.075   8.762  1.00  0.00     0.134 A 
ATOM     40  F   UNL     1       6.473   0.885  11.076  1.00  0.00    -0.206 F 
ATOM     41  C   UNL     1       7.123  -1.369  11.168  1.00  0.00     0.040 A 
ATOM     42  C   UNL     1       8.449  -2.318   9.395  1.00  0.00     0.040 A 
ATOM     43  F   UNL     1       9.112  -0.981   7.585  1.00  0.00    -0.206 F 
ATOM     44  C   UNL     1       7.772  -2.466  10.604  1.00  0.00     0.006 A 
ENDBRANCH  23  37
BRANCH  24  45
ATOM     45  C   UNL     1       7.357   8.441   3.878  1.00  0.00     0.057 A 
ATOM     46  C   UNL     1       6.179   9.187   3.756  1.00  0.00     0.134 A 
ATOM     47  C   UNL     1       8.484   8.902   3.189  1.00  0.00     0.134 A 
ATOM     48  F   UNL     1       5.063   8.797   4.389  1.00  0.00    -0.206 F 
ATOM     49  C   UNL     1       6.120  10.342   2.973  1.00  0.00     0.040 A 
ATOM     50  C   UNL     1       8.445  10.064   2.416  1.00  0.00     0.040 A 
ATOM     51  F   UNL     1       9.647   8.239   3.277  1.00  0.00    -0.206 F 
ATOM     52  C   UNL     1       7.258  10.785   2.302  1.00  0.00     0.006 A 
ENDBRANCH  24  45
BRANCH  36  53
ATOM     53  C   UNL     1      10.622   6.663   9.777  1.00  0.00     0.057 A 
ATOM     54  C   UNL     1      11.989   6.357   9.783  1.00  0.00     0.134 A 
ATOM     55  C   UNL     1      10.164   7.620  10.689  1.00  0.00     0.134 A 
ATOM     56  F   UNL     1      12.486   5.441   8.938  1.00  0.00    -0.206 F 
ATOM     57  C   UNL     1      12.867   6.970  10.676  1.00  0.00     0.040 A 
ATOM     58  C   UNL     1      11.037   8.256  11.572  1.00  0.00     0.040 A 
ATOM     59  F   UNL     1       8.867   7.961  10.723  1.00  0.00    -0.206 F 
ATOM     60  C   UNL     1      12.391   7.924  11.573  1.00  0.00     0.006 A 
ENDBRANCH  36  53
ENDBRANCH  10  11
ENDBRANCH   3   5
ENDBRANCH   2   3
ENDBRANCH   1   2
BRANCH   1  61
ATOM     61  C   UNL     1       3.858   0.985  -2.053  1.00  0.00     0.275 C 
BRANCH  61  62
ATOM     62  O   UNL     1       3.506   1.918  -1.023  1.00  0.00    -0.458 OA
BRANCH  62  63
ATOM     63  C   UNL     1       2.173   2.146  -0.896  1.00  0.00     0.338 C 
ATOM     64  O   UNL     1       1.273   1.636  -1.539  1.00  0.00    -0.246 OA
BRANCH  63  65
ATOM     65  C   UNL     1       1.940   3.033   0.258  1.00  0.00     0.062 A 
ATOM     66  C   UNL     1       2.565   4.282   0.341  1.00  0.00     0.018 A 
ATOM     67  C   UNL     1       1.086   2.561   1.268  1.00  0.00     0.044 A 
ATOM     68  C   UNL     1       2.337   5.110   1.450  1.00  0.00     0.031 A 
ATOM     69  C   UNL     1       0.979   3.360   2.406  1.00  0.00     0.067 A 
ATOM     70  C   UNL     1       1.539   4.628   2.499  1.00  0.00     0.089 A 
ATOM     71  N   UNL     1       0.408   3.152   3.638  1.00  0.00    -0.338 N 
ATOM     72  N   UNL     1       1.182   5.226   3.675  1.00  0.00    -0.228 NA
ATOM     73  C   UNL     1       0.538   4.307   4.362  1.00  0.00     0.142 A 
ATOM     74  H   UNL     1      -0.019   2.320   3.946  1.00  0.00     0.168 HD
BRANCH  73  75
ATOM     75  C   UNL     1      -0.039   4.535   5.704  1.00  0.00     0.063 A 
ATOM     76  C   UNL     1      -0.042   3.663   6.764  1.00  0.00     0.117 A 
ATOM     77  C   UNL     1      -0.729   5.696   6.150  1.00  0.00     0.106 A 
ATOM     78  N   UNL     1      -0.613   4.358   7.793  1.00  0.00    -0.284 N 
ATOM     79  N   UNL     1      -1.100   5.556   7.433  1.00  0.00    -0.175 NA
ATOM     80  H   UNL     1      -0.662   4.012   8.713  1.00  0.00     0.189 HD
BRANCH  77  81
ATOM     81  C   UNL     1      -1.172   6.819   5.332  1.00  0.00     0.039 A 
ATOM     82  C   UNL     1      -1.886   6.561   4.146  1.00  0.00     0.016 A 
ATOM     83  C   UNL     1      -0.898   8.143   5.681  1.00  0.00     0.135 A 
ATOM     84  C   UNL     1      -2.292   7.609   3.321  1.00  0.00     0.040 A 
ATOM     85  C   UNL     1      -1.310   9.194   4.863  1.00  0.00     0.079 A 
ATOM     86  F   UNL     1      -0.215   8.437   6.797  1.00  0.00    -0.206 F 
ATOM     87  C   UNL     1      -1.998   8.915   3.689  1.00  0.00     0.126 A 
ATOM     88  F   UNL     1      -2.385   9.921   2.894  1.00  0.00    -0.207 F 
ENDBRANCH  77  81
ENDBRANCH  73  75
ENDBRANCH  63  65
ENDBRANCH  62  63
ENDBRANCH  61  62
ENDBRANCH   1  61
TORSDOF 13
