REMARK SMILES O=C(OCCOC(=O)c1cc2ccccc2cc1NS(=O)(=O)c1ccccc1Br)c1ccc(-c2c3nc(c(-c4c(F)cccc4F)c4ccc([nH]4)c(-c4c(F)cccc4F)c4nc(c(-c5c(F)cccc5F)c5ccc2[nH]5)C=C4)C=C3)cc1
REMARK SMILES IDX 5 1 4 2 3 3 2 4 1 5 30 6 31 7 83 8 32 9 82 10 33 11 34 12
REMARK SMILES IDX 35 13 76 14 36 15 81 16 75 17 77 18 37 19 80 20 74 21 73 22
REMARK SMILES IDX 38 24 64 25 47 26 63 27 48 28 51 29 62 30 78 31 49 32 50 33
REMARK SMILES IDX 61 35 79 36 52 37 39 38 40 39 45 40 41 41 42 42 44 43 46 44
REMARK SMILES IDX 43 45 65 46 66 47 71 48 67 49 68 50 70 51 72 52 69 53 53 54
REMARK SMILES IDX 54 55 59 56 55 57 56 58 58 59 60 60 57 61 6 62 7 63 8 64
REMARK SMILES IDX 9 65 10 66 18 67 11 68 17 69 12 70 16 71 13 72 15 73 14 74
REMARK SMILES IDX 19 75 20 77 21 78 22 79 23 80 24 81 28 82 25 83 27 84 29 85
REMARK SMILES IDX 26 86
REMARK H PARENT 77 23 51 34 19 76
REMARK Flexibility Score: inf
ROOT
ATOM      1  C   UNL     1       3.896   2.085  -0.788  1.00  0.00     0.275 C 
ENDROOT
BRANCH   1   2
ATOM      2  C   UNL     1       4.094   0.674  -1.351  1.00  0.00     0.275 C 
BRANCH   2   3
ATOM      3  O   UNL     1       3.104  -0.300  -0.972  1.00  0.00    -0.458 OA
BRANCH   3   4
ATOM      4  C   UNL     1       3.085  -1.103   0.117  1.00  0.00     0.338 C 
ATOM      5  O   UNL     1       2.296  -2.043   0.175  1.00  0.00    -0.246 OA
BRANCH   4   6
ATOM      6  C   UNL     1       3.865  -0.779   1.343  1.00  0.00     0.060 A 
ATOM      7  C   UNL     1       5.216  -0.431   1.365  1.00  0.00     0.016 A 
ATOM      8  C   UNL     1       3.185  -0.909   2.565  1.00  0.00     0.016 A 
ATOM      9  C   UNL     1       5.858  -0.145   2.575  1.00  0.00     0.010 A 
ATOM     10  C   UNL     1       3.813  -0.611   3.774  1.00  0.00     0.010 A 
ATOM     11  C   UNL     1       5.165  -0.243   3.786  1.00  0.00    -0.014 A 
BRANCH  11  12
ATOM     12  C   UNL     1       5.887  -0.159   5.074  1.00  0.00     0.031 A 
ATOM     13  C   UNL     1       6.202  -1.434   5.802  1.00  0.00     0.074 A 
ATOM     14  C   UNL     1       6.276   1.022   5.588  1.00  0.00     0.049 A 
ATOM     15  N   UNL     1       6.792  -1.597   6.957  1.00  0.00    -0.248 NA
ATOM     16  C   UNL     1       5.847  -2.691   5.121  1.00  0.00     0.031 C 
ATOM     17  C   UNL     1       6.138   2.323   4.941  1.00  0.00     0.029 A 
ATOM     18  N   UNL     1       6.814   1.316   6.816  1.00  0.00    -0.354 N 
ATOM     19  C   UNL     1       6.983  -2.965   7.083  1.00  0.00     0.074 A 
ATOM     20  C   UNL     1       6.323  -3.596   5.962  1.00  0.00     0.031 C 
ATOM     21  C   UNL     1       6.450   3.286   5.828  1.00  0.00     0.029 A 
ATOM     22  C   UNL     1       6.814   2.663   7.095  1.00  0.00     0.049 A 
ATOM     23  H   UNL     1       7.165   0.634   7.433  1.00  0.00     0.167 HD
ATOM     24  C   UNL     1       7.720  -3.625   8.005  1.00  0.00     0.037 A 
ATOM     25  C   UNL     1       7.020   3.298   8.263  1.00  0.00     0.037 A 
ATOM     26  C   UNL     1       8.332  -2.997   9.143  1.00  0.00     0.049 A 
ATOM     27  C   UNL     1       7.496   2.509   9.446  1.00  0.00     0.074 A 
ATOM     28  C   UNL     1       9.154  -3.550  10.107  1.00  0.00     0.029 A 
ATOM     29  N   UNL     1       8.152  -1.666   9.484  1.00  0.00    -0.354 N 
ATOM     30  N   UNL     1       7.701   1.220   9.549  1.00  0.00    -0.248 NA
ATOM     31  C   UNL     1       7.836   3.275  10.653  1.00  0.00     0.031 C 
ATOM     32  C   UNL     1       9.433  -2.561  11.060  1.00  0.00     0.029 A 
ATOM     33  C   UNL     1       8.815  -1.386  10.665  1.00  0.00     0.049 A 
ATOM     34  H   UNL     1       7.630  -1.015   8.961  1.00  0.00     0.167 HD
ATOM     35  C   UNL     1       8.279   1.030  10.795  1.00  0.00     0.074 A 
ATOM     36  C   UNL     1       8.308   2.324  11.446  1.00  0.00     0.031 C 
ATOM     37  C   UNL     1       8.812  -0.102  11.315  1.00  0.00     0.037 A 
BRANCH  24  38
ATOM     38  C   UNL     1       7.938  -5.086   7.766  1.00  0.00     0.057 A 
ATOM     39  C   UNL     1       8.783  -5.527   6.736  1.00  0.00     0.134 A 
ATOM     40  C   UNL     1       7.305  -6.056   8.547  1.00  0.00     0.134 A 
ATOM     41  F   UNL     1       9.405  -4.643   5.941  1.00  0.00    -0.206 F 
ATOM     42  C   UNL     1       8.969  -6.885   6.475  1.00  0.00     0.040 A 
ATOM     43  C   UNL     1       7.497  -7.418   8.306  1.00  0.00     0.040 A 
ATOM     44  F   UNL     1       6.482  -5.699   9.543  1.00  0.00    -0.206 F 
ATOM     45  C   UNL     1       8.325  -7.835   7.264  1.00  0.00     0.006 A 
ENDBRANCH  24  38
BRANCH  25  46
ATOM     46  C   UNL     1       6.718   4.741   8.413  1.00  0.00     0.057 A 
ATOM     47  C   UNL     1       7.552   5.744   7.918  1.00  0.00     0.134 A 
ATOM     48  C   UNL     1       5.579   5.139   9.124  1.00  0.00     0.134 A 
ATOM     49  F   UNL     1       8.682   5.425   7.271  1.00  0.00    -0.206 F 
ATOM     50  C   UNL     1       7.249   7.096   8.100  1.00  0.00     0.040 A 
ATOM     51  C   UNL     1       5.261   6.484   9.312  1.00  0.00     0.040 A 
ATOM     52  F   UNL     1       4.787   4.217   9.691  1.00  0.00    -0.206 F 
ATOM     53  C   UNL     1       6.096   7.468   8.791  1.00  0.00     0.006 A 
ENDBRANCH  25  46
BRANCH  37  54
ATOM     54  C   UNL     1       9.555   0.044  12.604  1.00  0.00     0.057 A 
ATOM     55  C   UNL     1       8.905   0.171  13.835  1.00  0.00     0.134 A 
ATOM     56  C   UNL     1      10.956   0.079  12.598  1.00  0.00     0.134 A 
ATOM     57  F   UNL     1       7.565   0.175  13.899  1.00  0.00    -0.206 F 
ATOM     58  C   UNL     1       9.624   0.345  15.018  1.00  0.00     0.040 A 
ATOM     59  C   UNL     1      11.686   0.233  13.776  1.00  0.00     0.040 A 
ATOM     60  F   UNL     1      11.635  -0.029  11.446  1.00  0.00    -0.206 F 
ATOM     61  C   UNL     1      11.018   0.373  14.990  1.00  0.00     0.006 A 
ENDBRANCH  37  54
ENDBRANCH  11  12
ENDBRANCH   4   6
ENDBRANCH   3   4
ENDBRANCH   2   3
ENDBRANCH   1   2
BRANCH   1  62
ATOM     62  O   UNL     1       3.349   2.120   0.540  1.00  0.00    -0.458 OA
BRANCH  62  63
ATOM     63  C   UNL     1       1.992   2.183   0.557  1.00  0.00     0.340 C 
ATOM     64  O   UNL     1       1.257   2.220  -0.417  1.00  0.00    -0.246 OA
BRANCH  63  65
ATOM     65  C   UNL     1       1.461   2.070   1.925  1.00  0.00     0.084 A 
ATOM     66  C   UNL     1       0.538   1.029   2.138  1.00  0.00     0.026 A 
ATOM     67  C   UNL     1       1.764   2.975   2.949  1.00  0.00     0.064 A 
ATOM     68  C   UNL     1      -0.006   0.818   3.411  1.00  0.00    -0.017 A 
ATOM     69  C   UNL     1       0.978   2.919   4.100  1.00  0.00     0.036 A 
ATOM     70  C   UNL     1      -0.710  -0.349   3.747  1.00  0.00     0.009 A 
ATOM     71  C   UNL     1       0.196   1.798   4.396  1.00  0.00    -0.016 A 
ATOM     72  C   UNL     1      -1.163  -0.552   5.053  1.00  0.00     0.001 A 
ATOM     73  C   UNL     1      -0.309   1.607   5.691  1.00  0.00     0.009 A 
ATOM     74  C   UNL     1      -0.964   0.425   6.024  1.00  0.00     0.001 A 
BRANCH  67  75
ATOM     75  N   UNL     1       3.013   3.686   2.972  1.00  0.00    -0.279 N 
ATOM     76  H   UNL     1       3.765   3.285   2.480  1.00  0.00     0.180 HD
BRANCH  75  77
ATOM     77  S   UNL     1       3.304   5.140   3.761  1.00  0.00     0.263 S 
ATOM     78  O   UNL     1       4.698   5.435   3.531  1.00  0.00    -0.201 OA
ATOM     79  O   UNL     1       2.250   6.035   3.321  1.00  0.00    -0.201 OA
BRANCH  77  80
ATOM     80  C   UNL     1       3.125   4.866   5.516  1.00  0.00     0.101 A 
ATOM     81  C   UNL     1       3.237   3.563   6.029  1.00  0.00     0.023 A 
ATOM     82  C   UNL     1       2.686   5.892   6.357  1.00  0.00     0.038 A 
ATOM     83  C   UNL     1       2.827   3.268   7.330  1.00  0.00     0.001 A 
ATOM     84  C   UNL     1       2.244   5.583   7.651  1.00  0.00     0.017 A 
ATOM     85  Br  UNL     1       2.718   7.736   5.906  1.00  0.00    -0.049 Br
ATOM     86  C   UNL     1       2.292   4.272   8.127  1.00  0.00     0.001 A 
ENDBRANCH  77  80
ENDBRANCH  75  77
ENDBRANCH  67  75
ENDBRANCH  63  65
ENDBRANCH  62  63
ENDBRANCH   1  62
TORSDOF 14
