REMARK SMILES Nc1cc(F)c([C@H]([NH3+])C(=O)OCCOC(=O)c2ccc(-c3c4nc(c(-c5c(F)cccc5F)c5ccc([nH]5)c(-c5c(F)cccc5F)c5nc(c(-c6c(F)cccc6F)c6ccc3[nH]6)C=C5)C=C4)cc2)cc1F
REMARK SMILES IDX 12 1 11 2 9 3 10 4 7 5 6 6 2 7 3 8 72 9 4 10 71 11 73 12
REMARK SMILES IDX 5 13 1 14 8 17 13 21 14 22 15 23 16 24 17 25 18 26 70 27
REMARK SMILES IDX 19 28 69 29 20 30 21 31 22 32 63 33 23 34 68 35 62 36 64 37
REMARK SMILES IDX 24 38 67 39 61 40 60 41 25 43 51 44 34 45 50 46 35 47 38 48
REMARK SMILES IDX 49 49 65 50 36 51 37 52 48 54 66 55 39 56 26 57 27 58 32 59
REMARK SMILES IDX 28 60 29 61 31 62 33 63 30 64 52 65 53 66 58 67 54 68 55 69
REMARK SMILES IDX 57 70 59 71 56 72 40 73 41 74 46 75 42 76 43 77 45 78 47 79
REMARK SMILES IDX 44 80
REMARK H PARENT 1 15 1 16 8 18 8 19 8 20 64 42 38 53
REMARK Flexibility Score: inf
ROOT
ATOM      1  C   UNL     1      -1.817   6.159   3.027  1.00  0.00     0.274 C 
ENDROOT
BRANCH   1   2
ATOM      2  O   UNL     1      -1.265   4.851   3.270  1.00  0.00    -0.457 OA
BRANCH   2   3
ATOM      3  C   UNL     1      -1.863   4.123   4.261  1.00  0.00     0.369 C 
ATOM      4  O   UNL     1      -2.812   4.510   4.938  1.00  0.00    -0.245 OA
BRANCH   3   5
ATOM      5  C   UNL     1      -1.185   2.752   4.460  1.00  0.00     0.326 C 
BRANCH   5   6
ATOM      6  C   UNL     1      -0.320   2.656   5.696  1.00  0.00     0.060 A 
ATOM      7  C   UNL     1       1.160   2.397   8.101  1.00  0.00     0.071 A 
ATOM      8  C   UNL     1       0.926   3.652   7.543  1.00  0.00     0.068 A 
ATOM      9  C   UNL     1       0.715   1.271   7.398  1.00  0.00     0.146 A 
ATOM     10  C   UNL     1       0.197   3.774   6.359  1.00  0.00     0.135 A 
ATOM     11  C   UNL     1      -0.024   1.388   6.223  1.00  0.00     0.055 A 
ATOM     12  F   UNL     1       0.977   0.044   7.875  1.00  0.00    -0.205 F 
ATOM     13  F   UNL     1       0.006   5.006   5.870  1.00  0.00    -0.206 F 
BRANCH   7  14
ATOM     14  N   UNL     1       1.927   2.269   9.253  1.00  0.00    -0.396 N 
ATOM     15  H   UNL     1       2.231   3.073   9.734  1.00  0.00     0.156 HD
ATOM     16  H   UNL     1       2.166   1.375   9.589  1.00  0.00     0.156 HD
ENDBRANCH   7  14
ENDBRANCH   5   6
BRANCH   5  17
ATOM     17  N   UNL     1      -0.492   2.268   3.247  1.00  0.00    -0.342 N 
ATOM     18  H   UNL     1       0.295   2.883   3.038  1.00  0.00     0.345 HD
ATOM     19  H   UNL     1      -1.141   2.268   2.461  1.00  0.00     0.345 HD
ATOM     20  H   UNL     1      -0.150   1.321   3.406  1.00  0.00     0.345 HD
ENDBRANCH   5  17
ENDBRANCH   3   5
ENDBRANCH   2   3
ENDBRANCH   1   2
BRANCH   1  21
ATOM     21  C   UNL     1      -2.782   6.150   1.839  1.00  0.00     0.275 C 
BRANCH  21  22
ATOM     22  O   UNL     1      -3.992   5.437   2.143  1.00  0.00    -0.458 OA
BRANCH  22  23
ATOM     23  C   UNL     1      -3.967   4.107   1.871  1.00  0.00     0.338 C 
ATOM     24  O   UNL     1      -3.069   3.481   1.350  1.00  0.00    -0.246 OA
BRANCH  23  25
ATOM     25  C   UNL     1      -5.167   3.486   2.461  1.00  0.00     0.060 A 
ATOM     26  C   UNL     1      -6.443   3.963   2.162  1.00  0.00     0.016 A 
ATOM     27  C   UNL     1      -4.998   2.395   3.320  1.00  0.00     0.016 A 
ATOM     28  C   UNL     1      -7.553   3.355   2.748  1.00  0.00     0.010 A 
ATOM     29  C   UNL     1      -6.107   1.792   3.910  1.00  0.00     0.010 A 
ATOM     30  C   UNL     1      -7.392   2.272   3.631  1.00  0.00    -0.014 A 
BRANCH  30  31
ATOM     31  C   UNL     1      -8.582   1.606   4.205  1.00  0.00     0.031 A 
ATOM     32  C   UNL     1      -8.976   1.822   5.634  1.00  0.00     0.074 A 
ATOM     33  C   UNL     1      -9.307   0.793   3.417  1.00  0.00     0.049 A 
ATOM     34  N   UNL     1     -10.053   1.420   6.261  1.00  0.00    -0.248 NA
ATOM     35  C   UNL     1      -8.032   2.574   6.473  1.00  0.00     0.031 C 
ATOM     36  C   UNL     1      -8.978   0.456   2.032  1.00  0.00     0.029 A 
ATOM     37  N   UNL     1     -10.469   0.111   3.665  1.00  0.00    -0.354 N 
ATOM     38  C   UNL     1      -9.931   1.893   7.561  1.00  0.00     0.074 A 
ATOM     39  C   UNL     1      -8.644   2.552   7.649  1.00  0.00     0.031 C 
ATOM     40  C   UNL     1      -9.934  -0.348   1.541  1.00  0.00     0.029 A 
ATOM     41  C   UNL     1     -10.931  -0.590   2.579  1.00  0.00     0.049 A 
ATOM     42  H   UNL     1     -10.927   0.122   4.536  1.00  0.00     0.167 HD
ATOM     43  C   UNL     1     -10.823   1.804   8.579  1.00  0.00     0.037 A 
ATOM     44  C   UNL     1     -12.043  -1.333   2.436  1.00  0.00     0.037 A 
ATOM     45  C   UNL     1     -12.085   1.113   8.491  1.00  0.00     0.049 A 
ATOM     46  C   UNL     1     -13.008  -1.437   3.582  1.00  0.00     0.074 A 
ATOM     47  C   UNL     1     -13.079   0.996   9.447  1.00  0.00     0.029 A 
ATOM     48  N   UNL     1     -12.517   0.398   7.381  1.00  0.00    -0.354 N 
ATOM     49  N   UNL     1     -12.936  -0.896   4.775  1.00  0.00    -0.248 NA
ATOM     50  C   UNL     1     -14.215  -2.242   3.356  1.00  0.00     0.031 C 
ATOM     51  C   UNL     1     -14.087   0.169   8.934  1.00  0.00     0.029 A 
ATOM     52  C   UNL     1     -13.747  -0.187   7.639  1.00  0.00     0.049 A 
ATOM     53  H   UNL     1     -12.021   0.318   6.534  1.00  0.00     0.167 HD
ATOM     54  C   UNL     1     -14.094  -1.281   5.437  1.00  0.00     0.074 A 
ATOM     55  C   UNL     1     -14.861  -2.081   4.502  1.00  0.00     0.031 C 
ATOM     56  C   UNL     1     -14.488  -0.998   6.704  1.00  0.00     0.037 A 
BRANCH  43  57
ATOM     57  C   UNL     1     -10.450   2.473   9.871  1.00  0.00     0.057 A 
ATOM     58  C   UNL     1     -10.167   1.723  11.019  1.00  0.00     0.134 A 
ATOM     59  C   UNL     1     -10.366   3.869   9.980  1.00  0.00     0.134 A 
ATOM     60  F   UNL     1     -10.238   0.384  10.993  1.00  0.00    -0.206 F 
ATOM     61  C   UNL     1      -9.800   2.334  12.220  1.00  0.00     0.040 A 
ATOM     62  C   UNL     1      -9.973   4.491  11.167  1.00  0.00     0.040 A 
ATOM     63  F   UNL     1     -10.619   4.650   8.918  1.00  0.00    -0.206 F 
ATOM     64  C   UNL     1      -9.690   3.721  12.293  1.00  0.00     0.006 A 
ENDBRANCH  43  57
BRANCH  44  65
ATOM     65  C   UNL     1     -12.318  -1.997   1.139  1.00  0.00     0.057 A 
ATOM     66  C   UNL     1     -11.552  -3.085   0.703  1.00  0.00     0.134 A 
ATOM     67  C   UNL     1     -13.338  -1.545   0.295  1.00  0.00     0.134 A 
ATOM     68  F   UNL     1     -10.553  -3.557   1.463  1.00  0.00    -0.206 F 
ATOM     69  C   UNL     1     -11.786  -3.695  -0.529  1.00  0.00     0.040 A 
ATOM     70  C   UNL     1     -13.599  -2.161  -0.930  1.00  0.00     0.040 A 
ATOM     71  F   UNL     1     -14.113  -0.515   0.665  1.00  0.00    -0.206 F 
ATOM     72  C   UNL     1     -12.816  -3.236  -1.347  1.00  0.00     0.006 A 
ENDBRANCH  44  65
BRANCH  56  73
ATOM     73  C   UNL     1     -15.813  -1.555   7.140  1.00  0.00     0.057 A 
ATOM     74  C   UNL     1     -16.915  -0.713   7.333  1.00  0.00     0.134 A 
ATOM     75  C   UNL     1     -15.998  -2.925   7.374  1.00  0.00     0.134 A 
ATOM     76  F   UNL     1     -16.807   0.609   7.133  1.00  0.00    -0.206 F 
ATOM     77  C   UNL     1     -18.154  -1.213   7.739  1.00  0.00     0.040 A 
ATOM     78  C   UNL     1     -17.239  -3.440   7.753  1.00  0.00     0.040 A 
ATOM     79  F   UNL     1     -14.987  -3.788   7.192  1.00  0.00    -0.206 F 
ATOM     80  C   UNL     1     -18.320  -2.581   7.941  1.00  0.00     0.006 A 
ENDBRANCH  56  73
ENDBRANCH  30  31
ENDBRANCH  23  25
ENDBRANCH  22  23
ENDBRANCH  21  22
ENDBRANCH   1  21
TORSDOF 14
