REMARK SMILES C[N@H+]1[C@H]2CC[C@@H]1C[N@@H+]([C@H](C(=O)OCCOC(=O)c1ccc(-c3c4nc(c(-c5c(F)cccc5F)c5ccc([nH]5)c(-c5c(F)cccc5F)c5nc(c(-c6c(F)cccc6F)c6ccc3[nH]6)C=C5)C=C4)cc1)c1ccccc1)CC2
REMARK SMILES IDX 13 1 12 2 10 3 11 4 9 5 8 6 7 8 6 9 1 10 2 11 3 12 4 14 5 16
REMARK SMILES IDX 78 17 79 18 72 20 73 21 77 22 74 23 76 24 75 25 14 26 15 27
REMARK SMILES IDX 16 28 17 29 18 30 19 31 71 32 20 33 70 34 21 35 22 36 23 37
REMARK SMILES IDX 64 38 24 39 69 40 63 41 65 42 25 43 68 44 62 45 61 46 26 48
REMARK SMILES IDX 52 49 35 50 51 51 36 52 39 53 50 54 66 55 37 56 38 57 49 59
REMARK SMILES IDX 67 60 40 61 27 62 28 63 33 64 29 65 30 66 32 67 34 68 31 69
REMARK SMILES IDX 53 70 54 71 59 72 55 73 56 74 58 75 60 76 57 77 41 78 42 79
REMARK SMILES IDX 47 80 43 81 44 82 46 83 48 84 45 85
REMARK H PARENT 8 7 2 13 65 47 39 58
REMARK Flexibility Score: 90.00
ROOT
ATOM      1  C   UNL     1      -0.268   4.464  -3.070  1.00  0.00     0.274 C 
ENDROOT
BRANCH   1   2
ATOM      2  O   UNL     1      -1.330   3.538  -2.748  1.00  0.00    -0.457 OA
BRANCH   2   3
ATOM      3  C   UNL     1      -1.228   2.272  -3.246  1.00  0.00     0.370 C 
ATOM      4  O   UNL     1      -0.225   1.856  -3.824  1.00  0.00    -0.245 OA
BRANCH   3   5
ATOM      5  C   UNL     1      -2.523   1.409  -3.057  1.00  0.00     0.326 C 
BRANCH   5   6
ATOM      6  N   UNL     1      -2.138   0.128  -2.381  1.00  0.00    -0.314 N 
ATOM      7  H   UNL     1      -1.246  -0.144  -2.793  1.00  0.00     0.349 HD
BRANCH   6   8
ATOM      8  C   UNL     1      -3.024  -1.003  -2.718  1.00  0.00     0.328 C 
BRANCH   8   9
ATOM      9  C   UNL     1      -2.444  -2.446  -2.581  1.00  0.00     0.240 C 
ATOM     10  C   UNL     1      -2.092  -4.219  -0.932  1.00  0.00     0.333 C 
ATOM     11  N   UNL     1      -2.134  -2.775  -1.176  1.00  0.00    -0.328 N 
ATOM     12  C   UNL     1      -0.807  -2.181  -0.949  1.00  0.00     0.190 CG0
ATOM     13  H   UNL     1      -2.852  -2.418  -0.546  1.00  0.00     0.348 HD
ATOM     14  C   UNL     1      -0.099  -2.116  -2.310  1.00  0.00     0.071 C 
ATOM     15  G   UNL     1      -1.016  -0.837  -0.257  1.00  0.00     0.000 G0
ATOM     16  C   UNL     1      -1.121  -2.601  -3.319  1.00  0.00     0.077 C 
ENDBRANCH   8   9
ENDBRANCH   6   8
BRANCH   6  17
ATOM     17  C   UNL     1      -1.796   0.277  -0.967  1.00  0.00     0.269 C 
BRANCH  17  18
ATOM     18  C   UNL     1      -1.016  -0.837  -0.257  1.00  0.00     0.126 CG0
ATOM     19  G   UNL     1      -0.807  -2.181  -0.949  1.00  0.00     0.000 G0
ENDBRANCH  17  18
ENDBRANCH   6  17
ENDBRANCH   5   6
BRANCH   5  20
ATOM     20  C   UNL     1      -3.789   2.159  -2.590  1.00  0.00     0.021 A 
ATOM     21  C   UNL     1      -4.670   1.691  -1.600  1.00  0.00     0.010 A 
ATOM     22  C   UNL     1      -4.168   3.346  -3.251  1.00  0.00     0.010 A 
ATOM     23  C   UNL     1      -5.827   2.392  -1.242  1.00  0.00     0.001 A 
ATOM     24  C   UNL     1      -5.321   4.054  -2.893  1.00  0.00     0.001 A 
ATOM     25  C   UNL     1      -6.148   3.579  -1.883  1.00  0.00     0.000 A 
ENDBRANCH   5  20
ENDBRANCH   3   5
ENDBRANCH   2   3
ENDBRANCH   1   2
BRANCH   1  26
ATOM     26  C   UNL     1       0.557   4.790  -1.828  1.00  0.00     0.275 C 
BRANCH  26  27
ATOM     27  O   UNL     1       1.320   3.625  -1.482  1.00  0.00    -0.458 OA
BRANCH  27  28
ATOM     28  C   UNL     1       1.449   3.341  -0.165  1.00  0.00     0.338 C 
ATOM     29  O   UNL     1       1.103   4.044   0.768  1.00  0.00    -0.246 OA
BRANCH  28  30
ATOM     30  C   UNL     1       2.026   1.978  -0.008  1.00  0.00     0.060 A 
ATOM     31  C   UNL     1       2.048   1.084  -1.074  1.00  0.00     0.016 A 
ATOM     32  C   UNL     1       2.442   1.536   1.253  1.00  0.00     0.016 A 
ATOM     33  C   UNL     1       2.362  -0.257  -0.848  1.00  0.00     0.010 A 
ATOM     34  C   UNL     1       2.817   0.193   1.453  1.00  0.00     0.010 A 
ATOM     35  C   UNL     1       2.706  -0.754   0.422  1.00  0.00    -0.014 A 
BRANCH  35  36
ATOM     36  C   UNL     1       2.790  -2.240   0.680  1.00  0.00     0.031 A 
ATOM     37  C   UNL     1       2.096  -2.869   1.880  1.00  0.00     0.074 A 
ATOM     38  C   UNL     1       3.371  -3.096  -0.191  1.00  0.00     0.049 A 
ATOM     39  N   UNL     1       2.249  -4.071   2.390  1.00  0.00    -0.248 NA
ATOM     40  C   UNL     1       1.109  -2.050   2.600  1.00  0.00     0.031 C 
ATOM     41  C   UNL     1       4.013  -2.731  -1.452  1.00  0.00     0.029 A 
ATOM     42  N   UNL     1       3.472  -4.471  -0.166  1.00  0.00    -0.354 N 
ATOM     43  C   UNL     1       1.470  -4.105   3.542  1.00  0.00     0.074 A 
ATOM     44  C   UNL     1       0.806  -2.823   3.634  1.00  0.00     0.031 C 
ATOM     45  C   UNL     1       4.323  -3.843  -2.131  1.00  0.00     0.029 A 
ATOM     46  C   UNL     1       4.072  -5.002  -1.282  1.00  0.00     0.049 A 
ATOM     47  H   UNL     1       3.145  -5.021   0.583  1.00  0.00     0.167 HD
ATOM     48  C   UNL     1       1.332  -5.102   4.452  1.00  0.00     0.037 A 
ATOM     49  C   UNL     1       4.459  -6.258  -1.582  1.00  0.00     0.037 A 
ATOM     50  C   UNL     1       1.881  -6.427   4.315  1.00  0.00     0.049 A 
ATOM     51  C   UNL     1       4.326  -7.348  -0.562  1.00  0.00     0.074 A 
ATOM     52  C   UNL     1       1.788  -7.496   5.193  1.00  0.00     0.029 A 
ATOM     53  N   UNL     1       2.585  -6.881   3.213  1.00  0.00    -0.354 N 
ATOM     54  N   UNL     1       3.766  -7.309   0.620  1.00  0.00    -0.248 NA
ATOM     55  C   UNL     1       4.943  -8.642  -0.894  1.00  0.00     0.031 C 
ATOM     56  C   UNL     1       2.458  -8.589   4.633  1.00  0.00     0.029 A 
ATOM     57  C   UNL     1       2.938  -8.210   3.391  1.00  0.00     0.049 A 
ATOM     58  H   UNL     1       2.803  -6.340   2.420  1.00  0.00     0.167 HD
ATOM     59  C   UNL     1       3.995  -8.555   1.188  1.00  0.00     0.074 A 
ATOM     60  C   UNL     1       4.700  -9.346   0.203  1.00  0.00     0.031 C 
ATOM     61  C   UNL     1       3.668  -8.990   2.429  1.00  0.00     0.037 A 
BRANCH  48  62
ATOM     62  C   UNL     1       0.608  -4.787   5.728  1.00  0.00     0.057 A 
ATOM     63  C   UNL     1      -0.786  -4.714   5.812  1.00  0.00     0.134 A 
ATOM     64  C   UNL     1       1.337  -4.623   6.915  1.00  0.00     0.134 A 
ATOM     65  F   UNL     1      -1.541  -4.853   4.712  1.00  0.00    -0.206 F 
ATOM     66  C   UNL     1      -1.429  -4.475   7.029  1.00  0.00     0.040 A 
ATOM     67  C   UNL     1       0.706  -4.407   8.140  1.00  0.00     0.040 A 
ATOM     68  F   UNL     1       2.677  -4.694   6.905  1.00  0.00    -0.206 F 
ATOM     69  C   UNL     1      -0.683  -4.329   8.199  1.00  0.00     0.006 A 
ENDBRANCH  48  62
BRANCH  49  70
ATOM     70  C   UNL     1       5.132  -6.521  -2.880  1.00  0.00     0.057 A 
ATOM     71  C   UNL     1       4.512  -7.274  -3.881  1.00  0.00     0.134 A 
ATOM     72  C   UNL     1       6.402  -5.995  -3.156  1.00  0.00     0.134 A 
ATOM     73  F   UNL     1       3.315  -7.836  -3.661  1.00  0.00    -0.206 F 
ATOM     74  C   UNL     1       5.122  -7.477  -5.120  1.00  0.00     0.040 A 
ATOM     75  C   UNL     1       7.007  -6.161  -4.401  1.00  0.00     0.040 A 
ATOM     76  F   UNL     1       7.051  -5.273  -2.231  1.00  0.00    -0.206 F 
ATOM     77  C   UNL     1       6.366  -6.905  -5.388  1.00  0.00     0.006 A 
ENDBRANCH  49  70
BRANCH  61  78
ATOM     78  C   UNL     1       4.094 -10.377   2.801  1.00  0.00     0.057 A 
ATOM     79  C   UNL     1       5.428 -10.669   3.115  1.00  0.00     0.134 A 
ATOM     80  C   UNL     1       3.170 -11.427   2.861  1.00  0.00     0.134 A 
ATOM     81  F   UNL     1       6.364  -9.709   3.062  1.00  0.00    -0.206 F 
ATOM     82  C   UNL     1       5.831 -11.961   3.455  1.00  0.00     0.040 A 
ATOM     83  C   UNL     1       3.558 -12.719   3.218  1.00  0.00     0.040 A 
ATOM     84  F   UNL     1       1.876 -11.213   2.577  1.00  0.00    -0.206 F 
ATOM     85  C   UNL     1       4.893 -12.990   3.511  1.00  0.00     0.006 A 
ENDBRANCH  61  78
ENDBRANCH  35  36
ENDBRANCH  28  30
ENDBRANCH  27  28
ENDBRANCH  26  27
ENDBRANCH   1  26
TORSDOF 13
