REMARK SMILES NC(=O)c1cc(NC(=O)/C=C\C(=O)OCCOC(=O)c2ccc(-c3c4nc(c(-c5c(F)cccc5F)c5ccc([nH]5)c(-c5c(F)cccc5F)c5nc(c(-c6c(F)cccc6F)c6ccc3[nH]6)C=C5)C=C4)cc2)ccc1N1CCOCC1
REMARK SMILES IDX 15 1 14 2 12 3 13 4 11 5 10 6 8 7 7 8 9 10 6 11 4 12 5 13
REMARK SMILES IDX 76 14 75 15 74 16 2 17 1 18 3 21 77 22 78 23 82 24 79 25
REMARK SMILES IDX 81 26 80 27 16 28 17 29 18 30 19 31 20 32 21 33 73 34 22 35
REMARK SMILES IDX 72 36 23 37 24 38 25 39 66 40 26 41 71 42 65 43 67 44 27 45
REMARK SMILES IDX 70 46 64 47 63 48 28 50 54 51 37 52 53 53 38 54 41 55 52 56
REMARK SMILES IDX 68 57 39 58 40 59 51 61 69 62 42 63 29 64 30 65 35 66 31 67
REMARK SMILES IDX 32 68 34 69 36 70 33 71 55 72 56 73 61 74 57 75 58 76 60 77
REMARK SMILES IDX 62 78 59 79 43 80 44 81 49 82 45 83 46 84 48 85 50 86 47 87
REMARK H PARENT 7 9 1 19 1 20 67 49 41 60
REMARK Flexibility Score: inf
ROOT
ATOM      1  C   UNL     1       3.141  -2.230   4.564  1.00  0.00     0.275 C 
ENDROOT
BRANCH   1   2
ATOM      2  O   UNL     1       1.877  -2.921   4.598  1.00  0.00    -0.459 OA
BRANCH   2   3
ATOM      3  C   UNL     1       0.968  -2.461   3.714  1.00  0.00     0.331 C 
ATOM      4  O   UNL     1       1.192  -1.690   2.793  1.00  0.00    -0.247 OA
BRANCH   3   5
ATOM      5  C   UNL     1      -0.376  -2.999   3.918  1.00  0.00     0.099 C 
ATOM      6  C   UNL     1      -1.172  -2.736   4.964  1.00  0.00     0.079 C 
BRANCH   6   7
ATOM      7  C   UNL     1      -0.843  -2.031   6.225  1.00  0.00     0.248 C 
ATOM      8  N   UNL     1      -0.199  -0.831   6.281  1.00  0.00    -0.322 N 
ATOM      9  H   UNL     1       0.091  -0.577   7.186  1.00  0.00     0.170 HD
ATOM     10  O   UNL     1      -1.141  -2.598   7.278  1.00  0.00    -0.270 OA
BRANCH   8  11
ATOM     11  C   UNL     1       0.130   0.111   5.295  1.00  0.00     0.042 A 
ATOM     12  C   UNL     1      -0.004   0.945   3.030  1.00  0.00     0.064 A 
ATOM     13  C   UNL     1      -0.594   0.283   4.125  1.00  0.00     0.042 A 
ATOM     14  C   UNL     1       1.303   1.482   3.107  1.00  0.00     0.050 A 
ATOM     15  C   UNL     1       1.901   1.483   4.378  1.00  0.00     0.029 A 
ATOM     16  C   UNL     1       1.315   0.824   5.467  1.00  0.00     0.028 A 
BRANCH  12  17
ATOM     17  C   UNL     1      -0.745   0.752   1.760  1.00  0.00     0.250 C 
ATOM     18  N   UNL     1      -0.026   0.226   0.733  1.00  0.00    -0.366 N 
ATOM     19  H   UNL     1      -0.455   0.070  -0.139  1.00  0.00     0.159 HD
ATOM     20  H   UNL     1       0.923  -0.001   0.862  1.00  0.00     0.159 HD
ATOM     21  O   UNL     1      -1.950   0.941   1.673  1.00  0.00    -0.269 OA
ENDBRANCH  12  17
BRANCH  14  22
ATOM     22  N   UNL     1       2.027   1.891   1.997  1.00  0.00    -0.366 N 
ATOM     23  C   UNL     1       1.582   3.042   1.199  1.00  0.00     0.145 C 
ATOM     24  C   UNL     1       3.448   1.542   1.847  1.00  0.00     0.145 C 
ATOM     25  C   UNL     1       2.032   2.868  -0.264  1.00  0.00     0.181 C 
ATOM     26  C   UNL     1       3.791   1.430   0.353  1.00  0.00     0.181 C 
ATOM     27  O   UNL     1       3.449   2.629  -0.359  1.00  0.00    -0.378 OA
ENDBRANCH  14  22
ENDBRANCH   8  11
ENDBRANCH   6   7
ENDBRANCH   3   5
ENDBRANCH   2   3
ENDBRANCH   1   2
BRANCH   1  28
ATOM     28  C   UNL     1       4.147  -2.694   3.497  1.00  0.00     0.275 C 
BRANCH  28  29
ATOM     29  O   UNL     1       3.756  -2.371   2.149  1.00  0.00    -0.458 OA
BRANCH  29  30
ATOM     30  C   UNL     1       3.011  -3.322   1.526  1.00  0.00     0.338 C 
ATOM     31  O   UNL     1       2.726  -4.422   1.956  1.00  0.00    -0.246 OA
BRANCH  30  32
ATOM     32  C   UNL     1       2.428  -2.764   0.283  1.00  0.00     0.060 A 
ATOM     33  C   UNL     1       1.058  -2.955   0.053  1.00  0.00     0.016 A 
ATOM     34  C   UNL     1       3.211  -2.091  -0.655  1.00  0.00     0.016 A 
ATOM     35  C   UNL     1       0.465  -2.481  -1.117  1.00  0.00     0.010 A 
ATOM     36  C   UNL     1       2.622  -1.627  -1.835  1.00  0.00     0.010 A 
ATOM     37  C   UNL     1       1.254  -1.843  -2.081  1.00  0.00    -0.014 A 
BRANCH  37  38
ATOM     38  C   UNL     1       0.730  -1.675  -3.456  1.00  0.00     0.031 A 
ATOM     39  C   UNL     1       0.991  -2.795  -4.423  1.00  0.00     0.074 A 
ATOM     40  C   UNL     1       0.049  -0.583  -3.842  1.00  0.00     0.049 A 
ATOM     41  N   UNL     1       0.716  -2.879  -5.696  1.00  0.00    -0.248 NA
ATOM     42  C   UNL     1       1.672  -3.979  -3.870  1.00  0.00     0.031 C 
ATOM     43  C   UNL     1      -0.304   0.544  -2.987  1.00  0.00     0.029 A 
ATOM     44  N   UNL     1      -0.466  -0.243  -5.068  1.00  0.00    -0.354 N 
ATOM     45  C   UNL     1       1.191  -4.121  -6.096  1.00  0.00     0.074 A 
ATOM     46  C   UNL     1       1.811  -4.737  -4.944  1.00  0.00     0.031 C 
ATOM     47  C   UNL     1      -0.987   1.450  -3.707  1.00  0.00     0.029 A 
ATOM     48  C   UNL     1      -1.069   0.991  -5.090  1.00  0.00     0.049 A 
ATOM     49  H   UNL     1      -0.408  -0.829  -5.858  1.00  0.00     0.167 HD
ATOM     50  C   UNL     1       1.111  -4.703  -7.314  1.00  0.00     0.037 A 
ATOM     51  C   UNL     1      -1.598   1.680  -6.120  1.00  0.00     0.037 A 
ATOM     52  C   UNL     1       0.527  -4.067  -8.462  1.00  0.00     0.049 A 
ATOM     53  C   UNL     1      -1.572   1.063  -7.494  1.00  0.00     0.074 A 
ATOM     54  C   UNL     1       0.411  -4.550  -9.752  1.00  0.00     0.029 A 
ATOM     55  N   UNL     1      -0.029  -2.795  -8.456  1.00  0.00    -0.354 N 
ATOM     56  N   UNL     1      -1.131  -0.116  -7.865  1.00  0.00    -0.248 NA
ATOM     57  C   UNL     1      -2.112   1.874  -8.594  1.00  0.00     0.031 C 
ATOM     58  C   UNL     1      -0.166  -3.547 -10.539  1.00  0.00     0.029 A 
ATOM     59  C   UNL     1      -0.467  -2.465  -9.726  1.00  0.00     0.049 A 
ATOM     60  H   UNL     1      -0.100  -2.213  -7.664  1.00  0.00     0.167 HD
ATOM     61  C   UNL     1      -1.375  -0.204  -9.230  1.00  0.00     0.074 A 
ATOM     62  C   UNL     1      -2.009   1.039  -9.619  1.00  0.00     0.031 C 
ATOM     63  C   UNL     1      -1.105  -1.222 -10.085  1.00  0.00     0.037 A 
BRANCH  50  64
ATOM     64  C   UNL     1       1.716  -6.069  -7.451  1.00  0.00     0.057 A 
ATOM     65  C   UNL     1       1.165  -7.190  -6.812  1.00  0.00     0.134 A 
ATOM     66  C   UNL     1       2.890  -6.260  -8.189  1.00  0.00     0.134 A 
ATOM     67  F   UNL     1       0.057  -7.071  -6.066  1.00  0.00    -0.206 F 
ATOM     68  C   UNL     1       1.783  -8.441  -6.870  1.00  0.00     0.040 A 
ATOM     69  C   UNL     1       3.499  -7.513  -8.280  1.00  0.00     0.040 A 
ATOM     70  F   UNL     1       3.473  -5.231  -8.821  1.00  0.00    -0.206 F 
ATOM     71  C   UNL     1       2.952  -8.604  -7.609  1.00  0.00     0.006 A 
ENDBRANCH  50  64
BRANCH  51  72
ATOM     72  C   UNL     1      -2.190   3.026  -5.903  1.00  0.00     0.057 A 
ATOM     73  C   UNL     1      -3.564   3.245  -6.064  1.00  0.00     0.134 A 
ATOM     74  C   UNL     1      -1.403   4.131  -5.556  1.00  0.00     0.134 A 
ATOM     75  F   UNL     1      -4.370   2.234  -6.422  1.00  0.00    -0.206 F 
ATOM     76  C   UNL     1      -4.130   4.512  -5.904  1.00  0.00     0.040 A 
ATOM     77  C   UNL     1      -1.958   5.398  -5.367  1.00  0.00     0.040 A 
ATOM     78  F   UNL     1      -0.079   3.994  -5.386  1.00  0.00    -0.206 F 
ATOM     79  C   UNL     1      -3.326   5.593  -5.549  1.00  0.00     0.006 A 
ENDBRANCH  51  72
BRANCH  63  80
ATOM     80  C   UNL     1      -1.539  -1.054 -11.512  1.00  0.00     0.057 A 
ATOM     81  C   UNL     1      -0.901  -0.165 -12.385  1.00  0.00     0.134 A 
ATOM     82  C   UNL     1      -2.585  -1.831 -12.028  1.00  0.00     0.134 A 
ATOM     83  F   UNL     1       0.099   0.617 -11.950  1.00  0.00    -0.206 F 
ATOM     84  C   UNL     1      -1.303  -0.037 -13.716  1.00  0.00     0.040 A 
ATOM     85  C   UNL     1      -2.974  -1.736 -13.364  1.00  0.00     0.040 A 
ATOM     86  F   UNL     1      -3.231  -2.710 -11.248  1.00  0.00    -0.206 F 
ATOM     87  C   UNL     1      -2.337  -0.831 -14.210  1.00  0.00     0.006 A 
ENDBRANCH  63  80
ENDBRANCH  37  38
ENDBRANCH  30  32
ENDBRANCH  29  30
ENDBRANCH  28  29
ENDBRANCH   1  28
TORSDOF 15
