REMARK SMILES CCN(CC)C(=O)COc1cc(C)ccc1C(=O)OCCOC(=O)c1ccc(-c2c3nc(c(-c4c(F)cccc4F)c4ccc([nH]4)c(-c4c(F)cccc4F)c4nc(c(-c5c(F)cccc5F)c5ccc2[nH]5)C=C4)C=C3)cc1
REMARK SMILES IDX 20 1 19 2 17 3 18 4 16 5 10 6 11 7 12 8 15 9 13 10 14 11
REMARK SMILES IDX 9 12 8 13 6 14 3 15 7 16 2 17 1 18 4 19 5 20 21 21 22 22
REMARK SMILES IDX 23 23 24 24 25 25 26 26 78 27 27 28 77 29 28 30 29 31 30 32
REMARK SMILES IDX 71 33 31 34 76 35 70 36 72 37 32 38 75 39 69 40 68 41 33 43
REMARK SMILES IDX 59 44 42 45 58 46 43 47 46 48 57 49 73 50 44 51 45 52 56 54
REMARK SMILES IDX 74 55 47 56 34 57 35 58 40 59 36 60 37 61 39 62 41 63 38 64
REMARK SMILES IDX 60 65 61 66 66 67 62 68 63 69 65 70 67 71 64 72 48 73 49 74
REMARK SMILES IDX 54 75 50 76 51 77 53 78 55 79 52 80
REMARK H PARENT 72 42 46 53
REMARK Flexibility Score: inf
ROOT
ATOM      1  C   UNL     1       5.289  -6.629   1.679  1.00  0.00     0.275 C 
ENDROOT
BRANCH   1   2
ATOM      2  O   UNL     1       5.248  -5.246   2.042  1.00  0.00    -0.458 OA
BRANCH   2   3
ATOM      3  C   UNL     1       3.991  -4.748   2.070  1.00  0.00     0.342 C 
ATOM      4  O   UNL     1       2.964  -5.362   1.824  1.00  0.00    -0.246 OA
BRANCH   3   5
ATOM      5  C   UNL     1       4.001  -3.299   2.280  1.00  0.00     0.102 A 
ATOM      6  C   UNL     1       3.442  -2.558   1.245  1.00  0.00     0.134 A 
ATOM      7  C   UNL     1       3.231  -1.195   1.410  1.00  0.00     0.050 A 
ATOM      8  C   UNL     1       3.535  -0.575   2.630  1.00  0.00    -0.047 A 
ATOM      9  C   UNL     1       4.394  -2.687   3.472  1.00  0.00     0.020 A 
ATOM     10  C   UNL     1       3.123   0.850   2.872  1.00  0.00     0.044 C 
ATOM     11  C   UNL     1       4.128  -1.327   3.655  1.00  0.00     0.004 A 
BRANCH   6  12
ATOM     12  O   UNL     1       2.953  -3.276   0.194  1.00  0.00    -0.483 OA
BRANCH  12  13
ATOM     13  C   UNL     1       3.392  -2.923  -1.096  1.00  0.00     0.329 C 
BRANCH  13  14
ATOM     14  C   UNL     1       2.509  -1.868  -1.738  1.00  0.00     0.260 C 
ATOM     15  N   UNL     1       1.127  -1.938  -1.555  1.00  0.00    -0.340 N 
ATOM     16  O   UNL     1       3.040  -0.951  -2.373  1.00  0.00    -0.271 OA
BRANCH  15  17
ATOM     17  C   UNL     1       0.374  -0.716  -1.822  1.00  0.00     0.116 C 
ATOM     18  C   UNL     1       0.539   0.293  -0.693  1.00  0.00     0.027 C 
ENDBRANCH  15  17
BRANCH  15  19
ATOM     19  C   UNL     1       0.377  -3.075  -0.987  1.00  0.00     0.116 C 
ATOM     20  C   UNL     1       0.472  -4.331  -1.843  1.00  0.00     0.027 C 
ENDBRANCH  15  19
ENDBRANCH  13  14
ENDBRANCH  12  13
ENDBRANCH   6  12
ENDBRANCH   3   5
ENDBRANCH   2   3
ENDBRANCH   1   2
BRANCH   1  21
ATOM     21  C   UNL     1       6.224  -7.420   2.593  1.00  0.00     0.275 C 
BRANCH  21  22
ATOM     22  O   UNL     1       6.493  -6.883   3.927  1.00  0.00    -0.458 OA
BRANCH  22  23
ATOM     23  C   UNL     1       5.650  -6.306   4.822  1.00  0.00     0.338 C 
ATOM     24  O   UNL     1       6.056  -5.556   5.706  1.00  0.00    -0.246 OA
BRANCH  23  25
ATOM     25  C   UNL     1       4.209  -6.572   4.703  1.00  0.00     0.060 A 
ATOM     26  C   UNL     1       3.270  -5.578   5.043  1.00  0.00     0.016 A 
ATOM     27  C   UNL     1       3.799  -7.783   4.170  1.00  0.00     0.016 A 
ATOM     28  C   UNL     1       1.926  -5.762   4.735  1.00  0.00     0.010 A 
ATOM     29  C   UNL     1       2.525  -7.887   3.687  1.00  0.00     0.010 A 
ATOM     30  C   UNL     1       1.577  -6.913   4.031  1.00  0.00    -0.014 A 
BRANCH  30  31
ATOM     31  C   UNL     1       0.213  -7.386   3.889  1.00  0.00     0.031 A 
ATOM     32  C   UNL     1      -0.716  -6.798   2.921  1.00  0.00     0.074 A 
ATOM     33  C   UNL     1      -0.029  -8.446   4.690  1.00  0.00     0.049 A 
ATOM     34  N   UNL     1      -1.980  -6.668   3.122  1.00  0.00    -0.248 NA
ATOM     35  C   UNL     1      -0.287  -6.263   1.631  1.00  0.00     0.031 C 
ATOM     36  C   UNL     1      -1.138  -9.371   4.779  1.00  0.00     0.029 A 
ATOM     37  N   UNL     1       0.783  -8.798   5.778  1.00  0.00    -0.354 N 
ATOM     38  C   UNL     1      -2.557  -6.391   1.898  1.00  0.00     0.074 A 
ATOM     39  C   UNL     1      -1.463  -5.985   1.055  1.00  0.00     0.031 C 
ATOM     40  C   UNL     1      -1.104  -9.948   6.000  1.00  0.00     0.029 A 
ATOM     41  C   UNL     1      -0.030  -9.322   6.771  1.00  0.00     0.049 A 
ATOM     42  H   UNL     1       1.761  -8.692   5.827  1.00  0.00     0.167 HD
ATOM     43  C   UNL     1      -3.851  -6.766   1.673  1.00  0.00     0.037 A 
ATOM     44  C   UNL     1      -0.158  -8.566   7.901  1.00  0.00     0.037 A 
ATOM     45  C   UNL     1      -4.366  -7.427   2.872  1.00  0.00     0.049 A 
ATOM     46  C   UNL     1      -1.540  -7.961   7.971  1.00  0.00     0.074 A 
ATOM     47  C   UNL     1      -4.376  -8.767   3.227  1.00  0.00     0.029 A 
ATOM     48  N   UNL     1      -4.519  -6.705   4.050  1.00  0.00    -0.354 N 
ATOM     49  N   UNL     1      -2.301  -7.742   6.931  1.00  0.00    -0.248 NA
ATOM     50  C   UNL     1      -2.185  -7.608   9.228  1.00  0.00     0.031 C 
ATOM     51  C   UNL     1      -4.419  -8.840   4.643  1.00  0.00     0.029 A 
ATOM     52  C   UNL     1      -4.456  -7.550   5.145  1.00  0.00     0.049 A 
ATOM     53  H   UNL     1      -4.654  -5.731   4.098  1.00  0.00     0.167 HD
ATOM     54  C   UNL     1      -3.521  -7.287   7.350  1.00  0.00     0.074 A 
ATOM     55  C   UNL     1      -3.397  -7.220   8.797  1.00  0.00     0.031 C 
ATOM     56  C   UNL     1      -4.550  -7.014   6.494  1.00  0.00     0.037 A 
BRANCH  43  57
ATOM     57  C   UNL     1      -4.495  -6.899   0.305  1.00  0.00     0.057 A 
ATOM     58  C   UNL     1      -5.502  -7.864   0.077  1.00  0.00     0.134 A 
ATOM     59  C   UNL     1      -4.162  -6.143  -0.833  1.00  0.00     0.134 A 
ATOM     60  F   UNL     1      -6.010  -8.601   1.073  1.00  0.00    -0.206 F 
ATOM     61  C   UNL     1      -6.048  -8.126  -1.187  1.00  0.00     0.040 A 
ATOM     62  C   UNL     1      -4.677  -6.417  -2.113  1.00  0.00     0.040 A 
ATOM     63  F   UNL     1      -3.360  -5.072  -0.753  1.00  0.00    -0.206 F 
ATOM     64  C   UNL     1      -5.615  -7.422  -2.297  1.00  0.00     0.006 A 
ENDBRANCH  43  57
BRANCH  44  65
ATOM     65  C   UNL     1       1.121  -7.884   8.320  1.00  0.00     0.057 A 
ATOM     66  C   UNL     1       2.289  -8.666   8.472  1.00  0.00     0.134 A 
ATOM     67  C   UNL     1       1.314  -6.499   8.290  1.00  0.00     0.134 A 
ATOM     68  F   UNL     1       2.200 -10.005   8.526  1.00  0.00    -0.206 F 
ATOM     69  C   UNL     1       3.577  -8.116   8.468  1.00  0.00     0.040 A 
ATOM     70  C   UNL     1       2.602  -5.933   8.319  1.00  0.00     0.040 A 
ATOM     71  F   UNL     1       0.275  -5.664   8.152  1.00  0.00    -0.206 F 
ATOM     72  C   UNL     1       3.737  -6.741   8.366  1.00  0.00     0.006 A 
ENDBRANCH  44  65
BRANCH  56  73
ATOM     73  C   UNL     1      -5.807  -6.290   6.885  1.00  0.00     0.057 A 
ATOM     74  C   UNL     1      -5.858  -5.311   7.885  1.00  0.00     0.134 A 
ATOM     75  C   UNL     1      -6.995  -6.460   6.140  1.00  0.00     0.134 A 
ATOM     76  F   UNL     1      -4.764  -4.947   8.568  1.00  0.00    -0.206 F 
ATOM     77  C   UNL     1      -7.033  -4.619   8.191  1.00  0.00     0.040 A 
ATOM     78  C   UNL     1      -8.151  -5.720   6.386  1.00  0.00     0.040 A 
ATOM     79  F   UNL     1      -7.077  -7.330   5.122  1.00  0.00    -0.206 F 
ATOM     80  C   UNL     1      -8.182  -4.815   7.435  1.00  0.00     0.006 A 
ENDBRANCH  56  73
ENDBRANCH  30  31
ENDBRANCH  23  25
ENDBRANCH  22  23
ENDBRANCH  21  22
ENDBRANCH   1  21
TORSDOF 16
