REMARK SMILES CC(C)(C)C[N@H+]1[C@@H](C(=O)OCCOC(=O)c2ccc(-c3c4nc(c(-c5c(F)cccc5F)c5ccc([nH]5)c(-c5c(F)cccc5F)c5nc(c(-c6c(F)cccc6F)c6ccc3[nH]6)C=C5)C=C4)cc2)CC[C@H]2CCCC[C@@H]21
REMARK SMILES IDX 11 1 10 2 8 3 9 4 7 5 6 6 77 7 70 9 72 10 76 11 71 12 73 13
REMARK SMILES IDX 75 14 74 15 5 16 2 17 1 18 3 19 4 20 12 21 13 22 14 23 15 24
REMARK SMILES IDX 16 25 17 26 69 27 18 28 68 29 19 30 20 31 21 32 62 33 22 34
REMARK SMILES IDX 67 35 61 36 63 37 23 38 66 39 60 40 59 41 24 43 50 44 33 45
REMARK SMILES IDX 49 46 34 47 37 48 48 49 64 50 35 51 36 52 47 54 65 55 38 56
REMARK SMILES IDX 25 57 26 58 31 59 27 60 28 61 30 62 32 63 29 64 51 65 52 66
REMARK SMILES IDX 57 67 53 68 54 69 56 70 58 71 55 72 39 73 40 74 45 75 41 76
REMARK SMILES IDX 42 77 44 78 46 79 43 80
REMARK H PARENT 6 8 63 42 37 53
REMARK Flexibility Score: inf
ROOT
ATOM      1  C   UNL     1       4.460  -3.477  -1.773  1.00  0.00     0.274 C 
ENDROOT
BRANCH   1   2
ATOM      2  O   UNL     1       3.021  -3.513  -1.712  1.00  0.00    -0.458 OA
BRANCH   2   3
ATOM      3  C   UNL     1       2.364  -2.662  -2.549  1.00  0.00     0.365 C 
ATOM      4  O   UNL     1       2.920  -1.890  -3.324  1.00  0.00    -0.245 OA
BRANCH   3   5
ATOM      5  C   UNL     1       0.832  -2.770  -2.438  1.00  0.00     0.295 C 
ATOM      6  N   UNL     1       0.241  -1.745  -1.523  1.00  0.00    -0.320 N 
ATOM      7  C   UNL     1      -1.229  -1.700  -1.719  1.00  0.00     0.187 C 
ATOM      8  H   UNL     1       0.616  -0.824  -1.751  1.00  0.00     0.349 HD
ATOM      9  C   UNL     1       0.277  -4.186  -2.175  1.00  0.00     0.078 C 
ATOM     10  C   UNL     1      -1.836  -2.873  -2.535  1.00  0.00     0.048 C 
ATOM     11  C   UNL     1      -1.634  -0.387  -2.407  1.00  0.00     0.065 C 
ATOM     12  C   UNL     1      -1.255  -4.194  -2.037  1.00  0.00     0.016 C 
ATOM     13  C   UNL     1      -3.364  -2.798  -2.458  1.00  0.00     0.010 C 
ATOM     14  C   UNL     1      -3.159  -0.250  -2.440  1.00  0.00     0.006 C 
ATOM     15  C   UNL     1      -3.860  -1.470  -3.041  1.00  0.00     0.001 C 
BRANCH   6  16
ATOM     16  C   UNL     1       0.621  -2.012  -0.113  1.00  0.00     0.269 C 
BRANCH  16  17
ATOM     17  C   UNL     1       0.481  -0.867   0.940  1.00  0.00     0.011 C 
ATOM     18  C   UNL     1       1.163   0.419   0.448  1.00  0.00     0.017 C 
ATOM     19  C   UNL     1       1.200  -1.342   2.224  1.00  0.00     0.017 C 
ATOM     20  C   UNL     1      -0.975  -0.556   1.323  1.00  0.00     0.017 C 
ENDBRANCH  16  17
ENDBRANCH   6  16
ENDBRANCH   3   5
ENDBRANCH   2   3
ENDBRANCH   1   2
BRANCH   1  21
ATOM     21  C   UNL     1       5.015  -4.723  -2.466  1.00  0.00     0.275 C 
BRANCH  21  22
ATOM     22  O   UNL     1       4.606  -4.779  -3.845  1.00  0.00    -0.458 OA
BRANCH  22  23
ATOM     23  C   UNL     1       3.481  -5.489  -4.073  1.00  0.00     0.338 C 
ATOM     24  O   UNL     1       2.821  -6.125  -3.262  1.00  0.00    -0.246 OA
BRANCH  23  25
ATOM     25  C   UNL     1       3.051  -5.300  -5.462  1.00  0.00     0.060 A 
ATOM     26  C   UNL     1       1.886  -4.566  -5.697  1.00  0.00     0.016 A 
ATOM     27  C   UNL     1       3.723  -5.923  -6.513  1.00  0.00     0.016 A 
ATOM     28  C   UNL     1       1.361  -4.476  -6.979  1.00  0.00     0.010 A 
ATOM     29  C   UNL     1       3.207  -5.816  -7.807  1.00  0.00     0.010 A 
ATOM     30  C   UNL     1       2.013  -5.109  -8.041  1.00  0.00    -0.014 A 
BRANCH  30  31
ATOM     31  C   UNL     1       1.406  -5.074  -9.389  1.00  0.00     0.031 A 
ATOM     32  C   UNL     1       0.756  -6.306  -9.943  1.00  0.00     0.074 A 
ATOM     33  C   UNL     1       1.418  -3.931 -10.096  1.00  0.00     0.049 A 
ATOM     34  N   UNL     1       0.264  -6.517 -11.136  1.00  0.00    -0.248 NA
ATOM     35  C   UNL     1       0.648  -7.455  -9.031  1.00  0.00     0.031 C 
ATOM     36  C   UNL     1       1.973  -2.658  -9.634  1.00  0.00     0.029 A 
ATOM     37  N   UNL     1       0.956  -3.659 -11.358  1.00  0.00    -0.354 N 
ATOM     38  C   UNL     1      -0.193  -7.827 -11.128  1.00  0.00     0.074 A 
ATOM     39  C   UNL     1       0.094  -8.369  -9.816  1.00  0.00     0.031 C 
ATOM     40  C   UNL     1       1.829  -1.742 -10.605  1.00  0.00     0.029 A 
ATOM     41  C   UNL     1       1.218  -2.377 -11.769  1.00  0.00     0.049 A 
ATOM     42  H   UNL     1       0.482  -4.320 -11.914  1.00  0.00     0.167 HD
ATOM     43  C   UNL     1      -0.798  -8.514 -12.126  1.00  0.00     0.037 A 
ATOM     44  C   UNL     1       1.021  -1.792 -12.965  1.00  0.00     0.037 A 
ATOM     45  C   UNL     1      -1.086  -7.964 -13.424  1.00  0.00     0.049 A 
ATOM     46  C   UNL     1       0.400  -2.589 -14.076  1.00  0.00     0.074 A 
ATOM     47  C   UNL     1      -1.691  -8.575 -14.508  1.00  0.00     0.029 A 
ATOM     48  N   UNL     1      -0.787  -6.665 -13.812  1.00  0.00    -0.354 N 
ATOM     49  N   UNL     1      -0.006  -3.836 -14.070  1.00  0.00    -0.248 NA
ATOM     50  C   UNL     1       0.216  -1.902 -15.361  1.00  0.00     0.031 C 
ATOM     51  C   UNL     1      -1.728  -7.656 -15.563  1.00  0.00     0.029 A 
ATOM     52  C   UNL     1      -1.181  -6.460 -15.124  1.00  0.00     0.049 A 
ATOM     53  H   UNL     1      -0.359  -5.989 -13.239  1.00  0.00     0.167 HD
ATOM     54  C   UNL     1      -0.504  -4.081 -15.342  1.00  0.00     0.074 A 
ATOM     55  C   UNL     1      -0.364  -2.846 -16.089  1.00  0.00     0.031 C 
ATOM     56  C   UNL     1      -1.028  -5.224 -15.848  1.00  0.00     0.037 A 
BRANCH  43  57
ATOM     57  C   UNL     1      -1.151  -9.945 -11.855  1.00  0.00     0.057 A 
ATOM     58  C   UNL     1      -2.212 -10.301 -11.012  1.00  0.00     0.134 A 
ATOM     59  C   UNL     1      -0.418 -10.983 -12.445  1.00  0.00     0.134 A 
ATOM     60  F   UNL     1      -2.941  -9.355 -10.402  1.00  0.00    -0.206 F 
ATOM     61  C   UNL     1      -2.515 -11.637 -10.746  1.00  0.00     0.040 A 
ATOM     62  C   UNL     1      -0.726 -12.323 -12.204  1.00  0.00     0.040 A 
ATOM     63  F   UNL     1       0.611 -10.711 -13.262  1.00  0.00    -0.206 F 
ATOM     64  C   UNL     1      -1.774 -12.653 -11.347  1.00  0.00     0.006 A 
ENDBRANCH  43  57
BRANCH  44  65
ATOM     65  C   UNL     1       1.454  -0.389 -13.174  1.00  0.00     0.057 A 
ATOM     66  C   UNL     1       0.524   0.647 -13.302  1.00  0.00     0.134 A 
ATOM     67  C   UNL     1       2.812  -0.052 -13.230  1.00  0.00     0.134 A 
ATOM     68  F   UNL     1      -0.790   0.381 -13.276  1.00  0.00    -0.206 F 
ATOM     69  C   UNL     1       0.928   1.970 -13.484  1.00  0.00     0.040 A 
ATOM     70  C   UNL     1       3.230   1.270 -13.389  1.00  0.00     0.040 A 
ATOM     71  F   UNL     1       3.751  -1.001 -13.111  1.00  0.00    -0.206 F 
ATOM     72  C   UNL     1       2.285   2.285 -13.520  1.00  0.00     0.006 A 
ENDBRANCH  44  65
BRANCH  56  73
ATOM     73  C   UNL     1      -1.502  -5.183 -17.269  1.00  0.00     0.057 A 
ATOM     74  C   UNL     1      -0.605  -5.190 -18.344  1.00  0.00     0.134 A 
ATOM     75  C   UNL     1      -2.871  -5.169 -17.564  1.00  0.00     0.134 A 
ATOM     76  F   UNL     1       0.718  -5.189 -18.125  1.00  0.00    -0.206 F 
ATOM     77  C   UNL     1      -1.054  -5.168 -19.665  1.00  0.00     0.040 A 
ATOM     78  C   UNL     1      -3.332  -5.168 -18.881  1.00  0.00     0.040 A 
ATOM     79  F   UNL     1      -3.781  -5.167 -16.578  1.00  0.00    -0.206 F 
ATOM     80  C   UNL     1      -2.421  -5.162 -19.936  1.00  0.00     0.006 A 
ENDBRANCH  56  73
ENDBRANCH  30  31
ENDBRANCH  23  25
ENDBRANCH  22  23
ENDBRANCH  21  22
ENDBRANCH   1  21
TORSDOF 13
