REMARK SMILES CC(C)Cc1cc2c(cc1Cl)C=C(C(=O)OCCOC(=O)c1ccc(-c3c4nc(c(-c5c(F)cccc5F)c5ccc([nH]5)c(-c5c(F)cccc5F)c5nc(c(-c6c(F)cccc6F)c6ccc3[nH]6)C=C5)C=C4)cc1)[C@H](C(F)(F)F)O2
REMARK SMILES IDX 17 1 16 2 14 3 15 4 13 5 5 6 6 7 10 8 7 9 9 10 11 11 8 12
REMARK SMILES IDX 81 13 12 14 76 15 4 16 2 17 1 18 3 19 77 20 78 21 79 22
REMARK SMILES IDX 80 23 18 24 19 25 20 26 21 27 22 28 23 29 75 30 24 31 74 32
REMARK SMILES IDX 25 33 26 34 27 35 68 36 28 37 73 38 67 39 69 40 29 41 72 42
REMARK SMILES IDX 66 43 65 44 30 46 56 47 39 48 55 49 40 50 43 51 54 52 70 53
REMARK SMILES IDX 41 54 42 55 53 57 71 58 44 59 31 60 32 61 37 62 33 63 34 64
REMARK SMILES IDX 36 65 38 66 35 67 57 68 58 69 63 70 59 71 60 72 62 73 64 74
REMARK SMILES IDX 61 75 45 76 46 77 51 78 47 79 48 80 50 81 52 82 49 83
REMARK H PARENT 69 45 43 56
REMARK Flexibility Score: inf
ROOT
ATOM      1  C   UNL     1      -3.820   2.710  -8.944  1.00  0.00     0.275 C 
ENDROOT
BRANCH   1   2
ATOM      2  O   UNL     1      -3.603   1.776  -7.862  1.00  0.00    -0.459 OA
BRANCH   2   3
ATOM      3  C   UNL     1      -2.455   1.949  -7.171  1.00  0.00     0.338 C 
ATOM      4  O   UNL     1      -1.571   2.752  -7.431  1.00  0.00    -0.246 OA
BRANCH   3   5
ATOM      5  C   UNL     1      -2.443   1.110  -5.961  1.00  0.00     0.087 C 
ATOM      6  C   UNL     1      -1.509  -0.607  -1.339  1.00  0.00    -0.025 A 
ATOM      7  C   UNL     1      -1.839  -1.233  -2.562  1.00  0.00     0.052 A 
ATOM      8  C   UNL     1      -1.546   0.795  -1.269  1.00  0.00     0.045 A 
ATOM      9  C   UNL     1      -2.086  -0.472  -3.704  1.00  0.00     0.128 A 
ATOM     10  C   UNL     1      -1.699   1.547  -2.430  1.00  0.00     0.032 A 
ATOM     11  Cl  UNL     1      -1.361   1.666   0.211  1.00  0.00    -0.084 Cl
ATOM     12  C   UNL     1      -1.904   0.906  -3.650  1.00  0.00     0.019 A 
ATOM     13  O   UNL     1      -2.422  -1.115  -4.869  1.00  0.00    -0.475 OA
ATOM     14  C   UNL     1      -1.855   1.651  -4.888  1.00  0.00     0.027 C 
ATOM     15  C   UNL     1      -3.018  -0.281  -5.925  1.00  0.00     0.316 C 
BRANCH   6  16
ATOM     16  C   UNL     1      -1.007  -1.452  -0.186  1.00  0.00     0.040 C 
BRANCH  16  17
ATOM     17  C   UNL     1       0.525  -1.682  -0.240  1.00  0.00    -0.013 C 
ATOM     18  C   UNL     1       1.353  -0.400  -0.088  1.00  0.00     0.008 C 
ATOM     19  C   UNL     1       0.946  -2.668   0.852  1.00  0.00     0.008 C 
ENDBRANCH  16  17
ENDBRANCH   6  16
BRANCH  15  20
ATOM     20  C   UNL     1      -4.560  -0.341  -5.893  1.00  0.00     0.430 C 
ATOM     21  F   UNL     1      -5.130   0.869  -5.705  1.00  0.00    -0.167 F 
ATOM     22  F   UNL     1      -5.040  -0.834  -7.064  1.00  0.00    -0.167 F 
ATOM     23  F   UNL     1      -5.023  -1.151  -4.911  1.00  0.00    -0.167 F 
ENDBRANCH  15  20
ENDBRANCH   3   5
ENDBRANCH   2   3
ENDBRANCH   1   2
BRANCH   1  24
ATOM     24  C   UNL     1      -4.798   3.816  -8.536  1.00  0.00     0.275 C 
BRANCH  24  25
ATOM     25  O   UNL     1      -4.209   4.686  -7.547  1.00  0.00    -0.458 OA
BRANCH  25  26
ATOM     26  C   UNL     1      -4.845   4.745  -6.354  1.00  0.00     0.338 C 
ATOM     27  O   UNL     1      -5.853   4.152  -6.014  1.00  0.00    -0.246 OA
BRANCH  26  28
ATOM     28  C   UNL     1      -4.071   5.591  -5.431  1.00  0.00     0.060 A 
ATOM     29  C   UNL     1      -4.334   6.949  -5.277  1.00  0.00     0.016 A 
ATOM     30  C   UNL     1      -3.132   4.966  -4.615  1.00  0.00     0.016 A 
ATOM     31  C   UNL     1      -3.608   7.682  -4.326  1.00  0.00     0.010 A 
ATOM     32  C   UNL     1      -2.424   5.687  -3.654  1.00  0.00     0.010 A 
ATOM     33  C   UNL     1      -2.643   7.060  -3.506  1.00  0.00    -0.014 A 
BRANCH  33  34
ATOM     34  C   UNL     1      -1.908   7.833  -2.467  1.00  0.00     0.031 A 
ATOM     35  C   UNL     1      -0.418   8.042  -2.548  1.00  0.00     0.074 A 
ATOM     36  C   UNL     1      -2.584   8.326  -1.411  1.00  0.00     0.049 A 
ATOM     37  N   UNL     1       0.354   8.792  -1.799  1.00  0.00    -0.248 NA
ATOM     38  C   UNL     1       0.307   7.285  -3.580  1.00  0.00     0.031 C 
ATOM     39  C   UNL     1      -4.002   8.094  -1.132  1.00  0.00     0.029 A 
ATOM     40  N   UNL     1      -2.172   9.139  -0.384  1.00  0.00    -0.354 N 
ATOM     41  C   UNL     1       1.648   8.597  -2.266  1.00  0.00     0.074 A 
ATOM     42  C   UNL     1       1.567   7.606  -3.318  1.00  0.00     0.031 C 
ATOM     43  C   UNL     1      -4.358   8.803  -0.049  1.00  0.00     0.029 A 
ATOM     44  C   UNL     1      -3.195   9.533   0.445  1.00  0.00     0.049 A 
ATOM     45  H   UNL     1      -1.235   9.414  -0.255  1.00  0.00     0.167 HD
ATOM     46  C   UNL     1       2.795   9.211  -1.884  1.00  0.00     0.037 A 
ATOM     47  C   UNL     1      -3.203  10.418   1.459  1.00  0.00     0.037 A 
ATOM     48  C   UNL     1       2.876  10.215  -0.853  1.00  0.00     0.049 A 
ATOM     49  C   UNL     1      -1.941  11.156   1.809  1.00  0.00     0.074 A 
ATOM     50  C   UNL     1       3.975  10.947  -0.439  1.00  0.00     0.029 A 
ATOM     51  N   UNL     1       1.806  10.627  -0.074  1.00  0.00    -0.354 N 
ATOM     52  N   UNL     1      -0.749  11.057   1.275  1.00  0.00    -0.248 NA
ATOM     53  C   UNL     1      -2.036  12.149   2.889  1.00  0.00     0.031 C 
ATOM     54  C   UNL     1       3.574  11.791   0.604  1.00  0.00     0.029 A 
ATOM     55  C   UNL     1       2.218  11.605   0.817  1.00  0.00     0.049 A 
ATOM     56  H   UNL     1       0.888  10.277  -0.144  1.00  0.00     0.167 HD
ATOM     57  C   UNL     1       0.040  11.993   1.931  1.00  0.00     0.074 A 
ATOM     58  C   UNL     1      -0.815  12.662   2.890  1.00  0.00     0.031 C 
ATOM     59  C   UNL     1       1.355  12.272   1.757  1.00  0.00     0.037 A 
BRANCH  46  60
ATOM     60  C   UNL     1       4.053   8.834  -2.614  1.00  0.00     0.057 A 
ATOM     61  C   UNL     1       5.075   8.119  -1.978  1.00  0.00     0.134 A 
ATOM     62  C   UNL     1       4.259   9.202  -3.951  1.00  0.00     0.134 A 
ATOM     63  F   UNL     1       4.952   7.746  -0.696  1.00  0.00    -0.206 F 
ATOM     64  C   UNL     1       6.250   7.773  -2.650  1.00  0.00     0.040 A 
ATOM     65  C   UNL     1       5.417   8.839  -4.641  1.00  0.00     0.040 A 
ATOM     66  F   UNL     1       3.317   9.884  -4.621  1.00  0.00    -0.206 F 
ATOM     67  C   UNL     1       6.419   8.125  -3.988  1.00  0.00     0.006 A 
ENDBRANCH  46  60
BRANCH  47  68
ATOM     68  C   UNL     1      -4.474  10.735   2.155  1.00  0.00     0.057 A 
ATOM     69  C   UNL     1      -5.065   9.842   3.054  1.00  0.00     0.134 A 
ATOM     70  C   UNL     1      -5.120  11.960   1.940  1.00  0.00     0.134 A 
ATOM     71  F   UNL     1      -4.499   8.650   3.294  1.00  0.00    -0.206 F 
ATOM     72  C   UNL     1      -6.252  10.155   3.718  1.00  0.00     0.040 A 
ATOM     73  C   UNL     1      -6.295  12.295   2.613  1.00  0.00     0.040 A 
ATOM     74  F   UNL     1      -4.591  12.863   1.101  1.00  0.00    -0.206 F 
ATOM     75  C   UNL     1      -6.866  11.389   3.504  1.00  0.00     0.006 A 
ENDBRANCH  47  68
BRANCH  59  76
ATOM     76  C   UNL     1       1.933  13.372   2.596  1.00  0.00     0.057 A 
ATOM     77  C   UNL     1       2.256  14.608   2.025  1.00  0.00     0.134 A 
ATOM     78  C   UNL     1       2.174  13.208   3.966  1.00  0.00     0.134 A 
ATOM     79  F   UNL     1       2.055  14.828   0.716  1.00  0.00    -0.206 F 
ATOM     80  C   UNL     1       2.791  15.647   2.788  1.00  0.00     0.040 A 
ATOM     81  C   UNL     1       2.687  14.247   4.745  1.00  0.00     0.040 A 
ATOM     82  F   UNL     1       1.872  12.052   4.576  1.00  0.00    -0.206 F 
ATOM     83  C   UNL     1       3.000  15.470   4.154  1.00  0.00     0.006 A 
ENDBRANCH  59  76
ENDBRANCH  33  34
ENDBRANCH  26  28
ENDBRANCH  25  26
ENDBRANCH  24  25
ENDBRANCH   1  24
TORSDOF 14
