REMARK SMILES CS(=O)(=O)c1ccc(N2N=C(C(=O)OCCOC(=O)c3ccc(-c4c5nc(c(-c6c(F)cccc6F)c6ccc([nH]6)c(-c6c(F)cccc6F)c6nc(c(-c7c(F)cccc7F)c7ccc4[nH]7)C=C6)C=C5)cc3)C[C@H]2c2ccco2)cc1
REMARK SMILES IDX 15 1 14 2 12 3 13 4 11 5 9 6 10 7 75 8 74 9 8 10 5 11 6 12
REMARK SMILES IDX 82 13 7 14 81 15 2 16 1 17 3 18 4 19 76 20 77 21 80 22 78 23
REMARK SMILES IDX 79 24 16 25 17 26 18 27 19 28 20 29 21 30 73 31 22 32 72 33
REMARK SMILES IDX 23 34 24 35 25 36 66 37 26 38 71 39 65 40 67 41 27 42 70 43
REMARK SMILES IDX 64 44 63 45 28 47 54 48 37 49 53 50 38 51 41 52 52 53 68 54
REMARK SMILES IDX 39 55 40 56 51 58 69 59 42 60 29 61 30 62 35 63 31 64 32 65
REMARK SMILES IDX 34 66 36 67 33 68 55 69 56 70 61 71 57 72 58 73 60 74 62 75
REMARK SMILES IDX 59 76 43 77 44 78 49 79 45 80 46 81 48 82 50 83 47 84
REMARK H PARENT 67 46 41 57
REMARK Flexibility Score: inf
ROOT
ATOM      1  C   UNL     1       1.598   6.281 -10.742  1.00  0.00     0.275 C 
ENDROOT
BRANCH   1   2
ATOM      2  O   UNL     1       1.949   6.103  -9.360  1.00  0.00    -0.458 OA
BRANCH   2   3
ATOM      3  C   UNL     1       0.926   5.986  -8.490  1.00  0.00     0.354 C 
ATOM      4  O   UNL     1      -0.246   6.244  -8.675  1.00  0.00    -0.245 OA
BRANCH   3   5
ATOM      5  C   UNL     1       1.453   5.338  -7.236  1.00  0.00     0.148 C 
ATOM      6  N   UNL     1       1.708   3.967  -5.652  1.00  0.00    -0.254 N 
ATOM      7  N   UNL     1       0.888   4.303  -6.688  1.00  0.00    -0.169 NA
ATOM      8  C   UNL     1       2.643   5.043  -5.298  1.00  0.00     0.180 C 
ATOM      9  C   UNL     1       2.744   5.793  -6.630  1.00  0.00     0.101 C 
BRANCH   6  10
ATOM     10  C   UNL     1       1.379   2.942  -4.778  1.00  0.00     0.060 A 
ATOM     11  C   UNL     1       0.739   0.857  -3.016  1.00  0.00     0.067 A 
ATOM     12  C   UNL     1       1.976   0.860  -3.663  1.00  0.00     0.022 A 
ATOM     13  C   UNL     1      -0.192   1.869  -3.256  1.00  0.00     0.022 A 
ATOM     14  C   UNL     1       2.296   1.912  -4.524  1.00  0.00     0.029 A 
ATOM     15  C   UNL     1       0.130   2.898  -4.145  1.00  0.00     0.029 A 
BRANCH  11  16
ATOM     16  S   UNL     1       0.334  -0.477  -1.915  1.00  0.00     0.175 S 
ATOM     17  C   UNL     1       1.046   0.040  -0.375  1.00  0.00     0.163 C 
ATOM     18  O   UNL     1       1.055  -1.651  -2.367  1.00  0.00    -0.224 OA
ATOM     19  O   UNL     1      -1.107  -0.497  -1.751  1.00  0.00    -0.224 OA
ENDBRANCH  11  16
ENDBRANCH   6  10
BRANCH   8  20
ATOM     20  C   UNL     1       2.173   5.932  -4.176  1.00  0.00     0.128 A 
ATOM     21  C   UNL     1       2.313   5.864  -2.803  1.00  0.00     0.048 A 
ATOM     22  O   UNL     1       1.410   7.019  -4.505  1.00  0.00    -0.467 OA
ATOM     23  C   UNL     1       1.596   6.963  -2.270  1.00  0.00     0.042 A 
ATOM     24  C   UNL     1       1.064   7.633  -3.345  1.00  0.00     0.195 A 
ENDBRANCH   8  20
ENDBRANCH   3   5
ENDBRANCH   2   3
ENDBRANCH   1   2
BRANCH   1  25
ATOM     25  C   UNL     1       2.412   5.296 -11.585  1.00  0.00     0.275 C 
BRANCH  25  26
ATOM     26  O   UNL     1       1.967   3.944 -11.351  1.00  0.00    -0.458 OA
BRANCH  26  27
ATOM     27  C   UNL     1       2.559   3.301 -10.313  1.00  0.00     0.338 C 
ATOM     28  O   UNL     1       3.462   3.728  -9.610  1.00  0.00    -0.246 OA
BRANCH  27  29
ATOM     29  C   UNL     1       1.886   2.006 -10.069  1.00  0.00     0.060 A 
ATOM     30  C   UNL     1       1.795   1.556  -8.748  1.00  0.00     0.016 A 
ATOM     31  C   UNL     1       1.376   1.224 -11.112  1.00  0.00     0.016 A 
ATOM     32  C   UNL     1       1.199   0.329  -8.465  1.00  0.00     0.010 A 
ATOM     33  C   UNL     1       0.791  -0.015 -10.830  1.00  0.00     0.010 A 
ATOM     34  C   UNL     1       0.712  -0.472  -9.506  1.00  0.00    -0.014 A 
BRANCH  34  35
ATOM     35  C   UNL     1       0.176  -1.815  -9.195  1.00  0.00     0.031 A 
ATOM     36  C   UNL     1       1.112  -2.984  -9.106  1.00  0.00     0.074 A 
ATOM     37  C   UNL     1      -1.134  -1.977  -8.942  1.00  0.00     0.049 A 
ATOM     38  N   UNL     1       0.860  -4.222  -8.766  1.00  0.00    -0.248 NA
ATOM     39  C   UNL     1       2.521  -2.723  -9.442  1.00  0.00     0.031 C 
ATOM     40  C   UNL     1      -2.140  -0.917  -8.977  1.00  0.00     0.029 A 
ATOM     41  N   UNL     1      -1.836  -3.100  -8.585  1.00  0.00    -0.354 N 
ATOM     42  C   UNL     1       2.078  -4.883  -8.825  1.00  0.00     0.074 A 
ATOM     43  C   UNL     1       3.067  -3.917  -9.256  1.00  0.00     0.031 C 
ATOM     44  C   UNL     1      -3.332  -1.438  -8.639  1.00  0.00     0.029 A 
ATOM     45  C   UNL     1      -3.168  -2.863  -8.361  1.00  0.00     0.049 A 
ATOM     46  H   UNL     1      -1.423  -3.989  -8.497  1.00  0.00     0.167 HD
ATOM     47  C   UNL     1       2.350  -6.178  -8.541  1.00  0.00     0.037 A 
ATOM     48  C   UNL     1      -4.141  -3.701  -7.958  1.00  0.00     0.037 A 
ATOM     49  C   UNL     1       1.373  -7.151  -8.135  1.00  0.00     0.049 A 
ATOM     50  C   UNL     1      -3.816  -5.136  -7.661  1.00  0.00     0.074 A 
ATOM     51  C   UNL     1       1.550  -8.498  -7.871  1.00  0.00     0.029 A 
ATOM     52  N   UNL     1       0.031  -6.874  -7.931  1.00  0.00    -0.354 N 
ATOM     53  N   UNL     1      -2.662  -5.752  -7.728  1.00  0.00    -0.248 NA
ATOM     54  C   UNL     1      -4.932  -5.992  -7.229  1.00  0.00     0.031 C 
ATOM     55  C   UNL     1       0.308  -9.041  -7.518  1.00  0.00     0.029 A 
ATOM     56  C   UNL     1      -0.635  -8.027  -7.551  1.00  0.00     0.049 A 
ATOM     57  H   UNL     1      -0.387  -5.990  -8.041  1.00  0.00     0.167 HD
ATOM     58  C   UNL     1      -2.908  -7.061  -7.341  1.00  0.00     0.074 A 
ATOM     59  C   UNL     1      -4.320  -7.152  -7.032  1.00  0.00     0.031 C 
ATOM     60  C   UNL     1      -2.040  -8.097  -7.252  1.00  0.00     0.037 A 
BRANCH  47  61
ATOM     61  C   UNL     1       3.774  -6.612  -8.674  1.00  0.00     0.057 A 
ATOM     62  C   UNL     1       4.692  -6.407  -7.638  1.00  0.00     0.134 A 
ATOM     63  C   UNL     1       4.229  -7.242  -9.837  1.00  0.00     0.134 A 
ATOM     64  F   UNL     1       4.316  -5.792  -6.507  1.00  0.00    -0.206 F 
ATOM     65  C   UNL     1       6.023  -6.810  -7.758  1.00  0.00     0.040 A 
ATOM     66  C   UNL     1       5.555  -7.655  -9.966  1.00  0.00     0.040 A 
ATOM     67  F   UNL     1       3.395  -7.457 -10.865  1.00  0.00    -0.206 F 
ATOM     68  C   UNL     1       6.456  -7.438  -8.925  1.00  0.00     0.006 A 
ENDBRANCH  47  61
BRANCH  48  69
ATOM     69  C   UNL     1      -5.519  -3.192  -7.783  1.00  0.00     0.057 A 
ATOM     70  C   UNL     1      -6.013  -2.880  -6.513  1.00  0.00     0.134 A 
ATOM     71  C   UNL     1      -6.369  -3.010  -8.878  1.00  0.00     0.134 A 
ATOM     72  F   UNL     1      -5.247  -3.057  -5.428  1.00  0.00    -0.206 F 
ATOM     73  C   UNL     1      -7.313  -2.404  -6.336  1.00  0.00     0.040 A 
ATOM     74  C   UNL     1      -7.668  -2.528  -8.716  1.00  0.00     0.040 A 
ATOM     75  F   UNL     1      -5.948  -3.300 -10.118  1.00  0.00    -0.206 F 
ATOM     76  C   UNL     1      -8.143  -2.224  -7.441  1.00  0.00     0.006 A 
ENDBRANCH  48  69
BRANCH  60  77
ATOM     77  C   UNL     1      -2.597  -9.413  -6.814  1.00  0.00     0.057 A 
ATOM     78  C   UNL     1      -3.215 -10.276  -7.726  1.00  0.00     0.134 A 
ATOM     79  C   UNL     1      -2.487  -9.834  -5.485  1.00  0.00     0.134 A 
ATOM     80  F   UNL     1      -3.356  -9.919  -9.012  1.00  0.00    -0.206 F 
ATOM     81  C   UNL     1      -3.712 -11.517  -7.328  1.00  0.00     0.040 A 
ATOM     82  C   UNL     1      -2.975 -11.076  -5.076  1.00  0.00     0.040 A 
ATOM     83  F   UNL     1      -1.906  -9.049  -4.567  1.00  0.00    -0.206 F 
ATOM     84  C   UNL     1      -3.590 -11.921  -5.999  1.00  0.00     0.006 A 
ENDBRANCH  60  77
ENDBRANCH  34  35
ENDBRANCH  27  29
ENDBRANCH  26  27
ENDBRANCH  25  26
ENDBRANCH   1  25
TORSDOF 14
