REMARK SMILES C[C@@H](NC(=O)c1cc(C(=O)OCCOC(=O)c2ccc(-c3c4nc(c(-c5c(F)cccc5F)c5ccc([nH]5)c(-c5c(F)cccc5F)c5nc(c(-c6c(F)cccc6F)c6ccc3[nH]6)C=C5)C=C4)cc2)n(C)n1)c1ccccc1
REMARK SMILES IDX 12 1 11 2 9 3 10 4 8 5 6 6 7 7 73 8 71 9 72 10 4 11 3 12
REMARK SMILES IDX 5 14 2 15 1 16 74 17 75 18 79 19 76 20 78 21 77 22 13 23
REMARK SMILES IDX 14 24 15 25 16 26 17 27 18 28 70 29 19 30 69 31 20 32 21 33
REMARK SMILES IDX 22 34 63 35 23 36 68 37 62 38 64 39 24 40 67 41 61 42 60 43
REMARK SMILES IDX 25 45 51 46 34 47 50 48 35 49 38 50 49 51 65 52 36 53 37 54
REMARK SMILES IDX 48 56 66 57 39 58 26 59 27 60 32 61 28 62 29 63 31 64 33 65
REMARK SMILES IDX 30 66 52 67 53 68 58 69 54 70 55 71 57 72 59 73 56 74 40 75
REMARK SMILES IDX 41 76 46 77 42 78 43 79 45 80 47 81 44 82
REMARK H PARENT 3 13 64 44 38 55
REMARK Flexibility Score: inf
ROOT
ATOM      1  C   UNL     1      -6.655   2.557   2.072  1.00  0.00     0.275 C 
ENDROOT
BRANCH   1   2
ATOM      2  O   UNL     1      -5.640   2.853   1.085  1.00  0.00    -0.457 OA
BRANCH   2   3
ATOM      3  C   UNL     1      -4.746   3.838   1.377  1.00  0.00     0.356 C 
ATOM      4  O   UNL     1      -4.791   4.540   2.380  1.00  0.00    -0.244 OA
BRANCH   3   5
ATOM      5  C   UNL     1      -3.653   3.831   0.435  1.00  0.00     0.146 A 
ATOM      6  C   UNL     1      -1.579   3.753  -0.411  1.00  0.00     0.151 A 
ATOM      7  C   UNL     1      -2.349   4.248   0.673  1.00  0.00     0.071 A 
ATOM      8  N   UNL     1      -2.385   3.281  -1.375  1.00  0.00    -0.167 NA
ATOM      9  N   UNL     1      -3.629   3.385  -0.865  1.00  0.00    -0.260 N 
ATOM     10  C   UNL     1      -4.734   3.124  -1.757  1.00  0.00     0.174 C 
BRANCH   6  11
ATOM     11  C   UNL     1      -0.122   3.777  -0.556  1.00  0.00     0.272 C 
ATOM     12  N   UNL     1       0.586   2.604  -0.729  1.00  0.00    -0.344 N 
ATOM     13  H   UNL     1       1.228   2.608  -1.476  1.00  0.00     0.164 HD
ATOM     14  O   UNL     1       0.506   4.837  -0.557  1.00  0.00    -0.267 OA
BRANCH  12  15
ATOM     15  C   UNL     1       0.523   1.348   0.038  1.00  0.00     0.109 C 
ATOM     16  C   UNL     1       1.742   0.488  -0.336  1.00  0.00     0.036 C 
BRANCH  15  17
ATOM     17  C   UNL     1      -0.773   0.560  -0.040  1.00  0.00    -0.026 A 
ATOM     18  C   UNL     1      -1.824   0.921   0.805  1.00  0.00     0.006 A 
ATOM     19  C   UNL     1      -0.982  -0.547  -0.876  1.00  0.00     0.006 A 
ATOM     20  C   UNL     1      -3.065   0.292   0.741  1.00  0.00     0.000 A 
ATOM     21  C   UNL     1      -2.204  -1.236  -0.878  1.00  0.00     0.000 A 
ATOM     22  C   UNL     1      -3.256  -0.802  -0.084  1.00  0.00     0.000 A 
ENDBRANCH  15  17
ENDBRANCH  12  15
ENDBRANCH   6  11
ENDBRANCH   3   5
ENDBRANCH   2   3
ENDBRANCH   1   2
BRANCH   1  23
ATOM     23  C   UNL     1      -6.454   1.139   2.615  1.00  0.00     0.275 C 
BRANCH  23  24
ATOM     24  O   UNL     1      -5.226   1.098   3.364  1.00  0.00    -0.458 OA
BRANCH  24  25
ATOM     25  C   UNL     1      -4.826  -0.138   3.765  1.00  0.00     0.338 C 
ATOM     26  O   UNL     1      -5.487  -1.160   3.687  1.00  0.00    -0.246 OA
BRANCH  25  27
ATOM     27  C   UNL     1      -3.405  -0.090   4.220  1.00  0.00     0.060 A 
ATOM     28  C   UNL     1      -2.627   1.059   4.053  1.00  0.00     0.016 A 
ATOM     29  C   UNL     1      -2.805  -1.243   4.740  1.00  0.00     0.016 A 
ATOM     30  C   UNL     1      -1.260   1.038   4.343  1.00  0.00     0.010 A 
ATOM     31  C   UNL     1      -1.453  -1.230   5.123  1.00  0.00     0.010 A 
ATOM     32  C   UNL     1      -0.660  -0.086   4.931  1.00  0.00    -0.014 A 
BRANCH  32  33
ATOM     33  C   UNL     1       0.758  -0.036   5.402  1.00  0.00     0.031 A 
ATOM     34  C   UNL     1       1.777  -1.051   4.953  1.00  0.00     0.074 A 
ATOM     35  C   UNL     1       1.140   0.924   6.271  1.00  0.00     0.049 A 
ATOM     36  N   UNL     1       2.968  -1.298   5.444  1.00  0.00    -0.248 NA
ATOM     37  C   UNL     1       1.414  -1.903   3.810  1.00  0.00     0.031 C 
ATOM     38  C   UNL     1       0.287   2.000   6.781  1.00  0.00     0.029 A 
ATOM     39  N   UNL     1       2.349   1.150   6.887  1.00  0.00    -0.354 N 
ATOM     40  C   UNL     1       3.475  -2.364   4.710  1.00  0.00     0.074 A 
ATOM     41  C   UNL     1       2.465  -2.711   3.729  1.00  0.00     0.031 C 
ATOM     42  C   UNL     1       1.003   2.790   7.592  1.00  0.00     0.029 A 
ATOM     43  C   UNL     1       2.334   2.220   7.750  1.00  0.00     0.049 A 
ATOM     44  H   UNL     1       3.149   0.599   6.724  1.00  0.00     0.167 HD
ATOM     45  C   UNL     1       4.665  -2.998   4.849  1.00  0.00     0.037 A 
ATOM     46  C   UNL     1       3.254   2.667   8.625  1.00  0.00     0.037 A 
ATOM     47  C   UNL     1       5.691  -2.628   5.795  1.00  0.00     0.049 A 
ATOM     48  C   UNL     1       4.550   1.932   8.780  1.00  0.00     0.074 A 
ATOM     49  C   UNL     1       6.920  -3.231   6.016  1.00  0.00     0.029 A 
ATOM     50  N   UNL     1       5.621  -1.547   6.658  1.00  0.00    -0.354 N 
ATOM     51  N   UNL     1       4.972   0.865   8.149  1.00  0.00    -0.248 NA
ATOM     52  C   UNL     1       5.487   2.447   9.789  1.00  0.00     0.031 C 
ATOM     53  C   UNL     1       7.585  -2.524   7.025  1.00  0.00     0.029 A 
ATOM     54  C   UNL     1       6.784  -1.462   7.407  1.00  0.00     0.049 A 
ATOM     55  H   UNL     1       4.857  -0.929   6.728  1.00  0.00     0.167 HD
ATOM     56  C   UNL     1       6.222   0.582   8.681  1.00  0.00     0.074 A 
ATOM     57  C   UNL     1       6.502   1.603   9.668  1.00  0.00     0.031 C 
ATOM     58  C   UNL     1       7.056  -0.442   8.385  1.00  0.00     0.037 A 
BRANCH  45  59
ATOM     59  C   UNL     1       4.934  -4.186   3.972  1.00  0.00     0.057 A 
ATOM     60  C   UNL     1       5.282  -4.048   2.623  1.00  0.00     0.134 A 
ATOM     61  C   UNL     1       4.930  -5.481   4.509  1.00  0.00     0.134 A 
ATOM     62  F   UNL     1       5.297  -2.837   2.046  1.00  0.00    -0.206 F 
ATOM     63  C   UNL     1       5.609  -5.156   1.838  1.00  0.00     0.040 A 
ATOM     64  C   UNL     1       5.275  -6.594   3.740  1.00  0.00     0.040 A 
ATOM     65  F   UNL     1       4.617  -5.682   5.799  1.00  0.00    -0.206 F 
ATOM     66  C   UNL     1       5.615  -6.432   2.399  1.00  0.00     0.006 A 
ENDBRANCH  45  59
BRANCH  46  67
ATOM     67  C   UNL     1       2.947   3.842   9.479  1.00  0.00     0.057 A 
ATOM     68  C   UNL     1       3.603   5.064   9.290  1.00  0.00     0.134 A 
ATOM     69  C   UNL     1       1.991   3.771  10.499  1.00  0.00     0.134 A 
ATOM     70  F   UNL     1       4.547   5.184   8.346  1.00  0.00    -0.206 F 
ATOM     71  C   UNL     1       3.324   6.171  10.092  1.00  0.00     0.040 A 
ATOM     72  C   UNL     1       1.681   4.878  11.289  1.00  0.00     0.040 A 
ATOM     73  F   UNL     1       1.327   2.628  10.727  1.00  0.00    -0.206 F 
ATOM     74  C   UNL     1       2.354   6.082  11.089  1.00  0.00     0.006 A 
ENDBRANCH  46  67
BRANCH  58  75
ATOM     75  C   UNL     1       8.362  -0.484   9.118  1.00  0.00     0.057 A 
ATOM     76  C   UNL     1       8.441  -0.896  10.455  1.00  0.00     0.134 A 
ATOM     77  C   UNL     1       9.551  -0.110   8.482  1.00  0.00     0.134 A 
ATOM     78  F   UNL     1       7.334  -1.249  11.124  1.00  0.00    -0.206 F 
ATOM     79  C   UNL     1       9.657  -0.912  11.140  1.00  0.00     0.040 A 
ATOM     80  C   UNL     1      10.775  -0.140   9.151  1.00  0.00     0.040 A 
ATOM     81  F   UNL     1       9.541   0.291   7.202  1.00  0.00    -0.206 F 
ATOM     82  C   UNL     1      10.829  -0.536  10.486  1.00  0.00     0.006 A 
ENDBRANCH  58  75
ENDBRANCH  32  33
ENDBRANCH  25  27
ENDBRANCH  24  25
ENDBRANCH  23  24
ENDBRANCH   1  23
TORSDOF 14
