REMARK SMILES C[N@@H+]([C@@H]1CCOC2(CCCC2)C1)C(C)(C)C(=O)OCCOC(=O)c1ccc(-c2c3nc(c(-c4c(F)cccc4F)c4ccc([nH]4)c(-c4c(F)cccc4F)c4nc(c(-c5c(F)cccc5F)c5ccc2[nH]5)C=C4)C=C3)cc1
REMARK SMILES IDX 19 1 18 2 16 3 17 4 13 5 14 6 15 7 2 8 1 9 3 11 4 12 12 13
REMARK SMILES IDX 5 14 7 15 6 16 8 17 11 18 9 19 10 20 20 21 21 22 22 23 23 24
REMARK SMILES IDX 24 25 25 26 77 27 26 28 76 29 27 30 28 31 29 32 70 33 30 34
REMARK SMILES IDX 75 35 69 36 71 37 31 38 74 39 68 40 67 41 32 43 58 44 41 45
REMARK SMILES IDX 57 46 42 47 45 48 56 49 72 50 43 51 44 52 55 54 73 55 46 56
REMARK SMILES IDX 33 57 34 58 39 59 35 60 36 61 38 62 40 63 37 64 59 65 60 66
REMARK SMILES IDX 65 67 61 68 62 69 64 70 66 71 63 72 47 73 48 74 53 75 49 76
REMARK SMILES IDX 50 77 52 78 54 79 51 80
REMARK H PARENT 2 10 71 42 45 53
REMARK Flexibility Score: inf
ROOT
ATOM      1  C   UNL     1       0.552  -3.183  -5.490  1.00  0.00     0.274 C 
ENDROOT
BRANCH   1   2
ATOM      2  O   UNL     1       1.104  -2.168  -4.622  1.00  0.00    -0.457 OA
BRANCH   2   3
ATOM      3  C   UNL     1       0.243  -1.550  -3.760  1.00  0.00     0.367 C 
ATOM      4  O   UNL     1      -0.970  -1.710  -3.833  1.00  0.00    -0.245 OA
BRANCH   3   5
ATOM      5  C   UNL     1       0.957  -0.515  -2.810  1.00  0.00     0.190 C 
ATOM      6  C   UNL     1       0.723   0.838  -3.496  1.00  0.00     0.092 C 
ATOM      7  C   UNL     1       2.482  -0.797  -2.747  1.00  0.00     0.092 C 
BRANCH   5   8
ATOM      8  N   UNL     1       0.428  -0.507  -1.383  1.00  0.00    -0.321 N 
ATOM      9  C   UNL     1       1.167   0.405  -0.501  1.00  0.00     0.333 C 
ATOM     10  H   UNL     1       0.645  -1.445  -1.046  1.00  0.00     0.349 HD
BRANCH   8  11
ATOM     11  C   UNL     1      -1.050  -0.504  -1.212  1.00  0.00     0.189 C 
ATOM     12  C   UNL     1      -1.618   0.321  -0.029  1.00  0.00     0.093 C 
ATOM     13  C   UNL     1      -1.588  -1.956  -1.043  1.00  0.00     0.100 C 
ATOM     14  C   UNL     1      -1.479  -0.376   1.312  1.00  0.00     0.167 C 
ATOM     15  C   UNL     1      -1.074  -2.606   0.278  1.00  0.00     0.074 C 
ATOM     16  O   UNL     1      -1.885  -1.732   1.215  1.00  0.00    -0.375 OA
ATOM     17  C   UNL     1      -1.687  -4.703   0.540  1.00  0.00     0.036 C 
ATOM     18  C   UNL     1       1.035  -2.701   1.038  1.00  0.00     0.036 C 
ATOM     19  C   UNL     1      -0.508  -6.070   1.804  1.00  0.00     0.003 C 
ATOM     20  C   UNL     1       1.296  -4.667   1.970  1.00  0.00     0.003 C 
ENDBRANCH   8  11
ENDBRANCH   5   8
ENDBRANCH   3   5
ENDBRANCH   2   3
ENDBRANCH   1   2
BRANCH   1  21
ATOM     21  C   UNL     1       1.008  -4.573  -5.051  1.00  0.00     0.275 C 
BRANCH  21  22
ATOM     22  O   UNL     1       0.523  -4.844  -3.734  1.00  0.00    -0.458 OA
BRANCH  22  23
ATOM     23  C   UNL     1       1.351  -4.408  -2.764  1.00  0.00     0.338 C 
ATOM     24  O   UNL     1       2.466  -3.933  -2.859  1.00  0.00    -0.246 OA
BRANCH  23  25
ATOM     25  C   UNL     1       0.689  -4.623  -1.506  1.00  0.00     0.060 A 
ATOM     26  C   UNL     1       0.295  -3.705  -0.561  1.00  0.00     0.016 A 
ATOM     27  C   UNL     1       0.874  -5.688  -0.814  1.00  0.00     0.016 A 
ATOM     28  C   UNL     1      -0.313  -3.681   1.296  1.00  0.00     0.010 A 
ATOM     29  C   UNL     1       0.402  -5.380   0.542  1.00  0.00     0.010 A 
ATOM     30  C   UNL     1      -0.467  -4.443   2.113  1.00  0.00    -0.014 A 
BRANCH  30  31
ATOM     31  C   UNL     1      -0.908  -4.424   3.607  1.00  0.00     0.031 A 
ATOM     32  C   UNL     1      -0.106  -5.094   4.721  1.00  0.00     0.074 A 
ATOM     33  C   UNL     1      -2.160  -3.972   3.906  1.00  0.00     0.049 A 
ATOM     34  N   UNL     1      -0.211  -4.901   6.011  1.00  0.00    -0.248 NA
ATOM     35  C   UNL     1       0.995  -6.024   4.386  1.00  0.00     0.031 C 
ATOM     36  C   UNL     1      -3.122  -3.420   2.959  1.00  0.00     0.029 A 
ATOM     37  N   UNL     1      -2.897  -3.965   5.067  1.00  0.00    -0.354 N 
ATOM     38  C   UNL     1       0.893  -5.528   6.573  1.00  0.00     0.074 A 
ATOM     39  C   UNL     1       1.681  -6.084   5.510  1.00  0.00     0.031 C 
ATOM     40  C   UNL     1      -4.291  -3.137   3.523  1.00  0.00     0.029 A 
ATOM     41  C   UNL     1      -4.205  -3.542   4.894  1.00  0.00     0.049 A 
ATOM     42  H   UNL     1      -2.530  -4.234   5.940  1.00  0.00     0.167 HD
ATOM     43  C   UNL     1       1.183  -5.736   7.873  1.00  0.00     0.037 A 
ATOM     44  C   UNL     1      -5.261  -3.501   5.718  1.00  0.00     0.037 A 
ATOM     45  C   UNL     1       0.189  -5.588   8.891  1.00  0.00     0.049 A 
ATOM     46  C   UNL     1      -4.987  -3.908   7.117  1.00  0.00     0.074 A 
ATOM     47  C   UNL     1       0.272  -5.907  10.229  1.00  0.00     0.029 A 
ATOM     48  N   UNL     1      -1.123  -5.201   8.637  1.00  0.00    -0.354 N 
ATOM     49  N   UNL     1      -3.860  -4.345   7.625  1.00  0.00    -0.248 NA
ATOM     50  C   UNL     1      -6.092  -3.789   8.063  1.00  0.00     0.031 C 
ATOM     51  C   UNL     1      -1.014  -5.803  10.765  1.00  0.00     0.029 A 
ATOM     52  C   UNL     1      -1.872  -5.310   9.790  1.00  0.00     0.049 A 
ATOM     53  H   UNL     1      -1.465  -4.896   7.766  1.00  0.00     0.167 HD
ATOM     54  C   UNL     1      -4.101  -4.513   8.970  1.00  0.00     0.074 A 
ATOM     55  C   UNL     1      -5.483  -4.118   9.192  1.00  0.00     0.031 C 
ATOM     56  C   UNL     1      -3.257  -4.941   9.937  1.00  0.00     0.037 A 
BRANCH  43  57
ATOM     57  C   UNL     1       2.534  -6.317   8.171  1.00  0.00     0.057 A 
ATOM     58  C   UNL     1       3.705  -5.575   7.944  1.00  0.00     0.134 A 
ATOM     59  C   UNL     1       2.684  -7.645   8.583  1.00  0.00     0.134 A 
ATOM     60  F   UNL     1       3.634  -4.313   7.494  1.00  0.00    -0.206 F 
ATOM     61  C   UNL     1       4.972  -6.140   8.104  1.00  0.00     0.040 A 
ATOM     62  C   UNL     1       3.946  -8.213   8.771  1.00  0.00     0.040 A 
ATOM     63  F   UNL     1       1.611  -8.428   8.768  1.00  0.00    -0.206 F 
ATOM     64  C   UNL     1       5.094  -7.462   8.525  1.00  0.00     0.006 A 
ENDBRANCH  43  57
BRANCH  44  65
ATOM     65  C   UNL     1      -6.595  -3.031   5.246  1.00  0.00     0.057 A 
ATOM     66  C   UNL     1      -7.136  -1.820   5.693  1.00  0.00     0.134 A 
ATOM     67  C   UNL     1      -7.345  -3.749   4.301  1.00  0.00     0.134 A 
ATOM     68  F   UNL     1      -6.466  -1.071   6.581  1.00  0.00    -0.206 F 
ATOM     69  C   UNL     1      -8.383  -1.362   5.256  1.00  0.00     0.040 A 
ATOM     70  C   UNL     1      -8.579  -3.287   3.831  1.00  0.00     0.040 A 
ATOM     71  F   UNL     1      -6.875  -4.897   3.791  1.00  0.00    -0.206 F 
ATOM     72  C   UNL     1      -9.108  -2.096   4.321  1.00  0.00     0.006 A 
ENDBRANCH  44  65
BRANCH  56  73
ATOM     73  C   UNL     1      -3.819  -4.973  11.315  1.00  0.00     0.057 A 
ATOM     74  C   UNL     1      -4.816  -5.879  11.688  1.00  0.00     0.134 A 
ATOM     75  C   UNL     1      -3.321  -4.095  12.283  1.00  0.00     0.134 A 
ATOM     76  F   UNL     1      -5.337  -6.730  10.790  1.00  0.00    -0.206 F 
ATOM     77  C   UNL     1      -5.332  -5.883  12.979  1.00  0.00     0.040 A 
ATOM     78  C   UNL     1      -3.792  -4.126  13.589  1.00  0.00     0.040 A 
ATOM     79  F   UNL     1      -2.358  -3.212  11.977  1.00  0.00    -0.206 F 
ATOM     80  C   UNL     1      -4.809  -5.013  13.935  1.00  0.00     0.006 A 
ENDBRANCH  56  73
ENDBRANCH  30  31
ENDBRANCH  23  25
ENDBRANCH  22  23
ENDBRANCH  21  22
ENDBRANCH   1  21
TORSDOF 13
