REMARK SMILES C[C@](NC(=O)C[C@@H]1CCC[NH2+]C1)(C(=O)OCCOC(=O)c1ccc(-c2c3nc(c(-c4c(F)cccc4F)c4ccc([nH]4)c(-c4c(F)cccc4F)c4nc(c(-c5c(F)cccc5F)c5ccc2[nH]5)C=C4)C=C3)cc1)C(F)(F)F
REMARK SMILES IDX 16 1 15 2 13 3 14 4 2 5 1 6 75 7 76 8 77 9 78 10 3 11 4 12
REMARK SMILES IDX 5 14 6 15 7 16 8 17 12 18 9 19 11 20 10 21 17 24 18 25 19 26
REMARK SMILES IDX 20 27 21 28 22 29 74 30 23 31 73 32 24 33 25 34 26 35 67 36
REMARK SMILES IDX 27 37 72 38 66 39 68 40 28 41 71 42 65 43 64 44 29 46 55 47
REMARK SMILES IDX 38 48 54 49 39 50 42 51 53 52 69 53 40 54 41 55 52 57 70 58
REMARK SMILES IDX 43 59 30 60 31 61 36 62 32 63 33 64 35 65 37 66 34 67 56 68
REMARK SMILES IDX 57 69 62 70 58 71 59 72 61 73 63 74 60 75 44 76 45 77 50 78
REMARK SMILES IDX 46 79 47 80 49 81 51 82 48 83
REMARK H PARENT 3 13 11 22 11 23 68 45 42 56
REMARK Flexibility Score: inf
ROOT
ATOM      1  C   UNL     1      -3.023  -0.168  -0.961  1.00  0.00     0.274 C 
ENDROOT
BRANCH   1   2
ATOM      2  O   UNL     1      -1.594   0.043  -0.900  1.00  0.00    -0.460 OA
BRANCH   2   3
ATOM      3  C   UNL     1      -1.141   1.180  -1.515  1.00  0.00     0.341 C 
ATOM      4  O   UNL     1      -1.880   1.976  -2.083  1.00  0.00    -0.249 OA
BRANCH   3   5
ATOM      5  C   UNL     1       0.400   1.256  -1.553  1.00  0.00     0.231 C 
ATOM      6  C   UNL     1       0.739   0.984  -3.026  1.00  0.00     0.058 C 
BRANCH   5   7
ATOM      7  C   UNL     1       0.735   2.691  -1.118  1.00  0.00     0.422 C 
ATOM      8  F   UNL     1       0.672   2.809   0.228  1.00  0.00    -0.168 F 
ATOM      9  F   UNL     1       1.987   3.057  -1.475  1.00  0.00    -0.168 F 
ATOM     10  F   UNL     1      -0.070   3.638  -1.644  1.00  0.00    -0.168 F 
ENDBRANCH   5   7
BRANCH   5  11
ATOM     11  N   UNL     1       0.959   0.157  -0.698  1.00  0.00    -0.333 N 
ATOM     12  C   UNL     1       2.143  -0.093  -0.089  1.00  0.00     0.221 C 
ATOM     13  H   UNL     1       0.303  -0.560  -0.540  1.00  0.00     0.164 HD
ATOM     14  O   UNL     1       2.248  -1.187   0.473  1.00  0.00    -0.275 OA
BRANCH  12  15
ATOM     15  C   UNL     1       3.284   0.902  -0.030  1.00  0.00     0.109 C 
BRANCH  15  16
ATOM     16  C   UNL     1       4.019   1.143  -1.356  1.00  0.00     0.054 C 
ATOM     17  C   UNL     1       4.597  -0.133  -1.980  1.00  0.00     0.016 C 
ATOM     18  C   UNL     1       5.105   2.222  -1.195  1.00  0.00     0.264 C 
ATOM     19  C   UNL     1       5.890  -0.569  -1.304  1.00  0.00     0.062 C 
ATOM     20  N   UNL     1       6.287   1.723  -0.497  1.00  0.00    -0.346 N 
ATOM     21  C   UNL     1       6.878   0.591  -1.212  1.00  0.00     0.260 C 
ATOM     22  H   UNL     1       6.977   2.472  -0.431  1.00  0.00     0.346 HD
ATOM     23  H   UNL     1       6.009   1.411   0.433  1.00  0.00     0.346 HD
ENDBRANCH  15  16
ENDBRANCH  12  15
ENDBRANCH   5  11
ENDBRANCH   3   5
ENDBRANCH   2   3
ENDBRANCH   1   2
BRANCH   1  24
ATOM     24  C   UNL     1      -3.689   0.228   0.354  1.00  0.00     0.275 C 
BRANCH  24  25
ATOM     25  O   UNL     1      -3.323   1.577   0.692  1.00  0.00    -0.458 OA
BRANCH  25  26
ATOM     26  C   UNL     1      -3.122   1.808   2.007  1.00  0.00     0.338 C 
ATOM     27  O   UNL     1      -3.313   1.009   2.922  1.00  0.00    -0.246 OA
BRANCH  26  28
ATOM     28  C   UNL     1      -2.569   3.161   2.237  1.00  0.00     0.060 A 
ATOM     29  C   UNL     1      -1.762   3.783   1.286  1.00  0.00     0.016 A 
ATOM     30  C   UNL     1      -2.732   3.760   3.486  1.00  0.00     0.016 A 
ATOM     31  C   UNL     1      -0.987   4.894   1.639  1.00  0.00     0.010 A 
ATOM     32  C   UNL     1      -2.048   4.943   3.792  1.00  0.00     0.010 A 
ATOM     33  C   UNL     1      -1.100   5.485   2.904  1.00  0.00    -0.014 A 
BRANCH  33  34
ATOM     34  C   UNL     1      -0.171   6.569   3.366  1.00  0.00     0.031 A 
ATOM     35  C   UNL     1       0.540   6.422   4.694  1.00  0.00     0.074 A 
ATOM     36  C   UNL     1       0.089   7.673   2.637  1.00  0.00     0.049 A 
ATOM     37  N   UNL     1       1.106   7.336   5.443  1.00  0.00    -0.248 NA
ATOM     38  C   UNL     1       0.590   5.068   5.270  1.00  0.00     0.031 C 
ATOM     39  C   UNL     1      -0.422   7.965   1.299  1.00  0.00     0.029 A 
ATOM     40  N   UNL     1       0.878   8.764   2.930  1.00  0.00    -0.354 N 
ATOM     41  C   UNL     1       1.461   6.693   6.624  1.00  0.00     0.074 A 
ATOM     42  C   UNL     1       1.082   5.304   6.478  1.00  0.00     0.031 C 
ATOM     43  C   UNL     1       0.118   9.114   0.861  1.00  0.00     0.029 A 
ATOM     44  C   UNL     1       0.923   9.701   1.927  1.00  0.00     0.049 A 
ATOM     45  H   UNL     1       1.365   8.862   3.781  1.00  0.00     0.167 HD
ATOM     46  C   UNL     1       2.034   7.216   7.734  1.00  0.00     0.037 A 
ATOM     47  C   UNL     1       1.502  10.916   1.880  1.00  0.00     0.037 A 
ATOM     48  C   UNL     1       2.545   8.558   7.831  1.00  0.00     0.049 A 
ATOM     49  C   UNL     1       2.186  11.468   3.099  1.00  0.00     0.074 A 
ATOM     50  C   UNL     1       3.151   9.179   8.911  1.00  0.00     0.029 A 
ATOM     51  N   UNL     1       2.563   9.468   6.788  1.00  0.00    -0.354 N 
ATOM     52  N   UNL     1       2.364  10.911   4.271  1.00  0.00    -0.248 NA
ATOM     53  C   UNL     1       2.714  12.837   2.998  1.00  0.00     0.031 C 
ATOM     54  C   UNL     1       3.534  10.467   8.520  1.00  0.00     0.029 A 
ATOM     55  C   UNL     1       3.187  10.637   7.191  1.00  0.00     0.049 A 
ATOM     56  H   UNL     1       2.187   9.308   5.892  1.00  0.00     0.167 HD
ATOM     57  C   UNL     1       3.025  11.857   5.044  1.00  0.00     0.074 A 
ATOM     58  C   UNL     1       3.237  13.016   4.203  1.00  0.00     0.031 C 
ATOM     59  C   UNL     1       3.408  11.777   6.341  1.00  0.00     0.037 A 
BRANCH  46  60
ATOM     60  C   UNL     1       2.098   6.348   8.956  1.00  0.00     0.057 A 
ATOM     61  C   UNL     1       3.011   5.298   9.092  1.00  0.00     0.134 A 
ATOM     62  C   UNL     1       1.235   6.599  10.033  1.00  0.00     0.134 A 
ATOM     63  F   UNL     1       3.854   4.997   8.092  1.00  0.00    -0.206 F 
ATOM     64  C   UNL     1       3.050   4.512  10.246  1.00  0.00     0.040 A 
ATOM     65  C   UNL     1       1.281   5.837  11.201  1.00  0.00     0.040 A 
ATOM     66  F   UNL     1       0.340   7.597   9.970  1.00  0.00    -0.206 F 
ATOM     67  C   UNL     1       2.187   4.785  11.307  1.00  0.00     0.006 A 
ENDBRANCH  46  60
BRANCH  47  68
ATOM     68  C   UNL     1       1.423  11.725   0.638  1.00  0.00     0.057 A 
ATOM     69  C   UNL     1       2.560  11.944  -0.147  1.00  0.00     0.134 A 
ATOM     70  C   UNL     1       0.220  12.298   0.209  1.00  0.00     0.134 A 
ATOM     71  F   UNL     1       3.747  11.446   0.230  1.00  0.00    -0.206 F 
ATOM     72  C   UNL     1       2.505  12.705  -1.316  1.00  0.00     0.040 A 
ATOM     73  C   UNL     1       0.145  13.039  -0.970  1.00  0.00     0.040 A 
ATOM     74  F   UNL     1      -0.903  12.128   0.921  1.00  0.00    -0.206 F 
ATOM     75  C   UNL     1       1.292  13.248  -1.735  1.00  0.00     0.006 A 
ENDBRANCH  47  68
BRANCH  59  76
ATOM     76  C   UNL     1       4.130  12.957   6.915  1.00  0.00     0.057 A 
ATOM     77  C   UNL     1       3.452  14.124   7.288  1.00  0.00     0.134 A 
ATOM     78  C   UNL     1       5.516  12.918   7.112  1.00  0.00     0.134 A 
ATOM     79  F   UNL     1       2.126  14.226   7.111  1.00  0.00    -0.206 F 
ATOM     80  C   UNL     1       4.132  15.221   7.820  1.00  0.00     0.040 A 
ATOM     81  C   UNL     1       6.204  14.002   7.658  1.00  0.00     0.040 A 
ATOM     82  F   UNL     1       6.221  11.827   6.777  1.00  0.00    -0.206 F 
ATOM     83  C   UNL     1       5.512  15.160   8.009  1.00  0.00     0.006 A 
ENDBRANCH  59  76
ENDBRANCH  33  34
ENDBRANCH  26  28
ENDBRANCH  25  26
ENDBRANCH  24  25
ENDBRANCH   1  24
TORSDOF 15
