REMARK SMILES COC(=O)c1ccc(Cl)c(-c2ccc(C(=O)OCCOC(=O)c3ccc(-c4c5nc(c(-c6c(F)cccc6F)c6ccc([nH]6)c(-c6c(F)cccc6F)c6nc(c(-c7c(F)cccc7F)c7ccc4[nH]7)C=C6)C=C5)cc3)nc2)c1
REMARK SMILES IDX 18 1 17 2 15 3 16 4 14 5 11 6 12 7 78 8 13 9 77 10 10 11
REMARK SMILES IDX 5 12 6 13 79 14 7 15 8 16 9 17 3 18 4 19 2 20 1 21 19 22
REMARK SMILES IDX 20 23 21 24 22 25 23 26 24 27 76 28 25 29 75 30 26 31 27 32
REMARK SMILES IDX 28 33 69 34 29 35 74 36 68 37 70 38 30 39 73 40 67 41 66 42
REMARK SMILES IDX 31 44 57 45 40 46 56 47 41 48 44 49 55 50 71 51 42 52 43 53
REMARK SMILES IDX 54 55 72 56 45 57 32 58 33 59 38 60 34 61 35 62 37 63 39 64
REMARK SMILES IDX 36 65 58 66 59 67 64 68 60 69 61 70 63 71 65 72 62 73 46 74
REMARK SMILES IDX 47 75 52 76 48 77 49 78 51 79 53 80 50 81
REMARK H PARENT 70 43 44 54
REMARK Flexibility Score: inf
ROOT
ATOM      1  C   UNL     1       4.085   8.217 -10.010  1.00  0.00     0.275 C 
ENDROOT
BRANCH   1   2
ATOM      2  O   UNL     1       3.233   7.569  -9.044  1.00  0.00    -0.457 OA
BRANCH   2   3
ATOM      3  C   UNL     1       2.997   6.249  -9.273  1.00  0.00     0.357 C 
ATOM      4  O   UNL     1       3.392   5.623 -10.246  1.00  0.00    -0.244 OA
BRANCH   3   5
ATOM      5  C   UNL     1       2.256   5.618  -8.131  1.00  0.00     0.148 A 
ATOM      6  C   UNL     1       0.968   4.261  -6.089  1.00  0.00     0.002 A 
ATOM      7  C   UNL     1       0.862   5.655  -6.181  1.00  0.00     0.013 A 
ATOM      8  C   UNL     1       1.748   3.629  -7.053  1.00  0.00     0.120 A 
ATOM      9  C   UNL     1       1.517   6.348  -7.208  1.00  0.00     0.037 A 
ATOM     10  N   UNL     1       2.370   4.264  -8.068  1.00  0.00    -0.249 NA
BRANCH   6  11
ATOM     11  C   UNL     1       0.232   3.465  -5.100  1.00  0.00     0.003 A 
ATOM     12  C   UNL     1       0.209   2.194  -3.006  1.00  0.00     0.060 A 
ATOM     13  C   UNL     1      -1.097   1.769  -3.276  1.00  0.00     0.017 A 
ATOM     14  C   UNL     1       0.863   3.048  -3.911  1.00  0.00     0.026 A 
ATOM     15  C   UNL     1      -1.741   2.186  -4.441  1.00  0.00     0.022 A 
ATOM     16  C   UNL     1      -1.084   3.022  -5.346  1.00  0.00     0.048 A 
ATOM     17  Cl  UNL     1      -1.939   3.461  -6.786  1.00  0.00    -0.084 Cl
BRANCH  12  18
ATOM     18  C   UNL     1       0.930   1.756  -1.779  1.00  0.00     0.337 C 
ATOM     19  O   UNL     1       1.931   2.305  -1.352  1.00  0.00    -0.246 OA
BRANCH  18  20
ATOM     20  O   UNL     1       0.325   0.661  -1.254  1.00  0.00    -0.465 OA
ATOM     21  C   UNL     1       0.956   0.128  -0.088  1.00  0.00     0.282 C 
ENDBRANCH  18  20
ENDBRANCH  12  18
ENDBRANCH   6  11
ENDBRANCH   3   5
ENDBRANCH   2   3
ENDBRANCH   1   2
BRANCH   1  22
ATOM     22  C   UNL     1       5.529   8.336  -9.510  1.00  0.00     0.275 C 
BRANCH  22  23
ATOM     23  O   UNL     1       6.181   7.055  -9.409  1.00  0.00    -0.458 OA
BRANCH  23  24
ATOM     24  C   UNL     1       6.122   6.477  -8.186  1.00  0.00     0.338 C 
ATOM     25  O   UNL     1       5.604   6.933  -7.180  1.00  0.00    -0.246 OA
BRANCH  24  26
ATOM     26  C   UNL     1       6.683   5.118  -8.241  1.00  0.00     0.060 A 
ATOM     27  C   UNL     1       5.799   4.052  -8.079  1.00  0.00     0.016 A 
ATOM     28  C   UNL     1       8.055   4.884  -8.335  1.00  0.00     0.016 A 
ATOM     29  C   UNL     1       6.271   2.748  -7.989  1.00  0.00     0.010 A 
ATOM     30  C   UNL     1       8.532   3.567  -8.263  1.00  0.00     0.010 A 
ATOM     31  C   UNL     1       7.644   2.491  -8.074  1.00  0.00    -0.014 A 
BRANCH  31  32
ATOM     32  C   UNL     1       8.128   1.096  -7.921  1.00  0.00     0.031 A 
ATOM     33  C   UNL     1       8.881   0.688  -6.687  1.00  0.00     0.074 A 
ATOM     34  C   UNL     1       7.845   0.180  -8.866  1.00  0.00     0.049 A 
ATOM     35  N   UNL     1       9.434  -0.463  -6.396  1.00  0.00    -0.248 NA
ATOM     36  C   UNL     1       9.034   1.710  -5.641  1.00  0.00     0.031 C 
ATOM     37  C   UNL     1       7.075   0.436 -10.085  1.00  0.00     0.029 A 
ATOM     38  N   UNL     1       8.163  -1.153  -8.945  1.00  0.00    -0.354 N 
ATOM     39  C   UNL     1      10.025  -0.295  -5.151  1.00  0.00     0.074 A 
ATOM     40  C   UNL     1       9.773   1.072  -4.745  1.00  0.00     0.031 C 
ATOM     41  C   UNL     1       6.968  -0.706 -10.782  1.00  0.00     0.029 A 
ATOM     42  C   UNL     1       7.705  -1.759 -10.088  1.00  0.00     0.049 A 
ATOM     43  H   UNL     1       8.671  -1.628  -8.248  1.00  0.00     0.167 HD
ATOM     44  C   UNL     1      10.713  -1.200  -4.414  1.00  0.00     0.037 A 
ATOM     45  C   UNL     1       7.881  -3.014 -10.542  1.00  0.00     0.037 A 
ATOM     46  C   UNL     1      10.937  -2.568  -4.805  1.00  0.00     0.049 A 
ATOM     47  C   UNL     1       8.686  -3.986  -9.727  1.00  0.00     0.074 A 
ATOM     48  C   UNL     1      11.607  -3.564  -4.116  1.00  0.00     0.029 A 
ATOM     49  N   UNL     1      10.492  -3.132  -5.991  1.00  0.00    -0.354 N 
ATOM     50  N   UNL     1       9.257  -3.812  -8.561  1.00  0.00    -0.248 NA
ATOM     51  C   UNL     1       8.880  -5.327 -10.297  1.00  0.00     0.031 C 
ATOM     52  C   UNL     1      11.600  -4.722  -4.902  1.00  0.00     0.029 A 
ATOM     53  C   UNL     1      10.891  -4.458  -6.063  1.00  0.00     0.049 A 
ATOM     54  H   UNL     1       9.970  -2.661  -6.680  1.00  0.00     0.167 HD
ATOM     55  C   UNL     1       9.867  -5.019  -8.251  1.00  0.00     0.074 A 
ATOM     56  C   UNL     1       9.581  -5.926  -9.344  1.00  0.00     0.031 C 
ATOM     57  C   UNL     1      10.600  -5.347  -7.159  1.00  0.00     0.037 A 
BRANCH  44  58
ATOM     58  C   UNL     1      11.306  -0.724  -3.120  1.00  0.00     0.057 A 
ATOM     59  C   UNL     1      10.520  -0.467  -1.990  1.00  0.00     0.134 A 
ATOM     60  C   UNL     1      12.690  -0.539  -3.001  1.00  0.00     0.134 A 
ATOM     61  F   UNL     1       9.187  -0.613  -2.042  1.00  0.00    -0.206 F 
ATOM     62  C   UNL     1      11.086  -0.019  -0.795  1.00  0.00     0.040 A 
ATOM     63  C   UNL     1      13.270  -0.114  -1.805  1.00  0.00     0.040 A 
ATOM     64  F   UNL     1      13.501  -0.773  -4.044  1.00  0.00    -0.206 F 
ATOM     65  C   UNL     1      12.466   0.154  -0.699  1.00  0.00     0.006 A 
ENDBRANCH  44  58
BRANCH  45  66
ATOM     66  C   UNL     1       7.301  -3.411 -11.848  1.00  0.00     0.057 A 
ATOM     67  C   UNL     1       6.224  -4.301 -11.925  1.00  0.00     0.134 A 
ATOM     68  C   UNL     1       7.805  -2.900 -13.051  1.00  0.00     0.134 A 
ATOM     69  F   UNL     1       5.715  -4.842 -10.809  1.00  0.00    -0.206 F 
ATOM     70  C   UNL     1       5.670  -4.671 -13.151  1.00  0.00     0.040 A 
ATOM     71  C   UNL     1       7.245  -3.243 -14.282  1.00  0.00     0.040 A 
ATOM     72  F   UNL     1       8.838  -2.045 -13.044  1.00  0.00    -0.206 F 
ATOM     73  C   UNL     1       6.176  -4.135 -14.334  1.00  0.00     0.006 A 
ENDBRANCH  45  66
BRANCH  57  74
ATOM     74  C   UNL     1      11.127  -6.749  -7.086  1.00  0.00     0.057 A 
ATOM     75  C   UNL     1      12.206  -7.172  -7.872  1.00  0.00     0.134 A 
ATOM     76  C   UNL     1      10.569  -7.676  -6.197  1.00  0.00     0.134 A 
ATOM     77  F   UNL     1      12.774  -6.335  -8.753  1.00  0.00    -0.206 F 
ATOM     78  C   UNL     1      12.699  -8.475  -7.790  1.00  0.00     0.040 A 
ATOM     79  C   UNL     1      11.068  -8.975  -6.090  1.00  0.00     0.040 A 
ATOM     80  F   UNL     1       9.537  -7.332  -5.412  1.00  0.00    -0.206 F 
ATOM     81  C   UNL     1      12.133  -9.379  -6.892  1.00  0.00     0.006 A 
ENDBRANCH  57  74
ENDBRANCH  31  32
ENDBRANCH  24  26
ENDBRANCH  23  24
ENDBRANCH  22  23
ENDBRANCH   1  22
TORSDOF 14
