REMARK SMILES CS(=O)(=O)c1ccc(-n2nc(C(F)(F)F)cc2-c2ccc(CC(=O)OCCOC(=O)c3ccc(-c4c5nc(c(-c6c(F)cccc6F)c6ccc([nH]6)c(-c6c(F)cccc6F)c6nc(c(-c7c(F)cccc7F)c7ccc4[nH]7)C=C6)C=C5)cc3)cc2)cc1
REMARK SMILES IDX 26 1 25 2 23 3 24 4 22 5 21 6 18 7 19 8 86 9 20 10 85 11
REMARK SMILES IDX 17 12 9 13 10 14 11 15 16 16 8 17 5 18 6 19 88 20 7 21 87 22
REMARK SMILES IDX 2 23 1 24 3 25 4 26 12 27 13 28 14 29 15 30 27 31 28 32
REMARK SMILES IDX 29 33 30 34 31 35 32 36 84 37 33 38 83 39 34 40 35 41 36 42
REMARK SMILES IDX 77 43 37 44 82 45 76 46 78 47 38 48 81 49 75 50 74 51 39 53
REMARK SMILES IDX 65 54 48 55 64 56 49 57 52 58 63 59 79 60 50 61 51 62 62 64
REMARK SMILES IDX 80 65 53 66 40 67 41 68 46 69 42 70 43 71 45 72 47 73 44 74
REMARK SMILES IDX 66 75 67 76 72 77 68 78 69 79 71 80 73 81 70 82 54 83 55 84
REMARK SMILES IDX 60 85 56 86 57 87 59 88 61 89 58 90
REMARK H PARENT 78 52 52 63
REMARK Flexibility Score: inf
ROOT
ATOM      1  C   UNL     1       6.173  -0.359   2.762  1.00  0.00     0.274 C 
ENDROOT
BRANCH   1   2
ATOM      2  O   UNL     1       6.232   0.897   3.470  1.00  0.00    -0.462 OA
BRANCH   2   3
ATOM      3  C   UNL     1       7.436   1.535   3.451  1.00  0.00     0.310 C 
ATOM      4  O   UNL     1       8.438   1.093   2.893  1.00  0.00    -0.252 OA
BRANCH   3   5
ATOM      5  C   UNL     1       7.478   2.798   4.284  1.00  0.00     0.158 C 
BRANCH   5   6
ATOM      6  C   UNL     1       6.266   3.700   4.258  1.00  0.00    -0.037 A 
ATOM      7  C   UNL     1       4.000   5.381   4.155  1.00  0.00     0.000 A 
ATOM      8  C   UNL     1       4.937   5.396   3.121  1.00  0.00     0.010 A 
ATOM      9  C   UNL     1       4.225   4.557   5.263  1.00  0.00     0.010 A 
ATOM     10  C   UNL     1       6.068   4.582   3.190  1.00  0.00     0.005 A 
ATOM     11  C   UNL     1       5.338   3.707   5.304  1.00  0.00     0.005 A 
BRANCH   7  12
ATOM     12  C   UNL     1       2.809   6.222   4.069  1.00  0.00     0.075 A 
ATOM     13  N   UNL     1       1.810   6.120   3.104  1.00  0.00    -0.233 N 
ATOM     14  N   UNL     1       0.999   7.213   3.112  1.00  0.00    -0.163 NA
ATOM     15  C   UNL     1       1.347   7.904   4.213  1.00  0.00     0.167 A 
ATOM     16  C   UNL     1       2.490   7.334   4.821  1.00  0.00     0.064 A 
BRANCH  13  17
ATOM     17  C   UNL     1       1.524   5.043   2.215  1.00  0.00     0.065 A 
ATOM     18  C   UNL     1       0.911   2.933   0.485  1.00  0.00     0.067 A 
ATOM     19  C   UNL     1       1.521   2.666   1.711  1.00  0.00     0.022 A 
ATOM     20  C   UNL     1       0.596   4.247   0.122  1.00  0.00     0.022 A 
ATOM     21  C   UNL     1       1.833   3.723   2.569  1.00  0.00     0.030 A 
ATOM     22  C   UNL     1       0.882   5.300   0.996  1.00  0.00     0.030 A 
BRANCH  18  23
ATOM     23  S   UNL     1       0.496   1.637  -0.656  1.00  0.00     0.175 S 
ATOM     24  C   UNL     1       1.136   0.125   0.006  1.00  0.00     0.163 C 
ATOM     25  O   UNL     1       1.226   1.909  -1.879  1.00  0.00    -0.224 OA
ATOM     26  O   UNL     1      -0.951   1.532  -0.651  1.00  0.00    -0.224 OA
ENDBRANCH  18  23
ENDBRANCH  13  17
BRANCH  15  27
ATOM     27  C   UNL     1       0.600   9.122   4.687  1.00  0.00     0.435 C 
ATOM     28  F   UNL     1       0.336  10.010   3.693  1.00  0.00    -0.164 F 
ATOM     29  F   UNL     1      -0.590   8.797   5.260  1.00  0.00    -0.164 F 
ATOM     30  F   UNL     1       1.303   9.804   5.635  1.00  0.00    -0.164 F 
ENDBRANCH  15  27
ENDBRANCH   7  12
ENDBRANCH   5   6
ENDBRANCH   3   5
ENDBRANCH   2   3
ENDBRANCH   1   2
BRANCH   1  31
ATOM     31  C   UNL     1       5.732  -0.226   1.305  1.00  0.00     0.275 C 
BRANCH  31  32
ATOM     32  O   UNL     1       6.668   0.500   0.506  1.00  0.00    -0.458 OA
BRANCH  32  33
ATOM     33  C   UNL     1       6.430   1.829   0.497  1.00  0.00     0.338 C 
ATOM     34  O   UNL     1       5.639   2.432   1.202  1.00  0.00    -0.246 OA
BRANCH  33  35
ATOM     35  C   UNL     1       7.105   2.482  -0.624  1.00  0.00     0.060 A 
ATOM     36  C   UNL     1       7.282   3.867  -0.545  1.00  0.00     0.016 A 
ATOM     37  C   UNL     1       7.221   1.792  -1.834  1.00  0.00     0.016 A 
ATOM     38  C   UNL     1       7.400   4.596  -1.706  1.00  0.00     0.010 A 
ATOM     39  C   UNL     1       7.336   2.521  -2.997  1.00  0.00     0.010 A 
ATOM     40  C   UNL     1       7.341   3.917  -2.921  1.00  0.00    -0.014 A 
BRANCH  40  41
ATOM     41  C   UNL     1       7.280   4.713  -4.129  1.00  0.00     0.031 A 
ATOM     42  C   UNL     1       8.554   5.356  -4.530  1.00  0.00     0.074 A 
ATOM     43  C   UNL     1       6.175   4.725  -4.897  1.00  0.00     0.049 A 
ATOM     44  N   UNL     1       8.781   6.602  -4.788  1.00  0.00    -0.248 NA
ATOM     45  C   UNL     1       9.751   4.502  -4.570  1.00  0.00     0.031 C 
ATOM     46  C   UNL     1       4.966   3.910  -4.749  1.00  0.00     0.029 A 
ATOM     47  N   UNL     1       5.968   5.380  -6.069  1.00  0.00    -0.354 N 
ATOM     48  C   UNL     1      10.113   6.667  -5.185  1.00  0.00     0.074 A 
ATOM     49  C   UNL     1      10.693   5.379  -4.909  1.00  0.00     0.031 C 
ATOM     50  C   UNL     1       4.275   3.940  -5.909  1.00  0.00     0.029 A 
ATOM     51  C   UNL     1       4.938   4.850  -6.830  1.00  0.00     0.049 A 
ATOM     52  H   UNL     1       6.500   6.158  -6.351  1.00  0.00     0.167 HD
ATOM     53  C   UNL     1      10.603   7.711  -5.905  1.00  0.00     0.037 A 
ATOM     54  C   UNL     1       4.720   5.074  -8.148  1.00  0.00     0.037 A 
ATOM     55  C   UNL     1       9.768   8.876  -5.809  1.00  0.00     0.049 A 
ATOM     56  C   UNL     1       5.480   6.292  -8.533  1.00  0.00     0.074 A 
ATOM     57  C   UNL     1       9.329   9.668  -4.765  1.00  0.00     0.029 A 
ATOM     58  N   UNL     1       8.974   9.203  -6.880  1.00  0.00    -0.354 N 
ATOM     59  N   UNL     1       5.164   7.502  -8.164  1.00  0.00    -0.248 NA
ATOM     60  C   UNL     1       6.854   6.122  -8.988  1.00  0.00     0.031 C 
ATOM     61  C   UNL     1       8.005  10.053  -5.123  1.00  0.00     0.029 A 
ATOM     62  C   UNL     1       7.734   9.494  -6.372  1.00  0.00     0.049 A 
ATOM     63  H   UNL     1       9.242   9.225  -7.827  1.00  0.00     0.167 HD
ATOM     64  C   UNL     1       6.378   8.135  -7.939  1.00  0.00     0.074 A 
ATOM     65  C   UNL     1       7.379   7.275  -8.563  1.00  0.00     0.031 C 
ATOM     66  C   UNL     1       6.496   9.141  -7.023  1.00  0.00     0.037 A 
BRANCH  53  67
ATOM     67  C   UNL     1      11.675   7.564  -6.949  1.00  0.00     0.057 A 
ATOM     68  C   UNL     1      12.303   8.706  -7.469  1.00  0.00     0.134 A 
ATOM     69  C   UNL     1      11.912   6.367  -7.657  1.00  0.00     0.134 A 
ATOM     70  F   UNL     1      12.127   9.908  -6.899  1.00  0.00    -0.206 F 
ATOM     71  C   UNL     1      13.073   8.669  -8.637  1.00  0.00     0.040 A 
ATOM     72  C   UNL     1      12.723   6.308  -8.792  1.00  0.00     0.040 A 
ATOM     73  F   UNL     1      11.294   5.220  -7.348  1.00  0.00    -0.206 F 
ATOM     74  C   UNL     1      13.283   7.467  -9.304  1.00  0.00     0.006 A 
ENDBRANCH  53  67
BRANCH  54  75
ATOM     75  C   UNL     1       4.107   4.167  -9.144  1.00  0.00     0.057 A 
ATOM     76  C   UNL     1       3.671   4.645 -10.386  1.00  0.00     0.134 A 
ATOM     77  C   UNL     1       4.139   2.767  -9.002  1.00  0.00     0.134 A 
ATOM     78  F   UNL     1       3.654   5.961 -10.643  1.00  0.00    -0.206 F 
ATOM     79  C   UNL     1       3.292   3.785 -11.426  1.00  0.00     0.040 A 
ATOM     80  C   UNL     1       3.746   1.897 -10.024  1.00  0.00     0.040 A 
ATOM     81  F   UNL     1       4.633   2.187  -7.899  1.00  0.00    -0.206 F 
ATOM     82  C   UNL     1       3.331   2.405 -11.247  1.00  0.00     0.006 A 
ENDBRANCH  54  75
BRANCH  66  83
ATOM     83  C   UNL     1       5.236   9.708  -6.434  1.00  0.00     0.057 A 
ATOM     84  C   UNL     1       4.337   8.957  -5.662  1.00  0.00     0.134 A 
ATOM     85  C   UNL     1       5.003  11.085  -6.513  1.00  0.00     0.134 A 
ATOM     86  F   UNL     1       4.542   7.654  -5.431  1.00  0.00    -0.206 F 
ATOM     87  C   UNL     1       3.227   9.539  -5.045  1.00  0.00     0.040 A 
ATOM     88  C   UNL     1       3.917  11.686  -5.871  1.00  0.00     0.040 A 
ATOM     89  F   UNL     1       5.858  11.879  -7.176  1.00  0.00    -0.206 F 
ATOM     90  C   UNL     1       3.017  10.910  -5.144  1.00  0.00     0.006 A 
ENDBRANCH  66  83
ENDBRANCH  40  41
ENDBRANCH  33  35
ENDBRANCH  32  33
ENDBRANCH  31  32
ENDBRANCH   1  31
TORSDOF 16
