REMARK SMILES CCN(CC)c1ccc([C@@H]2c3[nH]c4ccccc4c3C[C@@H](C(=O)OCCOC(=O)c3ccc(-c4c5nc(c(-c6c(F)cccc6F)c6ccc([nH]6)c(-c6c(F)cccc6F)c6nc(c(-c7c(F)cccc7F)c7ccc4[nH]7)C=C6)C=C5)cc3)N2C(C)=O)cc1
REMARK SMILES IDX 25 1 24 2 22 3 23 4 21 5 10 6 11 7 84 8 12 9 19 10 13 11
REMARK SMILES IDX 18 13 20 14 14 15 17 16 15 17 16 18 9 19 6 20 7 21 89 22
REMARK SMILES IDX 8 23 88 24 3 25 2 26 1 27 4 28 5 29 85 30 86 31 87 32 26 33
REMARK SMILES IDX 27 34 28 35 29 36 30 37 31 38 83 39 32 40 82 41 33 42 34 43
REMARK SMILES IDX 35 44 76 45 36 46 81 47 75 48 77 49 37 50 80 51 74 52 73 53
REMARK SMILES IDX 38 55 64 56 47 57 63 58 48 59 51 60 62 61 78 62 49 63 50 64
REMARK SMILES IDX 61 66 79 67 52 68 39 69 40 70 45 71 41 72 42 73 44 74 46 75
REMARK SMILES IDX 43 76 65 77 66 78 71 79 67 80 68 81 70 82 72 83 69 84 53 85
REMARK SMILES IDX 54 86 59 87 55 88 56 89 58 90 60 91 57 92
REMARK H PARENT 12 12 77 54 51 65
REMARK Flexibility Score: inf
ROOT
ATOM      1  C   UNL     1       8.171  -3.579  -3.115  1.00  0.00     0.274 C 
ENDROOT
BRANCH   1   2
ATOM      2  O   UNL     1       7.926  -3.498  -1.698  1.00  0.00    -0.461 OA
BRANCH   2   3
ATOM      3  C   UNL     1       8.922  -3.249  -0.819  1.00  0.00     0.329 C 
ATOM      4  O   UNL     1      10.054  -2.917  -1.150  1.00  0.00    -0.250 OA
BRANCH   3   5
ATOM      5  C   UNL     1       8.546  -3.706   0.626  1.00  0.00     0.200 C 
ATOM      6  C   UNL     1       6.067  -4.007   0.291  1.00  0.00     0.163 C 
ATOM      7  C   UNL     1       6.418  -5.451   0.017  1.00  0.00     0.047 A 
ATOM      8  N   UNL     1       7.151  -3.586   1.202  1.00  0.00    -0.316 N 
ATOM      9  N   UNL     1       5.578  -6.464  -0.348  1.00  0.00    -0.356 N 
ATOM     10  C   UNL     1       7.680  -6.019   0.207  1.00  0.00    -0.014 A 
ATOM     11  C   UNL     1       6.126  -7.647   0.104  1.00  0.00     0.046 A 
ATOM     12  H   UNL     1       4.733  -6.368  -0.845  1.00  0.00     0.166 HD
ATOM     13  C   UNL     1       7.478  -7.410   0.349  1.00  0.00     0.003 A 
ATOM     14  C   UNL     1       8.902  -5.223   0.588  1.00  0.00     0.075 C 
ATOM     15  C   UNL     1       5.521  -8.875   0.379  1.00  0.00     0.026 A 
ATOM     16  C   UNL     1       8.292  -8.451   0.823  1.00  0.00     0.010 A 
ATOM     17  C   UNL     1       6.327  -9.864   0.954  1.00  0.00     0.002 A 
ATOM     18  C   UNL     1       7.693  -9.666   1.155  1.00  0.00     0.001 A 
BRANCH   6  19
ATOM     19  C   UNL     1       4.668  -3.562   0.690  1.00  0.00    -0.019 A 
ATOM     20  C   UNL     1       2.006  -2.577   1.013  1.00  0.00     0.037 A 
ATOM     21  C   UNL     1       2.310  -3.935   1.132  1.00  0.00     0.026 A 
ATOM     22  C   UNL     1       3.089  -1.708   0.867  1.00  0.00     0.026 A 
ATOM     23  C   UNL     1       3.615  -4.421   0.991  1.00  0.00     0.008 A 
ATOM     24  C   UNL     1       4.393  -2.185   0.709  1.00  0.00     0.008 A 
BRANCH  20  25
ATOM     25  N   UNL     1       0.705  -2.099   0.983  1.00  0.00    -0.372 N 
BRANCH  25  26
ATOM     26  C   UNL     1       0.274  -1.383  -0.226  1.00  0.00     0.113 C 
ATOM     27  C   UNL     1       0.426   0.125  -0.091  1.00  0.00     0.027 C 
ENDBRANCH  25  26
BRANCH  25  28
ATOM     28  C   UNL     1      -0.324  -2.583   1.906  1.00  0.00     0.113 C 
ATOM     29  C   UNL     1      -0.914  -3.931   1.513  1.00  0.00     0.027 C 
ENDBRANCH  25  28
ENDBRANCH  20  25
ENDBRANCH   6  19
BRANCH   8  30
ATOM     30  C   UNL     1       6.938  -3.928   2.559  1.00  0.00     0.221 C 
ATOM     31  C   UNL     1       8.034  -3.633   3.544  1.00  0.00     0.114 C 
ATOM     32  O   UNL     1       5.924  -4.485   2.983  1.00  0.00    -0.275 OA
ENDBRANCH   8  30
ENDBRANCH   3   5
ENDBRANCH   2   3
ENDBRANCH   1   2
BRANCH   1  33
ATOM     33  C   UNL     1       6.851  -3.245  -3.813  1.00  0.00     0.275 C 
BRANCH  33  34
ATOM     34  O   UNL     1       6.654  -1.833  -3.635  1.00  0.00    -0.458 OA
BRANCH  34  35
ATOM     35  C   UNL     1       5.572  -1.455  -2.917  1.00  0.00     0.338 C 
ATOM     36  O   UNL     1       4.554  -2.075  -2.696  1.00  0.00    -0.246 OA
BRANCH  35  37
ATOM     37  C   UNL     1       5.937  -0.167  -2.311  1.00  0.00     0.060 A 
ATOM     38  C   UNL     1       6.922  -0.164  -1.316  1.00  0.00     0.016 A 
ATOM     39  C   UNL     1       5.344   1.017  -2.736  1.00  0.00     0.016 A 
ATOM     40  C   UNL     1       7.338   1.030  -0.747  1.00  0.00     0.010 A 
ATOM     41  C   UNL     1       5.785   2.221  -2.186  1.00  0.00     0.010 A 
ATOM     42  C   UNL     1       6.783   2.233  -1.192  1.00  0.00    -0.014 A 
BRANCH  42  43
ATOM     43  C   UNL     1       7.211   3.510  -0.582  1.00  0.00     0.031 A 
ATOM     44  C   UNL     1       6.268   4.233   0.328  1.00  0.00     0.074 A 
ATOM     45  C   UNL     1       8.431   4.008  -0.849  1.00  0.00     0.049 A 
ATOM     46  N   UNL     1       6.365   5.433   0.836  1.00  0.00    -0.248 NA
ATOM     47  C   UNL     1       5.045   3.508   0.710  1.00  0.00     0.031 C 
ATOM     48  C   UNL     1       9.453   3.357  -1.671  1.00  0.00     0.029 A 
ATOM     49  N   UNL     1       9.014   5.187  -0.463  1.00  0.00    -0.354 N 
ATOM     50  C   UNL     1       5.202   5.622   1.570  1.00  0.00     0.074 A 
ATOM     51  C   UNL     1       4.411   4.418   1.435  1.00  0.00     0.031 C 
ATOM     52  C   UNL     1      10.535   4.151  -1.734  1.00  0.00     0.029 A 
ATOM     53  C   UNL     1      10.261   5.384  -1.004  1.00  0.00     0.049 A 
ATOM     54  H   UNL     1       8.581   5.830   0.144  1.00  0.00     0.167 HD
ATOM     55  C   UNL     1       4.832   6.708   2.287  1.00  0.00     0.037 A 
ATOM     56  C   UNL     1      11.071   6.458  -0.946  1.00  0.00     0.037 A 
ATOM     57  C   UNL     1       5.637   7.893   2.424  1.00  0.00     0.049 A 
ATOM     58  C   UNL     1      10.615   7.670  -0.182  1.00  0.00     0.074 A 
ATOM     59  C   UNL     1       5.355   9.056   3.119  1.00  0.00     0.029 A 
ATOM     60  N   UNL     1       6.892   8.060   1.855  1.00  0.00    -0.354 N 
ATOM     61  N   UNL     1       9.498   7.859   0.479  1.00  0.00    -0.248 NA
ATOM     62  C   UNL     1      11.528   8.821  -0.163  1.00  0.00     0.031 C 
ATOM     63  C   UNL     1       6.427   9.939   2.944  1.00  0.00     0.029 A 
ATOM     64  C   UNL     1       7.394   9.310   2.175  1.00  0.00     0.049 A 
ATOM     65  H   UNL     1       7.356   7.389   1.304  1.00  0.00     0.167 HD
ATOM     66  C   UNL     1       9.583   9.139   1.011  1.00  0.00     0.074 A 
ATOM     67  C   UNL     1      10.868   9.674   0.607  1.00  0.00     0.031 C 
ATOM     68  C   UNL     1       8.680   9.813   1.765  1.00  0.00     0.037 A 
BRANCH  55  69
ATOM     69  C   UNL     1       3.483   6.669   2.939  1.00  0.00     0.057 A 
ATOM     70  C   UNL     1       3.223   5.871   4.060  1.00  0.00     0.134 A 
ATOM     71  C   UNL     1       2.428   7.439   2.434  1.00  0.00     0.134 A 
ATOM     72  F   UNL     1       4.185   5.093   4.579  1.00  0.00    -0.206 F 
ATOM     73  C   UNL     1       1.954   5.823   4.642  1.00  0.00     0.040 A 
ATOM     74  C   UNL     1       1.162   7.418   3.021  1.00  0.00     0.040 A 
ATOM     75  F   UNL     1       2.610   8.223   1.361  1.00  0.00    -0.206 F 
ATOM     76  C   UNL     1       0.921   6.602   4.125  1.00  0.00     0.006 A 
ENDBRANCH  55  69
BRANCH  56  77
ATOM     77  C   UNL     1      12.377   6.446  -1.650  1.00  0.00     0.057 A 
ATOM     78  C   UNL     1      13.582   6.420  -0.939  1.00  0.00     0.134 A 
ATOM     79  C   UNL     1      12.454   6.471  -3.048  1.00  0.00     0.134 A 
ATOM     80  F   UNL     1      13.573   6.419   0.402  1.00  0.00    -0.206 F 
ATOM     81  C   UNL     1      14.816   6.434  -1.591  1.00  0.00     0.040 A 
ATOM     82  C   UNL     1      13.681   6.460  -3.713  1.00  0.00     0.040 A 
ATOM     83  F   UNL     1      11.336   6.495  -3.788  1.00  0.00    -0.206 F 
ATOM     84  C   UNL     1      14.868   6.449  -2.983  1.00  0.00     0.006 A 
ENDBRANCH  56  77
BRANCH  68  85
ATOM     85  C   UNL     1       9.075  11.183   2.229  1.00  0.00     0.057 A 
ATOM     86  C   UNL     1       9.104  12.279   1.358  1.00  0.00     0.134 A 
ATOM     87  C   UNL     1       9.410  11.409   3.570  1.00  0.00     0.134 A 
ATOM     88  F   UNL     1       8.808  12.123   0.059  1.00  0.00    -0.206 F 
ATOM     89  C   UNL     1       9.477  13.549   1.800  1.00  0.00     0.040 A 
ATOM     90  C   UNL     1       9.761  12.679   4.029  1.00  0.00     0.040 A 
ATOM     91  F   UNL     1       9.394  10.401   4.455  1.00  0.00    -0.206 F 
ATOM     92  C   UNL     1       9.802  13.752   3.141  1.00  0.00     0.006 A 
ENDBRANCH  68  85
ENDBRANCH  42  43
ENDBRANCH  35  37
ENDBRANCH  34  35
ENDBRANCH  33  34
ENDBRANCH   1  33
TORSDOF 16
