REMARK SMILES Cc1ccc(OCC(=O)Oc2ccc(C(=O)OCCOC(=O)c3ccc(-c4c5nc(c(-c6c(F)cccc6F)c6ccc([nH]6)c(-c6c(F)cccc6F)c6nc(c(-c7c(F)cccc7F)c7ccc4[nH]7)C=C6)C=C5)cc3)cc2)cc1C
REMARK SMILES IDX 17 1 15 2 16 3 14 4 11 5 12 6 78 7 13 8 77 9 10 10 8 11 9 12
REMARK SMILES IDX 7 13 6 14 5 15 1 16 2 17 3 18 80 19 4 20 79 21 81 22 18 23
REMARK SMILES IDX 19 24 20 25 21 26 22 27 23 28 24 29 76 30 25 31 75 32 26 33
REMARK SMILES IDX 27 34 28 35 69 36 29 37 74 38 68 39 70 40 30 41 73 42 67 43
REMARK SMILES IDX 66 44 31 46 57 47 40 48 56 49 41 50 44 51 55 52 71 53 42 54
REMARK SMILES IDX 43 55 54 57 72 58 45 59 32 60 33 61 38 62 34 63 35 64 37 65
REMARK SMILES IDX 39 66 36 67 58 68 59 69 64 70 60 71 61 72 63 73 65 74 62 75
REMARK SMILES IDX 46 76 47 77 52 78 48 79 49 80 51 81 53 82 50 83
REMARK H PARENT 70 45 44 56
REMARK Flexibility Score: inf
ROOT
ATOM      1  O   UNL     1      -6.254   3.294   6.914  1.00  0.00    -0.458 OA
ENDROOT
BRANCH   1   2
ATOM      2  C   UNL     1      -5.006   2.914   6.542  1.00  0.00     0.338 C 
ATOM      3  O   UNL     1      -3.966   3.172   7.128  1.00  0.00    -0.246 OA
BRANCH   2   4
ATOM      4  C   UNL     1      -5.049   2.041   5.341  1.00  0.00     0.060 A 
ATOM      5  C   UNL     1      -4.986   0.397   3.095  1.00  0.00     0.131 A 
ATOM      6  C   UNL     1      -3.925   0.363   3.995  1.00  0.00     0.048 A 
ATOM      7  C   UNL     1      -6.098   1.210   3.319  1.00  0.00     0.048 A 
ATOM      8  C   UNL     1      -3.948   1.202   5.106  1.00  0.00     0.019 A 
ATOM      9  C   UNL     1      -6.128   2.038   4.446  1.00  0.00     0.019 A 
BRANCH   5  10
ATOM     10  O   UNL     1      -4.876  -0.444   1.984  1.00  0.00    -0.424 OA
BRANCH  10  11
ATOM     11  C   UNL     1      -4.802   0.221   0.766  1.00  0.00     0.349 C 
ATOM     12  O   UNL     1      -5.135   1.379   0.542  1.00  0.00    -0.248 OA
BRANCH  11  13
ATOM     13  C   UNL     1      -4.235  -0.715  -0.292  1.00  0.00     0.352 C 
BRANCH  13  14
ATOM     14  O   UNL     1      -3.003  -1.340   0.039  1.00  0.00    -0.482 OA
BRANCH  14  15
ATOM     15  C   UNL     1      -1.861  -0.588  -0.026  1.00  0.00     0.120 A 
ATOM     16  C   UNL     1       1.955   1.458  -0.083  1.00  0.00     0.044 C 
ATOM     17  C   UNL     1       0.650   0.711  -0.067  1.00  0.00    -0.048 A 
ATOM     18  C   UNL     1      -0.546   1.435  -0.179  1.00  0.00     0.007 A 
ATOM     19  C   UNL     1       0.588  -0.688   0.051  1.00  0.00    -0.045 A 
ATOM     20  C   UNL     1      -1.789   0.794  -0.166  1.00  0.00     0.047 A 
ATOM     21  C   UNL     1      -0.673  -1.317   0.082  1.00  0.00     0.050 A 
ATOM     22  C   UNL     1       1.810  -1.562   0.128  1.00  0.00     0.045 C 
ENDBRANCH  14  15
ENDBRANCH  13  14
ENDBRANCH  11  13
ENDBRANCH  10  11
ENDBRANCH   5  10
ENDBRANCH   2   4
ENDBRANCH   1   2
BRANCH   1  23
ATOM     23  C   UNL     1      -6.335   4.047   8.141  1.00  0.00     0.275 C 
BRANCH  23  24
ATOM     24  C   UNL     1      -6.712   3.134   9.306  1.00  0.00     0.275 C 
BRANCH  24  25
ATOM     25  O   UNL     1      -5.657   2.182   9.529  1.00  0.00    -0.458 OA
BRANCH  25  26
ATOM     26  C   UNL     1      -6.037   0.888   9.634  1.00  0.00     0.338 C 
ATOM     27  O   UNL     1      -7.169   0.439   9.630  1.00  0.00    -0.246 OA
BRANCH  26  28
ATOM     28  C   UNL     1      -4.837   0.046   9.778  1.00  0.00     0.060 A 
ATOM     29  C   UNL     1      -3.904  -0.014   8.744  1.00  0.00     0.016 A 
ATOM     30  C   UNL     1      -4.691  -0.761  10.905  1.00  0.00     0.016 A 
ATOM     31  C   UNL     1      -2.844  -0.918   8.809  1.00  0.00     0.010 A 
ATOM     32  C   UNL     1      -3.592  -1.622  10.998  1.00  0.00     0.010 A 
ATOM     33  C   UNL     1      -2.673  -1.731   9.939  1.00  0.00    -0.014 A 
BRANCH  33  34
ATOM     34  C   UNL     1      -1.574  -2.735   9.988  1.00  0.00     0.031 A 
ATOM     35  C   UNL     1      -1.899  -4.204  10.069  1.00  0.00     0.074 A 
ATOM     36  C   UNL     1      -0.285  -2.347   9.943  1.00  0.00     0.049 A 
ATOM     37  N   UNL     1      -1.099  -5.220  10.274  1.00  0.00    -0.248 NA
ATOM     38  C   UNL     1      -3.313  -4.577   9.909  1.00  0.00     0.031 C 
ATOM     39  C   UNL     1       0.182  -0.965   9.822  1.00  0.00     0.029 A 
ATOM     40  N   UNL     1       0.872  -3.086   9.986  1.00  0.00    -0.354 N 
ATOM     41  C   UNL     1      -1.916  -6.343  10.323  1.00  0.00     0.074 A 
ATOM     42  C   UNL     1      -3.275  -5.885  10.123  1.00  0.00     0.031 C 
ATOM     43  C   UNL     1       1.523  -0.959   9.765  1.00  0.00     0.029 A 
ATOM     44  C   UNL     1       2.014  -2.325   9.915  1.00  0.00     0.049 A 
ATOM     45  H   UNL     1       0.882  -4.067  10.062  1.00  0.00     0.167 HD
ATOM     46  C   UNL     1      -1.567  -7.637  10.517  1.00  0.00     0.037 A 
ATOM     47  C   UNL     1       3.311  -2.681   9.991  1.00  0.00     0.037 A 
ATOM     48  C   UNL     1      -0.214  -8.106  10.656  1.00  0.00     0.049 A 
ATOM     49  C   UNL     1       3.673  -4.122  10.213  1.00  0.00     0.074 A 
ATOM     50  C   UNL     1       0.236  -9.402  10.846  1.00  0.00     0.029 A 
ATOM     51  N   UNL     1       0.910  -7.298  10.599  1.00  0.00    -0.354 N 
ATOM     52  N   UNL     1       2.887  -5.164  10.320  1.00  0.00    -0.248 NA
ATOM     53  C   UNL     1       5.105  -4.431  10.347  1.00  0.00     0.031 C 
ATOM     54  C   UNL     1       1.633  -9.375  10.924  1.00  0.00     0.029 A 
ATOM     55  C   UNL     1       2.053  -8.066  10.754  1.00  0.00     0.049 A 
ATOM     56  H   UNL     1       0.899  -6.322  10.468  1.00  0.00     0.167 HD
ATOM     57  C   UNL     1       3.724  -6.251  10.533  1.00  0.00     0.074 A 
ATOM     58  C   UNL     1       5.081  -5.746  10.516  1.00  0.00     0.031 C 
ATOM     59  C   UNL     1       3.396  -7.550  10.736  1.00  0.00     0.037 A 
BRANCH  46  60
ATOM     60  C   UNL     1      -2.675  -8.641  10.621  1.00  0.00     0.057 A 
ATOM     61  C   UNL     1      -3.378  -9.091   9.498  1.00  0.00     0.134 A 
ATOM     62  C   UNL     1      -3.017  -9.190  11.864  1.00  0.00     0.134 A 
ATOM     63  F   UNL     1      -3.107  -8.593   8.282  1.00  0.00    -0.206 F 
ATOM     64  C   UNL     1      -4.396 -10.041   9.609  1.00  0.00     0.040 A 
ATOM     65  C   UNL     1      -4.019 -10.155  11.985  1.00  0.00     0.040 A 
ATOM     66  F   UNL     1      -2.378  -8.804  12.978  1.00  0.00    -0.206 F 
ATOM     67  C   UNL     1      -4.714 -10.579  10.855  1.00  0.00     0.006 A 
ENDBRANCH  46  60
BRANCH  47  68
ATOM     68  C   UNL     1       4.367  -1.645   9.887  1.00  0.00     0.057 A 
ATOM     69  C   UNL     1       5.185  -1.560   8.756  1.00  0.00     0.134 A 
ATOM     70  C   UNL     1       4.581  -0.717  10.913  1.00  0.00     0.134 A 
ATOM     71  F   UNL     1       5.044  -2.439   7.753  1.00  0.00    -0.206 F 
ATOM     72  C   UNL     1       6.183  -0.590   8.649  1.00  0.00     0.040 A 
ATOM     73  C   UNL     1       5.560   0.272  10.810  1.00  0.00     0.040 A 
ATOM     74  F   UNL     1       3.830  -0.750  12.024  1.00  0.00    -0.206 F 
ATOM     75  C   UNL     1       6.367   0.335   9.675  1.00  0.00     0.006 A 
ENDBRANCH  47  68
BRANCH  59  76
ATOM     76  C   UNL     1       4.524  -8.513  10.941  1.00  0.00     0.057 A 
ATOM     77  C   UNL     1       5.210  -8.588  12.159  1.00  0.00     0.134 A 
ATOM     78  C   UNL     1       4.910  -9.392   9.921  1.00  0.00     0.134 A 
ATOM     79  F   UNL     1       4.894  -7.763  13.169  1.00  0.00    -0.206 F 
ATOM     80  C   UNL     1       6.254  -9.494  12.351  1.00  0.00     0.040 A 
ATOM     81  C   UNL     1       5.941 -10.313  10.107  1.00  0.00     0.040 A 
ATOM     82  F   UNL     1       4.288  -9.371   8.733  1.00  0.00    -0.206 F 
ATOM     83  C   UNL     1       6.619 -10.363  11.324  1.00  0.00     0.006 A 
ENDBRANCH  59  76
ENDBRANCH  33  34
ENDBRANCH  26  28
ENDBRANCH  25  26
ENDBRANCH  24  25
ENDBRANCH  23  24
ENDBRANCH   1  23
TORSDOF 16
