REMARK SMILES Cc1cccc(C)c1NC(=O)/C(C#N)=C/c1ccc(C(=O)OCCOC(=O)c2ccc(-c3c4nc(c(-c5c(F)cccc5F)c5ccc([nH]5)c(-c5c(F)cccc5F)c5nc(c(-c6c(F)cccc6F)c6ccc3[nH]6)C=C5)C=C4)cc2)cc1
REMARK SMILES IDX 23 1 22 2 20 3 21 4 19 5 16 6 17 7 83 8 18 9 82 10 15 11
REMARK SMILES IDX 12 12 10 13 9 14 11 16 8 17 1 18 2 19 3 20 4 21 6 22 5 23
REMARK SMILES IDX 7 24 13 25 14 26 24 27 25 28 26 29 27 30 28 31 29 32 81 33
REMARK SMILES IDX 30 34 80 35 31 36 32 37 33 38 74 39 34 40 79 41 73 42 75 43
REMARK SMILES IDX 35 44 78 45 72 46 71 47 36 49 62 50 45 51 61 52 46 53 49 54
REMARK SMILES IDX 60 55 76 56 47 57 48 58 59 60 77 61 50 62 37 63 38 64 43 65
REMARK SMILES IDX 39 66 40 67 42 68 44 69 41 70 63 71 64 72 69 73 65 74 66 75
REMARK SMILES IDX 68 76 70 77 67 78 51 79 52 80 57 81 53 82 54 83 56 84 58 85
REMARK SMILES IDX 55 86
REMARK H PARENT 9 15 75 48 49 59
REMARK Flexibility Score: inf
ROOT
ATOM      1  C   UNL     1     -10.171  -1.200   0.732  1.00  0.00     0.275 C 
ENDROOT
BRANCH   1   2
ATOM      2  O   UNL     1      -8.934  -0.493   0.948  1.00  0.00    -0.458 OA
BRANCH   2   3
ATOM      3  C   UNL     1      -8.333   0.010  -0.156  1.00  0.00     0.338 C 
ATOM      4  O   UNL     1      -8.705  -0.136  -1.310  1.00  0.00    -0.246 OA
BRANCH   3   5
ATOM      5  C   UNL     1      -7.173   0.867   0.207  1.00  0.00     0.060 A 
ATOM      6  C   UNL     1      -4.871   2.415   0.716  1.00  0.00    -0.024 A 
ATOM      7  C   UNL     1      -5.614   2.603  -0.458  1.00  0.00     0.009 A 
ATOM      8  C   UNL     1      -5.357   1.522   1.678  1.00  0.00     0.009 A 
ATOM      9  C   UNL     1      -6.726   1.808  -0.727  1.00  0.00     0.016 A 
ATOM     10  C   UNL     1      -6.499   0.748   1.425  1.00  0.00     0.016 A 
BRANCH   6  11
ATOM     11  C   UNL     1      -3.547   3.068   0.733  1.00  0.00     0.033 C 
ATOM     12  C   UNL     1      -2.381   2.499   1.110  1.00  0.00     0.118 C 
BRANCH  12  13
ATOM     13  C   UNL     1      -1.166   3.123   0.510  1.00  0.00     0.266 C 
ATOM     14  N   UNL     1      -0.156   2.369  -0.035  1.00  0.00    -0.321 N 
ATOM     15  H   UNL     1       0.620   2.898  -0.330  1.00  0.00     0.170 HD
ATOM     16  O   UNL     1      -1.038   4.351   0.518  1.00  0.00    -0.268 OA
BRANCH  14  17
ATOM     17  C   UNL     1      -0.016   0.978  -0.256  1.00  0.00     0.047 A 
ATOM     18  C   UNL     1       2.480   1.247   0.251  1.00  0.00     0.046 C 
ATOM     19  C   UNL     1       1.251   0.409   0.012  1.00  0.00    -0.027 A 
ATOM     20  C   UNL     1       1.385  -0.987   0.077  1.00  0.00     0.005 A 
ATOM     21  C   UNL     1       0.302  -1.816  -0.185  1.00  0.00     0.001 A 
ATOM     22  C   UNL     1      -1.046   0.137  -0.726  1.00  0.00    -0.027 A 
ATOM     23  C   UNL     1      -0.892  -1.258  -0.625  1.00  0.00     0.005 A 
ATOM     24  C   UNL     1      -2.198   0.625  -1.565  1.00  0.00     0.046 C 
ENDBRANCH  14  17
ENDBRANCH  12  13
BRANCH  12  25
ATOM     25  C   UNL     1      -2.261   1.333   1.907  1.00  0.00     0.105 C 
ATOM     26  N   UNL     1      -2.200   0.395   2.595  1.00  0.00    -0.192 NA
ENDBRANCH  12  25
ENDBRANCH   6  11
ENDBRANCH   3   5
ENDBRANCH   2   3
ENDBRANCH   1   2
BRANCH   1  27
ATOM     27  C   UNL     1     -11.372  -0.328   1.105  1.00  0.00     0.275 C 
BRANCH  27  28
ATOM     28  O   UNL     1     -11.562   0.737   0.152  1.00  0.00    -0.458 OA
BRANCH  28  29
ATOM     29  C   UNL     1     -11.025   1.921   0.518  1.00  0.00     0.338 C 
ATOM     30  O   UNL     1     -10.443   2.185   1.557  1.00  0.00    -0.246 OA
BRANCH  29  31
ATOM     31  C   UNL     1     -11.121   2.894  -0.578  1.00  0.00     0.060 A 
ATOM     32  C   UNL     1     -10.026   3.004  -1.425  1.00  0.00     0.016 A 
ATOM     33  C   UNL     1     -12.146   3.832  -0.636  1.00  0.00     0.016 A 
ATOM     34  C   UNL     1      -9.875   4.114  -2.244  1.00  0.00     0.010 A 
ATOM     35  C   UNL     1     -12.050   4.893  -1.549  1.00  0.00     0.010 A 
ATOM     36  C   UNL     1     -10.890   5.074  -2.329  1.00  0.00    -0.014 A 
BRANCH  36  37
ATOM     37  C   UNL     1     -10.708   6.274  -3.197  1.00  0.00     0.031 A 
ATOM     38  C   UNL     1     -10.810   7.660  -2.611  1.00  0.00     0.074 A 
ATOM     39  C   UNL     1     -10.422   6.128  -4.508  1.00  0.00     0.049 A 
ATOM     40  N   UNL     1     -10.839   8.818  -3.222  1.00  0.00    -0.248 NA
ATOM     41  C   UNL     1     -10.907   7.756  -1.146  1.00  0.00     0.031 C 
ATOM     42  C   UNL     1     -10.242   4.850  -5.201  1.00  0.00     0.029 A 
ATOM     43  N   UNL     1     -10.227   7.064  -5.494  1.00  0.00    -0.354 N 
ATOM     44  C   UNL     1     -11.013   9.771  -2.224  1.00  0.00     0.074 A 
ATOM     45  C   UNL     1     -11.101   9.055  -0.970  1.00  0.00     0.031 C 
ATOM     46  C   UNL     1      -9.929   5.081  -6.484  1.00  0.00     0.029 A 
ATOM     47  C   UNL     1      -9.988   6.516  -6.732  1.00  0.00     0.049 A 
ATOM     48  H   UNL     1     -10.256   8.034  -5.330  1.00  0.00     0.167 HD
ATOM     49  C   UNL     1     -11.090  11.120  -2.344  1.00  0.00     0.037 A 
ATOM     50  C   UNL     1      -9.880   7.091  -7.944  1.00  0.00     0.037 A 
ATOM     51  C   UNL     1     -10.960  11.828  -3.592  1.00  0.00     0.049 A 
ATOM     52  C   UNL     1     -10.029   8.581  -8.058  1.00  0.00     0.074 A 
ATOM     53  C   UNL     1     -11.007  13.194  -3.818  1.00  0.00     0.029 A 
ATOM     54  N   UNL     1     -10.750  11.228  -4.826  1.00  0.00    -0.354 N 
ATOM     55  N   UNL     1     -10.230   9.467  -7.113  1.00  0.00    -0.248 NA
ATOM     56  C   UNL     1      -9.947   9.150  -9.409  1.00  0.00     0.031 C 
ATOM     57  C   UNL     1     -10.884  13.415  -5.193  1.00  0.00     0.029 A 
ATOM     58  C   UNL     1     -10.688  12.194  -5.818  1.00  0.00     0.049 A 
ATOM     59  H   UNL     1     -10.659  10.259  -4.974  1.00  0.00     0.167 HD
ATOM     60  C   UNL     1     -10.265  10.700  -7.750  1.00  0.00     0.074 A 
ATOM     61  C   UNL     1     -10.049  10.447  -9.160  1.00  0.00     0.031 C 
ATOM     62  C   UNL     1     -10.459  11.931  -7.216  1.00  0.00     0.037 A 
BRANCH  49  63
ATOM     63  C   UNL     1     -11.365  11.919  -1.100  1.00  0.00     0.057 A 
ATOM     64  C   UNL     1     -10.425  12.056  -0.070  1.00  0.00     0.134 A 
ATOM     65  C   UNL     1     -12.584  12.595  -0.948  1.00  0.00     0.134 A 
ATOM     66  F   UNL     1      -9.241  11.429  -0.142  1.00  0.00    -0.206 F 
ATOM     67  C   UNL     1     -10.697  12.810   1.074  1.00  0.00     0.040 A 
ATOM     68  C   UNL     1     -12.855  13.378   0.175  1.00  0.00     0.040 A 
ATOM     69  F   UNL     1     -13.529  12.518  -1.898  1.00  0.00    -0.206 F 
ATOM     70  C   UNL     1     -11.913  13.480   1.196  1.00  0.00     0.006 A 
ENDBRANCH  49  63
BRANCH  50  71
ATOM     71  C   UNL     1      -9.665   6.252  -9.152  1.00  0.00     0.057 A 
ATOM     72  C   UNL     1      -8.482   6.337  -9.895  1.00  0.00     0.134 A 
ATOM     73  C   UNL     1     -10.642   5.353  -9.602  1.00  0.00     0.134 A 
ATOM     74  F   UNL     1      -7.516   7.193  -9.529  1.00  0.00    -0.206 F 
ATOM     75  C   UNL     1      -8.286   5.578 -11.050  1.00  0.00     0.040 A 
ATOM     76  C   UNL     1     -10.445   4.562 -10.734  1.00  0.00     0.040 A 
ATOM     77  F   UNL     1     -11.798   5.217  -8.935  1.00  0.00    -0.206 F 
ATOM     78  C   UNL     1      -9.268   4.681 -11.468  1.00  0.00     0.006 A 
ENDBRANCH  50  71
BRANCH  62  79
ATOM     79  C   UNL     1     -10.380  13.103  -8.152  1.00  0.00     0.057 A 
ATOM     80  C   UNL     1     -11.358  13.353  -9.123  1.00  0.00     0.134 A 
ATOM     81  C   UNL     1      -9.313  14.007  -8.064  1.00  0.00     0.134 A 
ATOM     82  F   UNL     1     -12.400  12.519  -9.270  1.00  0.00    -0.206 F 
ATOM     83  C   UNL     1     -11.260  14.439  -9.995  1.00  0.00     0.040 A 
ATOM     84  C   UNL     1      -9.221  15.114  -8.907  1.00  0.00     0.040 A 
ATOM     85  F   UNL     1      -8.345  13.833  -7.151  1.00  0.00    -0.206 F 
ATOM     86  C   UNL     1     -10.192  15.327  -9.883  1.00  0.00     0.006 A 
ENDBRANCH  62  79
ENDBRANCH  36  37
ENDBRANCH  29  31
ENDBRANCH  28  29
ENDBRANCH  27  28
ENDBRANCH   1  27
TORSDOF 15
