REMARK SMILES CCCCCCNC(=O)Oc1cccc(-c2ccc(CC(=O)OCCOC(=O)c3ccc(-c4c5nc(c(-c6c(F)cccc6F)c6ccc([nH]6)c(-c6c(F)cccc6F)c6nc(c(-c7c(F)cccc7F)c7ccc4[nH]7)C=C6)C=C5)cc3)cc2F)c1
REMARK SMILES IDX 20 1 19 2 16 3 17 4 84 5 18 6 83 7 85 8 15 9 11 10 12 11
REMARK SMILES IDX 86 12 13 13 14 14 10 15 8 16 7 17 9 19 6 20 5 21 4 22 3 23
REMARK SMILES IDX 2 24 1 25 21 26 22 27 23 28 24 29 25 30 26 31 27 32 28 33
REMARK SMILES IDX 29 34 30 35 82 36 31 37 81 38 32 39 33 40 34 41 75 42 35 43
REMARK SMILES IDX 80 44 74 45 76 46 36 47 79 48 73 49 72 50 37 52 63 53 46 54
REMARK SMILES IDX 62 55 47 56 50 57 61 58 77 59 48 60 49 61 60 63 78 64 51 65
REMARK SMILES IDX 38 66 39 67 44 68 40 69 41 70 43 71 45 72 42 73 64 74 65 75
REMARK SMILES IDX 70 76 66 77 67 78 69 79 71 80 68 81 52 82 53 83 58 84 54 85
REMARK SMILES IDX 55 86 57 87 59 88 56 89
REMARK H PARENT 7 18 76 51 50 62
REMARK Flexibility Score: inf
ROOT
ATOM      1  C   UNL     1      -4.702  11.201   7.203  1.00  0.00     0.158 C 
ENDROOT
BRANCH   1   2
ATOM      2  C   UNL     1      -4.856   9.701   7.140  1.00  0.00    -0.034 A 
ATOM      3  C   UNL     1      -5.045   6.874   6.977  1.00  0.00     0.018 A 
ATOM      4  C   UNL     1      -4.980   7.520   8.220  1.00  0.00     0.012 A 
ATOM      5  C   UNL     1      -5.019   7.674   5.827  1.00  0.00     0.131 A 
ATOM      6  C   UNL     1      -4.880   8.914   8.299  1.00  0.00     0.005 A 
ATOM      7  C   UNL     1      -4.930   9.062   5.899  1.00  0.00     0.044 A 
ATOM      8  F   UNL     1      -5.080   7.110   4.610  1.00  0.00    -0.206 F 
BRANCH   3   9
ATOM      9  C   UNL     1      -5.128   5.413   6.882  1.00  0.00    -0.012 A 
ATOM     10  C   UNL     1      -4.238   3.300   6.091  1.00  0.00     0.133 A 
ATOM     11  C   UNL     1      -5.339   2.616   6.597  1.00  0.00     0.047 A 
ATOM     12  C   UNL     1      -4.130   4.685   6.216  1.00  0.00     0.056 A 
ATOM     13  C   UNL     1      -6.330   3.325   7.273  1.00  0.00     0.004 A 
ATOM     14  C   UNL     1      -6.222   4.712   7.419  1.00  0.00     0.009 A 
BRANCH  10  15
ATOM     15  O   UNL     1      -3.315   2.567   5.331  1.00  0.00    -0.410 OA
BRANCH  15  16
ATOM     16  C   UNL     1      -1.974   2.670   5.671  1.00  0.00     0.412 C 
ATOM     17  N   UNL     1      -1.147   2.027   4.790  1.00  0.00    -0.321 N 
ATOM     18  H   UNL     1      -0.184   2.049   4.994  1.00  0.00     0.167 HD
ATOM     19  O   UNL     1      -1.518   3.253   6.647  1.00  0.00    -0.224 OA
BRANCH  17  20
ATOM     20  C   UNL     1      -1.540   1.318   3.590  1.00  0.00     0.119 C 
BRANCH  20  21
ATOM     21  C   UNL     1      -0.934   1.940   2.332  1.00  0.00     0.021 C 
BRANCH  21  22
ATOM     22  C   UNL     1       0.597   1.876   2.251  1.00  0.00     0.002 C 
BRANCH  22  23
ATOM     23  C   UNL     1       1.206   0.471   2.326  1.00  0.00    -0.000 C 
BRANCH  23  24
ATOM     24  C   UNL     1       0.724  -0.514   1.259  1.00  0.00    -0.003 C 
ATOM     25  C   UNL     1       1.081  -0.091  -0.157  1.00  0.00     0.004 C 
ENDBRANCH  23  24
ENDBRANCH  22  23
ENDBRANCH  21  22
ENDBRANCH  20  21
ENDBRANCH  17  20
ENDBRANCH  15  16
ENDBRANCH  10  15
ENDBRANCH   3   9
ENDBRANCH   1   2
BRANCH   1  26
ATOM     26  C   UNL     1      -5.846  11.986   7.800  1.00  0.00     0.310 C 
ATOM     27  O   UNL     1      -5.681  13.104   8.278  1.00  0.00    -0.252 OA
BRANCH  26  28
ATOM     28  O   UNL     1      -7.046  11.357   7.699  1.00  0.00    -0.462 OA
BRANCH  28  29
ATOM     29  C   UNL     1      -8.176  12.066   8.242  1.00  0.00     0.274 C 
BRANCH  29  30
ATOM     30  C   UNL     1      -8.486  11.600   9.662  1.00  0.00     0.275 C 
BRANCH  30  31
ATOM     31  O   UNL     1      -7.370  11.874  10.528  1.00  0.00    -0.458 OA
BRANCH  31  32
ATOM     32  C   UNL     1      -6.807  10.797  11.117  1.00  0.00     0.338 C 
ATOM     33  O   UNL     1      -7.156   9.632  11.047  1.00  0.00    -0.246 OA
BRANCH  32  34
ATOM     34  C   UNL     1      -5.633  11.223  11.890  1.00  0.00     0.060 A 
ATOM     35  C   UNL     1      -4.438  11.517  11.231  1.00  0.00     0.016 A 
ATOM     36  C   UNL     1      -5.691  11.202  13.284  1.00  0.00     0.016 A 
ATOM     37  C   UNL     1      -3.277  11.744  11.967  1.00  0.00     0.010 A 
ATOM     38  C   UNL     1      -4.539  11.484  14.020  1.00  0.00     0.010 A 
ATOM     39  C   UNL     1      -3.318  11.731  13.368  1.00  0.00    -0.014 A 
BRANCH  39  40
ATOM     40  C   UNL     1      -2.081  11.942  14.158  1.00  0.00     0.031 A 
ATOM     41  C   UNL     1      -1.503  10.815  14.967  1.00  0.00     0.074 A 
ATOM     42  C   UNL     1      -1.485  13.149  14.162  1.00  0.00     0.049 A 
ATOM     43  N   UNL     1      -0.521  10.835  15.831  1.00  0.00    -0.248 NA
ATOM     44  C   UNL     1      -2.118   9.491  14.784  1.00  0.00     0.031 C 
ATOM     45  C   UNL     1      -1.929  14.313  13.395  1.00  0.00     0.029 A 
ATOM     46  N   UNL     1      -0.384  13.597  14.847  1.00  0.00    -0.354 N 
ATOM     47  C   UNL     1      -0.417   9.538  16.316  1.00  0.00     0.074 A 
ATOM     48  C   UNL     1      -1.446   8.758  15.661  1.00  0.00     0.031 C 
ATOM     49  C   UNL     1      -1.108  15.344  13.652  1.00  0.00     0.029 A 
ATOM     50  C   UNL     1      -0.117  14.928  14.640  1.00  0.00     0.049 A 
ATOM     51  H   UNL     1       0.161  13.020  15.429  1.00  0.00     0.167 HD
ATOM     52  C   UNL     1       0.458   9.043  17.224  1.00  0.00     0.037 A 
ATOM     53  C   UNL     1       0.800  15.731  15.210  1.00  0.00     0.037 A 
ATOM     54  C   UNL     1       1.495   9.815  17.857  1.00  0.00     0.049 A 
ATOM     55  C   UNL     1       1.734  15.169  16.243  1.00  0.00     0.074 A 
ATOM     56  C   UNL     1       2.439   9.400  18.781  1.00  0.00     0.029 A 
ATOM     57  N   UNL     1       1.728  11.162  17.626  1.00  0.00    -0.354 N 
ATOM     58  N   UNL     1       1.810  13.947  16.709  1.00  0.00    -0.248 NA
ATOM     59  C   UNL     1       2.704  16.101  16.835  1.00  0.00     0.031 C 
ATOM     60  C   UNL     1       3.224  10.505  19.132  1.00  0.00     0.029 A 
ATOM     61  C   UNL     1       2.792  11.598  18.399  1.00  0.00     0.049 A 
ATOM     62  H   UNL     1       1.213  11.726  17.004  1.00  0.00     0.167 HD
ATOM     63  C   UNL     1       2.843  13.957  17.636  1.00  0.00     0.074 A 
ATOM     64  C   UNL     1       3.375  15.304  17.656  1.00  0.00     0.031 C 
ATOM     65  C   UNL     1       3.308  12.942  18.404  1.00  0.00     0.037 A 
BRANCH  52  66
ATOM     66  C   UNL     1       0.316   7.599  17.602  1.00  0.00     0.057 A 
ATOM     67  C   UNL     1       0.707   6.567  16.741  1.00  0.00     0.134 A 
ATOM     68  C   UNL     1      -0.193   7.239  18.856  1.00  0.00     0.134 A 
ATOM     69  F   UNL     1       1.189   6.846  15.521  1.00  0.00    -0.206 F 
ATOM     70  C   UNL     1       0.579   5.225  17.106  1.00  0.00     0.040 A 
ATOM     71  C   UNL     1      -0.306   5.902  19.241  1.00  0.00     0.040 A 
ATOM     72  F   UNL     1      -0.582   8.180  19.730  1.00  0.00    -0.206 F 
ATOM     73  C   UNL     1       0.076   4.891  18.363  1.00  0.00     0.006 A 
ENDBRANCH  52  66
BRANCH  53  74
ATOM     74  C   UNL     1       0.858  17.163  14.831  1.00  0.00     0.057 A 
ATOM     75  C   UNL     1       1.914  17.666  14.064  1.00  0.00     0.134 A 
ATOM     76  C   UNL     1      -0.144  18.060  15.221  1.00  0.00     0.134 A 
ATOM     77  F   UNL     1       2.914  16.859  13.680  1.00  0.00    -0.206 F 
ATOM     78  C   UNL     1       1.977  19.014  13.705  1.00  0.00     0.040 A 
ATOM     79  C   UNL     1      -0.105  19.404  14.850  1.00  0.00     0.040 A 
ATOM     80  F   UNL     1      -1.183  17.636  15.956  1.00  0.00    -0.206 F 
ATOM     81  C   UNL     1       0.961  19.885  14.093  1.00  0.00     0.006 A 
ENDBRANCH  53  74
BRANCH  65  82
ATOM     82  C   UNL     1       4.464  13.247  19.308  1.00  0.00     0.057 A 
ATOM     83  C   UNL     1       4.299  13.978  20.491  1.00  0.00     0.134 A 
ATOM     84  C   UNL     1       5.748  12.779  19.006  1.00  0.00     0.134 A 
ATOM     85  F   UNL     1       3.096  14.466  20.828  1.00  0.00    -0.206 F 
ATOM     86  C   UNL     1       5.378  14.250  21.334  1.00  0.00     0.040 A 
ATOM     87  C   UNL     1       6.831  13.027  19.851  1.00  0.00     0.040 A 
ATOM     88  F   UNL     1       5.970  12.069  17.890  1.00  0.00    -0.206 F 
ATOM     89  C   UNL     1       6.648  13.769  21.017  1.00  0.00     0.006 A 
ENDBRANCH  65  82
ENDBRANCH  39  40
ENDBRANCH  32  34
ENDBRANCH  31  32
ENDBRANCH  30  31
ENDBRANCH  29  30
ENDBRANCH  28  29
ENDBRANCH  26  28
ENDBRANCH   1  26
TORSDOF 20
