REMARK SMILES CC(C)C[C@H](NC(=O)CNC(=O)[C@@H]([NH3+])C(C)C)C(=O)OCCOC(=O)c1ccc(-c2c3nc(c(-c4c(F)cccc4F)c4ccc([nH]4)c(-c4c(F)cccc4F)c4nc(c(-c5c(F)cccc5F)c5ccc2[nH]5)C=C4)C=C3)cc1
REMARK SMILES IDX 20 1 18 2 19 3 5 4 4 5 2 6 1 7 3 8 6 9 7 10 8 12 9 13 10 14
REMARK SMILES IDX 11 15 12 17 13 18 14 19 15 23 16 24 17 25 21 26 22 27 23 28
REMARK SMILES IDX 24 29 25 30 26 31 27 32 79 33 28 34 78 35 29 36 30 37 31 38
REMARK SMILES IDX 72 39 32 40 77 41 71 42 73 43 33 44 76 45 70 46 69 47 34 49
REMARK SMILES IDX 60 50 43 51 59 52 44 53 47 54 58 55 74 56 45 57 46 58 57 60
REMARK SMILES IDX 75 61 48 62 35 63 36 64 41 65 37 66 38 67 40 68 42 69 39 70
REMARK SMILES IDX 61 71 62 72 67 73 63 74 64 75 66 76 68 77 65 78 49 79 50 80
REMARK SMILES IDX 55 81 51 82 52 83 54 84 56 85 53 86
REMARK H PARENT 6 11 10 16 14 20 14 21 14 22 73 48 47 59
REMARK Flexibility Score: inf
ROOT
ATOM      1  O   UNL     1      -4.060  -0.486   2.110  1.00  0.00    -0.461 OA
ENDROOT
BRANCH   1   2
ATOM      2  C   UNL     1      -3.476  -1.345   1.227  1.00  0.00     0.328 C 
ATOM      3  O   UNL     1      -4.077  -1.905   0.315  1.00  0.00    -0.250 OA
BRANCH   2   4
ATOM      4  C   UNL     1      -2.009  -1.653   1.575  1.00  0.00     0.192 C 
BRANCH   4   5
ATOM      5  C   UNL     1      -1.969  -2.946   2.411  1.00  0.00     0.040 C 
BRANCH   5   6
ATOM      6  C   UNL     1      -2.719  -4.184   1.873  1.00  0.00    -0.015 C 
ATOM      7  C   UNL     1      -2.423  -4.550   0.418  1.00  0.00     0.007 C 
ATOM      8  C   UNL     1      -2.389  -5.394   2.755  1.00  0.00     0.007 C 
ENDBRANCH   5   6
ENDBRANCH   4   5
BRANCH   4   9
ATOM      9  N   UNL     1      -1.378  -0.546   2.311  1.00  0.00    -0.341 N 
ATOM     10  C   UNL     1      -0.073  -0.149   2.378  1.00  0.00     0.240 C 
ATOM     11  H   UNL     1      -2.000  -0.001   2.844  1.00  0.00     0.164 HD
ATOM     12  O   UNL     1       0.199   0.836   3.070  1.00  0.00    -0.273 OA
BRANCH  10  13
ATOM     13  C   UNL     1       1.034  -0.906   1.626  1.00  0.00     0.216 C 
BRANCH  13  14
ATOM     14  N   UNL     1       1.287  -2.203   2.233  1.00  0.00    -0.342 N 
ATOM     15  C   UNL     1       1.451  -3.442   1.698  1.00  0.00     0.278 C 
ATOM     16  H   UNL     1       1.351  -2.179   3.215  1.00  0.00     0.164 HD
ATOM     17  O   UNL     1       1.525  -4.384   2.496  1.00  0.00    -0.268 OA
BRANCH  15  18
ATOM     18  C   UNL     1       1.595  -3.711   0.179  1.00  0.00     0.273 C 
BRANCH  18  19
ATOM     19  N   UNL     1       0.636  -2.916  -0.615  1.00  0.00    -0.347 N 
ATOM     20  H   UNL     1       0.826  -1.923  -0.483  1.00  0.00     0.345 HD
ATOM     21  H   UNL     1      -0.314  -3.124  -0.307  1.00  0.00     0.345 HD
ATOM     22  H   UNL     1       0.733  -3.153  -1.602  1.00  0.00     0.345 HD
ENDBRANCH  18  19
BRANCH  18  23
ATOM     23  C   UNL     1       3.064  -3.544  -0.274  1.00  0.00     0.051 C 
ATOM     24  C   UNL     1       3.947  -4.617   0.385  1.00  0.00     0.014 C 
ATOM     25  C   UNL     1       3.223  -3.660  -1.796  1.00  0.00     0.014 C 
ENDBRANCH  18  23
ENDBRANCH  15  18
ENDBRANCH  13  14
ENDBRANCH  10  13
ENDBRANCH   4   9
ENDBRANCH   2   4
ENDBRANCH   1   2
BRANCH   1  26
ATOM     26  C   UNL     1      -5.470  -0.273   1.906  1.00  0.00     0.274 C 
BRANCH  26  27
ATOM     27  C   UNL     1      -5.767   0.944   1.022  1.00  0.00     0.275 C 
BRANCH  27  28
ATOM     28  O   UNL     1      -5.305   0.781  -0.332  1.00  0.00    -0.458 OA
BRANCH  28  29
ATOM     29  C   UNL     1      -4.016   1.144  -0.540  1.00  0.00     0.338 C 
ATOM     30  O   UNL     1      -3.245   1.600   0.288  1.00  0.00    -0.246 OA
BRANCH  29  31
ATOM     31  C   UNL     1      -3.585   0.789  -1.905  1.00  0.00     0.060 A 
ATOM     32  C   UNL     1      -2.328   0.189  -2.055  1.00  0.00     0.016 A 
ATOM     33  C   UNL     1      -4.351   1.113  -3.027  1.00  0.00     0.016 A 
ATOM     34  C   UNL     1      -1.822  -0.069  -3.328  1.00  0.00     0.010 A 
ATOM     35  C   UNL     1      -3.839   0.863  -4.304  1.00  0.00     0.010 A 
ATOM     36  C   UNL     1      -2.564   0.291  -4.461  1.00  0.00    -0.014 A 
BRANCH  36  37
ATOM     37  C   UNL     1      -1.962   0.161  -5.808  1.00  0.00     0.031 A 
ATOM     38  C   UNL     1      -1.378   1.373  -6.477  1.00  0.00     0.074 A 
ATOM     39  C   UNL     1      -1.917  -1.035  -6.422  1.00  0.00     0.049 A 
ATOM     40  N   UNL     1      -0.878   1.496  -7.679  1.00  0.00    -0.248 NA
ATOM     41  C   UNL     1      -1.353   2.610  -5.682  1.00  0.00     0.031 C 
ATOM     42  C   UNL     1      -2.400  -2.294  -5.858  1.00  0.00     0.029 A 
ATOM     43  N   UNL     1      -1.443  -1.380  -7.663  1.00  0.00    -0.354 N 
ATOM     44  C   UNL     1      -0.488   2.824  -7.791  1.00  0.00     0.074 A 
ATOM     45  C   UNL     1      -0.824   3.471  -6.540  1.00  0.00     0.031 C 
ATOM     46  C   UNL     1      -2.203  -3.276  -6.754  1.00  0.00     0.029 A 
ATOM     47  C   UNL     1      -1.617  -2.707  -7.967  1.00  0.00     0.049 A 
ATOM     48  H   UNL     1      -1.019  -0.737  -8.276  1.00  0.00     0.167 HD
ATOM     49  C   UNL     1       0.099   3.447  -8.841  1.00  0.00     0.037 A 
ATOM     50  C   UNL     1      -1.359  -3.379  -9.104  1.00  0.00     0.037 A 
ATOM     51  C   UNL     1       0.436   2.806 -10.084  1.00  0.00     0.049 A 
ATOM     52  C   UNL     1      -0.777  -2.648 -10.283  1.00  0.00     0.074 A 
ATOM     53  C   UNL     1       1.029   3.357 -11.207  1.00  0.00     0.029 A 
ATOM     54  N   UNL     1       0.208   1.468 -10.367  1.00  0.00    -0.354 N 
ATOM     55  N   UNL     1      -0.427  -1.389 -10.385  1.00  0.00    -0.248 NA
ATOM     56  C   UNL     1      -0.565  -3.431 -11.510  1.00  0.00     0.031 C 
ATOM     57  C   UNL     1       1.131   2.359 -12.182  1.00  0.00     0.029 A 
ATOM     58  C   UNL     1       0.634   1.179 -11.653  1.00  0.00     0.049 A 
ATOM     59  H   UNL     1      -0.197   0.820  -9.747  1.00  0.00     0.167 HD
ATOM     60  C   UNL     1       0.066  -1.234 -11.674  1.00  0.00     0.074 A 
ATOM     61  C   UNL     1      -0.021  -2.529 -12.316  1.00  0.00     0.031 C 
ATOM     62  C   UNL     1       0.547  -0.117 -12.274  1.00  0.00     0.037 A 
BRANCH  49  63
ATOM     63  C   UNL     1       0.390   4.910  -8.695  1.00  0.00     0.057 A 
ATOM     64  C   UNL     1       1.452   5.375  -7.911  1.00  0.00     0.134 A 
ATOM     65  C   UNL     1      -0.386   5.861  -9.369  1.00  0.00     0.134 A 
ATOM     66  F   UNL     1       2.222   4.514  -7.228  1.00  0.00    -0.206 F 
ATOM     67  C   UNL     1       1.724   6.739  -7.789  1.00  0.00     0.040 A 
ATOM     68  C   UNL     1      -0.112   7.226  -9.271  1.00  0.00     0.040 A 
ATOM     69  F   UNL     1      -1.416   5.479 -10.137  1.00  0.00    -0.206 F 
ATOM     70  C   UNL     1       0.943   7.668  -8.475  1.00  0.00     0.006 A 
ENDBRANCH  49  63
BRANCH  50  71
ATOM     71  C   UNL     1      -1.669  -4.827  -9.197  1.00  0.00     0.057 A 
ATOM     72  C   UNL     1      -0.648  -5.782  -9.246  1.00  0.00     0.134 A 
ATOM     73  C   UNL     1      -2.990  -5.285  -9.259  1.00  0.00     0.134 A 
ATOM     74  F   UNL     1       0.637  -5.400  -9.216  1.00  0.00    -0.206 F 
ATOM     75  C   UNL     1      -0.929  -7.144  -9.366  1.00  0.00     0.040 A 
ATOM     76  C   UNL     1      -3.286  -6.645  -9.357  1.00  0.00     0.040 A 
ATOM     77  F   UNL     1      -4.011  -4.417  -9.219  1.00  0.00    -0.206 F 
ATOM     78  C   UNL     1      -2.253  -7.579  -9.417  1.00  0.00     0.006 A 
ENDBRANCH  50  71
BRANCH  62  79
ATOM     79  C   UNL     1       1.045  -0.255 -13.681  1.00  0.00     0.057 A 
ATOM     80  C   UNL     1       0.167  -0.369 -14.766  1.00  0.00     0.134 A 
ATOM     81  C   UNL     1       2.418  -0.234 -13.957  1.00  0.00     0.134 A 
ATOM     82  F   UNL     1      -1.159  -0.408 -14.566  1.00  0.00    -0.206 F 
ATOM     83  C   UNL     1       0.638  -0.474 -16.075  1.00  0.00     0.040 A 
ATOM     84  C   UNL     1       2.901  -0.319 -15.263  1.00  0.00     0.040 A 
ATOM     85  F   UNL     1       3.311  -0.121 -12.961  1.00  0.00    -0.206 F 
ATOM     86  C   UNL     1       2.009  -0.443 -16.327  1.00  0.00     0.006 A 
ENDBRANCH  62  79
ENDBRANCH  36  37
ENDBRANCH  29  31
ENDBRANCH  28  29
ENDBRANCH  27  28
ENDBRANCH  26  27
ENDBRANCH   1  26
TORSDOF 19
