REMARK SMILES Cc1cccc(CC(=O)N2CCC3(CCC(=O)N([C@H](C)C(=O)OCCOC(=O)c4ccc(-c5c6nc(c(-c7c(F)cccc7F)c7ccc([nH]7)c(-c7c(F)cccc7F)c7nc(c(-c8c(F)cccc8F)c8ccc5[nH]8)C=C7)C=C6)cc4)C3)CC2)c1
REMARK SMILES IDX 24 1 23 2 21 3 22 4 19 5 20 6 18 7 8 8 9 9 10 10 11 11 85 12
REMARK SMILES IDX 12 13 84 14 13 15 14 16 83 17 15 18 16 19 17 20 7 21 6 22
REMARK SMILES IDX 1 23 2 24 3 25 86 26 4 27 5 28 25 29 26 30 27 31 28 32 29 33
REMARK SMILES IDX 30 34 82 35 31 36 81 37 32 38 33 39 34 40 75 41 35 42 80 43
REMARK SMILES IDX 74 44 76 45 36 46 79 47 73 48 72 49 37 51 63 52 46 53 62 54
REMARK SMILES IDX 47 55 50 56 61 57 77 58 48 59 49 60 60 62 78 63 51 64 38 65
REMARK SMILES IDX 39 66 44 67 40 68 41 69 43 70 45 71 42 72 64 73 65 74 70 75
REMARK SMILES IDX 66 76 67 77 69 78 71 79 68 80 52 81 53 82 58 83 54 84 55 85
REMARK SMILES IDX 57 86 59 87 56 88
REMARK H PARENT 76 50 50 61
REMARK Flexibility Score: inf
ROOT
ATOM      1  C   UNL     1      -3.060   4.824  -7.504  1.00  0.00     0.274 C 
ENDROOT
BRANCH   1   2
ATOM      2  O   UNL     1      -1.696   4.551  -7.186  1.00  0.00    -0.461 OA
BRANCH   2   3
ATOM      3  C   UNL     1      -0.777   5.173  -7.991  1.00  0.00     0.328 C 
ATOM      4  O   UNL     1      -1.066   5.866  -8.940  1.00  0.00    -0.250 OA
BRANCH   3   5
ATOM      5  C   UNL     1       0.638   5.014  -7.396  1.00  0.00     0.192 C 
ATOM      6  C   UNL     1       0.885   3.615  -6.839  1.00  0.00     0.044 C 
BRANCH   5   7
ATOM      7  N   UNL     1       1.695   5.433  -8.332  1.00  0.00    -0.329 N 
ATOM      8  C   UNL     1       8.033   5.317  -6.994  1.00  0.00     0.226 C 
ATOM      9  O   UNL     1       8.415   4.142  -6.925  1.00  0.00    -0.275 OA
ATOM     10  N   UNL     1       6.825   5.647  -7.604  1.00  0.00    -0.342 N 
ATOM     11  C   UNL     1       5.932   4.550  -7.942  1.00  0.00     0.120 C 
ATOM     12  C   UNL     1       6.481   6.937  -8.211  1.00  0.00     0.120 C 
ATOM     13  C   UNL     1       4.499   4.934  -7.621  1.00  0.00     0.030 C 
ATOM     14  C   UNL     1       5.019   7.342  -7.981  1.00  0.00     0.030 C 
ATOM     15  C   UNL     1       4.040   6.212  -8.366  1.00  0.00    -0.008 C 
ATOM     16  C   UNL     1       3.986   6.078  -9.900  1.00  0.00     0.019 C 
ATOM     17  C   UNL     1       2.596   6.527  -7.947  1.00  0.00     0.127 C 
ATOM     18  C   UNL     1       3.069   4.959 -10.349  1.00  0.00     0.101 C 
ATOM     19  C   UNL     1       1.807   4.758  -9.537  1.00  0.00     0.223 C 
ATOM     20  O   UNL     1       0.980   3.922  -9.904  1.00  0.00    -0.275 OA
BRANCH   8  21
ATOM     21  C   UNL     1       8.818   6.379  -6.239  1.00  0.00     0.135 C 
BRANCH  21  22
ATOM     22  C   UNL     1       9.369   7.516  -7.055  1.00  0.00    -0.038 A 
ATOM     23  C   UNL     1       8.821  11.276  -7.275  1.00  0.00     0.044 C 
ATOM     24  C   UNL     1       9.340   9.898  -7.559  1.00  0.00    -0.051 A 
ATOM     25  C   UNL     1      10.118   9.649  -8.695  1.00  0.00     0.003 A 
ATOM     26  C   UNL     1       9.009   8.832  -6.721  1.00  0.00     0.007 A 
ATOM     27  C   UNL     1      10.544   8.353  -8.993  1.00  0.00     0.001 A 
ATOM     28  C   UNL     1      10.168   7.286  -8.179  1.00  0.00     0.004 A 
ENDBRANCH  21  22
ENDBRANCH   8  21
ENDBRANCH   5   7
ENDBRANCH   3   5
ENDBRANCH   2   3
ENDBRANCH   1   2
BRANCH   1  29
ATOM     29  C   UNL     1      -3.911   4.914  -6.229  1.00  0.00     0.275 C 
BRANCH  29  30
ATOM     30  O   UNL     1      -3.236   5.167  -4.952  1.00  0.00    -0.458 OA
BRANCH  30  31
ATOM     31  C   UNL     1      -2.336   6.104  -4.557  1.00  0.00     0.338 C 
ATOM     32  O   UNL     1      -1.792   6.057  -3.460  1.00  0.00    -0.246 OA
BRANCH  31  33
ATOM     33  C   UNL     1      -1.956   7.172  -5.494  1.00  0.00     0.060 A 
ATOM     34  C   UNL     1      -0.632   7.645  -5.550  1.00  0.00     0.016 A 
ATOM     35  C   UNL     1      -2.906   7.661  -6.369  1.00  0.00     0.016 A 
ATOM     36  C   UNL     1      -0.240   8.494  -6.591  1.00  0.00     0.010 A 
ATOM     37  C   UNL     1      -2.487   8.324  -7.491  1.00  0.00     0.010 A 
ATOM     38  C   UNL     1      -1.170   8.784  -7.592  1.00  0.00    -0.014 A 
BRANCH  38  39
ATOM     39  C   UNL     1      -0.998   9.773  -8.650  1.00  0.00     0.031 A 
ATOM     40  C   UNL     1      -0.095   9.556  -9.794  1.00  0.00     0.074 A 
ATOM     41  C   UNL     1      -1.796  10.859  -8.517  1.00  0.00     0.049 A 
ATOM     42  N   UNL     1       0.837  10.366 -10.176  1.00  0.00    -0.248 NA
ATOM     43  C   UNL     1      -0.191   8.357 -10.629  1.00  0.00     0.031 C 
ATOM     44  C   UNL     1      -1.982  11.997  -9.391  1.00  0.00     0.029 A 
ATOM     45  N   UNL     1      -2.564  11.197  -7.392  1.00  0.00    -0.354 N 
ATOM     46  C   UNL     1       1.179   9.965 -11.457  1.00  0.00     0.074 A 
ATOM     47  C   UNL     1       0.689   8.616 -11.603  1.00  0.00     0.031 C 
ATOM     48  C   UNL     1      -2.464  13.015  -8.646  1.00  0.00     0.029 A 
ATOM     49  C   UNL     1      -2.505  12.577  -7.254  1.00  0.00     0.049 A 
ATOM     50  H   UNL     1      -3.053  10.573  -6.809  1.00  0.00     0.167 HD
ATOM     51  C   UNL     1       1.517  10.873 -12.420  1.00  0.00     0.037 A 
ATOM     52  C   UNL     1      -1.851  13.129  -6.186  1.00  0.00     0.037 A 
ATOM     53  C   UNL     1       1.262  12.224 -11.941  1.00  0.00     0.049 A 
ATOM     54  C   UNL     1      -0.589  13.826  -6.647  1.00  0.00     0.074 A 
ATOM     55  C   UNL     1       0.137  13.021 -12.074  1.00  0.00     0.029 A 
ATOM     56  N   UNL     1       1.993  12.750 -10.883  1.00  0.00    -0.354 N 
ATOM     57  N   UNL     1      -0.011  13.579  -7.791  1.00  0.00    -0.248 NA
ATOM     58  C   UNL     1       0.114  14.847  -5.875  1.00  0.00     0.031 C 
ATOM     59  C   UNL     1       0.141  13.967 -11.023  1.00  0.00     0.029 A 
ATOM     60  C   UNL     1       1.274  13.756 -10.260  1.00  0.00     0.049 A 
ATOM     61  H   UNL     1       2.892  12.451 -10.616  1.00  0.00     0.167 HD
ATOM     62  C   UNL     1       1.056  14.414  -7.955  1.00  0.00     0.074 A 
ATOM     63  C   UNL     1       1.105  15.181  -6.722  1.00  0.00     0.031 C 
ATOM     64  C   UNL     1       1.807  14.436  -9.094  1.00  0.00     0.037 A 
BRANCH  51  65
ATOM     65  C   UNL     1       1.645  10.488 -13.876  1.00  0.00     0.057 A 
ATOM     66  C   UNL     1       1.084  11.255 -14.915  1.00  0.00     0.134 A 
ATOM     67  C   UNL     1       2.336   9.337 -14.299  1.00  0.00     0.134 A 
ATOM     68  F   UNL     1       0.440  12.403 -14.675  1.00  0.00    -0.206 F 
ATOM     69  C   UNL     1       1.142  10.874 -16.262  1.00  0.00     0.040 A 
ATOM     70  C   UNL     1       2.386   8.933 -15.644  1.00  0.00     0.040 A 
ATOM     71  F   UNL     1       2.981   8.562 -13.413  1.00  0.00    -0.206 F 
ATOM     72  C   UNL     1       1.780   9.699 -16.631  1.00  0.00     0.006 A 
ENDBRANCH  51  65
BRANCH  52  73
ATOM     73  C   UNL     1      -2.005  12.351  -4.913  1.00  0.00     0.057 A 
ATOM     74  C   UNL     1      -3.312  12.152  -4.420  1.00  0.00     0.134 A 
ATOM     75  C   UNL     1      -1.014  11.500  -4.410  1.00  0.00     0.134 A 
ATOM     76  F   UNL     1      -4.311  12.950  -4.827  1.00  0.00    -0.206 F 
ATOM     77  C   UNL     1      -3.647  11.063  -3.608  1.00  0.00     0.040 A 
ATOM     78  C   UNL     1      -1.335  10.421  -3.570  1.00  0.00     0.040 A 
ATOM     79  F   UNL     1       0.260  11.622  -4.806  1.00  0.00    -0.206 F 
ATOM     80  C   UNL     1      -2.659  10.170  -3.210  1.00  0.00     0.006 A 
ENDBRANCH  52  73
BRANCH  64  81
ATOM     81  C   UNL     1       3.070  15.220  -9.246  1.00  0.00     0.057 A 
ATOM     82  C   UNL     1       4.014  15.352  -8.223  1.00  0.00     0.134 A 
ATOM     83  C   UNL     1       3.432  15.751 -10.501  1.00  0.00     0.134 A 
ATOM     84  F   UNL     1       3.824  14.783  -7.024  1.00  0.00    -0.206 F 
ATOM     85  C   UNL     1       5.213  16.042  -8.412  1.00  0.00     0.040 A 
ATOM     86  C   UNL     1       4.650  16.392 -10.715  1.00  0.00     0.040 A 
ATOM     87  F   UNL     1       2.626  15.648 -11.569  1.00  0.00    -0.206 F 
ATOM     88  C   UNL     1       5.537  16.559  -9.662  1.00  0.00     0.006 A 
ENDBRANCH  64  81
ENDBRANCH  38  39
ENDBRANCH  31  33
ENDBRANCH  30  31
ENDBRANCH  29  30
ENDBRANCH   1  29
TORSDOF 14
