REMARK SMILES C[NH2+][C@]1(C(=O)OCCOC(=O)c2ccc(-c3c4nc(c(-c5c(F)cccc5F)c5ccc([nH]5)c(-c5c(F)cccc5F)c5nc(c(-c6c(F)cccc6F)c6ccc3[nH]6)C=C5)C=C4)cc2)CCC[C@H]1CCOC1C[C@@H](C)C[C@H](C)C1
REMARK SMILES IDX 7 1 6 2 4 3 5 4 3 5 66 6 69 7 67 8 68 9 2 10 1 11 70 14
REMARK SMILES IDX 71 15 72 16 73 17 74 18 80 19 75 20 78 21 76 22 77 23 79 24
REMARK SMILES IDX 8 25 9 26 10 27 11 28 12 29 13 30 65 31 14 32 64 33 15 34
REMARK SMILES IDX 16 35 17 36 58 37 18 38 63 39 57 40 59 41 19 42 62 43 56 44
REMARK SMILES IDX 55 45 20 47 46 48 29 49 45 50 30 51 33 52 44 53 60 54 31 55
REMARK SMILES IDX 32 56 43 58 61 59 34 60 21 61 22 62 27 63 23 64 24 65 26 66
REMARK SMILES IDX 28 67 25 68 47 69 48 70 53 71 49 72 50 73 52 74 54 75 51 76
REMARK SMILES IDX 35 77 36 78 41 79 37 80 38 81 40 82 42 83 39 84
REMARK H PARENT 2 12 2 13 59 46 33 57
REMARK Flexibility Score: inf
ROOT
ATOM      1  C   UNL     1       2.442   2.074  -2.009  1.00  0.00     0.274 C 
ENDROOT
BRANCH   1   2
ATOM      2  O   UNL     1       0.981   2.166  -2.109  1.00  0.00    -0.457 OA
BRANCH   2   3
ATOM      3  C   UNL     1       0.292   1.923  -0.976  1.00  0.00     0.368 C 
ATOM      4  O   UNL     1       0.803   2.107   0.119  1.00  0.00    -0.245 OA
BRANCH   3   5
ATOM      5  C   UNL     1      -1.143   1.276  -1.043  1.00  0.00     0.197 C 
ATOM      6  C   UNL     1      -2.020   2.265  -1.835  1.00  0.00     0.081 C 
ATOM      7  C   UNL     1      -1.679  -0.420  -1.561  1.00  0.00     0.065 C 
ATOM      8  C   UNL     1      -3.404   1.709  -1.762  1.00  0.00     0.008 C 
ATOM      9  C   UNL     1      -3.285   0.186  -1.681  1.00  0.00     0.011 C 
BRANCH   5  10
ATOM     10  N   UNL     1      -1.636   1.302   0.437  1.00  0.00    -0.334 N 
ATOM     11  C   UNL     1      -1.787   2.613   1.081  1.00  0.00     0.331 C 
ATOM     12  H   UNL     1      -2.547   0.843   0.463  1.00  0.00     0.347 HD
ATOM     13  H   UNL     1      -0.897   0.837   0.965  1.00  0.00     0.347 HD
ENDBRANCH   5  10
BRANCH   7  14
ATOM     14  C   UNL     1      -0.807  -2.112  -2.491  1.00  0.00     0.039 C 
BRANCH  14  15
ATOM     15  C   UNL     1       0.371  -3.187  -1.964  1.00  0.00     0.161 C 
BRANCH  15  16
ATOM     16  O   UNL     1       0.477  -3.062  -0.583  1.00  0.00    -0.378 OA
BRANCH  16  17
ATOM     17  C   UNL     1      -0.344  -1.926  -0.471  1.00  0.00     0.118 C 
ATOM     18  C   UNL     1       0.506  -0.726  -1.729  1.00  0.00     0.035 C 
ATOM     19  C   UNL     1      -2.124  -2.602  -0.825  1.00  0.00     0.035 C 
ATOM     20  C   UNL     1      -0.444  -0.167  -3.332  1.00  0.00    -0.011 C 
ATOM     21  C   UNL     1      -3.025  -2.190  -2.459  1.00  0.00    -0.011 C 
ATOM     22  C   UNL     1       0.493  -0.191  -4.556  1.00  0.00     0.008 C 
ATOM     23  C   UNL     1      -2.172  -0.979  -3.717  1.00  0.00     0.006 C 
ATOM     24  C   UNL     1      -4.558  -2.294  -2.276  1.00  0.00     0.008 C 
ENDBRANCH  16  17
ENDBRANCH  15  16
ENDBRANCH  14  15
ENDBRANCH   7  14
ENDBRANCH   3   5
ENDBRANCH   2   3
ENDBRANCH   1   2
BRANCH   1  25
ATOM     25  C   UNL     1       3.216   2.924  -0.967  1.00  0.00     0.275 C 
BRANCH  25  26
ATOM     26  O   UNL     1       3.174   2.355   0.369  1.00  0.00    -0.458 OA
BRANCH  26  27
ATOM     27  C   UNL     1       2.933   3.255   1.367  1.00  0.00     0.338 C 
ATOM     28  O   UNL     1       3.074   4.467   1.264  1.00  0.00    -0.246 OA
BRANCH  27  29
ATOM     29  C   UNL     1       2.342   2.650   2.606  1.00  0.00     0.060 A 
ATOM     30  C   UNL     1       1.594   1.470   2.588  1.00  0.00     0.016 A 
ATOM     31  C   UNL     1       2.332   3.417   3.775  1.00  0.00     0.016 A 
ATOM     32  C   UNL     1       0.680   1.196   3.614  1.00  0.00     0.010 A 
ATOM     33  C   UNL     1       1.548   3.035   4.874  1.00  0.00     0.010 A 
ATOM     34  C   UNL     1       0.654   1.954   4.791  1.00  0.00    -0.014 A 
BRANCH  34  35
ATOM     35  C   UNL     1      -0.282   1.663   5.928  1.00  0.00     0.031 A 
ATOM     36  C   UNL     1      -1.031   2.794   6.599  1.00  0.00     0.074 A 
ATOM     37  C   UNL     1      -0.441   0.415   6.418  1.00  0.00     0.049 A 
ATOM     38  N   UNL     1      -1.530   2.865   7.808  1.00  0.00    -0.248 NA
ATOM     39  C   UNL     1      -1.217   4.021   5.806  1.00  0.00     0.031 C 
ATOM     40  C   UNL     1       0.119  -0.813   5.852  1.00  0.00     0.029 A 
ATOM     41  N   UNL     1      -1.111  -0.025   7.540  1.00  0.00    -0.354 N 
ATOM     42  C   UNL     1      -1.997   4.169   7.954  1.00  0.00     0.074 A 
ATOM     43  C   UNL     1      -1.743   4.847   6.700  1.00  0.00     0.031 C 
ATOM     44  C   UNL     1      -0.242  -1.859   6.606  1.00  0.00     0.029 A 
ATOM     45  C   UNL     1      -0.932  -1.366   7.787  1.00  0.00     0.049 A 
ATOM     46  H   UNL     1      -1.661   0.563   8.108  1.00  0.00     0.167 HD
ATOM     47  C   UNL     1      -2.566   4.745   9.043  1.00  0.00     0.037 A 
ATOM     48  C   UNL     1      -1.195  -2.113   8.877  1.00  0.00     0.037 A 
ATOM     49  C   UNL     1      -2.883   4.032  10.256  1.00  0.00     0.049 A 
ATOM     50  C   UNL     1      -1.771  -1.454  10.094  1.00  0.00     0.074 A 
ATOM     51  C   UNL     1      -3.471   4.511  11.415  1.00  0.00     0.029 A 
ATOM     52  N   UNL     1      -2.660   2.677  10.455  1.00  0.00    -0.354 N 
ATOM     53  N   UNL     1      -2.099  -0.198  10.276  1.00  0.00    -0.248 NA
ATOM     54  C   UNL     1      -1.985  -2.310  11.268  1.00  0.00     0.031 C 
ATOM     55  C   UNL     1      -3.568   3.455  12.328  1.00  0.00     0.029 A 
ATOM     56  C   UNL     1      -3.088   2.306  11.719  1.00  0.00     0.049 A 
ATOM     57  H   UNL     1      -2.257   2.068   9.794  1.00  0.00     0.167 HD
ATOM     58  C   UNL     1      -2.574  -0.116  11.577  1.00  0.00     0.074 A 
ATOM     59  C   UNL     1      -2.507  -1.452  12.133  1.00  0.00     0.031 C 
ATOM     60  C   UNL     1      -3.023   0.970  12.253  1.00  0.00     0.037 A 
BRANCH  47  61
ATOM     61  C   UNL     1      -2.835   6.225   9.002  1.00  0.00     0.057 A 
ATOM     62  C   UNL     1      -3.848   6.789   8.217  1.00  0.00     0.134 A 
ATOM     63  C   UNL     1      -2.087   7.098   9.806  1.00  0.00     0.134 A 
ATOM     64  F   UNL     1      -4.599   6.017   7.418  1.00  0.00    -0.206 F 
ATOM     65  C   UNL     1      -4.088   8.166   8.212  1.00  0.00     0.040 A 
ATOM     66  C   UNL     1      -2.337   8.472   9.832  1.00  0.00     0.040 A 
ATOM     67  F   UNL     1      -1.108   6.628  10.595  1.00  0.00    -0.206 F 
ATOM     68  C   UNL     1      -3.336   9.011   9.026  1.00  0.00     0.006 A 
ENDBRANCH  47  61
BRANCH  48  69
ATOM     69  C   UNL     1      -0.830  -3.554   8.888  1.00  0.00     0.057 A 
ATOM     70  C   UNL     1      -1.813  -4.549   8.904  1.00  0.00     0.134 A 
ATOM     71  C   UNL     1       0.508  -3.973   8.861  1.00  0.00     0.134 A 
ATOM     72  F   UNL     1      -3.110  -4.214   8.958  1.00  0.00    -0.206 F 
ATOM     73  C   UNL     1      -1.481  -5.905   8.893  1.00  0.00     0.040 A 
ATOM     74  C   UNL     1       0.854  -5.324   8.816  1.00  0.00     0.040 A 
ATOM     75  F   UNL     1       1.501  -3.070   8.843  1.00  0.00    -0.206 F 
ATOM     76  C   UNL     1      -0.144  -6.295   8.837  1.00  0.00     0.006 A 
ENDBRANCH  48  69
BRANCH  60  77
ATOM     77  C   UNL     1      -3.524   0.741  13.647  1.00  0.00     0.057 A 
ATOM     78  C   UNL     1      -2.657   0.477  14.714  1.00  0.00     0.134 A 
ATOM     79  C   UNL     1      -4.896   0.802  13.925  1.00  0.00     0.134 A 
ATOM     80  F   UNL     1      -1.334   0.388  14.509  1.00  0.00    -0.206 F 
ATOM     81  C   UNL     1      -3.138   0.256  16.005  1.00  0.00     0.040 A 
ATOM     82  C   UNL     1      -5.386   0.609  15.217  1.00  0.00     0.040 A 
ATOM     83  F   UNL     1      -5.779   1.056  12.948  1.00  0.00    -0.206 F 
ATOM     84  C   UNL     1      -4.506   0.328  16.260  1.00  0.00     0.006 A 
ENDBRANCH  60  77
ENDBRANCH  34  35
ENDBRANCH  27  29
ENDBRANCH  26  27
ENDBRANCH  25  26
ENDBRANCH   1  25
TORSDOF 16
