REMARK SMILES CC[C@@]1(C)C[C@@H]([NH2+]C[C@H]2CC[C@@H](C(=O)OCCOC(=O)c3ccc(-c4c5nc(c(-c6c(F)cccc6F)c6ccc([nH]6)c(-c6c(F)cccc6F)c6nc(c(-c7c(F)cccc7F)c7ccc4[nH]7)C=C6)C=C5)cc3)CC2)CCO1
REMARK SMILES IDX 16 1 15 2 13 3 14 4 12 5 9 6 10 7 76 8 11 9 75 10 8 11 7 12
REMARK SMILES IDX 6 15 3 16 4 17 5 18 79 19 78 20 77 21 2 22 1 23 17 24 18 25
REMARK SMILES IDX 19 26 20 27 21 28 22 29 74 30 23 31 73 32 24 33 25 34 26 35
REMARK SMILES IDX 67 36 27 37 72 38 66 39 68 40 28 41 71 42 65 43 64 44 29 46
REMARK SMILES IDX 55 47 38 48 54 49 39 50 42 51 53 52 69 53 40 54 41 55 52 57
REMARK SMILES IDX 70 58 43 59 30 60 31 61 36 62 32 63 33 64 35 65 37 66 34 67
REMARK SMILES IDX 56 68 57 69 62 70 58 71 59 72 61 73 63 74 60 75 44 76 45 77
REMARK SMILES IDX 50 78 46 79 47 80 49 81 51 82 48 83
REMARK H PARENT 7 13 7 14 68 45 42 56
REMARK Flexibility Score: inf
ROOT
ATOM      1  C   UNL     1      -4.727  -5.021   0.178  1.00  0.00     0.274 C 
ENDROOT
BRANCH   1   2
ATOM      2  O   UNL     1      -4.084  -3.777  -0.150  1.00  0.00    -0.462 OA
BRANCH   2   3
ATOM      3  C   UNL     1      -2.791  -3.678   0.241  1.00  0.00     0.309 C 
ATOM      4  O   UNL     1      -2.191  -4.509   0.914  1.00  0.00    -0.252 OA
BRANCH   3   5
ATOM      5  C   UNL     1      -2.124  -2.413  -0.240  1.00  0.00     0.099 C 
ATOM      6  C   UNL     1      -1.296   0.295  -0.987  1.00  0.00     0.044 C 
ATOM      7  C   UNL     1      -1.097  -0.265   0.437  1.00  0.00     0.010 C 
ATOM      8  C   UNL     1      -1.706  -0.753  -2.038  1.00  0.00     0.010 C 
ATOM      9  C   UNL     1      -2.094  -1.343   0.841  1.00  0.00     0.016 C 
ATOM     10  C   UNL     1      -2.678  -1.807  -1.526  1.00  0.00     0.016 C 
BRANCH   6  11
ATOM     11  C   UNL     1      -2.213   1.533  -1.032  1.00  0.00     0.264 C 
BRANCH  11  12
ATOM     12  N   UNL     1      -1.604   2.748  -0.482  1.00  0.00    -0.343 N 
ATOM     13  H   UNL     1      -2.351   3.330  -0.103  1.00  0.00     0.346 HD
ATOM     14  H   UNL     1      -0.933   2.432   0.219  1.00  0.00     0.346 HD
BRANCH  12  15
ATOM     15  C   UNL     1      -0.836   3.560  -1.438  1.00  0.00     0.187 C 
ATOM     16  C   UNL     1       1.720   3.067  -1.081  1.00  0.00     0.071 C 
ATOM     17  C   UNL     1       2.965   2.810  -1.950  1.00  0.00     0.042 C 
ATOM     18  C   UNL     1       0.480   2.988  -2.006  1.00  0.00     0.100 C 
ATOM     19  O   UNL     1       1.836   4.431  -0.623  1.00  0.00    -0.375 OA
ATOM     20  C   UNL     1       0.690   4.919   0.075  1.00  0.00     0.167 C 
ATOM     21  C   UNL     1      -0.536   4.937  -0.823  1.00  0.00     0.093 C 
BRANCH  16  22
ATOM     22  C   UNL     1       1.746   2.135   0.162  1.00  0.00     0.032 C 
ATOM     23  C   UNL     1       2.303   0.729  -0.025  1.00  0.00     0.007 C 
ENDBRANCH  16  22
ENDBRANCH  12  15
ENDBRANCH  11  12
ENDBRANCH   6  11
ENDBRANCH   3   5
ENDBRANCH   2   3
ENDBRANCH   1   2
BRANCH   1  24
ATOM     24  C   UNL     1      -4.702  -5.984  -1.012  1.00  0.00     0.275 C 
BRANCH  24  25
ATOM     25  O   UNL     1      -3.360  -6.381  -1.358  1.00  0.00    -0.458 OA
BRANCH  25  26
ATOM     26  C   UNL     1      -2.810  -5.723  -2.404  1.00  0.00     0.338 C 
ATOM     27  O   UNL     1      -3.326  -4.851  -3.087  1.00  0.00    -0.246 OA
BRANCH  26  28
ATOM     28  C   UNL     1      -1.417  -6.152  -2.598  1.00  0.00     0.060 A 
ATOM     29  C   UNL     1      -0.390  -5.229  -2.377  1.00  0.00     0.016 A 
ATOM     30  C   UNL     1      -1.131  -7.419  -3.108  1.00  0.00     0.016 A 
ATOM     31  C   UNL     1       0.933  -5.571  -2.662  1.00  0.00     0.010 A 
ATOM     32  C   UNL     1       0.195  -7.760  -3.395  1.00  0.00     0.010 A 
ATOM     33  C   UNL     1       1.234  -6.836  -3.184  1.00  0.00    -0.014 A 
BRANCH  33  34
ATOM     34  C   UNL     1       2.627  -7.186  -3.559  1.00  0.00     0.031 A 
ATOM     35  C   UNL     1       3.013  -7.267  -5.008  1.00  0.00     0.074 A 
ATOM     36  C   UNL     1       3.541  -7.444  -2.606  1.00  0.00     0.049 A 
ATOM     37  N   UNL     1       4.123  -7.704  -5.547  1.00  0.00    -0.248 NA
ATOM     38  C   UNL     1       2.015  -6.795  -5.980  1.00  0.00     0.031 C 
ATOM     39  C   UNL     1       3.309  -7.351  -1.165  1.00  0.00     0.029 A 
ATOM     40  N   UNL     1       4.846  -7.854  -2.711  1.00  0.00    -0.354 N 
ATOM     41  C   UNL     1       3.949  -7.587  -6.920  1.00  0.00     0.074 A 
ATOM     42  C   UNL     1       2.624  -7.042  -7.132  1.00  0.00     0.031 C 
ATOM     43  C   UNL     1       4.432  -7.704  -0.519  1.00  0.00     0.029 A 
ATOM     44  C   UNL     1       5.443  -8.096  -1.498  1.00  0.00     0.049 A 
ATOM     45  H   UNL     1       5.310  -7.964  -3.572  1.00  0.00     0.167 HD
ATOM     46  C   UNL     1       4.815  -7.906  -7.911  1.00  0.00     0.037 A 
ATOM     47  C   UNL     1       6.653  -8.612  -1.209  1.00  0.00     0.037 A 
ATOM     48  C   UNL     1       6.138  -8.431  -7.699  1.00  0.00     0.049 A 
ATOM     49  C   UNL     1       7.572  -9.017  -2.327  1.00  0.00     0.074 A 
ATOM     50  C   UNL     1       7.092  -8.777  -8.642  1.00  0.00     0.029 A 
ATOM     51  N   UNL     1       6.697  -8.683  -6.455  1.00  0.00    -0.354 N 
ATOM     52  N   UNL     1       7.389  -8.926  -3.622  1.00  0.00    -0.248 NA
ATOM     53  C   UNL     1       8.862  -9.610  -1.943  1.00  0.00     0.031 C 
ATOM     54  C   UNL     1       8.216  -9.269  -7.968  1.00  0.00     0.029 A 
ATOM     55  C   UNL     1       7.975  -9.195  -6.606  1.00  0.00     0.049 A 
ATOM     56  H   UNL     1       6.251  -8.522  -5.593  1.00  0.00     0.167 HD
ATOM     57  C   UNL     1       8.543  -9.432  -4.206  1.00  0.00     0.074 A 
ATOM     58  C   UNL     1       9.427  -9.817  -3.124  1.00  0.00     0.031 C 
ATOM     59  C   UNL     1       8.844  -9.569  -5.520  1.00  0.00     0.037 A 
BRANCH  46  60
ATOM     60  C   UNL     1       4.345  -7.724  -9.323  1.00  0.00     0.057 A 
ATOM     61  C   UNL     1       4.243  -6.459  -9.913  1.00  0.00     0.134 A 
ATOM     62  C   UNL     1       4.025  -8.836 -10.114  1.00  0.00     0.134 A 
ATOM     63  F   UNL     1       4.522  -5.354  -9.204  1.00  0.00    -0.206 F 
ATOM     64  C   UNL     1       3.824  -6.303 -11.236  1.00  0.00     0.040 A 
ATOM     65  C   UNL     1       3.624  -8.694 -11.443  1.00  0.00     0.040 A 
ATOM     66  F   UNL     1       4.106 -10.076  -9.610  1.00  0.00    -0.206 F 
ATOM     67  C   UNL     1       3.519  -7.424 -12.006  1.00  0.00     0.006 A 
ENDBRANCH  46  60
BRANCH  47  68
ATOM     68  C   UNL     1       7.053  -8.812   0.206  1.00  0.00     0.057 A 
ATOM     69  C   UNL     1       8.051  -8.026   0.793  1.00  0.00     0.134 A 
ATOM     70  C   UNL     1       6.458  -9.800   0.999  1.00  0.00     0.134 A 
ATOM     71  F   UNL     1       8.676  -7.081   0.075  1.00  0.00    -0.206 F 
ATOM     72  C   UNL     1       8.450  -8.222   2.116  1.00  0.00     0.040 A 
ATOM     73  C   UNL     1       6.830  -9.991   2.330  1.00  0.00     0.040 A 
ATOM     74  F   UNL     1       5.497 -10.587   0.492  1.00  0.00    -0.206 F 
ATOM     75  C   UNL     1       7.834  -9.204   2.890  1.00  0.00     0.006 A 
ENDBRANCH  47  68
BRANCH  59  76
ATOM     76  C   UNL     1      10.192 -10.130  -5.859  1.00  0.00     0.057 A 
ATOM     77  C   UNL     1      10.476 -11.494  -5.724  1.00  0.00     0.134 A 
ATOM     78  C   UNL     1      11.205  -9.302  -6.358  1.00  0.00     0.134 A 
ATOM     79  F   UNL     1       9.552 -12.337  -5.238  1.00  0.00    -0.206 F 
ATOM     80  C   UNL     1      11.729 -12.012  -6.056  1.00  0.00     0.040 A 
ATOM     81  C   UNL     1      12.454  -9.811  -6.713  1.00  0.00     0.040 A 
ATOM     82  F   UNL     1      10.993  -7.986  -6.516  1.00  0.00    -0.206 F 
ATOM     83  C   UNL     1      12.720 -11.171  -6.558  1.00  0.00     0.006 A 
ENDBRANCH  59  76
ENDBRANCH  33  34
ENDBRANCH  26  28
ENDBRANCH  25  26
ENDBRANCH  24  25
ENDBRANCH   1  24
TORSDOF 15
