REMARK SMILES Cc1cc(Br)cc2c1O[C@H](C(F)(F)F)C(C(=O)OCCOC(=O)c1ccc(-c3c4nc(c(-c5c(F)cccc5F)c5ccc([nH]5)c(-c5c(F)cccc5F)c5nc(c(-c6c(F)cccc6F)c6ccc3[nH]6)C=C5)C=C4)cc1)=C2
REMARK SMILES IDX 20 1 19 2 18 3 16 4 17 5 15 6 1 7 2 8 3 9 8 10 4 11 7 12
REMARK SMILES IDX 9 13 5 14 6 15 78 16 10 17 11 18 12 19 13 20 14 21 21 22
REMARK SMILES IDX 22 23 23 24 24 25 25 26 77 27 26 28 76 29 27 30 28 31 29 32
REMARK SMILES IDX 70 33 30 34 75 35 69 36 71 37 31 38 74 39 68 40 67 41 32 43
REMARK SMILES IDX 58 44 41 45 57 46 42 47 45 48 56 49 72 50 43 51 44 52 55 54
REMARK SMILES IDX 73 55 46 56 33 57 34 58 39 59 35 60 36 61 38 62 40 63 37 64
REMARK SMILES IDX 59 65 60 66 65 67 61 68 62 69 64 70 66 71 63 72 47 73 48 74
REMARK SMILES IDX 53 75 49 76 50 77 52 78 54 79 51 80
REMARK H PARENT 71 42 45 53
REMARK Flexibility Score: inf
ROOT
ATOM      1  C   UNL     1       2.684  -8.408   2.885  1.00  0.00     0.275 C 
ENDROOT
BRANCH   1   2
ATOM      2  C   UNL     1       3.696  -7.290   2.627  1.00  0.00     0.275 C 
BRANCH   2   3
ATOM      3  O   UNL     1       3.040  -6.064   2.236  1.00  0.00    -0.459 OA
BRANCH   3   4
ATOM      4  C   UNL     1       3.081  -5.780   0.914  1.00  0.00     0.338 C 
ATOM      5  O   UNL     1       3.622  -6.444   0.043  1.00  0.00    -0.246 OA
BRANCH   4   6
ATOM      6  C   UNL     1       2.349  -4.534   0.623  1.00  0.00     0.087 C 
ATOM      7  C   UNL     1       1.048   0.390   0.044  1.00  0.00     0.048 C 
ATOM      8  C   UNL     1       0.679  -0.904  -0.621  1.00  0.00    -0.007 A 
ATOM      9  C   UNL     1      -0.176  -0.900  -1.736  1.00  0.00     0.023 A 
ATOM     10  C   UNL     1       1.192  -2.124  -0.151  1.00  0.00     0.130 A 
ATOM     11  C   UNL     1      -0.518  -2.095  -2.365  1.00  0.00     0.019 A 
ATOM     12  C   UNL     1       0.857  -3.312  -0.802  1.00  0.00     0.019 A 
ATOM     13  O   UNL     1       1.999  -2.086   0.954  1.00  0.00    -0.475 OA
ATOM     14  Br  UNL     1      -1.662  -2.079  -3.870  1.00  0.00    -0.051 Br
ATOM     15  C   UNL     1      -0.008  -3.303  -1.903  1.00  0.00     0.027 A 
ATOM     16  C   UNL     1       1.451  -4.559  -0.367  1.00  0.00     0.027 C 
ATOM     17  C   UNL     1       2.755  -3.274   1.326  1.00  0.00     0.316 C 
BRANCH  17  18
ATOM     18  C   UNL     1       4.253  -2.984   1.140  1.00  0.00     0.430 C 
ATOM     19  F   UNL     1       4.615  -1.835   1.760  1.00  0.00    -0.167 F 
ATOM     20  F   UNL     1       5.020  -3.967   1.672  1.00  0.00    -0.167 F 
ATOM     21  F   UNL     1       4.592  -2.868  -0.164  1.00  0.00    -0.167 F 
ENDBRANCH  17  18
ENDBRANCH   4   6
ENDBRANCH   3   4
ENDBRANCH   2   3
ENDBRANCH   1   2
BRANCH   1  22
ATOM     22  O   UNL     1       2.033  -8.795   1.660  1.00  0.00    -0.458 OA
BRANCH  22  23
ATOM     23  C   UNL     1       0.769  -8.340   1.518  1.00  0.00     0.338 C 
ATOM     24  O   UNL     1       0.124  -7.677   2.313  1.00  0.00    -0.246 OA
BRANCH  23  25
ATOM     25  C   UNL     1       0.250  -8.669   0.183  1.00  0.00     0.060 A 
ATOM     26  C   UNL     1       0.770  -7.987  -0.909  1.00  0.00     0.016 A 
ATOM     27  C   UNL     1      -0.891  -9.451   0.036  1.00  0.00     0.016 A 
ATOM     28  C   UNL     1       0.048  -7.923  -2.095  1.00  0.00     0.010 A 
ATOM     29  C   UNL     1      -1.520  -9.522  -1.214  1.00  0.00     0.010 A 
ATOM     30  C   UNL     1      -1.096  -8.709  -2.282  1.00  0.00    -0.014 A 
BRANCH  30  31
ATOM     31  C   UNL     1      -1.848  -8.655  -3.571  1.00  0.00     0.031 A 
ATOM     32  C   UNL     1      -3.333  -8.381  -3.581  1.00  0.00     0.074 A 
ATOM     33  C   UNL     1      -1.204  -8.824  -4.746  1.00  0.00     0.049 A 
ATOM     34  N   UNL     1      -4.189  -8.491  -4.567  1.00  0.00    -0.248 NA
ATOM     35  C   UNL     1      -3.940  -7.938  -2.315  1.00  0.00     0.031 C 
ATOM     36  C   UNL     1       0.237  -9.034  -4.904  1.00  0.00     0.029 A 
ATOM     37  N   UNL     1      -1.674  -8.829  -6.037  1.00  0.00    -0.354 N 
ATOM     38  C   UNL     1      -5.435  -8.190  -4.027  1.00  0.00     0.074 A 
ATOM     39  C   UNL     1      -5.229  -7.904  -2.625  1.00  0.00     0.031 C 
ATOM     40  C   UNL     1       0.541  -9.081  -6.207  1.00  0.00     0.029 A 
ATOM     41  C   UNL     1      -0.693  -9.035  -6.979  1.00  0.00     0.049 A 
ATOM     42  H   UNL     1      -2.623  -8.699  -6.266  1.00  0.00     0.167 HD
ATOM     43  C   UNL     1      -6.639  -8.153  -4.649  1.00  0.00     0.037 A 
ATOM     44  C   UNL     1      -0.770  -9.224  -8.310  1.00  0.00     0.037 A 
ATOM     45  C   UNL     1      -6.828  -8.380  -6.059  1.00  0.00     0.049 A 
ATOM     46  C   UNL     1      -2.120  -9.246  -8.964  1.00  0.00     0.074 A 
ATOM     47  C   UNL     1      -8.007  -8.362  -6.784  1.00  0.00     0.029 A 
ATOM     48  N   UNL     1      -5.809  -8.645  -6.962  1.00  0.00    -0.354 N 
ATOM     49  N   UNL     1      -3.298  -9.040  -8.428  1.00  0.00    -0.248 NA
ATOM     50  C   UNL     1      -2.155  -9.556 -10.399  1.00  0.00     0.031 C 
ATOM     51  C   UNL     1      -7.707  -8.659  -8.116  1.00  0.00     0.029 A 
ATOM     52  C   UNL     1      -6.335  -8.810  -8.232  1.00  0.00     0.049 A 
ATOM     53  H   UNL     1      -4.853  -8.706  -6.733  1.00  0.00     0.167 HD
ATOM     54  C   UNL     1      -4.214  -9.183  -9.461  1.00  0.00     0.074 A 
ATOM     55  C   UNL     1      -3.452  -9.472 -10.659  1.00  0.00     0.031 C 
ATOM     56  C   UNL     1      -5.564  -9.091  -9.417  1.00  0.00     0.037 A 
BRANCH  43  57
ATOM     57  C   UNL     1      -7.858  -7.878  -3.813  1.00  0.00     0.057 A 
ATOM     58  C   UNL     1      -8.132  -6.610  -3.286  1.00  0.00     0.134 A 
ATOM     59  C   UNL     1      -8.809  -8.885  -3.592  1.00  0.00     0.134 A 
ATOM     60  F   UNL     1      -7.261  -5.603  -3.450  1.00  0.00    -0.206 F 
ATOM     61  C   UNL     1      -9.298  -6.356  -2.559  1.00  0.00     0.040 A 
ATOM     62  C   UNL     1      -9.990  -8.637  -2.891  1.00  0.00     0.040 A 
ATOM     63  F   UNL     1      -8.615 -10.122  -4.075  1.00  0.00    -0.206 F 
ATOM     64  C   UNL     1     -10.236  -7.370  -2.369  1.00  0.00     0.006 A 
ENDBRANCH  43  57
BRANCH  44  65
ATOM     65  C   UNL     1       0.470  -9.450  -9.097  1.00  0.00     0.057 A 
ATOM     66  C   UNL     1       0.917  -8.505 -10.026  1.00  0.00     0.134 A 
ATOM     67  C   UNL     1       1.256 -10.598  -8.917  1.00  0.00     0.134 A 
ATOM     68  F   UNL     1       0.199  -7.398 -10.261  1.00  0.00    -0.206 F 
ATOM     69  C   UNL     1       2.099  -8.691 -10.747  1.00  0.00     0.040 A 
ATOM     70  C   UNL     1       2.455 -10.781  -9.607  1.00  0.00     0.040 A 
ATOM     71  F   UNL     1       0.885 -11.542  -8.040  1.00  0.00    -0.206 F 
ATOM     72  C   UNL     1       2.877  -9.826 -10.528  1.00  0.00     0.006 A 
ENDBRANCH  44  65
BRANCH  56  73
ATOM     73  C   UNL     1      -6.309  -9.280 -10.704  1.00  0.00     0.057 A 
ATOM     74  C   UNL     1      -6.448 -10.541 -11.296  1.00  0.00     0.134 A 
ATOM     75  C   UNL     1      -6.947  -8.198 -11.325  1.00  0.00     0.134 A 
ATOM     76  F   UNL     1      -5.851 -11.615 -10.758  1.00  0.00    -0.206 F 
ATOM     77  C   UNL     1      -7.184 -10.717 -12.469  1.00  0.00     0.040 A 
ATOM     78  C   UNL     1      -7.707  -8.366 -12.482  1.00  0.00     0.040 A 
ATOM     79  F   UNL     1      -6.859  -6.965 -10.803  1.00  0.00    -0.206 F 
ATOM     80  C   UNL     1      -7.824  -9.629 -13.060  1.00  0.00     0.006 A 
ENDBRANCH  56  73
ENDBRANCH  30  31
ENDBRANCH  23  25
ENDBRANCH  22  23
ENDBRANCH   1  22
TORSDOF 12
