REMARK SMILES NS(=O)(=O)c1ccc(-n2nc(C(=O)OCCOC(=O)c3ccc(-c4c5nc(c(-c6c(F)cccc6F)c6ccc([nH]6)c(-c6c(F)cccc6F)c6nc(c(-c7c(F)cccc7F)c7ccc4[nH]7)C=C6)C=C5)cc3)cc2-c2ccc(Cl)s2)cc1
REMARK SMILES IDX 15 1 14 2 12 3 13 4 11 5 9 6 10 7 75 8 74 9 8 10 5 11 6 12
REMARK SMILES IDX 83 13 7 14 82 15 2 16 3 17 4 18 1 19 76 22 77 23 81 24 78 25
REMARK SMILES IDX 79 26 80 27 16 28 17 29 18 30 19 31 20 32 21 33 73 34 22 35
REMARK SMILES IDX 72 36 23 37 24 38 25 39 66 40 26 41 71 42 65 43 67 44 27 45
REMARK SMILES IDX 70 46 64 47 63 48 28 50 54 51 37 52 53 53 38 54 41 55 52 56
REMARK SMILES IDX 68 57 39 58 40 59 51 61 69 62 42 63 29 64 30 65 35 66 31 67
REMARK SMILES IDX 32 68 34 69 36 70 33 71 55 72 56 73 61 74 57 75 58 76 60 77
REMARK SMILES IDX 62 78 59 79 43 80 44 81 49 82 45 83 46 84 48 85 50 86 47 87
REMARK H PARENT 1 20 1 21 67 49 41 60
REMARK Flexibility Score: inf
ROOT
ATOM      1  C   UNL     1       0.618  10.800   6.206  1.00  0.00     0.275 C 
ENDROOT
BRANCH   1   2
ATOM      2  O   UNL     1       1.235   9.612   5.684  1.00  0.00    -0.457 OA
BRANCH   2   3
ATOM      3  C   UNL     1       0.411   8.757   4.996  1.00  0.00     0.358 C 
ATOM      4  O   UNL     1      -0.813   8.839   4.995  1.00  0.00    -0.244 OA
BRANCH   3   5
ATOM      5  C   UNL     1       1.176   7.760   4.234  1.00  0.00     0.171 A 
ATOM      6  N   UNL     1       1.617   6.177   2.860  1.00  0.00    -0.231 N 
ATOM      7  N   UNL     1       0.653   7.064   3.205  1.00  0.00    -0.160 NA
ATOM      8  C   UNL     1       2.788   6.374   3.574  1.00  0.00     0.085 A 
ATOM      9  C   UNL     1       2.533   7.413   4.438  1.00  0.00     0.068 A 
BRANCH   6  10
ATOM     10  C   UNL     1       1.299   5.102   1.996  1.00  0.00     0.065 A 
ATOM     11  C   UNL     1       0.746   2.978   0.293  1.00  0.00     0.082 A 
ATOM     12  C   UNL     1       1.290   2.725   1.554  1.00  0.00     0.024 A 
ATOM     13  C   UNL     1       0.460   4.288  -0.115  1.00  0.00     0.024 A 
ATOM     14  C   UNL     1       1.583   3.791   2.402  1.00  0.00     0.030 A 
ATOM     15  C   UNL     1       0.708   5.356   0.754  1.00  0.00     0.030 A 
BRANCH  11  16
ATOM     16  S   UNL     1       0.426   1.655  -0.835  1.00  0.00     0.238 S 
ATOM     17  O   UNL     1       1.179   1.888  -2.042  1.00  0.00    -0.207 OA
ATOM     18  O   UNL     1      -0.994   1.385  -0.832  1.00  0.00    -0.207 OA
BRANCH  16  19
ATOM     19  N   UNL     1       1.141   0.307  -0.123  1.00  0.00    -0.225 NA
ATOM     20  H   UNL     1       0.999  -0.508  -0.720  1.00  0.00     0.137 HD
ATOM     21  H   UNL     1       0.716   0.138   0.789  1.00  0.00     0.137 HD
ENDBRANCH  16  19
ENDBRANCH  11  16
ENDBRANCH   6  10
BRANCH   8  22
ATOM     22  C   UNL     1       4.007   5.638   3.424  1.00  0.00     0.054 A 
ATOM     23  C   UNL     1       4.691   4.988   4.433  1.00  0.00     0.024 A 
ATOM     24  S   UNL     1       4.815   5.493   1.918  1.00  0.00    -0.122 S 
ATOM     25  C   UNL     1       5.854   4.318   3.951  1.00  0.00     0.033 A 
ATOM     26  C   UNL     1       6.017   4.521   2.605  1.00  0.00     0.094 A 
ATOM     27  Cl  UNL     1       7.278   3.896   1.623  1.00  0.00    -0.072 Cl
ENDBRANCH   8  22
ENDBRANCH   3   5
ENDBRANCH   2   3
ENDBRANCH   1   2
BRANCH   1  28
ATOM     28  C   UNL     1       0.570  11.904   5.158  1.00  0.00     0.275 C 
BRANCH  28  29
ATOM     29  O   UNL     1      -0.352  11.582   4.120  1.00  0.00    -0.458 OA
BRANCH  29  30
ATOM     30  C   UNL     1       0.186  11.002   3.023  1.00  0.00     0.338 C 
ATOM     31  O   UNL     1       1.302  10.520   2.920  1.00  0.00    -0.246 OA
BRANCH  30  32
ATOM     32  C   UNL     1      -0.695  11.259   1.881  1.00  0.00     0.060 A 
ATOM     33  C   UNL     1      -0.343  10.694   0.653  1.00  0.00     0.016 A 
ATOM     34  C   UNL     1      -1.637  12.294   1.980  1.00  0.00     0.016 A 
ATOM     35  C   UNL     1      -0.789  11.309  -0.497  1.00  0.00     0.010 A 
ATOM     36  C   UNL     1      -2.060  12.920   0.836  1.00  0.00     0.010 A 
ATOM     37  C   UNL     1      -1.565  12.470  -0.382  1.00  0.00    -0.014 A 
BRANCH  37  38
ATOM     38  C   UNL     1      -1.952  13.164  -1.588  1.00  0.00     0.031 A 
ATOM     39  C   UNL     1      -3.015  12.455  -2.329  1.00  0.00     0.074 A 
ATOM     40  C   UNL     1      -1.489  14.385  -1.912  1.00  0.00     0.049 A 
ATOM     41  N   UNL     1      -2.904  11.820  -3.447  1.00  0.00    -0.248 NA
ATOM     42  C   UNL     1      -4.308  12.268  -1.652  1.00  0.00     0.031 C 
ATOM     43  C   UNL     1      -0.691  15.309  -1.102  1.00  0.00     0.029 A 
ATOM     44  N   UNL     1      -1.721  15.097  -3.045  1.00  0.00    -0.354 N 
ATOM     45  C   UNL     1      -4.178  11.337  -3.722  1.00  0.00     0.074 A 
ATOM     46  C   UNL     1      -4.931  11.453  -2.503  1.00  0.00     0.031 C 
ATOM     47  C   UNL     1      -0.697  16.532  -1.685  1.00  0.00     0.029 A 
ATOM     48  C   UNL     1      -1.372  16.438  -2.968  1.00  0.00     0.049 A 
ATOM     49  H   UNL     1      -2.107  14.694  -3.856  1.00  0.00     0.167 HD
ATOM     50  C   UNL     1      -4.586  11.150  -5.005  1.00  0.00     0.037 A 
ATOM     51  C   UNL     1      -1.690  17.390  -3.881  1.00  0.00     0.037 A 
ATOM     52  C   UNL     1      -3.460  11.091  -5.905  1.00  0.00     0.049 A 
ATOM     53  C   UNL     1      -2.042  16.693  -5.146  1.00  0.00     0.074 A 
ATOM     54  C   UNL     1      -2.352  10.276  -6.027  1.00  0.00     0.029 A 
ATOM     55  N   UNL     1      -3.174  12.219  -6.634  1.00  0.00    -0.354 N 
ATOM     56  N   UNL     1      -1.185  16.035  -5.876  1.00  0.00    -0.248 NA
ATOM     57  C   UNL     1      -3.438  16.334  -5.349  1.00  0.00     0.031 C 
ATOM     58  C   UNL     1      -1.291  11.148  -6.413  1.00  0.00     0.029 A 
ATOM     59  C   UNL     1      -1.822  12.429  -6.566  1.00  0.00     0.049 A 
ATOM     60  H   UNL     1      -3.825  12.777  -7.119  1.00  0.00     0.167 HD
ATOM     61  C   UNL     1      -1.871  14.904  -6.297  1.00  0.00     0.074 A 
ATOM     62  C   UNL     1      -3.276  15.183  -6.007  1.00  0.00     0.031 C 
ATOM     63  C   UNL     1      -1.212  13.739  -6.569  1.00  0.00     0.037 A 
BRANCH  50  64
ATOM     64  C   UNL     1      -5.987  11.445  -5.483  1.00  0.00     0.057 A 
ATOM     65  C   UNL     1      -6.332  11.120  -6.805  1.00  0.00     0.134 A 
ATOM     66  C   UNL     1      -6.900  12.291  -4.818  1.00  0.00     0.134 A 
ATOM     67  F   UNL     1      -5.541  10.333  -7.550  1.00  0.00    -0.206 F 
ATOM     68  C   UNL     1      -7.454  11.664  -7.443  1.00  0.00     0.040 A 
ATOM     69  C   UNL     1      -8.050  12.796  -5.428  1.00  0.00     0.040 A 
ATOM     70  F   UNL     1      -6.688  12.765  -3.585  1.00  0.00    -0.206 F 
ATOM     71  C   UNL     1      -8.312  12.512  -6.756  1.00  0.00     0.006 A 
ENDBRANCH  50  64
BRANCH  51  72
ATOM     72  C   UNL     1      -2.067  18.803  -3.641  1.00  0.00     0.057 A 
ATOM     73  C   UNL     1      -2.087  19.735  -4.689  1.00  0.00     0.134 A 
ATOM     74  C   UNL     1      -2.700  19.200  -2.450  1.00  0.00     0.134 A 
ATOM     75  F   UNL     1      -1.550  19.432  -5.880  1.00  0.00    -0.206 F 
ATOM     76  C   UNL     1      -2.722  20.980  -4.568  1.00  0.00     0.040 A 
ATOM     77  C   UNL     1      -3.333  20.440  -2.315  1.00  0.00     0.040 A 
ATOM     78  F   UNL     1      -2.807  18.360  -1.411  1.00  0.00    -0.206 F 
ATOM     79  C   UNL     1      -3.359  21.330  -3.381  1.00  0.00     0.006 A 
ENDBRANCH  51  72
BRANCH  63  80
ATOM     80  C   UNL     1       0.290  13.787  -6.653  1.00  0.00     0.057 A 
ATOM     81  C   UNL     1       1.134  14.107  -5.578  1.00  0.00     0.134 A 
ATOM     82  C   UNL     1       0.907  13.348  -7.830  1.00  0.00     0.134 A 
ATOM     83  F   UNL     1       0.637  14.446  -4.382  1.00  0.00    -0.206 F 
ATOM     84  C   UNL     1       2.527  14.031  -5.685  1.00  0.00     0.040 A 
ATOM     85  C   UNL     1       2.295  13.236  -7.939  1.00  0.00     0.040 A 
ATOM     86  F   UNL     1       0.164  12.974  -8.883  1.00  0.00    -0.206 F 
ATOM     87  C   UNL     1       3.111  13.587  -6.867  1.00  0.00     0.006 A 
ENDBRANCH  63  80
ENDBRANCH  37  38
ENDBRANCH  30  32
ENDBRANCH  29  30
ENDBRANCH  28  29
ENDBRANCH   1  28
TORSDOF 15
