REMARK SMILES O=C(OCCOC(=O)[C@@H](Cc1ccccc1)Nc1ccc(Cl)c(Br)c1)c1ccc(-c2c3nc(c(-c4c(F)cccc4F)c4ccc([nH]4)c(-c4c(F)cccc4F)c4nc(c(-c5c(F)cccc5F)c5ccc2[nH]5)C=C4)C=C3)cc1
REMARK SMILES IDX 4 1 3 2 2 3 1 4 26 5 27 6 79 7 28 8 78 9 29 10 30 11 31 12
REMARK SMILES IDX 72 13 32 14 77 15 71 16 73 17 33 18 76 19 70 20 69 21 34 23
REMARK SMILES IDX 60 24 43 25 59 26 44 27 47 28 58 29 74 30 45 31 46 32 57 34
REMARK SMILES IDX 75 35 48 36 35 37 36 38 41 39 37 40 38 41 40 42 42 43 39 44
REMARK SMILES IDX 61 45 62 46 67 47 63 48 64 49 66 50 68 51 65 52 49 53 50 54
REMARK SMILES IDX 55 55 51 56 52 57 54 58 56 59 53 60 5 61 6 62 7 63 8 64 9 65
REMARK SMILES IDX 10 66 11 67 12 68 16 69 13 70 15 71 14 72 17 73 18 75 19 76
REMARK SMILES IDX 25 77 20 78 23 79 21 80 24 81 22 82
REMARK H PARENT 73 22 47 33 17 74
REMARK Flexibility Score: inf
ROOT
ATOM      1  C   UNL     1       3.965   0.323  -1.066  1.00  0.00     0.275 C 
ENDROOT
BRANCH   1   2
ATOM      2  O   UNL     1       2.591  -0.108  -0.869  1.00  0.00    -0.458 OA
BRANCH   2   3
ATOM      3  C   UNL     1       2.063  -1.256  -0.371  1.00  0.00     0.338 C 
ATOM      4  O   UNL     1       0.918  -1.580  -0.675  1.00  0.00    -0.246 OA
BRANCH   3   5
ATOM      5  C   UNL     1       2.723  -2.035   0.716  1.00  0.00     0.060 A 
ATOM      6  C   UNL     1       4.020  -2.523   0.647  1.00  0.00     0.016 A 
ATOM      7  C   UNL     1       1.963  -2.349   1.864  1.00  0.00     0.016 A 
ATOM      8  C   UNL     1       4.593  -3.133   1.781  1.00  0.00     0.010 A 
ATOM      9  C   UNL     1       2.533  -2.991   2.990  1.00  0.00     0.010 A 
ATOM     10  C   UNL     1       3.888  -3.326   3.001  1.00  0.00    -0.014 A 
BRANCH  10  11
ATOM     11  C   UNL     1       4.657  -3.831   4.213  1.00  0.00     0.031 A 
ATOM     12  C   UNL     1       5.543  -5.032   4.034  1.00  0.00     0.074 A 
ATOM     13  C   UNL     1       4.813  -3.131   5.367  1.00  0.00     0.049 A 
ATOM     14  N   UNL     1       6.616  -5.385   4.695  1.00  0.00    -0.248 NA
ATOM     15  C   UNL     1       5.178  -5.931   2.931  1.00  0.00     0.031 C 
ATOM     16  C   UNL     1       4.059  -1.955   5.777  1.00  0.00     0.029 A 
ATOM     17  N   UNL     1       5.790  -3.227   6.351  1.00  0.00    -0.354 N 
ATOM     18  C   UNL     1       7.086  -6.521   4.057  1.00  0.00     0.074 A 
ATOM     19  C   UNL     1       6.195  -6.779   2.941  1.00  0.00     0.031 C 
ATOM     20  C   UNL     1       4.718  -1.312   6.755  1.00  0.00     0.029 A 
ATOM     21  C   UNL     1       5.869  -2.109   7.168  1.00  0.00     0.049 A 
ATOM     22  H   UNL     1       6.371  -4.014   6.458  1.00  0.00     0.167 HD
ATOM     23  C   UNL     1       8.130  -7.317   4.382  1.00  0.00     0.037 A 
ATOM     24  C   UNL     1       6.749  -1.760   8.137  1.00  0.00     0.037 A 
ATOM     25  C   UNL     1       8.918  -7.217   5.577  1.00  0.00     0.049 A 
ATOM     26  C   UNL     1       7.812  -2.746   8.566  1.00  0.00     0.074 A 
ATOM     27  C   UNL     1       9.839  -8.124   6.075  1.00  0.00     0.029 A 
ATOM     28  N   UNL     1       8.851  -6.178   6.487  1.00  0.00    -0.354 N 
ATOM     29  N   UNL     1       8.238  -3.828   7.966  1.00  0.00    -0.248 NA
ATOM     30  C   UNL     1       8.474  -2.486   9.860  1.00  0.00     0.031 C 
ATOM     31  C   UNL     1      10.290  -7.660   7.315  1.00  0.00     0.029 A 
ATOM     32  C   UNL     1       9.695  -6.434   7.558  1.00  0.00     0.049 A 
ATOM     33  H   UNL     1       8.289  -5.376   6.390  1.00  0.00     0.167 HD
ATOM     34  C   UNL     1       9.198  -4.378   8.812  1.00  0.00     0.074 A 
ATOM     35  C   UNL     1       9.347  -3.480   9.932  1.00  0.00     0.031 C 
ATOM     36  C   UNL     1       9.865  -5.551   8.682  1.00  0.00     0.037 A 
BRANCH  23  37
ATOM     37  C   UNL     1       8.377  -8.461   3.456  1.00  0.00     0.057 A 
ATOM     38  C   UNL     1       9.036  -8.281   2.235  1.00  0.00     0.134 A 
ATOM     39  C   UNL     1       7.884  -9.735   3.760  1.00  0.00     0.134 A 
ATOM     40  F   UNL     1       9.493  -7.071   1.880  1.00  0.00    -0.206 F 
ATOM     41  C   UNL     1       9.180  -9.334   1.333  1.00  0.00     0.040 A 
ATOM     42  C   UNL     1       8.034 -10.797   2.873  1.00  0.00     0.040 A 
ATOM     43  F   UNL     1       7.227  -9.953   4.909  1.00  0.00    -0.206 F 
ATOM     44  C   UNL     1       8.677 -10.596   1.652  1.00  0.00     0.006 A 
ENDBRANCH  23  37
BRANCH  24  45
ATOM     45  C   UNL     1       6.662  -0.461   8.883  1.00  0.00     0.057 A 
ATOM     46  C   UNL     1       7.771   0.400   8.973  1.00  0.00     0.134 A 
ATOM     47  C   UNL     1       5.548  -0.129   9.664  1.00  0.00     0.134 A 
ATOM     48  F   UNL     1       8.897   0.126   8.297  1.00  0.00    -0.206 F 
ATOM     49  C   UNL     1       7.786   1.502   9.835  1.00  0.00     0.040 A 
ATOM     50  C   UNL     1       5.534   0.995  10.496  1.00  0.00     0.040 A 
ATOM     51  F   UNL     1       4.462  -0.916   9.668  1.00  0.00    -0.206 F 
ATOM     52  C   UNL     1       6.662   1.803  10.600  1.00  0.00     0.006 A 
ENDBRANCH  24  45
BRANCH  36  53
ATOM     53  C   UNL     1      10.817  -5.953   9.775  1.00  0.00     0.057 A 
ATOM     54  C   UNL     1      10.367  -6.315  11.053  1.00  0.00     0.134 A 
ATOM     55  C   UNL     1      12.195  -6.040   9.535  1.00  0.00     0.134 A 
ATOM     56  F   UNL     1       9.062  -6.250  11.358  1.00  0.00    -0.206 F 
ATOM     57  C   UNL     1      11.250  -6.726  12.054  1.00  0.00     0.040 A 
ATOM     58  C   UNL     1      13.085  -6.476  10.519  1.00  0.00     0.040 A 
ATOM     59  F   UNL     1      12.699  -5.719   8.334  1.00  0.00    -0.206 F 
ATOM     60  C   UNL     1      12.614  -6.816  11.785  1.00  0.00     0.006 A 
ENDBRANCH  36  53
ENDBRANCH  10  11
ENDBRANCH   3   5
ENDBRANCH   2   3
ENDBRANCH   1   2
BRANCH   1  61
ATOM     61  C   UNL     1       4.200   1.705  -0.445  1.00  0.00     0.274 C 
BRANCH  61  62
ATOM     62  O   UNL     1       4.322   1.517   0.967  1.00  0.00    -0.461 OA
BRANCH  62  63
ATOM     63  C   UNL     1       3.307   1.931   1.771  1.00  0.00     0.329 C 
ATOM     64  O   UNL     1       2.466   2.759   1.461  1.00  0.00    -0.250 OA
BRANCH  63  65
ATOM     65  C   UNL     1       3.295   1.104   3.066  1.00  0.00     0.194 C 
BRANCH  65  66
ATOM     66  C   UNL     1       4.419   0.058   3.104  1.00  0.00     0.072 C 
BRANCH  66  67
ATOM     67  C   UNL     1       5.897   0.289   3.300  1.00  0.00    -0.045 A 
ATOM     68  C   UNL     1       6.719  -0.857   3.350  1.00  0.00     0.004 A 
ATOM     69  C   UNL     1       6.518   1.530   3.355  1.00  0.00     0.004 A 
ATOM     70  C   UNL     1       8.104  -0.786   3.425  1.00  0.00     0.000 A 
ATOM     71  C   UNL     1       7.915   1.610   3.443  1.00  0.00     0.000 A 
ATOM     72  C   UNL     1       8.705   0.458   3.468  1.00  0.00     0.000 A 
ENDBRANCH  66  67
ENDBRANCH  65  66
BRANCH  65  73
ATOM     73  N   UNL     1       3.238   1.912   4.284  1.00  0.00    -0.372 N 
ATOM     74  H   UNL     1       3.952   2.580   4.400  1.00  0.00     0.161 HD
BRANCH  73  75
ATOM     75  C   UNL     1       2.294   1.842   5.289  1.00  0.00     0.036 A 
ATOM     76  C   UNL     1       2.310   2.845   6.269  1.00  0.00     0.027 A 
ATOM     77  C   UNL     1       1.296   0.865   5.394  1.00  0.00     0.043 A 
ATOM     78  C   UNL     1       1.374   2.881   7.309  1.00  0.00     0.024 A 
ATOM     79  C   UNL     1       0.355   0.885   6.442  1.00  0.00     0.038 A 
ATOM     80  C   UNL     1       0.392   1.900   7.400  1.00  0.00     0.055 A 
ATOM     81  Br  UNL     1      -0.940  -0.508   6.489  1.00  0.00    -0.049 Br
ATOM     82  Cl  UNL     1      -0.730   2.010   8.708  1.00  0.00    -0.083 Cl
ENDBRANCH  73  75
ENDBRANCH  65  73
ENDBRANCH  63  65
ENDBRANCH  62  63
ENDBRANCH  61  62
ENDBRANCH   1  61
TORSDOF 15
