REMARK SMILES O=C(OCCOC(=O)[C@H]1C[C@H]2CCCC[C@@H]2[N@@H+]1CC[C@@H]1CCCO1)c1ccc(-c2c3nc(c(-c4c(F)cccc4F)c4ccc([nH]4)c(-c4c(F)cccc4F)c4nc(c(-c5c(F)cccc5F)c5ccc2[nH]5)C=C4)C=C3)cc1
REMARK SMILES IDX 5 1 4 2 3 3 2 4 1 5 25 6 26 7 78 8 27 9 77 10 28 11 29 12
REMARK SMILES IDX 30 13 71 14 31 15 76 16 70 17 72 18 32 19 75 20 69 21 68 22
REMARK SMILES IDX 33 24 59 25 42 26 58 27 43 28 46 29 57 30 73 31 44 32 45 33
REMARK SMILES IDX 56 35 74 36 47 37 34 38 35 39 40 40 36 41 37 42 39 43 41 44
REMARK SMILES IDX 38 45 60 46 61 47 66 48 62 49 63 50 65 51 67 52 64 53 48 54
REMARK SMILES IDX 49 55 54 56 50 57 51 58 53 59 55 60 52 61 6 62 7 63 8 64
REMARK SMILES IDX 9 65 10 66 17 67 11 68 16 69 12 71 15 72 13 73 14 74 18 75
REMARK SMILES IDX 19 76 20 77 21 78 24 79 22 80 23 81
REMARK H PARENT 72 23 46 34 17 70
REMARK Flexibility Score: inf
ROOT
ATOM      1  C   UNL     1       3.568  -2.476  -4.065  1.00  0.00     0.274 C 
ENDROOT
BRANCH   1   2
ATOM      2  C   UNL     1       2.757  -1.340  -4.701  1.00  0.00     0.275 C 
BRANCH   2   3
ATOM      3  O   UNL     1       2.305  -0.331  -3.788  1.00  0.00    -0.458 OA
BRANCH   3   4
ATOM      4  C   UNL     1       1.224  -0.313  -2.978  1.00  0.00     0.338 C 
ATOM      5  O   UNL     1       1.014   0.710  -2.326  1.00  0.00    -0.246 OA
BRANCH   4   6
ATOM      6  C   UNL     1       0.338  -1.498  -2.711  1.00  0.00     0.060 A 
ATOM      7  C   UNL     1       0.117  -2.623  -3.516  1.00  0.00     0.016 A 
ATOM      8  C   UNL     1      -0.302  -1.475  -1.467  1.00  0.00     0.016 A 
ATOM      9  C   UNL     1      -0.609  -3.749  -3.048  1.00  0.00     0.010 A 
ATOM     10  C   UNL     1      -0.995  -2.592  -1.000  1.00  0.00     0.010 A 
ATOM     11  C   UNL     1      -1.133  -3.777  -1.758  1.00  0.00    -0.014 A 
BRANCH  11  12
ATOM     12  C   UNL     1      -1.833  -4.953  -1.107  1.00  0.00     0.031 A 
ATOM     13  C   UNL     1      -3.124  -4.639  -0.382  1.00  0.00     0.074 A 
ATOM     14  C   UNL     1      -1.273  -6.184  -0.952  1.00  0.00     0.049 A 
ATOM     15  N   UNL     1      -3.708  -5.266   0.605  1.00  0.00    -0.248 NA
ATOM     16  C   UNL     1      -3.802  -3.387  -0.779  1.00  0.00     0.031 C 
ATOM     17  C   UNL     1      -0.028  -6.665  -1.563  1.00  0.00     0.029 A 
ATOM     18  N   UNL     1      -1.626  -7.234  -0.111  1.00  0.00    -0.354 N 
ATOM     19  C   UNL     1      -4.821  -4.494   0.916  1.00  0.00     0.074 A 
ATOM     20  C   UNL     1      -4.713  -3.263   0.171  1.00  0.00     0.031 C 
ATOM     21  C   UNL     1       0.322  -7.849  -1.018  1.00  0.00     0.029 A 
ATOM     22  C   UNL     1      -0.635  -8.201   0.028  1.00  0.00     0.049 A 
ATOM     23  H   UNL     1      -2.497  -7.288   0.344  1.00  0.00     0.167 HD
ATOM     24  C   UNL     1      -5.910  -4.832   1.645  1.00  0.00     0.037 A 
ATOM     25  C   UNL     1      -0.469  -9.169   0.966  1.00  0.00     0.037 A 
ATOM     26  C   UNL     1      -6.056  -6.100   2.292  1.00  0.00     0.049 A 
ATOM     27  C   UNL     1      -1.546  -9.362   2.001  1.00  0.00     0.074 A 
ATOM     28  C   UNL     1      -7.188  -6.675   2.838  1.00  0.00     0.029 A 
ATOM     29  N   UNL     1      -5.016  -6.995   2.470  1.00  0.00    -0.354 N 
ATOM     30  N   UNL     1      -2.655  -8.691   2.175  1.00  0.00    -0.248 NA
ATOM     31  C   UNL     1      -1.364 -10.478   2.946  1.00  0.00     0.031 C 
ATOM     32  C   UNL     1      -6.825  -7.918   3.370  1.00  0.00     0.029 A 
ATOM     33  C   UNL     1      -5.473  -8.111   3.143  1.00  0.00     0.049 A 
ATOM     34  H   UNL     1      -4.091  -6.858   2.163  1.00  0.00     0.167 HD
ATOM     35  C   UNL     1      -3.361  -9.390   3.143  1.00  0.00     0.074 A 
ATOM     36  C   UNL     1      -2.510 -10.461   3.607  1.00  0.00     0.031 C 
ATOM     37  C   UNL     1      -4.638  -9.206   3.546  1.00  0.00     0.037 A 
BRANCH  24  38
ATOM     38  C   UNL     1      -7.072  -3.882   1.626  1.00  0.00     0.057 A 
ATOM     39  C   UNL     1      -7.775  -3.638   0.434  1.00  0.00     0.134 A 
ATOM     40  C   UNL     1      -7.510  -3.225   2.779  1.00  0.00     0.134 A 
ATOM     41  F   UNL     1      -7.407  -4.240  -0.708  1.00  0.00    -0.206 F 
ATOM     42  C   UNL     1      -8.833  -2.734   0.379  1.00  0.00     0.040 A 
ATOM     43  C   UNL     1      -8.591  -2.341   2.742  1.00  0.00     0.040 A 
ATOM     44  F   UNL     1      -6.896  -3.424   3.954  1.00  0.00    -0.206 F 
ATOM     45  C   UNL     1      -9.247  -2.084   1.538  1.00  0.00     0.006 A 
ENDBRANCH  24  38
BRANCH  25  46
ATOM     46  C   UNL     1       0.743 -10.047   1.093  1.00  0.00     0.057 A 
ATOM     47  C   UNL     1       0.811 -11.300   0.479  1.00  0.00     0.134 A 
ATOM     48  C   UNL     1       1.725  -9.786   2.066  1.00  0.00     0.134 A 
ATOM     49  F   UNL     1      -0.171 -11.699  -0.341  1.00  0.00    -0.206 F 
ATOM     50  C   UNL     1       1.821 -12.223   0.793  1.00  0.00     0.040 A 
ATOM     51  C   UNL     1       2.779 -10.662   2.339  1.00  0.00     0.040 A 
ATOM     52  F   UNL     1       1.581  -8.750   2.898  1.00  0.00    -0.206 F 
ATOM     53  C   UNL     1       2.823 -11.896   1.708  1.00  0.00     0.006 A 
ENDBRANCH  25  46
BRANCH  37  54
ATOM     54  C   UNL     1      -5.255 -10.288   4.367  1.00  0.00     0.057 A 
ATOM     55  C   UNL     1      -5.014 -10.430   5.734  1.00  0.00     0.134 A 
ATOM     56  C   UNL     1      -6.150 -11.180   3.760  1.00  0.00     0.134 A 
ATOM     57  F   UNL     1      -4.137  -9.629   6.358  1.00  0.00    -0.206 F 
ATOM     58  C   UNL     1      -5.652 -11.423   6.477  1.00  0.00     0.040 A 
ATOM     59  C   UNL     1      -6.813 -12.158   4.495  1.00  0.00     0.040 A 
ATOM     60  F   UNL     1      -6.409 -11.096   2.445  1.00  0.00    -0.206 F 
ATOM     61  C   UNL     1      -6.565 -12.280   5.860  1.00  0.00     0.006 A 
ENDBRANCH  37  54
ENDBRANCH  11  12
ENDBRANCH   4   6
ENDBRANCH   3   4
ENDBRANCH   2   3
ENDBRANCH   1   2
BRANCH   1  62
ATOM     62  O   UNL     1       3.358  -2.589  -2.648  1.00  0.00    -0.458 OA
BRANCH  62  63
ATOM     63  C   UNL     1       4.449  -2.460  -1.828  1.00  0.00     0.365 C 
ATOM     64  O   UNL     1       5.591  -2.305  -2.240  1.00  0.00    -0.245 OA
BRANCH  63  65
ATOM     65  C   UNL     1       4.087  -2.541  -0.313  1.00  0.00     0.295 C 
ATOM     66  C   UNL     1       2.575  -2.410  -0.033  1.00  0.00     0.087 C 
ATOM     67  N   UNL     1       4.485  -3.882   0.241  1.00  0.00    -0.320 N 
ATOM     68  C   UNL     1       2.284  -3.572   0.887  1.00  0.00     0.054 C 
ATOM     69  C   UNL     1       3.224  -4.619   0.320  1.00  0.00     0.188 C 
ATOM     70  H   UNL     1       5.151  -4.367  -0.361  1.00  0.00     0.349 HD
ATOM     71  C   UNL     1       0.889  -4.114   0.967  1.00  0.00     0.010 C 
ATOM     72  C   UNL     1       3.203  -5.997   0.952  1.00  0.00     0.065 C 
ATOM     73  C   UNL     1       0.829  -5.290   1.915  1.00  0.00     0.001 C 
ATOM     74  C   UNL     1       1.904  -6.346   1.673  1.00  0.00     0.006 C 
BRANCH  67  75
ATOM     75  C   UNL     1       5.309  -3.837   1.480  1.00  0.00     0.265 C 
BRANCH  75  76
ATOM     76  C   UNL     1       4.795  -3.346   2.876  1.00  0.00     0.093 C 
BRANCH  76  77
ATOM     77  C   UNL     1       3.871  -4.288   3.665  1.00  0.00     0.123 C 
ATOM     78  C   UNL     1       3.058  -3.667   4.786  1.00  0.00     0.034 C 
ATOM     79  O   UNL     1       4.531  -5.394   4.290  1.00  0.00    -0.378 OA
ATOM     80  C   UNL     1       2.536  -4.896   5.508  1.00  0.00     0.031 C 
ATOM     81  C   UNL     1       3.562  -5.975   5.190  1.00  0.00     0.160 C 
ENDBRANCH  76  77
ENDBRANCH  75  76
ENDBRANCH  67  75
ENDBRANCH  63  65
ENDBRANCH  62  63
ENDBRANCH   1  62
TORSDOF 14
