REMARK SMILES O=C(OCCOC(=O)C(Cl)(c1ccccc1)c1ccccc1)c1ccc(-c2c3nc(c(-c4c(F)cccc4F)c4ccc([nH]4)c(-c4c(F)cccc4F)c4nc(c(-c5c(F)cccc5F)c5ccc2[nH]5)C=C4)C=C3)cc1
REMARK SMILES IDX 4 1 3 2 2 3 1 4 23 5 24 6 76 7 25 8 75 9 26 10 27 11 28 12
REMARK SMILES IDX 69 13 29 14 74 15 68 16 70 17 30 18 73 19 67 20 66 21 31 23
REMARK SMILES IDX 57 24 40 25 56 26 41 27 44 28 55 29 71 30 42 31 43 32 54 34
REMARK SMILES IDX 72 35 45 36 32 37 33 38 38 39 34 40 35 41 37 42 39 43 36 44
REMARK SMILES IDX 58 45 59 46 64 47 60 48 61 49 63 50 65 51 62 52 46 53 47 54
REMARK SMILES IDX 52 55 48 56 49 57 51 58 53 59 50 60 5 61 6 62 7 63 8 64 9 65
REMARK SMILES IDX 10 66 11 67 12 68 16 69 13 70 15 71 14 72 17 73 18 74 22 75
REMARK SMILES IDX 19 76 21 77 20 78
REMARK H PARENT 70 22 44 33
REMARK Flexibility Score: inf
ROOT
ATOM      1  C   UNL     1       4.186   0.646  -1.372  1.00  0.00     0.275 C 
ENDROOT
BRANCH   1   2
ATOM      2  O   UNL     1       3.194  -0.328  -1.019  1.00  0.00    -0.458 OA
BRANCH   2   3
ATOM      3  C   UNL     1       3.333  -1.364  -0.157  1.00  0.00     0.338 C 
ATOM      4  O   UNL     1       2.621  -2.358  -0.300  1.00  0.00    -0.246 OA
BRANCH   3   5
ATOM      5  C   UNL     1       4.137  -1.255   1.101  1.00  0.00     0.060 A 
ATOM      6  C   UNL     1       5.338  -0.557   1.268  1.00  0.00     0.016 A 
ATOM      7  C   UNL     1       3.587  -1.893   2.227  1.00  0.00     0.016 A 
ATOM      8  C   UNL     1       5.908  -0.387   2.537  1.00  0.00     0.010 A 
ATOM      9  C   UNL     1       4.139  -1.705   3.498  1.00  0.00     0.010 A 
ATOM     10  C   UNL     1       5.292  -0.922   3.669  1.00  0.00    -0.014 A 
BRANCH  10  11
ATOM     11  C   UNL     1       5.894  -0.762   5.016  1.00  0.00     0.031 A 
ATOM     12  C   UNL     1       6.415  -1.991   5.699  1.00  0.00     0.074 A 
ATOM     13  C   UNL     1       5.961   0.436   5.635  1.00  0.00     0.049 A 
ATOM     14  N   UNL     1       6.942  -2.123   6.888  1.00  0.00    -0.248 NA
ATOM     15  C   UNL     1       6.313  -3.249   4.940  1.00  0.00     0.031 C 
ATOM     16  C   UNL     1       5.496   1.712   5.090  1.00  0.00     0.029 A 
ATOM     17  N   UNL     1       6.436   0.769   6.882  1.00  0.00    -0.354 N 
ATOM     18  C   UNL     1       7.253  -3.470   7.000  1.00  0.00     0.074 A 
ATOM     19  C   UNL     1       6.739  -4.132   5.824  1.00  0.00     0.031 C 
ATOM     20  C   UNL     1       5.676   2.679   6.008  1.00  0.00     0.029 A 
ATOM     21  C   UNL     1       6.262   2.094   7.208  1.00  0.00     0.049 A 
ATOM     22  H   UNL     1       6.862   0.118   7.486  1.00  0.00     0.167 HD
ATOM     23  C   UNL     1       7.974  -4.097   7.957  1.00  0.00     0.037 A 
ATOM     24  C   UNL     1       6.540   2.754   8.350  1.00  0.00     0.037 A 
ATOM     25  C   UNL     1       8.495  -3.444   9.121  1.00  0.00     0.049 A 
ATOM     26  C   UNL     1       7.227   2.015   9.468  1.00  0.00     0.074 A 
ATOM     27  C   UNL     1       9.266  -3.971  10.139  1.00  0.00     0.029 A 
ATOM     28  N   UNL     1       8.283  -2.106   9.422  1.00  0.00    -0.354 N 
ATOM     29  N   UNL     1       7.599   0.759   9.523  1.00  0.00    -0.248 NA
ATOM     30  C   UNL     1       7.565   2.792  10.671  1.00  0.00     0.031 C 
ATOM     31  C   UNL     1       9.498  -2.956  11.073  1.00  0.00     0.029 A 
ATOM     32  C   UNL     1       8.900  -1.790  10.618  1.00  0.00     0.049 A 
ATOM     33  H   UNL     1       7.771  -1.476   8.866  1.00  0.00     0.167 HD
ATOM     34  C   UNL     1       8.271   0.611  10.729  1.00  0.00     0.074 A 
ATOM     35  C   UNL     1       8.235   1.900  11.388  1.00  0.00     0.031 C 
ATOM     36  C   UNL     1       8.881  -0.488  11.236  1.00  0.00     0.037 A 
BRANCH  23  37
ATOM     37  C   UNL     1       8.250  -5.549   7.719  1.00  0.00     0.057 A 
ATOM     38  C   UNL     1       9.108  -5.961   6.686  1.00  0.00     0.134 A 
ATOM     39  C   UNL     1       7.583  -6.541   8.443  1.00  0.00     0.134 A 
ATOM     40  F   UNL     1       9.752  -5.053   5.935  1.00  0.00    -0.206 F 
ATOM     41  C   UNL     1       9.245  -7.306   6.345  1.00  0.00     0.040 A 
ATOM     42  C   UNL     1       7.735  -7.892   8.128  1.00  0.00     0.040 A 
ATOM     43  F   UNL     1       6.746  -6.213   9.438  1.00  0.00    -0.206 F 
ATOM     44  C   UNL     1       8.555  -8.276   7.067  1.00  0.00     0.006 A 
ENDBRANCH  23  37
BRANCH  24  45
ATOM     45  C   UNL     1       6.198   4.193   8.504  1.00  0.00     0.057 A 
ATOM     46  C   UNL     1       7.189   5.182   8.514  1.00  0.00     0.134 A 
ATOM     47  C   UNL     1       4.877   4.606   8.716  1.00  0.00     0.134 A 
ATOM     48  F   UNL     1       8.476   4.848   8.343  1.00  0.00    -0.206 F 
ATOM     49  C   UNL     1       6.884   6.524   8.758  1.00  0.00     0.040 A 
ATOM     50  C   UNL     1       4.556   5.946   8.945  1.00  0.00     0.040 A 
ATOM     51  F   UNL     1       3.879   3.710   8.720  1.00  0.00    -0.206 F 
ATOM     52  C   UNL     1       5.562   6.909   8.976  1.00  0.00     0.006 A 
ENDBRANCH  24  45
BRANCH  36  53
ATOM     53  C   UNL     1       9.632  -0.329  12.522  1.00  0.00     0.057 A 
ATOM     54  C   UNL     1       8.982  -0.221  13.755  1.00  0.00     0.134 A 
ATOM     55  C   UNL     1      11.033  -0.357  12.524  1.00  0.00     0.134 A 
ATOM     56  F   UNL     1       7.642  -0.173  13.816  1.00  0.00    -0.206 F 
ATOM     57  C   UNL     1       9.700  -0.138  14.949  1.00  0.00     0.040 A 
ATOM     58  C   UNL     1      11.761  -0.300  13.712  1.00  0.00     0.040 A 
ATOM     59  F   UNL     1      11.714  -0.464  11.373  1.00  0.00    -0.206 F 
ATOM     60  C   UNL     1      11.093  -0.189  14.929  1.00  0.00     0.006 A 
ENDBRANCH  36  53
ENDBRANCH  10  11
ENDBRANCH   3   5
ENDBRANCH   2   3
ENDBRANCH   1   2
BRANCH   1  61
ATOM     61  C   UNL     1       3.989   1.999  -0.682  1.00  0.00     0.274 C 
BRANCH  61  62
ATOM     62  O   UNL     1       3.449   1.902   0.649  1.00  0.00    -0.460 OA
BRANCH  62  63
ATOM     63  C   UNL     1       2.139   2.292   0.812  1.00  0.00     0.336 C 
ATOM     64  O   UNL     1       1.453   2.701  -0.122  1.00  0.00    -0.249 OA
BRANCH  63  65
ATOM     65  C   UNL     1       1.667   2.293   2.301  1.00  0.00     0.191 C 
ATOM     66  Cl  UNL     1       2.478   0.903   3.138  1.00  0.00    -0.096 Cl
BRANCH  65  67
ATOM     67  C   UNL     1       2.149   3.531   3.099  1.00  0.00    -0.011 A 
ATOM     68  C   UNL     1       2.087   3.529   4.515  1.00  0.00     0.006 A 
ATOM     69  C   UNL     1       2.671   4.676   2.477  1.00  0.00     0.006 A 
ATOM     70  C   UNL     1       2.582   4.588   5.272  1.00  0.00     0.000 A 
ATOM     71  C   UNL     1       3.155   5.745   3.241  1.00  0.00     0.000 A 
ATOM     72  C   UNL     1       3.123   5.696   4.633  1.00  0.00     0.000 A 
ENDBRANCH  65  67
BRANCH  65  73
ATOM     73  C   UNL     1       0.149   2.023   2.391  1.00  0.00    -0.011 A 
ATOM     74  C   UNL     1      -0.764   3.055   2.662  1.00  0.00     0.006 A 
ATOM     75  C   UNL     1      -0.373   0.722   2.202  1.00  0.00     0.006 A 
ATOM     76  C   UNL     1      -2.124   2.783   2.828  1.00  0.00     0.000 A 
ATOM     77  C   UNL     1      -1.730   0.451   2.383  1.00  0.00     0.000 A 
ATOM     78  C   UNL     1      -2.603   1.481   2.709  1.00  0.00     0.000 A 
ENDBRANCH  65  73
ENDBRANCH  63  65
ENDBRANCH  62  63
ENDBRANCH  61  62
ENDBRANCH   1  61
TORSDOF 13
