REMARK SMILES O=C1NC(=O)/C(=C/c2ccc(OCc3cn(-c4ccc(C(=O)OCCOC(=O)c5ccc(-c6c7nc(c(-c8c(F)cccc8F)c8ccc([nH]8)c(-c8c(F)cccc8F)c8nc(c(-c9c(F)cccc9F)c9ccc6[nH]9)C=C8)C=C7)cc5)cc4)nn3)cc2)S1
REMARK SMILES IDX 23 1 21 2 22 3 20 4 17 5 18 6 84 7 19 8 83 9 16 10 14 11
REMARK SMILES IDX 15 12 86 13 85 14 13 15 12 16 11 17 8 18 9 19 88 20 10 21
REMARK SMILES IDX 87 22 7 23 1 24 2 25 3 26 89 27 4 28 6 30 5 31 24 32 25 33
REMARK SMILES IDX 26 34 27 35 28 36 29 37 30 38 82 39 31 40 81 41 32 42 33 43
REMARK SMILES IDX 34 44 75 45 35 46 80 47 74 48 76 49 36 50 79 51 73 52 72 53
REMARK SMILES IDX 37 55 63 56 46 57 62 58 47 59 50 60 61 61 77 62 48 63 49 64
REMARK SMILES IDX 60 66 78 67 51 68 38 69 39 70 44 71 40 72 41 73 43 74 45 75
REMARK SMILES IDX 42 76 64 77 65 78 70 79 66 80 67 81 69 82 71 83 68 84 52 85
REMARK SMILES IDX 53 86 58 87 54 88 55 89 57 90 59 91 56 92
REMARK H PARENT 3 29 76 54 50 65
REMARK Flexibility Score: inf
ROOT
ATOM      1  O   UNL     1      -8.181   9.791  -0.141  1.00  0.00    -0.458 OA
ENDROOT
BRANCH   1   2
ATOM      2  C   UNL     1      -7.711   9.396   1.067  1.00  0.00     0.338 C 
ATOM      3  O   UNL     1      -8.321   9.408   2.126  1.00  0.00    -0.246 OA
BRANCH   2   4
ATOM      4  C   UNL     1      -6.350   8.837   0.933  1.00  0.00     0.060 A 
ATOM      5  C   UNL     1      -3.747   7.872   0.906  1.00  0.00     0.066 A 
ATOM      6  C   UNL     1      -4.672   7.338   1.813  1.00  0.00     0.029 A 
ATOM      7  C   UNL     1      -4.137   8.828  -0.039  1.00  0.00     0.029 A 
ATOM      8  C   UNL     1      -5.964   7.848   1.846  1.00  0.00     0.018 A 
ATOM      9  C   UNL     1      -5.454   9.288  -0.044  1.00  0.00     0.018 A 
BRANCH   5  10
ATOM     10  N   UNL     1      -2.402   7.473   1.006  1.00  0.00    -0.220 N 
ATOM     11  C   UNL     1      -0.227   7.411   1.149  1.00  0.00     0.120 A 
ATOM     12  C   UNL     1      -1.272   8.222   0.759  1.00  0.00     0.144 A 
ATOM     13  N   UNL     1      -0.745   6.225   1.596  1.00  0.00    -0.131 NA
ATOM     14  N   UNL     1      -2.060   6.282   1.532  1.00  0.00    -0.062 NA
BRANCH  11  15
ATOM     15  C   UNL     1       1.237   7.689   1.264  1.00  0.00     0.289 C 
BRANCH  15  16
ATOM     16  O   UNL     1       2.073   7.019   0.304  1.00  0.00    -0.487 OA
BRANCH  16  17
ATOM     17  C   UNL     1       2.167   5.655   0.366  1.00  0.00     0.119 A 
ATOM     18  C   UNL     1       2.163   2.855   0.120  1.00  0.00    -0.024 A 
ATOM     19  C   UNL     1       2.714   3.648  -0.889  1.00  0.00     0.012 A 
ATOM     20  C   UNL     1       1.706   3.466   1.289  1.00  0.00     0.012 A 
ATOM     21  C   UNL     1       2.707   5.043  -0.767  1.00  0.00     0.047 A 
ATOM     22  C   UNL     1       1.743   4.855   1.423  1.00  0.00     0.047 A 
BRANCH  18  23
ATOM     23  C   UNL     1       2.101   1.397  -0.014  1.00  0.00     0.029 C 
ATOM     24  O   UNL     1      -2.464  -0.746   0.014  1.00  0.00    -0.261 OA
ATOM     25  C   UNL     1      -1.272  -0.448  -0.007  1.00  0.00     0.290 C 
ATOM     26  N   UNL     1      -0.243  -1.325  -0.028  1.00  0.00    -0.282 N 
ATOM     27  S   UNL     1      -0.662   1.191  -0.018  1.00  0.00    -0.022 SA
ATOM     28  C   UNL     1       1.026  -0.826  -0.061  1.00  0.00     0.265 C 
ATOM     29  H   UNL     1      -0.406  -2.296  -0.018  1.00  0.00     0.174 HD
ATOM     30  C   UNL     1       0.981   0.660  -0.039  1.00  0.00     0.083 C 
ATOM     31  O   UNL     1       2.039  -1.502  -0.085  1.00  0.00    -0.268 OA
ENDBRANCH  18  23
ENDBRANCH  16  17
ENDBRANCH  15  16
ENDBRANCH  11  15
ENDBRANCH   5  10
ENDBRANCH   2   4
ENDBRANCH   1   2
BRANCH   1  32
ATOM     32  C   UNL     1      -9.584  10.087  -0.167  1.00  0.00     0.275 C 
BRANCH  32  33
ATOM     33  C   UNL     1     -10.408   8.838  -0.452  1.00  0.00     0.275 C 
BRANCH  33  34
ATOM     34  O   UNL     1     -10.396   7.897   0.627  1.00  0.00    -0.458 OA
BRANCH  34  35
ATOM     35  C   UNL     1      -9.498   6.892   0.502  1.00  0.00     0.338 C 
ATOM     36  O   UNL     1      -8.474   6.891  -0.159  1.00  0.00    -0.246 OA
BRANCH  35  37
ATOM     37  C   UNL     1     -10.066   5.661   1.069  1.00  0.00     0.060 A 
ATOM     38  C   UNL     1      -9.219   4.577   1.312  1.00  0.00     0.016 A 
ATOM     39  C   UNL     1     -11.459   5.512   1.087  1.00  0.00     0.016 A 
ATOM     40  C   UNL     1      -9.777   3.312   1.419  1.00  0.00     0.010 A 
ATOM     41  C   UNL     1     -12.010   4.253   1.192  1.00  0.00     0.010 A 
ATOM     42  C   UNL     1     -11.168   3.148   1.278  1.00  0.00    -0.014 A 
BRANCH  42  43
ATOM     43  C   UNL     1     -11.775   1.845   1.542  1.00  0.00     0.031 A 
ATOM     44  C   UNL     1     -11.545   1.484   2.967  1.00  0.00     0.074 A 
ATOM     45  C   UNL     1     -12.542   1.152   0.663  1.00  0.00     0.049 A 
ATOM     46  N   UNL     1     -10.749   0.566   3.401  1.00  0.00    -0.248 NA
ATOM     47  C   UNL     1     -12.014   2.400   4.029  1.00  0.00     0.031 C 
ATOM     48  C   UNL     1     -12.942   1.555  -0.689  1.00  0.00     0.029 A 
ATOM     49  N   UNL     1     -13.202  -0.048   0.813  1.00  0.00    -0.354 N 
ATOM     50  C   UNL     1     -10.872   0.596   4.786  1.00  0.00     0.074 A 
ATOM     51  C   UNL     1     -11.441   1.872   5.113  1.00  0.00     0.031 C 
ATOM     52  C   UNL     1     -13.946   0.761  -1.135  1.00  0.00     0.029 A 
ATOM     53  C   UNL     1     -14.184  -0.296  -0.171  1.00  0.00     0.049 A 
ATOM     54  H   UNL     1     -13.005  -0.679   1.543  1.00  0.00     0.167 HD
ATOM     55  C   UNL     1     -10.864  -0.580   5.469  1.00  0.00     0.037 A 
ATOM     56  C   UNL     1     -15.121  -1.293  -0.171  1.00  0.00     0.037 A 
ATOM     57  C   UNL     1     -10.247  -1.610   4.662  1.00  0.00     0.049 A 
ATOM     58  C   UNL     1     -14.635  -2.348   0.746  1.00  0.00     0.074 A 
ATOM     59  C   UNL     1      -9.014  -1.807   4.075  1.00  0.00     0.029 A 
ATOM     60  N   UNL     1     -11.127  -2.414   3.991  1.00  0.00    -0.354 N 
ATOM     61  N   UNL     1     -13.591  -3.084   0.499  1.00  0.00    -0.248 NA
ATOM     62  C   UNL     1     -15.005  -2.212   2.141  1.00  0.00     0.031 C 
ATOM     63  C   UNL     1      -9.287  -2.438   2.822  1.00  0.00     0.029 A 
ATOM     64  C   UNL     1     -10.652  -2.710   2.747  1.00  0.00     0.049 A 
ATOM     65  H   UNL     1     -11.984  -2.735   4.355  1.00  0.00     0.167 HD
ATOM     66  C   UNL     1     -12.883  -3.060   1.689  1.00  0.00     0.074 A 
ATOM     67  C   UNL     1     -13.840  -2.568   2.686  1.00  0.00     0.031 C 
ATOM     68  C   UNL     1     -11.518  -3.137   1.673  1.00  0.00     0.037 A 
BRANCH  55  69
ATOM     69  C   UNL     1     -11.894  -0.915   6.537  1.00  0.00     0.057 A 
ATOM     70  C   UNL     1     -11.811  -2.163   7.182  1.00  0.00     0.134 A 
ATOM     71  C   UNL     1     -13.120  -0.237   6.727  1.00  0.00     0.134 A 
ATOM     72  F   UNL     1     -10.716  -2.928   7.057  1.00  0.00    -0.206 F 
ATOM     73  C   UNL     1     -12.884  -2.720   7.892  1.00  0.00     0.040 A 
ATOM     74  C   UNL     1     -14.179  -0.763   7.473  1.00  0.00     0.040 A 
ATOM     75  F   UNL     1     -13.418   0.918   6.124  1.00  0.00    -0.206 F 
ATOM     76  C   UNL     1     -14.075  -2.021   8.036  1.00  0.00     0.006 A 
ENDBRANCH  55  69
BRANCH  56  77
ATOM     77  C   UNL     1     -16.553  -1.290  -0.596  1.00  0.00     0.057 A 
ATOM     78  C   UNL     1     -17.317  -2.476  -0.638  1.00  0.00     0.134 A 
ATOM     79  C   UNL     1     -17.292  -0.099  -0.638  1.00  0.00     0.134 A 
ATOM     80  F   UNL     1     -16.722  -3.676  -0.555  1.00  0.00    -0.206 F 
ATOM     81  C   UNL     1     -18.722  -2.472  -0.682  1.00  0.00     0.040 A 
ATOM     82  C   UNL     1     -18.694  -0.081  -0.681  1.00  0.00     0.040 A 
ATOM     83  F   UNL     1     -16.684   1.091  -0.538  1.00  0.00    -0.206 F 
ATOM     84  C   UNL     1     -19.416  -1.268  -0.687  1.00  0.00     0.006 A 
ENDBRANCH  56  77
BRANCH  68  85
ATOM     85  C   UNL     1     -10.860  -3.586   0.395  1.00  0.00     0.057 A 
ATOM     86  C   UNL     1     -10.922  -2.911  -0.836  1.00  0.00     0.134 A 
ATOM     87  C   UNL     1     -10.047  -4.723   0.450  1.00  0.00     0.134 A 
ATOM     88  F   UNL     1     -11.597  -1.760  -0.967  1.00  0.00    -0.206 F 
ATOM     89  C   UNL     1     -10.249  -3.387  -1.969  1.00  0.00     0.040 A 
ATOM     90  C   UNL     1      -9.342  -5.185  -0.661  1.00  0.00     0.040 A 
ATOM     91  F   UNL     1      -9.898  -5.390   1.605  1.00  0.00    -0.206 F 
ATOM     92  C   UNL     1      -9.455  -4.527  -1.881  1.00  0.00     0.006 A 
ENDBRANCH  68  85
ENDBRANCH  42  43
ENDBRANCH  35  37
ENDBRANCH  34  35
ENDBRANCH  33  34
ENDBRANCH  32  33
ENDBRANCH   1  32
TORSDOF 16
