REMARK SMILES Cc1c(CCC(=O)N2CCC[C@H]2C(=O)OCCOC(=O)c2ccc(-c3c4nc(c(-c5c(F)cccc5F)c5ccc([nH]5)c(-c5c(F)cccc5F)c5nc(c(-c6c(F)cccc6F)c6ccc3[nH]6)C=C5)C=C4)cc2)c(=O)oc2cc3oc4c(c3cc12)CCCC4
REMARK SMILES IDX 16 1 15 2 13 3 14 4 12 5 8 6 9 7 10 8 11 9 6 10 7 11 5 12
REMARK SMILES IDX 4 13 3 14 1 15 2 16 86 17 75 18 78 19 85 20 76 21 77 22
REMARK SMILES IDX 79 23 84 24 80 25 83 26 81 27 82 28 87 29 90 30 88 31 89 32
REMARK SMILES IDX 17 33 18 34 19 35 20 36 21 37 22 38 74 39 23 40 73 41 24 42
REMARK SMILES IDX 25 43 26 44 67 45 27 46 72 47 66 48 68 49 28 50 71 51 65 52
REMARK SMILES IDX 64 53 29 55 55 56 38 57 54 58 39 59 42 60 53 61 69 62 40 63
REMARK SMILES IDX 41 64 52 66 70 67 43 68 30 69 31 70 36 71 32 72 33 73 35 74
REMARK SMILES IDX 37 75 34 76 56 77 57 78 62 79 58 80 59 81 61 82 63 83 60 84
REMARK SMILES IDX 44 85 45 86 50 87 46 88 47 89 49 90 51 91 48 92
REMARK H PARENT 68 54 42 65
REMARK Flexibility Score: inf
ROOT
ATOM      1  C   UNL     1       0.681  -2.870   2.254  1.00  0.00     0.274 C 
ENDROOT
BRANCH   1   2
ATOM      2  O   UNL     1       0.079  -1.718   1.606  1.00  0.00    -0.461 OA
BRANCH   2   3
ATOM      3  C   UNL     1      -1.246  -1.542   1.841  1.00  0.00     0.328 C 
ATOM      4  O   UNL     1      -1.909  -2.281   2.570  1.00  0.00    -0.250 OA
BRANCH   3   5
ATOM      5  C   UNL     1      -1.933  -0.405   1.051  1.00  0.00     0.195 C 
ATOM      6  N   UNL     1      -1.297   0.635   0.210  1.00  0.00    -0.329 N 
ATOM      7  C   UNL     1      -2.030   0.797  -1.038  1.00  0.00     0.120 C 
ATOM      8  C   UNL     1      -3.274  -0.059  -0.915  1.00  0.00     0.024 C 
ATOM      9  C   UNL     1      -2.872  -1.129   0.074  1.00  0.00     0.039 C 
BRANCH   6  10
ATOM     10  C   UNL     1      -0.461   1.593   0.761  1.00  0.00     0.223 C 
ATOM     11  O   UNL     1      -0.094   1.500   1.932  1.00  0.00    -0.275 OA
BRANCH  10  12
ATOM     12  C   UNL     1       0.000   2.800  -0.076  1.00  0.00     0.105 C 
BRANCH  12  13
ATOM     13  C   UNL     1       1.309   2.634  -0.868  1.00  0.00     0.053 C 
BRANCH  13  14
ATOM     14  C   UNL     1       1.199   1.521  -1.869  1.00  0.00     0.042 A 
ATOM     15  C   UNL     1       2.415  -0.151  -0.409  1.00  0.00     0.046 C 
ATOM     16  C   UNL     1       1.557   0.257  -1.581  1.00  0.00    -0.030 A 
ATOM     17  C   UNL     1       0.839  -0.755  -2.353  1.00  0.00     0.022 A 
ATOM     18  C   UNL     1       0.584   1.863  -3.189  1.00  0.00     0.339 A 
ATOM     19  C   UNL     1       0.387  -0.472  -3.642  1.00  0.00     0.142 A 
ATOM     20  C   UNL     1       0.416  -1.932  -1.746  1.00  0.00     0.024 A 
ATOM     21  O   UNL     1       0.228   3.006  -3.454  1.00  0.00    -0.246 OA
ATOM     22  O   UNL     1       0.494   0.841  -4.129  1.00  0.00    -0.422 OA
ATOM     23  C   UNL     1      -0.263  -1.413  -4.457  1.00  0.00     0.095 A 
ATOM     24  C   UNL     1      -0.290  -2.872  -2.493  1.00  0.00     0.025 A 
ATOM     25  C   UNL     1      -0.491  -2.641  -3.848  1.00  0.00     0.138 A 
ATOM     26  C   UNL     1      -0.698  -4.193  -2.225  1.00  0.00     0.001 A 
ATOM     27  O   UNL     1      -0.791  -3.828  -4.462  1.00  0.00    -0.461 OA
ATOM     28  C   UNL     1      -0.687  -4.765  -3.479  1.00  0.00     0.108 A 
ATOM     29  C   UNL     1      -0.414  -5.016  -1.024  1.00  0.00     0.040 C 
ATOM     30  C   UNL     1       0.086  -6.021  -3.716  1.00  0.00     0.076 C 
ATOM     31  C   UNL     1       0.941  -5.717  -1.244  1.00  0.00     0.005 C 
ATOM     32  C   UNL     1       1.310  -5.945  -2.744  1.00  0.00     0.008 C 
ENDBRANCH  13  14
ENDBRANCH  12  13
ENDBRANCH  10  12
ENDBRANCH   6  10
ENDBRANCH   3   5
ENDBRANCH   2   3
ENDBRANCH   1   2
BRANCH   1  33
ATOM     33  C   UNL     1       1.726  -2.456   3.285  1.00  0.00     0.275 C 
BRANCH  33  34
ATOM     34  O   UNL     1       1.066  -1.754   4.341  1.00  0.00    -0.458 OA
BRANCH  34  35
ATOM     35  C   UNL     1       1.219  -0.404   4.320  1.00  0.00     0.338 C 
ATOM     36  O   UNL     1       2.007   0.251   3.690  1.00  0.00    -0.246 OA
BRANCH  35  37
ATOM     37  C   UNL     1       0.159   0.109   5.201  1.00  0.00     0.060 A 
ATOM     38  C   UNL     1       0.386   0.251   6.563  1.00  0.00     0.016 A 
ATOM     39  C   UNL     1      -1.100   0.354   4.655  1.00  0.00     0.016 A 
ATOM     40  C   UNL     1      -0.675   0.643   7.375  1.00  0.00     0.010 A 
ATOM     41  C   UNL     1      -2.163   0.719   5.460  1.00  0.00     0.010 A 
ATOM     42  C   UNL     1      -1.951   0.879   6.826  1.00  0.00    -0.014 A 
BRANCH  42  43
ATOM     43  C   UNL     1      -3.029   1.326   7.720  1.00  0.00     0.031 A 
ATOM     44  C   UNL     1      -4.005   2.316   7.141  1.00  0.00     0.074 A 
ATOM     45  C   UNL     1      -3.514   0.413   8.582  1.00  0.00     0.049 A 
ATOM     46  N   UNL     1      -5.078   2.035   6.458  1.00  0.00    -0.248 NA
ATOM     47  C   UNL     1      -3.660   3.741   7.131  1.00  0.00     0.031 C 
ATOM     48  C   UNL     1      -3.888  -0.959   8.233  1.00  0.00     0.029 A 
ATOM     49  N   UNL     1      -3.958   0.589   9.868  1.00  0.00    -0.354 N 
ATOM     50  C   UNL     1      -5.539   3.226   5.911  1.00  0.00     0.074 A 
ATOM     51  C   UNL     1      -4.629   4.255   6.360  1.00  0.00     0.031 C 
ATOM     52  C   UNL     1      -4.650  -1.457   9.226  1.00  0.00     0.029 A 
ATOM     53  C   UNL     1      -4.737  -0.476  10.306  1.00  0.00     0.049 A 
ATOM     54  H   UNL     1      -3.750   1.379  10.418  1.00  0.00     0.167 HD
ATOM     55  C   UNL     1      -6.641   3.329   5.120  1.00  0.00     0.037 A 
ATOM     56  C   UNL     1      -5.768  -0.333  11.181  1.00  0.00     0.037 A 
ATOM     57  C   UNL     1      -7.355   2.116   4.876  1.00  0.00     0.049 A 
ATOM     58  C   UNL     1      -6.865   0.086  10.229  1.00  0.00     0.074 A 
ATOM     59  C   UNL     1      -7.415   1.153   3.894  1.00  0.00     0.029 A 
ATOM     60  N   UNL     1      -8.234   1.689   5.842  1.00  0.00    -0.354 N 
ATOM     61  N   UNL     1      -7.542  -0.703   9.435  1.00  0.00    -0.248 NA
ATOM     62  C   UNL     1      -6.939   1.506   9.874  1.00  0.00     0.031 C 
ATOM     63  C   UNL     1      -7.961  -0.005   4.532  1.00  0.00     0.029 A 
ATOM     64  C   UNL     1      -8.153   0.322   5.874  1.00  0.00     0.049 A 
ATOM     65  H   UNL     1      -8.811   2.256   6.403  1.00  0.00     0.167 HD
ATOM     66  C   UNL     1      -7.870   0.082   8.325  1.00  0.00     0.074 A 
ATOM     67  C   UNL     1      -7.523   1.441   8.685  1.00  0.00     0.031 C 
ATOM     68  C   UNL     1      -8.199  -0.435   7.104  1.00  0.00     0.037 A 
BRANCH  55  69
ATOM     69  C   UNL     1      -7.226   4.603   4.652  1.00  0.00     0.057 A 
ATOM     70  C   UNL     1      -8.361   5.097   5.309  1.00  0.00     0.134 A 
ATOM     71  C   UNL     1      -6.840   5.224   3.463  1.00  0.00     0.134 A 
ATOM     72  F   UNL     1      -8.783   4.524   6.449  1.00  0.00    -0.206 F 
ATOM     73  C   UNL     1      -9.114   6.146   4.784  1.00  0.00     0.040 A 
ATOM     74  C   UNL     1      -7.582   6.283   2.930  1.00  0.00     0.040 A 
ATOM     75  F   UNL     1      -5.774   4.784   2.778  1.00  0.00    -0.206 F 
ATOM     76  C   UNL     1      -8.730   6.735   3.583  1.00  0.00     0.006 A 
ENDBRANCH  55  69
BRANCH  56  77
ATOM     77  C   UNL     1      -5.404   0.387  12.443  1.00  0.00     0.057 A 
ATOM     78  C   UNL     1      -4.265  -0.052  13.153  1.00  0.00     0.134 A 
ATOM     79  C   UNL     1      -6.061   1.497  12.981  1.00  0.00     0.134 A 
ATOM     80  F   UNL     1      -3.628  -1.177  12.789  1.00  0.00    -0.206 F 
ATOM     81  C   UNL     1      -3.730   0.656  14.232  1.00  0.00     0.040 A 
ATOM     82  C   UNL     1      -5.527   2.228  14.051  1.00  0.00     0.040 A 
ATOM     83  F   UNL     1      -7.226   1.928  12.482  1.00  0.00    -0.206 F 
ATOM     84  C   UNL     1      -4.344   1.823  14.663  1.00  0.00     0.006 A 
ENDBRANCH  56  77
BRANCH  68  85
ATOM     85  C   UNL     1      -8.331  -1.917   7.045  1.00  0.00     0.057 A 
ATOM     86  C   UNL     1      -9.427  -2.561   7.624  1.00  0.00     0.134 A 
ATOM     87  C   UNL     1      -7.389  -2.712   6.376  1.00  0.00     0.134 A 
ATOM     88  F   UNL     1     -10.369  -1.855   8.269  1.00  0.00    -0.206 F 
ATOM     89  C   UNL     1      -9.591  -3.943   7.526  1.00  0.00     0.040 A 
ATOM     90  C   UNL     1      -7.556  -4.091   6.248  1.00  0.00     0.040 A 
ATOM     91  F   UNL     1      -6.300  -2.166   5.812  1.00  0.00    -0.206 F 
ATOM     92  C   UNL     1      -8.661  -4.710   6.825  1.00  0.00     0.006 A 
ENDBRANCH  68  85
ENDBRANCH  42  43
ENDBRANCH  35  37
ENDBRANCH  34  35
ENDBRANCH  33  34
ENDBRANCH   1  33
TORSDOF 15
