REMARK SMILES CC(C)C[C@H](NC(=O)[C@@H](NC(=O)[C@H](C)NC(=O)CNC(=O)OCc1ccccc1)C(C)C)C(=O)OCCOC(=O)c1ccc(-c2c3nc(c(-c4c(F)cccc4F)c4ccc([nH]4)c(-c4c(F)cccc4F)c4nc(c(-c5c(F)cccc5F)c5ccc2[nH]5)C=C4)C=C3)cc1
REMARK SMILES IDX 6 1 7 2 8 3 5 5 4 6 2 7 1 8 3 9 33 10 34 11 35 12 36 13
REMARK SMILES IDX 37 14 38 15 39 16 40 17 41 18 42 19 94 20 43 21 93 22 44 23
REMARK SMILES IDX 45 24 46 25 87 26 47 27 92 28 86 29 88 30 48 31 91 32 85 33
REMARK SMILES IDX 84 34 49 36 75 37 58 38 74 39 59 40 62 41 73 42 89 43 60 44
REMARK SMILES IDX 61 45 72 47 90 48 63 49 50 50 51 51 56 52 52 53 53 54 55 55
REMARK SMILES IDX 57 56 54 57 76 58 77 59 82 60 78 61 79 62 81 63 83 64 80 65
REMARK SMILES IDX 64 66 65 67 70 68 66 69 67 70 69 71 71 72 68 73 9 74 10 75
REMARK SMILES IDX 11 76 12 78 13 79 14 80 15 81 16 82 17 84 18 85 19 86 20 87
REMARK SMILES IDX 21 89 22 90 23 91 24 92 25 93 29 94 26 95 28 96 27 97 30 98
REMARK SMILES IDX 31 99 32 100
REMARK H PARENT 6 4 88 35 62 46 10 77 15 83 19 88
REMARK Flexibility Score: inf
ROOT
ATOM      1  N   UNL     1      -3.574  -4.943  -0.246  1.00  0.00    -0.341 N 
ATOM      2  C   UNL     1      -4.731  -5.048  -1.001  1.00  0.00     0.243 C 
ATOM      3  O   UNL     1      -4.754  -6.119  -1.648  1.00  0.00    -0.273 OA
ATOM      4  H   UNL     1      -2.874  -5.531  -0.612  1.00  0.00     0.164 HD
ENDROOT
BRANCH   1   5
ATOM      5  C   UNL     1      -3.054  -4.204   0.967  1.00  0.00     0.192 C 
BRANCH   5   6
ATOM      6  C   UNL     1      -2.348  -5.154   1.984  1.00  0.00     0.040 C 
BRANCH   6   7
ATOM      7  C   UNL     1      -3.305  -5.778   3.030  1.00  0.00    -0.015 C 
ATOM      8  C   UNL     1      -4.002  -7.012   2.466  1.00  0.00     0.007 C 
ATOM      9  C   UNL     1      -2.550  -6.122   4.318  1.00  0.00     0.007 C 
ENDBRANCH   6   7
ENDBRANCH   5   6
BRANCH   5  10
ATOM     10  C   UNL     1      -2.337  -2.810   1.163  1.00  0.00     0.328 C 
ATOM     11  O   UNL     1      -2.370  -2.268   2.270  1.00  0.00    -0.250 OA
BRANCH  10  12
ATOM     12  O   UNL     1      -1.789  -2.208   0.077  1.00  0.00    -0.461 OA
BRANCH  12  13
ATOM     13  C   UNL     1      -1.792  -0.751   0.142  1.00  0.00     0.274 C 
BRANCH  13  14
ATOM     14  C   UNL     1      -3.048  -0.110  -0.496  1.00  0.00     0.275 C 
BRANCH  14  15
ATOM     15  O   UNL     1      -4.285  -0.460   0.162  1.00  0.00    -0.458 OA
BRANCH  15  16
ATOM     16  C   UNL     1      -4.670  -1.703  -0.149  1.00  0.00     0.338 C 
ATOM     17  O   UNL     1      -3.951  -2.471  -0.757  1.00  0.00    -0.246 OA
BRANCH  16  18
ATOM     18  C   UNL     1      -6.017  -2.211   0.181  1.00  0.00     0.060 A 
ATOM     19  C   UNL     1      -6.183  -3.438   1.552  1.00  0.00     0.016 A 
ATOM     20  C   UNL     1      -7.548  -1.855  -0.829  1.00  0.00     0.016 A 
ATOM     21  C   UNL     1      -7.749  -4.260   1.881  1.00  0.00     0.010 A 
ATOM     22  C   UNL     1      -9.108  -2.756  -0.474  1.00  0.00     0.010 A 
ATOM     23  C   UNL     1      -9.225  -3.924   0.929  1.00  0.00    -0.014 A 
BRANCH  23  24
ATOM     24  C   UNL     1     -10.599  -4.109   1.676  1.00  0.00     0.031 A 
ATOM     25  C   UNL     1     -11.783  -4.651   0.914  1.00  0.00     0.074 A 
ATOM     26  C   UNL     1     -10.863  -3.651   2.943  1.00  0.00     0.049 A 
ATOM     27  N   UNL     1     -13.027  -4.818   1.300  1.00  0.00    -0.248 NA
ATOM     28  C   UNL     1     -11.528  -5.045  -0.475  1.00  0.00     0.031 C 
ATOM     29  C   UNL     1      -9.916  -3.014   3.867  1.00  0.00     0.029 A 
ATOM     30  N   UNL     1     -12.053  -3.580   3.672  1.00  0.00    -0.354 N 
ATOM     31  C   UNL     1     -13.697  -5.350   0.207  1.00  0.00     0.074 A 
ATOM     32  C   UNL     1     -12.742  -5.388  -0.882  1.00  0.00     0.031 C 
ATOM     33  C   UNL     1     -10.549  -2.553   4.958  1.00  0.00     0.029 A 
ATOM     34  C   UNL     1     -11.960  -2.895   4.878  1.00  0.00     0.049 A 
ATOM     35  H   UNL     1     -12.894  -3.983   3.356  1.00  0.00     0.167 HD
ATOM     36  C   UNL     1     -14.969  -5.812   0.113  1.00  0.00     0.037 A 
ATOM     37  C   UNL     1     -12.870  -2.570   5.829  1.00  0.00     0.037 A 
ATOM     38  C   UNL     1     -15.952  -5.759   1.163  1.00  0.00     0.049 A 
ATOM     39  C   UNL     1     -14.299  -3.036   5.685  1.00  0.00     0.074 A 
ATOM     40  C   UNL     1     -17.236  -6.282   1.167  1.00  0.00     0.029 A 
ATOM     41  N   UNL     1     -15.781  -5.117   2.378  1.00  0.00    -0.354 N 
ATOM     42  N   UNL     1     -14.849  -3.713   4.708  1.00  0.00    -0.248 NA
ATOM     43  C   UNL     1     -15.230  -2.726   6.787  1.00  0.00     0.031 C 
ATOM     44  C   UNL     1     -17.867  -5.890   2.351  1.00  0.00     0.029 A 
ATOM     45  C   UNL     1     -16.951  -5.191   3.119  1.00  0.00     0.049 A 
ATOM     46  H   UNL     1     -14.953  -4.673   2.671  1.00  0.00     0.167 HD
ATOM     47  C   UNL     1     -16.161  -3.954   5.100  1.00  0.00     0.074 A 
ATOM     48  C   UNL     1     -16.331  -3.359   6.405  1.00  0.00     0.031 C 
ATOM     49  C   UNL     1     -17.130  -4.620   4.429  1.00  0.00     0.037 A 
BRANCH  36  50
ATOM     50  C   UNL     1     -15.362  -6.446  -1.192  1.00  0.00     0.057 A 
ATOM     51  C   UNL     1     -14.783  -7.650  -1.620  1.00  0.00     0.134 A 
ATOM     52  C   UNL     1     -16.325  -5.861  -2.023  1.00  0.00     0.134 A 
ATOM     53  F   UNL     1     -13.853  -8.262  -0.871  1.00  0.00    -0.206 F 
ATOM     54  C   UNL     1     -15.105  -8.219  -2.852  1.00  0.00     0.040 A 
ATOM     55  C   UNL     1     -16.683  -6.441  -3.241  1.00  0.00     0.040 A 
ATOM     56  F   UNL     1     -16.933  -4.720  -1.667  1.00  0.00    -0.206 F 
ATOM     57  C   UNL     1     -16.061  -7.614  -3.665  1.00  0.00     0.006 A 
ENDBRANCH  36  50
BRANCH  37  58
ATOM     58  C   UNL     1     -12.488  -1.800   7.061  1.00  0.00     0.057 A 
ATOM     59  C   UNL     1     -12.520  -2.399   8.332  1.00  0.00     0.134 A 
ATOM     60  C   UNL     1     -12.185  -0.433   7.022  1.00  0.00     0.134 A 
ATOM     61  F   UNL     1     -12.839  -3.696   8.456  1.00  0.00    -0.206 F 
ATOM     62  C   UNL     1     -12.307  -1.668   9.506  1.00  0.00     0.040 A 
ATOM     63  C   UNL     1     -11.941   0.306   8.188  1.00  0.00     0.040 A 
ATOM     64  F   UNL     1     -12.138   0.217   5.850  1.00  0.00    -0.206 F 
ATOM     65  C   UNL     1     -12.015  -0.309   9.436  1.00  0.00     0.006 A 
ENDBRANCH  37  58
BRANCH  49  66
ATOM     66  C   UNL     1     -18.464  -4.801   5.096  1.00  0.00     0.057 A 
ATOM     67  C   UNL     1     -19.353  -3.736   5.291  1.00  0.00     0.134 A 
ATOM     68  C   UNL     1     -18.903  -6.080   5.466  1.00  0.00     0.134 A 
ATOM     69  F   UNL     1     -18.995  -2.483   4.973  1.00  0.00    -0.206 F 
ATOM     70  C   UNL     1     -20.625  -3.937   5.831  1.00  0.00     0.040 A 
ATOM     71  C   UNL     1     -20.183  -6.298   5.976  1.00  0.00     0.040 A 
ATOM     72  F   UNL     1     -18.106  -7.147   5.302  1.00  0.00    -0.206 F 
ATOM     73  C   UNL     1     -21.049  -5.223   6.161  1.00  0.00     0.006 A 
ENDBRANCH  49  66
ENDBRANCH  23  24
ENDBRANCH  16  18
ENDBRANCH  15  16
ENDBRANCH  14  15
ENDBRANCH  13  14
ENDBRANCH  12  13
ENDBRANCH  10  12
ENDBRANCH   5  10
ENDBRANCH   1   5
BRANCH   2  74
ATOM     74  C   UNL     1      -6.016  -4.003  -1.346  1.00  0.00     0.174 C 
BRANCH  74  75
ATOM     75  N   UNL     1      -7.296  -3.655  -0.093  1.00  0.00    -0.342 N 
ATOM     76  C   UNL     1      -7.821  -2.228   1.151  1.00  0.00     0.242 C 
ATOM     77  H   UNL     1      -7.913  -4.418  -0.017  1.00  0.00     0.164 HD
ATOM     78  O   UNL     1      -8.970  -1.868   1.573  1.00  0.00    -0.273 OA
BRANCH  76  79
ATOM     79  C   UNL     1      -6.857  -0.838   1.762  1.00  0.00     0.168 C 
ATOM     80  C   UNL     1      -6.839   0.333   0.729  1.00  0.00     0.041 C 
BRANCH  79  81
ATOM     81  N   UNL     1      -5.626  -0.892   2.578  1.00  0.00    -0.343 N 
ATOM     82  C   UNL     1      -5.281  -0.141   3.660  1.00  0.00     0.240 C 
ATOM     83  H   UNL     1      -4.963  -1.565   2.300  1.00  0.00     0.164 HD
ATOM     84  O   UNL     1      -4.237  -0.442   4.246  1.00  0.00    -0.273 OA
BRANCH  82  85
ATOM     85  C   UNL     1      -6.199   0.948   4.220  1.00  0.00     0.219 C 
BRANCH  85  86
ATOM     86  N   UNL     1      -6.540   1.983   3.267  1.00  0.00    -0.312 N 
ATOM     87  C   UNL     1      -7.737   2.143   2.635  1.00  0.00     0.407 C 
ATOM     88  H   UNL     1      -5.836   2.638   3.054  1.00  0.00     0.167 HD
ATOM     89  O   UNL     1      -7.837   2.922   1.696  1.00  0.00    -0.225 OA
BRANCH  87  90
ATOM     90  O   UNL     1      -8.687   1.278   3.078  1.00  0.00    -0.445 OA
BRANCH  90  91
ATOM     91  C   UNL     1      -9.924   1.161   2.333  1.00  0.00     0.270 C 
BRANCH  91  92
ATOM     92  C   UNL     1     -10.660   2.468   2.276  1.00  0.00    -0.011 A 
ATOM     93  C   UNL     1     -11.536   2.743   1.222  1.00  0.00     0.007 A 
ATOM     94  C   UNL     1     -10.361   3.472   3.208  1.00  0.00     0.007 A 
ATOM     95  C   UNL     1     -12.005   4.043   1.042  1.00  0.00     0.000 A 
ATOM     96  C   UNL     1     -10.771   4.776   2.987  1.00  0.00     0.000 A 
ATOM     97  C   UNL     1     -11.586   5.063   1.899  1.00  0.00     0.000 A 
ENDBRANCH  91  92
ENDBRANCH  90  91
ENDBRANCH  87  90
ENDBRANCH  85  86
ENDBRANCH  82  85
ENDBRANCH  79  81
ENDBRANCH  76  79
ENDBRANCH  74  75
BRANCH  74  98
ATOM     98  C   UNL     1      -5.581  -2.882  -2.653  1.00  0.00     0.015 C 
ATOM     99  C   UNL     1      -4.321  -3.329  -3.448  1.00  0.00     0.010 C 
ATOM    100  C   UNL     1      -6.504  -2.149  -3.655  1.00  0.00     0.010 C 
ENDBRANCH  74  98
ENDBRANCH   2  74
TORSDOF 24
