REMARK SMILES C[C@@H]1[C@@H](C(=O)OCCOC(=O)c2ccc(-c3c4nc(c(-c5c(F)cccc5F)c5ccc([nH]5)c(-c5c(F)cccc5F)c5nc(c(-c6c(F)cccc6F)c6ccc3[nH]6)C=C5)C=C4)cc2)CC[N@H+]1[C@H]1CC[C@@H](C(F)(F)F)CC1
REMARK SMILES IDX 7 1 6 2 4 3 5 4 3 5 1 6 2 7 68 8 66 9 67 10 69 12 70 13
REMARK SMILES IDX 78 14 71 15 77 16 72 17 73 18 74 19 75 20 76 21 8 22 9 23
REMARK SMILES IDX 10 24 11 25 12 26 13 27 65 28 14 29 64 30 15 31 16 32 17 33
REMARK SMILES IDX 58 34 18 35 63 36 57 37 59 38 19 39 62 40 56 41 55 42 20 44
REMARK SMILES IDX 46 45 29 46 45 47 30 48 33 49 44 50 60 51 31 52 32 53 43 55
REMARK SMILES IDX 61 56 34 57 21 58 22 59 27 60 23 61 24 62 26 63 28 64 25 65
REMARK SMILES IDX 47 66 48 67 53 68 49 69 50 70 52 71 54 72 51 73 35 74 36 75
REMARK SMILES IDX 41 76 37 77 38 78 40 79 42 80 39 81
REMARK H PARENT 68 11 59 43 33 54
REMARK Flexibility Score: inf
ROOT
ATOM      1  C   UNL     1      -2.270   2.110  -3.686  1.00  0.00     0.274 C 
ENDROOT
BRANCH   1   2
ATOM      2  O   UNL     1      -1.866   2.048  -2.304  1.00  0.00    -0.462 OA
BRANCH   2   3
ATOM      3  C   UNL     1      -1.272   0.895  -1.885  1.00  0.00     0.315 C 
ATOM      4  O   UNL     1      -1.107  -0.102  -2.573  1.00  0.00    -0.252 OA
BRANCH   3   5
ATOM      5  C   UNL     1      -0.850   1.038  -0.435  1.00  0.00     0.162 C 
ATOM      6  C   UNL     1       1.483   0.945   0.495  1.00  0.00     0.076 C 
ATOM      7  C   UNL     1       0.325   0.108  -0.059  1.00  0.00     0.195 C 
ATOM      8  N   UNL     1      -0.220  -0.751   0.985  1.00  0.00    -0.330 N 
ATOM      9  C   UNL     1      -1.985   0.633   0.498  1.00  0.00     0.083 C 
ATOM     10  C   UNL     1      -1.665  -0.808   0.857  1.00  0.00     0.263 C 
ATOM     11  H   UNL     1       0.053  -0.268   1.840  1.00  0.00     0.348 HD
BRANCH   8  12
ATOM     12  C   UNL     1       0.459  -1.958   1.446  1.00  0.00     0.184 C 
ATOM     13  C   UNL     1       1.605  -2.523   0.578  1.00  0.00     0.066 C 
ATOM     14  C   UNL     1       0.927  -1.615   2.870  1.00  0.00     0.066 C 
ATOM     15  C   UNL     1       2.406  -3.622   1.290  1.00  0.00     0.019 C 
ATOM     16  C   UNL     1       1.709  -2.739   3.533  1.00  0.00     0.019 C 
ATOM     17  C   UNL     1       2.892  -3.227   2.693  1.00  0.00     0.095 C 
BRANCH  17  18
ATOM     18  C   UNL     1       4.048  -2.228   2.663  1.00  0.00     0.391 C 
ATOM     19  F   UNL     1       4.435  -1.905   3.919  1.00  0.00    -0.171 F 
ATOM     20  F   UNL     1       5.121  -2.762   2.038  1.00  0.00    -0.171 F 
ATOM     21  F   UNL     1       3.739  -1.082   2.028  1.00  0.00    -0.171 F 
ENDBRANCH  17  18
ENDBRANCH   8  12
ENDBRANCH   3   5
ENDBRANCH   2   3
ENDBRANCH   1   2
BRANCH   1  22
ATOM     22  C   UNL     1      -1.305   2.992  -4.477  1.00  0.00     0.275 C 
BRANCH  22  23
ATOM     23  O   UNL     1      -0.023   2.345  -4.587  1.00  0.00    -0.458 OA
BRANCH  23  24
ATOM     24  C   UNL     1       0.998   2.940  -3.935  1.00  0.00     0.338 C 
ATOM     25  O   UNL     1       0.979   3.984  -3.301  1.00  0.00    -0.246 OA
BRANCH  24  26
ATOM     26  C   UNL     1       2.185   2.079  -4.013  1.00  0.00     0.060 A 
ATOM     27  C   UNL     1       2.319   1.064  -3.068  1.00  0.00     0.016 A 
ATOM     28  C   UNL     1       3.211   2.335  -4.919  1.00  0.00     0.016 A 
ATOM     29  C   UNL     1       3.498   0.329  -2.980  1.00  0.00     0.010 A 
ATOM     30  C   UNL     1       4.374   1.556  -4.871  1.00  0.00     0.010 A 
ATOM     31  C   UNL     1       4.541   0.562  -3.885  1.00  0.00    -0.014 A 
BRANCH  31  32
ATOM     32  C   UNL     1       5.823  -0.184  -3.765  1.00  0.00     0.031 A 
ATOM     33  C   UNL     1       7.094   0.555  -3.446  1.00  0.00     0.074 A 
ATOM     34  C   UNL     1       5.861  -1.523  -3.916  1.00  0.00     0.049 A 
ATOM     35  N   UNL     1       8.333   0.133  -3.485  1.00  0.00    -0.248 NA
ATOM     36  C   UNL     1       6.951   1.959  -3.031  1.00  0.00     0.031 C 
ATOM     37  C   UNL     1       4.704  -2.386  -4.153  1.00  0.00     0.029 A 
ATOM     38  N   UNL     1       6.924  -2.393  -3.888  1.00  0.00    -0.354 N 
ATOM     39  C   UNL     1       9.118   1.228  -3.146  1.00  0.00     0.074 A 
ATOM     40  C   UNL     1       8.216   2.335  -2.905  1.00  0.00     0.031 C 
ATOM     41  C   UNL     1       5.116  -3.662  -4.227  1.00  0.00     0.029 A 
ATOM     42  C   UNL     1       6.571  -3.701  -4.119  1.00  0.00     0.049 A 
ATOM     43  H   UNL     1       7.851  -2.107  -3.718  1.00  0.00     0.167 HD
ATOM     44  C   UNL     1      10.466   1.305  -3.046  1.00  0.00     0.037 A 
ATOM     45  C   UNL     1       7.334  -4.801  -4.270  1.00  0.00     0.037 A 
ATOM     46  C   UNL     1      11.364   0.196  -3.236  1.00  0.00     0.049 A 
ATOM     47  C   UNL     1       8.831  -4.680  -4.212  1.00  0.00     0.074 A 
ATOM     48  C   UNL     1      12.747   0.182  -3.171  1.00  0.00     0.029 A 
ATOM     49  N   UNL     1      10.965  -1.103  -3.507  1.00  0.00    -0.354 N 
ATOM     50  N   UNL     1       9.568  -3.622  -3.976  1.00  0.00    -0.248 NA
ATOM     51  C   UNL     1       9.604  -5.905  -4.466  1.00  0.00     0.031 C 
ATOM     52  C   UNL     1      13.187  -1.122  -3.426  1.00  0.00     0.029 A 
ATOM     53  C   UNL     1      12.075  -1.925  -3.617  1.00  0.00     0.049 A 
ATOM     54  H   UNL     1      10.031  -1.399  -3.607  1.00  0.00     0.167 HD
ATOM     55  C   UNL     1      10.886  -4.055  -4.039  1.00  0.00     0.074 A 
ATOM     56  C   UNL     1      10.849  -5.475  -4.320  1.00  0.00     0.031 C 
ATOM     57  C   UNL     1      12.024  -3.338  -3.885  1.00  0.00     0.037 A 
BRANCH  44  58
ATOM     58  C   UNL     1      11.060   2.648  -2.745  1.00  0.00     0.057 A 
ATOM     59  C   UNL     1      11.016   3.209  -1.464  1.00  0.00     0.134 A 
ATOM     60  C   UNL     1      11.715   3.373  -3.749  1.00  0.00     0.134 A 
ATOM     61  F   UNL     1      10.390   2.571  -0.464  1.00  0.00    -0.206 F 
ATOM     62  C   UNL     1      11.588   4.454  -1.195  1.00  0.00     0.040 A 
ATOM     63  C   UNL     1      12.309   4.608  -3.487  1.00  0.00     0.040 A 
ATOM     64  F   UNL     1      11.796   2.888  -4.997  1.00  0.00    -0.206 F 
ATOM     65  C   UNL     1      12.242   5.154  -2.207  1.00  0.00     0.006 A 
ENDBRANCH  44  58
BRANCH  45  66
ATOM     66  C   UNL     1       6.699  -6.115  -4.541  1.00  0.00     0.057 A 
ATOM     67  C   UNL     1       6.722  -7.138  -3.587  1.00  0.00     0.134 A 
ATOM     68  C   UNL     1       6.078  -6.386  -5.766  1.00  0.00     0.134 A 
ATOM     69  F   UNL     1       7.328  -6.947  -2.406  1.00  0.00    -0.206 F 
ATOM     70  C   UNL     1       6.161  -8.390  -3.845  1.00  0.00     0.040 A 
ATOM     71  C   UNL     1       5.491  -7.624  -6.029  1.00  0.00     0.040 A 
ATOM     72  F   UNL     1       6.027  -5.448  -6.723  1.00  0.00    -0.206 F 
ATOM     73  C   UNL     1       5.537  -8.633  -5.068  1.00  0.00     0.006 A 
ENDBRANCH  45  66
BRANCH  57  74
ATOM     74  C   UNL     1      13.321  -4.083  -3.984  1.00  0.00     0.057 A 
ATOM     75  C   UNL     1      13.842  -4.493  -5.217  1.00  0.00     0.134 A 
ATOM     76  C   UNL     1      14.071  -4.365  -2.835  1.00  0.00     0.134 A 
ATOM     77  F   UNL     1      13.164  -4.265  -6.351  1.00  0.00    -0.206 F 
ATOM     78  C   UNL     1      15.058  -5.173  -5.303  1.00  0.00     0.040 A 
ATOM     79  C   UNL     1      15.296  -5.027  -2.910  1.00  0.00     0.040 A 
ATOM     80  F   UNL     1      13.628  -3.994  -1.625  1.00  0.00    -0.206 F 
ATOM     81  C   UNL     1      15.791  -5.437  -4.147  1.00  0.00     0.006 A 
ENDBRANCH  57  74
ENDBRANCH  31  32
ENDBRANCH  24  26
ENDBRANCH  23  24
ENDBRANCH  22  23
ENDBRANCH   1  22
TORSDOF 13
