REMARK SMILES CCCOC(=O)c1c(NC(=O)[C@@H]2CC=CC[C@H]2C(=O)OCCOC(=O)c2ccc(-c3c4nc(c(-c5c(F)cccc5F)c5ccc([nH]5)c(-c5c(F)cccc5F)c5nc(c(-c6c(F)cccc6F)c6ccc3[nH]6)C=C5)C=C4)cc2)sc2c1CCCC2
REMARK SMILES IDX 18 1 19 2 17 3 12 4 13 5 14 6 16 7 15 8 10 9 9 10 11 12 8 13
REMARK SMILES IDX 7 14 82 15 80 16 81 17 83 18 86 19 84 20 85 21 5 22 6 23
REMARK SMILES IDX 4 24 3 25 2 26 1 27 20 28 21 29 22 30 23 31 24 32 25 33
REMARK SMILES IDX 26 34 27 35 79 36 28 37 78 38 29 39 30 40 31 41 72 42 32 43
REMARK SMILES IDX 77 44 71 45 73 46 33 47 76 48 70 49 69 50 34 52 60 53 43 54
REMARK SMILES IDX 59 55 44 56 47 57 58 58 74 59 45 60 46 61 57 63 75 64 48 65
REMARK SMILES IDX 35 66 36 67 41 68 37 69 38 70 40 71 42 72 39 73 61 74 62 75
REMARK SMILES IDX 67 76 63 77 64 78 66 79 68 80 65 81 49 82 50 83 55 84 51 85
REMARK SMILES IDX 52 86 54 87 56 88 53 89
REMARK H PARENT 9 11 73 51 47 62
REMARK Flexibility Score: inf
ROOT
ATOM      1  C   UNL     1       0.161   3.167   3.073  1.00  0.00     0.310 C 
ATOM      2  O   UNL     1       0.784   3.627   4.024  1.00  0.00    -0.252 OA
ENDROOT
BRANCH   1   3
ATOM      3  C   UNL     1       0.862   2.552   1.870  1.00  0.00     0.116 C 
ATOM      4  C   UNL     1       0.070   1.410   1.202  1.00  0.00     0.097 C 
ATOM      5  C   UNL     1      -0.129   1.428  -0.308  1.00  0.00     0.041 C 
ATOM      6  C   UNL     1       0.481   2.565  -1.018  1.00  0.00    -0.030 C 
ATOM      7  C   UNL     1       1.165   3.795   1.026  1.00  0.00     0.043 C 
ATOM      8  C   UNL     1       1.058   3.617  -0.439  1.00  0.00    -0.030 C 
BRANCH   4   9
ATOM      9  C   UNL     1       0.487  -0.009   1.517  1.00  0.00     0.229 C 
ATOM     10  N   UNL     1       1.665  -0.620   1.315  1.00  0.00    -0.317 N 
ATOM     11  H   UNL     1       1.539  -1.595   1.266  1.00  0.00     0.170 HD
ATOM     12  O   UNL     1      -0.393  -0.777   1.942  1.00  0.00    -0.274 OA
BRANCH  10  13
ATOM     13  C   UNL     1       2.987  -0.308   1.156  1.00  0.00     0.110 A 
ATOM     14  C   UNL     1       3.894   0.668   0.770  1.00  0.00     0.098 A 
ATOM     15  C   UNL     1       5.155   0.424   1.502  1.00  0.00    -0.017 A 
ATOM     16  S   UNL     1       3.812  -1.710   1.759  1.00  0.00    -0.122 S 
ATOM     17  C   UNL     1       5.176  -0.803   2.132  1.00  0.00     0.011 A 
ATOM     18  C   UNL     1       6.318   1.375   1.647  1.00  0.00     0.038 C 
ATOM     19  C   UNL     1       6.269  -1.340   3.003  1.00  0.00     0.047 C 
ATOM     20  C   UNL     1       7.545   0.722   2.315  1.00  0.00     0.005 C 
ATOM     21  C   UNL     1       7.154  -0.188   3.487  1.00  0.00     0.006 C 
BRANCH  14  22
ATOM     22  C   UNL     1       3.749   1.852  -0.087  1.00  0.00     0.341 C 
ATOM     23  O   UNL     1       4.183   2.943   0.277  1.00  0.00    -0.246 OA
BRANCH  22  24
ATOM     24  O   UNL     1       3.336   1.607  -1.384  1.00  0.00    -0.462 OA
BRANCH  24  25
ATOM     25  C   UNL     1       3.713   2.659  -2.318  1.00  0.00     0.233 C 
BRANCH  25  26
ATOM     26  C   UNL     1       2.922   2.663  -3.643  1.00  0.00     0.038 C 
ATOM     27  C   UNL     1       1.946   3.834  -3.831  1.00  0.00     0.007 C 
ENDBRANCH  25  26
ENDBRANCH  24  25
ENDBRANCH  22  24
ENDBRANCH  14  22
ENDBRANCH  10  13
ENDBRANCH   4   9
ENDBRANCH   1   3
BRANCH   1  28
ATOM     28  O   UNL     1      -1.185   3.264   2.911  1.00  0.00    -0.462 OA
BRANCH  28  29
ATOM     29  C   UNL     1      -1.901   3.817   4.028  1.00  0.00     0.274 C 
BRANCH  29  30
ATOM     30  C   UNL     1      -2.321   2.707   4.989  1.00  0.00     0.275 C 
BRANCH  30  31
ATOM     31  O   UNL     1      -1.169   1.936   5.387  1.00  0.00    -0.458 OA
BRANCH  31  32
ATOM     32  C   UNL     1      -1.196   0.626   5.046  1.00  0.00     0.338 C 
ATOM     33  O   UNL     1      -2.132   0.022   4.551  1.00  0.00    -0.246 OA
BRANCH  32  34
ATOM     34  C   UNL     1       0.082  -0.032   5.399  1.00  0.00     0.060 A 
ATOM     35  C   UNL     1       1.311   0.462   4.964  1.00  0.00     0.016 A 
ATOM     36  C   UNL     1       0.039  -1.236   6.099  1.00  0.00     0.016 A 
ATOM     37  C   UNL     1       2.481  -0.274   5.159  1.00  0.00     0.010 A 
ATOM     38  C   UNL     1       1.226  -1.921   6.385  1.00  0.00     0.010 A 
ATOM     39  C   UNL     1       2.463  -1.464   5.897  1.00  0.00    -0.014 A 
BRANCH  39  40
ATOM     40  C   UNL     1       3.718  -2.234   6.140  1.00  0.00     0.031 A 
ATOM     41  C   UNL     1       3.815  -3.684   5.738  1.00  0.00     0.074 A 
ATOM     42  C   UNL     1       4.789  -1.648   6.715  1.00  0.00     0.049 A 
ATOM     43  N   UNL     1       4.734  -4.567   6.043  1.00  0.00    -0.248 NA
ATOM     44  C   UNL     1       2.734  -4.216   4.894  1.00  0.00     0.031 C 
ATOM     45  C   UNL     1       4.880  -0.244   7.117  1.00  0.00     0.029 A 
ATOM     46  N   UNL     1       6.019  -2.164   7.051  1.00  0.00    -0.354 N 
ATOM     47  C   UNL     1       4.300  -5.771   5.503  1.00  0.00     0.074 A 
ATOM     48  C   UNL     1       3.049  -5.502   4.826  1.00  0.00     0.031 C 
ATOM     49  C   UNL     1       6.111   0.003   7.587  1.00  0.00     0.029 A 
ATOM     50  C   UNL     1       6.866  -1.245   7.622  1.00  0.00     0.049 A 
ATOM     51  H   UNL     1       6.270  -3.104   6.895  1.00  0.00     0.167 HD
ATOM     52  C   UNL     1       4.882  -6.992   5.580  1.00  0.00     0.037 A 
ATOM     53  C   UNL     1       8.093  -1.387   8.161  1.00  0.00     0.037 A 
ATOM     54  C   UNL     1       6.161  -7.255   6.188  1.00  0.00     0.049 A 
ATOM     55  C   UNL     1       8.717  -2.752   8.234  1.00  0.00     0.074 A 
ATOM     56  C   UNL     1       6.837  -8.460   6.284  1.00  0.00     0.029 A 
ATOM     57  N   UNL     1       6.966  -6.299   6.786  1.00  0.00    -0.354 N 
ATOM     58  N   UNL     1       8.264  -3.893   7.778  1.00  0.00    -0.248 NA
ATOM     59  C   UNL     1      10.010  -2.851   8.928  1.00  0.00     0.031 C 
ATOM     60  C   UNL     1       8.035  -8.240   6.972  1.00  0.00     0.029 A 
ATOM     61  C   UNL     1       8.123  -6.890   7.267  1.00  0.00     0.049 A 
ATOM     62  H   UNL     1       6.748  -5.341   6.859  1.00  0.00     0.167 HD
ATOM     63  C   UNL     1       9.209  -4.846   8.137  1.00  0.00     0.074 A 
ATOM     64  C   UNL     1      10.281  -4.143   8.810  1.00  0.00     0.031 C 
ATOM     65  C   UNL     1       9.181  -6.186   7.943  1.00  0.00     0.037 A 
BRANCH  52  66
ATOM     66  C   UNL     1       4.122  -8.165   5.034  1.00  0.00     0.057 A 
ATOM     67  C   UNL     1       4.016  -8.418   3.663  1.00  0.00     0.134 A 
ATOM     68  C   UNL     1       3.550  -9.097   5.912  1.00  0.00     0.134 A 
ATOM     69  F   UNL     1       4.533  -7.559   2.771  1.00  0.00    -0.206 F 
ATOM     70  C   UNL     1       3.359  -9.553   3.182  1.00  0.00     0.040 A 
ATOM     71  C   UNL     1       2.911 -10.245   5.444  1.00  0.00     0.040 A 
ATOM     72  F   UNL     1       3.623  -8.916   7.239  1.00  0.00    -0.206 F 
ATOM     73  C   UNL     1       2.813 -10.475   4.074  1.00  0.00     0.006 A 
ENDBRANCH  52  66
BRANCH  53  74
ATOM     74  C   UNL     1       8.798  -0.209   8.729  1.00  0.00     0.057 A 
ATOM     75  C   UNL     1       9.962   0.288   8.134  1.00  0.00     0.134 A 
ATOM     76  C   UNL     1       8.336   0.436   9.883  1.00  0.00     0.134 A 
ATOM     77  F   UNL     1      10.470  -0.305   7.044  1.00  0.00    -0.206 F 
ATOM     78  C   UNL     1      10.647   1.380   8.670  1.00  0.00     0.040 A 
ATOM     79  C   UNL     1       8.992   1.548  10.411  1.00  0.00     0.040 A 
ATOM     80  F   UNL     1       7.228   0.005  10.503  1.00  0.00    -0.206 F 
ATOM     81  C   UNL     1      10.156   2.019   9.807  1.00  0.00     0.006 A 
ENDBRANCH  53  74
BRANCH  65  82
ATOM     82  C   UNL     1      10.345  -6.978   8.461  1.00  0.00     0.057 A 
ATOM     83  C   UNL     1      10.524  -7.207   9.832  1.00  0.00     0.134 A 
ATOM     84  C   UNL     1      11.284  -7.534   7.584  1.00  0.00     0.134 A 
ATOM     85  F   UNL     1       9.666  -6.689  10.725  1.00  0.00    -0.206 F 
ATOM     86  C   UNL     1      11.609  -7.940  10.313  1.00  0.00     0.040 A 
ATOM     87  C   UNL     1      12.361  -8.289   8.052  1.00  0.00     0.040 A 
ATOM     88  F   UNL     1      11.168  -7.359   6.260  1.00  0.00    -0.206 F 
ATOM     89  C   UNL     1      12.529  -8.488   9.421  1.00  0.00     0.006 A 
ENDBRANCH  65  82
ENDBRANCH  39  40
ENDBRANCH  32  34
ENDBRANCH  31  32
ENDBRANCH  30  31
ENDBRANCH  29  30
ENDBRANCH  28  29
ENDBRANCH   1  28
TORSDOF 17
