REMARK SMILES NS(=O)(=O)c1ccc(-n2nc(NC(=O)NCCCCCCCCCCC(=O)OCCOC(=O)c3ccc(-c4c5nc(c(-c6c(F)cccc6F)c6ccc([nH]6)c(-c6c(F)cccc6F)c6nc(c(-c7c(F)cccc7F)c7ccc4[nH]7)C=C6)C=C5)cc3)cc2-c2ccccc2)cc1
REMARK SMILES IDX 22 1 21 2 20 3 19 4 18 5 17 6 16 7 15 8 12 9 13 10 14 12
REMARK SMILES IDX 11 14 9 15 10 16 89 17 88 18 8 19 5 20 6 21 97 22 7 23 96 24
REMARK SMILES IDX 2 25 3 26 4 27 1 28 90 31 91 32 95 33 92 34 94 35 93 36
REMARK SMILES IDX 23 37 24 38 25 39 26 40 27 41 28 42 29 43 30 44 31 45 32 46
REMARK SMILES IDX 33 47 34 48 35 49 87 50 36 51 86 52 37 53 38 54 39 55 80 56
REMARK SMILES IDX 40 57 85 58 79 59 81 60 41 61 84 62 78 63 77 64 42 66 68 67
REMARK SMILES IDX 51 68 67 69 52 70 55 71 66 72 82 73 53 74 54 75 65 77 83 78
REMARK SMILES IDX 56 79 43 80 44 81 49 82 45 83 46 84 48 85 50 86 47 87 69 88
REMARK SMILES IDX 70 89 75 90 71 91 72 92 74 93 76 94 73 95 57 96 58 97 63 98
REMARK SMILES IDX 59 99 60 100 62 101 64 102 61 103
REMARK H PARENT 12 11 15 13 1 29 1 30 81 65 55 76
REMARK Flexibility Score: inf
ROOT
ATOM      1  C   UNL     1      -3.478   1.941   5.915  1.00  0.00     0.000 C 
ENDROOT
BRANCH   1   2
ATOM      2  C   UNL     1      -2.527   0.794   5.596  1.00  0.00     0.000 C 
BRANCH   2   3
ATOM      3  C   UNL     1      -1.352   0.696   6.568  1.00  0.00     0.000 C 
BRANCH   3   4
ATOM      4  C   UNL     1      -1.744   0.548   8.043  1.00  0.00     0.000 C 
BRANCH   4   5
ATOM      5  C   UNL     1      -2.642  -0.656   8.350  1.00  0.00     0.002 C 
BRANCH   5   6
ATOM      6  C   UNL     1      -2.151  -1.996   7.799  1.00  0.00     0.021 C 
BRANCH   6   7
ATOM      7  C   UNL     1      -0.701  -2.332   8.114  1.00  0.00     0.117 C 
BRANCH   7   8
ATOM      8  N   UNL     1      -0.440  -2.658   9.497  1.00  0.00    -0.338 N 
ATOM      9  N   UNL     1       1.450  -4.094   9.296  1.00  0.00    -0.291 N 
ATOM     10  C   UNL     1       0.497  -3.473  10.027  1.00  0.00     0.320 C 
ATOM     11  H   UNL     1       1.822  -4.899   9.724  1.00  0.00     0.173 HD
ATOM     12  O   UNL     1       0.403  -3.749  11.227  1.00  0.00    -0.248 OA
ATOM     13  H   UNL     1      -1.032  -2.220  10.150  1.00  0.00     0.165 HD
BRANCH   9  14
ATOM     14  C   UNL     1       1.998  -3.809   8.066  1.00  0.00     0.157 A 
ATOM     15  N   UNL     1       2.286  -2.889   6.181  1.00  0.00    -0.231 N 
ATOM     16  N   UNL     1       1.985  -2.617   7.467  1.00  0.00    -0.149 NA
ATOM     17  C   UNL     1       2.943  -4.108   6.069  1.00  0.00     0.076 A 
ATOM     18  C   UNL     1       2.710  -4.743   7.276  1.00  0.00     0.078 A 
BRANCH  15  19
ATOM     19  C   UNL     1       1.841  -2.024   5.143  1.00  0.00     0.065 A 
ATOM     20  C   UNL     1       0.967  -0.333   3.107  1.00  0.00     0.082 A 
ATOM     21  C   UNL     1       0.938  -1.715   2.912  1.00  0.00     0.024 A 
ATOM     22  C   UNL     1       1.410   0.210   4.317  1.00  0.00     0.024 A 
ATOM     23  C   UNL     1       1.385  -2.560   3.928  1.00  0.00     0.030 A 
ATOM     24  C   UNL     1       1.823  -0.639   5.350  1.00  0.00     0.030 A 
BRANCH  20  25
ATOM     25  S   UNL     1       0.466   0.743   1.796  1.00  0.00     0.238 S 
ATOM     26  O   UNL     1       1.117   2.020   1.958  1.00  0.00    -0.207 OA
ATOM     27  O   UNL     1      -0.960   0.606   1.611  1.00  0.00    -0.207 OA
BRANCH  25  28
ATOM     28  N   UNL     1       1.187   0.052   0.442  1.00  0.00    -0.225 NA
ATOM     29  H   UNL     1       0.958   0.605  -0.384  1.00  0.00     0.137 HD
ATOM     30  H   UNL     1       0.842  -0.899   0.321  1.00  0.00     0.137 HD
ENDBRANCH  25  28
ENDBRANCH  20  25
ENDBRANCH  15  19
BRANCH  17  31
ATOM     31  C   UNL     1       3.694  -4.508   4.885  1.00  0.00     0.000 A 
ATOM     32  C   UNL     1       4.638  -3.622   4.341  1.00  0.00     0.010 A 
ATOM     33  C   UNL     1       3.433  -5.715   4.231  1.00  0.00     0.010 A 
ATOM     34  C   UNL     1       5.274  -3.912   3.137  1.00  0.00     0.001 A 
ATOM     35  C   UNL     1       4.075  -6.005   3.024  1.00  0.00     0.001 A 
ATOM     36  C   UNL     1       4.986  -5.101   2.474  1.00  0.00     0.000 A 
ENDBRANCH  17  31
ENDBRANCH   9  14
ENDBRANCH   7   8
ENDBRANCH   6   7
ENDBRANCH   5   6
ENDBRANCH   4   5
ENDBRANCH   3   4
ENDBRANCH   2   3
ENDBRANCH   1   2
BRANCH   1  37
ATOM     37  C   UNL     1      -2.817   3.309   5.752  1.00  0.00     0.001 C 
BRANCH  37  38
ATOM     38  C   UNL     1      -2.546   3.678   4.288  1.00  0.00     0.012 C 
BRANCH  38  39
ATOM     39  C   UNL     1      -3.743   3.603   3.333  1.00  0.00     0.123 C 
BRANCH  39  40
ATOM     40  C   UNL     1      -4.967   4.434   3.670  1.00  0.00     0.305 C 
ATOM     41  O   UNL     1      -5.574   5.097   2.837  1.00  0.00    -0.252 OA
BRANCH  40  42
ATOM     42  O   UNL     1      -5.340   4.308   4.969  1.00  0.00    -0.462 OA
BRANCH  42  43
ATOM     43  C   UNL     1      -6.375   5.179   5.457  1.00  0.00     0.274 C 
BRANCH  43  44
ATOM     44  C   UNL     1      -5.804   6.501   5.953  1.00  0.00     0.275 C 
BRANCH  44  45
ATOM     45  O   UNL     1      -5.270   7.261   4.870  1.00  0.00    -0.458 OA
BRANCH  45  46
ATOM     46  C   UNL     1      -3.931   7.161   4.730  1.00  0.00     0.338 C 
ATOM     47  O   UNL     1      -3.178   6.418   5.332  1.00  0.00    -0.246 OA
BRANCH  46  48
ATOM     48  C   UNL     1      -3.439   8.233   3.871  1.00  0.00     0.060 A 
ATOM     49  C   UNL     1      -2.168   8.094   3.303  1.00  0.00     0.016 A 
ATOM     50  C   UNL     1      -4.112   9.458   3.911  1.00  0.00     0.016 A 
ATOM     51  C   UNL     1      -1.503   9.235   2.906  1.00  0.00     0.010 A 
ATOM     52  C   UNL     1      -3.441  10.594   3.533  1.00  0.00     0.010 A 
ATOM     53  C   UNL     1      -2.122  10.475   3.101  1.00  0.00    -0.014 A 
BRANCH  53  54
ATOM     54  C   UNL     1      -1.394  11.673   2.742  1.00  0.00     0.031 A 
ATOM     55  C   UNL     1      -1.295  11.865   1.281  1.00  0.00     0.074 A 
ATOM     56  C   UNL     1      -1.008  12.586   3.654  1.00  0.00     0.049 A 
ATOM     57  N   UNL     1      -0.232  11.827   0.553  1.00  0.00    -0.248 NA
ATOM     58  C   UNL     1      -2.549  11.956   0.512  1.00  0.00     0.031 C 
ATOM     59  C   UNL     1      -1.373  12.620   5.075  1.00  0.00     0.029 A 
ATOM     60  N   UNL     1      -0.312  13.745   3.485  1.00  0.00    -0.354 N 
ATOM     61  C   UNL     1      -0.660  12.129  -0.734  1.00  0.00     0.074 A 
ATOM     62  C   UNL     1      -2.091  11.994  -0.740  1.00  0.00     0.031 C 
ATOM     63  C   UNL     1      -1.105  13.848   5.571  1.00  0.00     0.029 A 
ATOM     64  C   UNL     1      -0.423  14.628   4.551  1.00  0.00     0.049 A 
ATOM     65  H   UNL     1       0.221  13.940   2.681  1.00  0.00     0.167 HD
ATOM     66  C   UNL     1       0.165  12.786  -1.591  1.00  0.00     0.037 A 
ATOM     67  C   UNL     1      -0.038  15.926   4.565  1.00  0.00     0.037 A 
ATOM     68  C   UNL     1       1.521  12.786  -1.110  1.00  0.00     0.049 A 
ATOM     69  C   UNL     1       0.959  16.119   3.487  1.00  0.00     0.074 A 
ATOM     70  C   UNL     1       2.573  11.901  -1.060  1.00  0.00     0.029 A 
ATOM     71  N   UNL     1       1.780  13.787  -0.215  1.00  0.00    -0.354 N 
ATOM     72  N   UNL     1       2.147  15.581   3.495  1.00  0.00    -0.248 NA
ATOM     73  C   UNL     1       0.530  16.660   2.200  1.00  0.00     0.031 C 
ATOM     74  C   UNL     1       3.421  12.348  -0.002  1.00  0.00     0.029 A 
ATOM     75  C   UNL     1       2.877  13.505   0.551  1.00  0.00     0.049 A 
ATOM     76  H   UNL     1       1.243  14.608  -0.132  1.00  0.00     0.167 HD
ATOM     77  C   UNL     1       2.414  15.326   2.165  1.00  0.00     0.074 A 
ATOM     78  C   UNL     1       1.494  16.171   1.416  1.00  0.00     0.031 C 
ATOM     79  C   UNL     1       3.105  14.210   1.793  1.00  0.00     0.037 A 
BRANCH  66  80
ATOM     80  C   UNL     1      -0.298  13.852  -2.556  1.00  0.00     0.057 A 
ATOM     81  C   UNL     1       0.608  14.339  -3.514  1.00  0.00     0.134 A 
ATOM     82  C   UNL     1      -1.459  14.633  -2.375  1.00  0.00     0.134 A 
ATOM     83  F   UNL     1       1.764  13.702  -3.753  1.00  0.00    -0.206 F 
ATOM     84  C   UNL     1       0.396  15.541  -4.201  1.00  0.00     0.040 A 
ATOM     85  C   UNL     1      -1.704  15.805  -3.094  1.00  0.00     0.040 A 
ATOM     86  F   UNL     1      -2.359  14.370  -1.419  1.00  0.00    -0.206 F 
ATOM     87  C   UNL     1      -0.762  16.279  -3.990  1.00  0.00     0.006 A 
ENDBRANCH  66  80
BRANCH  67  88
ATOM     88  C   UNL     1      -0.661  17.067   5.272  1.00  0.00     0.057 A 
ATOM     89  C   UNL     1       0.029  18.276   5.441  1.00  0.00     0.134 A 
ATOM     90  C   UNL     1      -2.040  17.099   5.547  1.00  0.00     0.134 A 
ATOM     91  F   UNL     1       1.340  18.355   5.173  1.00  0.00    -0.206 F 
ATOM     92  C   UNL     1      -0.621  19.457   5.823  1.00  0.00     0.040 A 
ATOM     93  C   UNL     1      -2.699  18.269   5.936  1.00  0.00     0.040 A 
ATOM     94  F   UNL     1      -2.810  16.018   5.357  1.00  0.00    -0.206 F 
ATOM     95  C   UNL     1      -1.992  19.459   6.058  1.00  0.00     0.006 A 
ENDBRANCH  67  88
BRANCH  79  96
ATOM     96  C   UNL     1       4.019  13.594   2.804  1.00  0.00     0.057 A 
ATOM     97  C   UNL     1       3.599  12.981   3.991  1.00  0.00     0.134 A 
ATOM     98  C   UNL     1       5.389  13.565   2.521  1.00  0.00     0.134 A 
ATOM     99  F   UNL     1       2.299  12.895   4.306  1.00  0.00    -0.206 F 
ATOM    100  C   UNL     1       4.511  12.402   4.877  1.00  0.00     0.040 A 
ATOM    101  C   UNL     1       6.306  12.960   3.379  1.00  0.00     0.040 A 
ATOM    102  F   UNL     1       5.856  14.100   1.381  1.00  0.00    -0.206 F 
ATOM    103  C   UNL     1       5.870  12.386   4.569  1.00  0.00     0.006 A 
ENDBRANCH  79  96
ENDBRANCH  53  54
ENDBRANCH  46  48
ENDBRANCH  45  46
ENDBRANCH  44  45
ENDBRANCH  43  44
ENDBRANCH  42  43
ENDBRANCH  40  42
ENDBRANCH  39  40
ENDBRANCH  38  39
ENDBRANCH  37  38
ENDBRANCH   1  37
TORSDOF 26
