REMARK SMILES CC1(C)CN(C(=O)NC[C@H]2CC[C@H](C(=O)OCCOC(=O)c3ccc(-c4c5nc(c(-c6c(F)cccc6F)c6ccc([nH]6)c(-c6c(F)cccc6F)c6nc(c(-c7c(F)cccc7F)c7ccc4[nH]7)C=C6)C=C5)cc3)CC2)CCO1
REMARK SMILES IDX 17 1 16 2 14 3 15 4 13 5 10 6 11 7 77 8 12 9 76 10 9 11 8 12
REMARK SMILES IDX 6 13 7 14 5 16 1 17 2 18 3 19 4 20 80 21 79 22 78 23 18 24
REMARK SMILES IDX 19 25 20 26 21 27 22 28 23 29 75 30 24 31 74 32 25 33 26 34
REMARK SMILES IDX 27 35 68 36 28 37 73 38 67 39 69 40 29 41 72 42 66 43 65 44
REMARK SMILES IDX 30 46 56 47 39 48 55 49 40 50 43 51 54 52 70 53 41 54 42 55
REMARK SMILES IDX 53 57 71 58 44 59 31 60 32 61 37 62 33 63 34 64 36 65 38 66
REMARK SMILES IDX 35 67 57 68 58 69 63 70 59 71 60 72 62 73 64 74 61 75 45 76
REMARK SMILES IDX 46 77 51 78 47 79 48 80 50 81 52 82 49 83
REMARK H PARENT 8 15 69 45 43 56
REMARK Flexibility Score: inf
ROOT
ATOM      1  C   UNL     1       1.468  11.931  -1.562  1.00  0.00     0.274 C 
ENDROOT
BRANCH   1   2
ATOM      2  O   UNL     1       1.097  10.559  -1.785  1.00  0.00    -0.462 OA
BRANCH   2   3
ATOM      3  C   UNL     1       0.012  10.108  -1.104  1.00  0.00     0.309 C 
ATOM      4  O   UNL     1      -0.626  10.759  -0.285  1.00  0.00    -0.252 OA
BRANCH   3   5
ATOM      5  C   UNL     1      -0.327   8.665  -1.437  1.00  0.00     0.099 C 
ATOM      6  C   UNL     1       0.449   5.905  -2.147  1.00  0.00     0.008 C 
ATOM      7  C   UNL     1       0.023   6.270  -0.718  1.00  0.00     0.006 C 
ATOM      8  C   UNL     1      -0.288   6.799  -3.151  1.00  0.00     0.006 C 
ATOM      9  C   UNL     1       0.320   7.736  -0.412  1.00  0.00     0.015 C 
ATOM     10  C   UNL     1       0.016   8.270  -2.879  1.00  0.00     0.015 C 
BRANCH   6  11
ATOM     11  C   UNL     1       0.236   4.423  -2.477  1.00  0.00     0.121 C 
BRANCH  11  12
ATOM     12  N   UNL     1       1.284   3.605  -1.894  1.00  0.00    -0.338 N 
ATOM     13  C   UNL     1       1.564   3.012  -0.728  1.00  0.00     0.317 C 
ATOM     14  O   UNL     1       2.726   2.600  -0.638  1.00  0.00    -0.249 OA
ATOM     15  H   UNL     1       1.999   3.436  -2.550  1.00  0.00     0.165 HD
BRANCH  13  16
ATOM     16  N   UNL     1       0.668   2.833   0.279  1.00  0.00    -0.320 N 
ATOM     17  C   UNL     1       1.012  -0.219   0.161  1.00  0.00     0.044 C 
ATOM     18  C   UNL     1       0.449   0.606   1.329  1.00  0.00     0.080 C 
ATOM     19  C   UNL     1       0.711  -0.152   2.634  1.00  0.00     0.044 C 
ATOM     20  C   UNL     1       1.101   2.012   1.416  1.00  0.00     0.156 C 
ATOM     21  O   UNL     1      -0.993   0.720   1.217  1.00  0.00    -0.372 OA
ATOM     22  C   UNL     1      -1.430   1.599   0.165  1.00  0.00     0.182 C 
ATOM     23  C   UNL     1      -0.783   2.983   0.285  1.00  0.00     0.150 C 
ENDBRANCH  13  16
ENDBRANCH  11  12
ENDBRANCH   6  11
ENDBRANCH   3   5
ENDBRANCH   2   3
ENDBRANCH   1   2
BRANCH   1  24
ATOM     24  C   UNL     1       0.949  12.837  -2.681  1.00  0.00     0.275 C 
BRANCH  24  25
ATOM     25  O   UNL     1      -0.490  12.890  -2.689  1.00  0.00    -0.458 OA
BRANCH  25  26
ATOM     26  C   UNL     1      -1.093  12.079  -3.585  1.00  0.00     0.338 C 
ATOM     27  O   UNL     1      -0.559  11.356  -4.417  1.00  0.00    -0.246 OA
BRANCH  26  28
ATOM     28  C   UNL     1      -2.542  12.076  -3.351  1.00  0.00     0.060 A 
ATOM     29  C   UNL     1      -3.124  10.916  -2.834  1.00  0.00     0.016 A 
ATOM     30  C   UNL     1      -3.335  13.163  -3.720  1.00  0.00     0.016 A 
ATOM     31  C   UNL     1      -4.504  10.832  -2.681  1.00  0.00     0.010 A 
ATOM     32  C   UNL     1      -4.723  13.078  -3.568  1.00  0.00     0.010 A 
ATOM     33  C   UNL     1      -5.315  11.908  -3.058  1.00  0.00    -0.014 A 
BRANCH  33  34
ATOM     34  C   UNL     1      -6.788  11.779  -2.976  1.00  0.00     0.031 A 
ATOM     35  C   UNL     1      -7.586  11.567  -4.229  1.00  0.00     0.074 A 
ATOM     36  C   UNL     1      -7.402  11.824  -1.780  1.00  0.00     0.049 A 
ATOM     37  N   UNL     1      -8.884  11.528  -4.386  1.00  0.00    -0.248 NA
ATOM     38  C   UNL     1      -6.821  11.371  -5.470  1.00  0.00     0.031 C 
ATOM     39  C   UNL     1      -6.730  11.967  -0.489  1.00  0.00     0.029 A 
ATOM     40  N   UNL     1      -8.735  11.756  -1.461  1.00  0.00    -0.354 N 
ATOM     41  C   UNL     1      -9.094  11.330  -5.744  1.00  0.00     0.074 A 
ATOM     42  C   UNL     1      -7.790  11.261  -6.369  1.00  0.00     0.031 C 
ATOM     43  C   UNL     1      -7.655  11.978   0.485  1.00  0.00     0.029 A 
ATOM     44  C   UNL     1      -8.983  11.890  -0.117  1.00  0.00     0.049 A 
ATOM     45  H   UNL     1      -9.444  11.624  -2.130  1.00  0.00     0.167 HD
ATOM     46  C   UNL     1     -10.269  11.218  -6.407  1.00  0.00     0.037 A 
ATOM     47  C   UNL     1     -10.151  11.966   0.548  1.00  0.00     0.037 A 
ATOM     48  C   UNL     1     -11.563  11.267  -5.781  1.00  0.00     0.049 A 
ATOM     49  C   UNL     1     -11.441  11.895  -0.219  1.00  0.00     0.074 A 
ATOM     50  C   UNL     1     -12.812  11.157  -6.369  1.00  0.00     0.029 A 
ATOM     51  N   UNL     1     -11.774  11.437  -4.422  1.00  0.00    -0.354 N 
ATOM     52  N   UNL     1     -11.630  11.733  -1.506  1.00  0.00    -0.248 NA
ATOM     53  C   UNL     1     -12.682  12.029   0.558  1.00  0.00     0.031 C 
ATOM     54  C   UNL     1     -13.780  11.291  -5.368  1.00  0.00     0.029 A 
ATOM     55  C   UNL     1     -13.133  11.450  -4.153  1.00  0.00     0.049 A 
ATOM     56  H   UNL     1     -11.064  11.534  -3.747  1.00  0.00     0.167 HD
ATOM     57  C   UNL     1     -13.006  11.731  -1.692  1.00  0.00     0.074 A 
ATOM     58  C   UNL     1     -13.606  11.893  -0.384  1.00  0.00     0.031 C 
ATOM     59  C   UNL     1     -13.710  11.608  -2.843  1.00  0.00     0.037 A 
BRANCH  46  60
ATOM     60  C   UNL     1     -10.205  11.063  -7.896  1.00  0.00     0.057 A 
ATOM     61  C   UNL     1      -9.845   9.852  -8.499  1.00  0.00     0.134 A 
ATOM     62  C   UNL     1     -10.539  12.133  -8.736  1.00  0.00     0.134 A 
ATOM     63  F   UNL     1      -9.498   8.796  -7.749  1.00  0.00    -0.206 F 
ATOM     64  C   UNL     1      -9.803   9.716  -9.888  1.00  0.00     0.040 A 
ATOM     65  C   UNL     1     -10.520  12.003 -10.125  1.00  0.00     0.040 A 
ATOM     66  F   UNL     1     -10.895  13.319  -8.219  1.00  0.00    -0.206 F 
ATOM     67  C   UNL     1     -10.148  10.792 -10.705  1.00  0.00     0.006 A 
ENDBRANCH  46  60
BRANCH  47  68
ATOM     68  C   UNL     1     -10.155  12.149   2.019  1.00  0.00     0.057 A 
ATOM     69  C   UNL     1     -10.556  11.118   2.876  1.00  0.00     0.134 A 
ATOM     70  C   UNL     1      -9.767  13.361   2.602  1.00  0.00     0.134 A 
ATOM     71  F   UNL     1     -10.961   9.943   2.374  1.00  0.00    -0.206 F 
ATOM     72  C   UNL     1     -10.582  11.290   4.261  1.00  0.00     0.040 A 
ATOM     73  C   UNL     1      -9.767  13.539   3.986  1.00  0.00     0.040 A 
ATOM     74  F   UNL     1      -9.374  14.387   1.833  1.00  0.00    -0.206 F 
ATOM     75  C   UNL     1     -10.180  12.502   4.819  1.00  0.00     0.006 A 
ENDBRANCH  47  68
BRANCH  59  76
ATOM     76  C   UNL     1     -15.204  11.619  -2.733  1.00  0.00     0.057 A 
ATOM     77  C   UNL     1     -15.916  12.805  -2.520  1.00  0.00     0.134 A 
ATOM     78  C   UNL     1     -15.938  10.435  -2.874  1.00  0.00     0.134 A 
ATOM     79  F   UNL     1     -15.267  13.969  -2.362  1.00  0.00    -0.206 F 
ATOM     80  C   UNL     1     -17.309  12.812  -2.435  1.00  0.00     0.040 A 
ATOM     81  C   UNL     1     -17.332  10.432  -2.811  1.00  0.00     0.040 A 
ATOM     82  F   UNL     1     -15.314   9.267  -3.086  1.00  0.00    -0.206 F 
ATOM     83  C   UNL     1     -18.021  11.623  -2.586  1.00  0.00     0.006 A 
ENDBRANCH  59  76
ENDBRANCH  33  34
ENDBRANCH  26  28
ENDBRANCH  25  26
ENDBRANCH  24  25
ENDBRANCH   1  24
TORSDOF 14
