REMARK SMILES CC/C(=C/C(=O)[C@H](Cc1ccc(Cl)cc1Cl)C(=O)OCCOC(=O)c1ccc(-c2c3nc(c(-c4c(F)cccc4F)c4ccc([nH]4)c(-c4c(F)cccc4F)c4nc(c(-c5c(F)cccc5F)c5ccc2[nH]5)C=C4)C=C3)cc1)N(C)C
REMARK SMILES IDX 20 1 19 2 17 3 18 4 7 5 5 6 6 7 4 8 3 9 2 10 1 11 79 12
REMARK SMILES IDX 80 13 81 14 8 15 9 16 10 17 15 18 11 19 14 20 16 21 12 22
REMARK SMILES IDX 13 23 21 24 22 25 23 26 24 27 25 28 26 29 78 30 27 31 77 32
REMARK SMILES IDX 28 33 29 34 30 35 71 36 31 37 76 38 70 39 72 40 32 41 75 42
REMARK SMILES IDX 69 43 68 44 33 46 59 47 42 48 58 49 43 50 46 51 57 52 73 53
REMARK SMILES IDX 44 54 45 55 56 57 74 58 47 59 34 60 35 61 40 62 36 63 37 64
REMARK SMILES IDX 39 65 41 66 38 67 60 68 61 69 66 70 62 71 63 72 65 73 67 74
REMARK SMILES IDX 64 75 48 76 49 77 54 78 50 79 51 80 53 81 55 82 52 83
REMARK H PARENT 72 45 46 56
REMARK Flexibility Score: inf
ROOT
ATOM      1  C   UNL     1       3.053   2.121  -1.508  1.00  0.00     0.274 C 
ENDROOT
BRANCH   1   2
ATOM      2  O   UNL     1       2.140   2.906  -0.713  1.00  0.00    -0.461 OA
BRANCH   2   3
ATOM      3  C   UNL     1       2.691   3.737   0.211  1.00  0.00     0.317 C 
ATOM      4  O   UNL     1       3.899   3.858   0.389  1.00  0.00    -0.251 OA
BRANCH   3   5
ATOM      5  C   UNL     1       1.677   4.633   0.900  1.00  0.00     0.175 C 
BRANCH   5   6
ATOM      6  C   UNL     1       2.062   4.772   2.354  1.00  0.00     0.171 C 
ATOM      7  O   UNL     1       1.899   3.801   3.108  1.00  0.00    -0.294 OA
BRANCH   6   8
ATOM      8  C   UNL     1       2.760   5.958   2.954  1.00  0.00     0.069 C 
ATOM      9  C   UNL     1       2.900   7.305   2.870  1.00  0.00     0.016 C 
BRANCH   9  10
ATOM     10  C   UNL     1       3.781   7.897   3.996  1.00  0.00     0.050 C 
ATOM     11  C   UNL     1       5.128   8.403   3.495  1.00  0.00     0.010 C 
ENDBRANCH   9  10
BRANCH   9  12
ATOM     12  N   UNL     1       2.347   8.246   1.981  1.00  0.00    -0.381 N 
ATOM     13  C   UNL     1       2.269   9.693   2.253  1.00  0.00     0.143 C 
ATOM     14  C   UNL     1       2.022   7.963   0.599  1.00  0.00     0.143 C 
ENDBRANCH   9  12
ENDBRANCH   6   8
ENDBRANCH   5   6
BRANCH   5  15
ATOM     15  C   UNL     1       0.199   4.180   0.795  1.00  0.00     0.060 C 
BRANCH  15  16
ATOM     16  C   UNL     1      -0.686   5.357   0.414  1.00  0.00    -0.028 A 
ATOM     17  C   UNL     1      -0.855   5.638  -0.955  1.00  0.00     0.007 A 
ATOM     18  C   UNL     1      -1.230   6.248   1.357  1.00  0.00     0.045 A 
ATOM     19  C   UNL     1      -1.496   6.807  -1.368  1.00  0.00     0.021 A 
ATOM     20  C   UNL     1      -1.867   7.421   0.941  1.00  0.00     0.041 A 
ATOM     21  Cl  UNL     1      -1.086   5.986   3.056  1.00  0.00    -0.084 Cl
ATOM     22  C   UNL     1      -1.980   7.702  -0.418  1.00  0.00     0.042 A 
ATOM     23  Cl  UNL     1      -2.686   9.184  -0.931  1.00  0.00    -0.084 Cl
ENDBRANCH  15  16
ENDBRANCH   5  15
ENDBRANCH   3   5
ENDBRANCH   2   3
ENDBRANCH   1   2
BRANCH   1  24
ATOM     24  C   UNL     1       2.948   2.538  -2.972  1.00  0.00     0.275 C 
BRANCH  24  25
ATOM     25  O   UNL     1       3.264   3.937  -3.102  1.00  0.00    -0.458 OA
BRANCH  25  26
ATOM     26  C   UNL     1       2.254   4.726  -3.536  1.00  0.00     0.338 C 
ATOM     27  O   UNL     1       1.129   4.383  -3.856  1.00  0.00    -0.246 OA
BRANCH  26  28
ATOM     28  C   UNL     1       2.683   6.137  -3.567  1.00  0.00     0.060 A 
ATOM     29  C   UNL     1       3.318   6.712  -2.470  1.00  0.00     0.016 A 
ATOM     30  C   UNL     1       2.325   6.930  -4.660  1.00  0.00     0.016 A 
ATOM     31  C   UNL     1       3.507   8.099  -2.431  1.00  0.00     0.010 A 
ATOM     32  C   UNL     1       2.592   8.305  -4.645  1.00  0.00     0.010 A 
ATOM     33  C   UNL     1       3.142   8.922  -3.510  1.00  0.00    -0.014 A 
BRANCH  33  34
ATOM     34  C   UNL     1       3.279  10.412  -3.446  1.00  0.00     0.031 A 
ATOM     35  C   UNL     1       2.096  11.305  -3.751  1.00  0.00     0.074 A 
ATOM     36  C   UNL     1       4.448  10.999  -3.116  1.00  0.00     0.049 A 
ATOM     37  N   UNL     1       2.071  12.589  -4.013  1.00  0.00    -0.248 NA
ATOM     38  C   UNL     1       0.770  10.667  -3.777  1.00  0.00     0.031 C 
ATOM     39  C   UNL     1       5.676  10.304  -2.734  1.00  0.00     0.029 A 
ATOM     40  N   UNL     1       4.791  12.331  -3.049  1.00  0.00    -0.354 N 
ATOM     41  C   UNL     1       0.748  12.894  -4.314  1.00  0.00     0.074 A 
ATOM     42  C   UNL     1      -0.006  11.665  -4.181  1.00  0.00     0.031 C 
ATOM     43  C   UNL     1       6.618  11.207  -2.425  1.00  0.00     0.029 A 
ATOM     44  C   UNL     1       6.101  12.544  -2.693  1.00  0.00     0.049 A 
ATOM     45  H   UNL     1       4.158  13.061  -3.238  1.00  0.00     0.167 HD
ATOM     46  C   UNL     1       0.211  14.085  -4.678  1.00  0.00     0.037 A 
ATOM     47  C   UNL     1       6.833  13.673  -2.640  1.00  0.00     0.037 A 
ATOM     48  C   UNL     1       0.933  15.330  -4.730  1.00  0.00     0.049 A 
ATOM     49  C   UNL     1       6.226  14.980  -3.057  1.00  0.00     0.074 A 
ATOM     50  C   UNL     1       0.465  16.586  -5.084  1.00  0.00     0.029 A 
ATOM     51  N   UNL     1       2.265  15.486  -4.387  1.00  0.00    -0.354 N 
ATOM     52  N   UNL     1       5.004  15.232  -3.456  1.00  0.00    -0.248 NA
ATOM     53  C   UNL     1       7.111  16.154  -3.050  1.00  0.00     0.031 C 
ATOM     54  C   UNL     1       1.520  17.498  -4.971  1.00  0.00     0.029 A 
ATOM     55  C   UNL     1       2.635  16.815  -4.519  1.00  0.00     0.049 A 
ATOM     56  H   UNL     1       2.862  14.760  -4.093  1.00  0.00     0.167 HD
ATOM     57  C   UNL     1       4.974  16.589  -3.749  1.00  0.00     0.074 A 
ATOM     58  C   UNL     1       6.292  17.113  -3.459  1.00  0.00     0.031 C 
ATOM     59  C   UNL     1       3.946  17.330  -4.228  1.00  0.00     0.037 A 
BRANCH  46  60
ATOM     60  C   UNL     1      -1.232  14.104  -5.088  1.00  0.00     0.057 A 
ATOM     61  C   UNL     1      -2.274  14.052  -4.156  1.00  0.00     0.134 A 
ATOM     62  C   UNL     1      -1.578  14.248  -6.439  1.00  0.00     0.134 A 
ATOM     63  F   UNL     1      -2.009  13.905  -2.849  1.00  0.00    -0.206 F 
ATOM     64  C   UNL     1      -3.611  14.129  -4.554  1.00  0.00     0.040 A 
ATOM     65  C   UNL     1      -2.909  14.349  -6.847  1.00  0.00     0.040 A 
ATOM     66  F   UNL     1      -0.625  14.315  -7.382  1.00  0.00    -0.206 F 
ATOM     67  C   UNL     1      -3.930  14.287  -5.902  1.00  0.00     0.006 A 
ENDBRANCH  46  60
BRANCH  47  68
ATOM     68  C   UNL     1       8.256  13.604  -2.226  1.00  0.00     0.057 A 
ATOM     69  C   UNL     1       8.673  14.114  -0.992  1.00  0.00     0.134 A 
ATOM     70  C   UNL     1       9.226  13.014  -3.045  1.00  0.00     0.134 A 
ATOM     71  F   UNL     1       7.793  14.715  -0.178  1.00  0.00    -0.206 F 
ATOM     72  C   UNL     1      10.005  14.037  -0.585  1.00  0.00     0.040 A 
ATOM     73  C   UNL     1      10.556  12.906  -2.640  1.00  0.00     0.040 A 
ATOM     74  F   UNL     1       8.886  12.508  -4.240  1.00  0.00    -0.206 F 
ATOM     75  C   UNL     1      10.949  13.422  -1.407  1.00  0.00     0.006 A 
ENDBRANCH  47  68
BRANCH  59  76
ATOM     76  C   UNL     1       4.201  18.790  -4.445  1.00  0.00     0.057 A 
ATOM     77  C   UNL     1       4.924  19.251  -5.552  1.00  0.00     0.134 A 
ATOM     78  C   UNL     1       3.703  19.744  -3.551  1.00  0.00     0.134 A 
ATOM     79  F   UNL     1       5.439  18.384  -6.436  1.00  0.00    -0.206 F 
ATOM     80  C   UNL     1       5.158  20.612  -5.752  1.00  0.00     0.040 A 
ATOM     81  C   UNL     1       3.916  21.109  -3.749  1.00  0.00     0.040 A 
ATOM     82  F   UNL     1       2.999  19.366  -2.473  1.00  0.00    -0.206 F 
ATOM     83  C   UNL     1       4.650  21.546  -4.851  1.00  0.00     0.006 A 
ENDBRANCH  59  76
ENDBRANCH  33  34
ENDBRANCH  26  28
ENDBRANCH  25  26
ENDBRANCH  24  25
ENDBRANCH   1  24
TORSDOF 17
