REMARK SMILES Cc1c(CC(=O)OCCOC(=O)c2ccc(-c3c4nc(c(-c5c(F)cccc5F)c5ccc([nH]5)c(-c5c(F)cccc5F)c5nc(c(-c6c(F)cccc6F)c6ccc3[nH]6)C=C5)C=C4)cc2)cccc1-c1ccn(C(F)F)c(=O)c1
REMARK SMILES IDX 8 1 7 2 5 3 6 4 4 5 3 6 1 7 2 8 70 9 67 10 69 11 68 12 71 13
REMARK SMILES IDX 72 14 80 15 73 16 78 17 74 18 79 19 75 20 76 21 77 22 9 23
REMARK SMILES IDX 10 24 11 25 12 26 13 27 14 28 66 29 15 30 65 31 16 32 17 33
REMARK SMILES IDX 18 34 59 35 19 36 64 37 58 38 60 39 20 40 63 41 57 42 56 43
REMARK SMILES IDX 21 45 47 46 30 47 46 48 31 49 34 50 45 51 61 52 32 53 33 54
REMARK SMILES IDX 44 56 62 57 35 58 22 59 23 60 28 61 24 62 25 63 27 64 29 65
REMARK SMILES IDX 26 66 48 67 49 68 54 69 50 70 51 71 53 72 55 73 52 74 36 75
REMARK SMILES IDX 37 76 42 77 38 78 39 79 41 80 43 81 40 82
REMARK H PARENT 60 44 34 55
REMARK Flexibility Score: inf
ROOT
ATOM      1  C   UNL     1      -0.498  -4.421   4.257  1.00  0.00     0.274 C 
ENDROOT
BRANCH   1   2
ATOM      2  O   UNL     1       0.470  -3.689   3.485  1.00  0.00    -0.462 OA
BRANCH   2   3
ATOM      3  C   UNL     1       0.475  -3.921   2.055  1.00  0.00     0.310 C 
ATOM      4  O   UNL     1       0.130  -5.143   1.943  1.00  0.00    -0.252 OA
BRANCH   3   5
ATOM      5  C   UNL     1       0.932  -2.429   0.552  1.00  0.00     0.158 C 
BRANCH   5   6
ATOM      6  C   UNL     1       0.242  -0.906   0.094  1.00  0.00    -0.033 A 
ATOM      7  C   UNL     1       2.501   0.292   0.282  1.00  0.00     0.045 C 
ATOM      8  C   UNL     1       0.999   0.302   0.131  1.00  0.00    -0.039 A 
ATOM      9  C   UNL     1       0.318   1.534  -0.051  1.00  0.00    -0.015 A 
ATOM     10  C   UNL     1      -1.053  -0.843  -0.464  1.00  0.00     0.004 A 
ATOM     11  C   UNL     1      -1.053   1.552  -0.329  1.00  0.00     0.009 A 
ATOM     12  C   UNL     1      -1.722   0.367  -0.586  1.00  0.00     0.001 A 
BRANCH   9  13
ATOM     13  C   UNL     1       1.026   2.827  -0.011  1.00  0.00    -0.011 A 
ATOM     14  C   UNL     1       1.827   3.297  -1.125  1.00  0.00     0.027 A 
ATOM     15  C   UNL     1       0.987   3.540   1.127  1.00  0.00     0.080 A 
ATOM     16  C   UNL     1       2.623   4.361  -0.979  1.00  0.00     0.095 A 
ATOM     17  C   UNL     1       1.820   4.764   1.278  1.00  0.00     0.255 A 
ATOM     18  N   UNL     1       2.648   5.068   0.208  1.00  0.00    -0.258 N 
ATOM     19  O   UNL     1       1.752   5.389   2.331  1.00  0.00    -0.269 OA
BRANCH  18  20
ATOM     20  C   UNL     1       3.569   6.159   0.387  1.00  0.00     0.451 C 
ATOM     21  F   UNL     1       2.918   7.321   0.631  1.00  0.00    -0.185 F 
ATOM     22  F   UNL     1       4.404   5.916   1.427  1.00  0.00    -0.185 F 
ENDBRANCH  18  20
ENDBRANCH   9  13
ENDBRANCH   5   6
ENDBRANCH   3   5
ENDBRANCH   2   3
ENDBRANCH   1   2
BRANCH   1  23
ATOM     23  C   UNL     1      -1.885  -3.808   4.015  1.00  0.00     0.275 C 
BRANCH  23  24
ATOM     24  O   UNL     1      -2.481  -4.095   2.716  1.00  0.00    -0.458 OA
BRANCH  24  25
ATOM     25  C   UNL     1      -2.428  -3.261   1.637  1.00  0.00     0.338 C 
ATOM     26  O   UNL     1      -3.353  -3.097   0.857  1.00  0.00    -0.246 OA
BRANCH  25  27
ATOM     27  C   UNL     1      -1.058  -2.902   1.224  1.00  0.00     0.060 A 
ATOM     28  C   UNL     1      -0.280  -4.088   0.100  1.00  0.00     0.016 A 
ATOM     29  C   UNL     1      -0.053  -1.901   2.337  1.00  0.00     0.016 A 
ATOM     30  C   UNL     1       1.497  -4.444   0.280  1.00  0.00     0.010 A 
ATOM     31  C   UNL     1       1.712  -2.238   2.481  1.00  0.00     0.010 A 
ATOM     32  C   UNL     1       2.447  -3.589   1.530  1.00  0.00    -0.014 A 
BRANCH  32  33
ATOM     33  C   UNL     1       3.541  -4.225   2.244  1.00  0.00     0.031 A 
ATOM     34  C   UNL     1       4.789  -3.480   2.396  1.00  0.00     0.074 A 
ATOM     35  C   UNL     1       3.292  -5.360   2.938  1.00  0.00     0.049 A 
ATOM     36  N   UNL     1       5.889  -4.017   2.775  1.00  0.00    -0.248 NA
ATOM     37  C   UNL     1       4.945  -2.074   2.037  1.00  0.00     0.031 C 
ATOM     38  C   UNL     1       4.026  -5.925   4.067  1.00  0.00     0.029 A 
ATOM     39  N   UNL     1       2.325  -6.321   2.716  1.00  0.00    -0.354 N 
ATOM     40  C   UNL     1       6.748  -2.991   3.073  1.00  0.00     0.074 A 
ATOM     41  C   UNL     1       6.209  -1.845   2.399  1.00  0.00     0.031 C 
ATOM     42  C   UNL     1       3.641  -7.203   4.253  1.00  0.00     0.029 A 
ATOM     43  C   UNL     1       2.744  -7.565   3.171  1.00  0.00     0.049 A 
ATOM     44  H   UNL     1       1.454  -6.146   2.292  1.00  0.00     0.167 HD
ATOM     45  C   UNL     1       7.709  -3.224   4.006  1.00  0.00     0.037 A 
ATOM     46  C   UNL     1       2.955  -8.568   2.263  1.00  0.00     0.037 A 
ATOM     47  C   UNL     1       7.769  -4.659   4.317  1.00  0.00     0.049 A 
ATOM     48  C   UNL     1       4.441  -8.772   1.986  1.00  0.00     0.074 A 
ATOM     49  C   UNL     1       7.370  -5.460   5.371  1.00  0.00     0.029 A 
ATOM     50  N   UNL     1       7.988  -5.526   3.261  1.00  0.00    -0.354 N 
ATOM     51  N   UNL     1       5.394  -8.129   2.608  1.00  0.00    -0.248 NA
ATOM     52  C   UNL     1       4.975  -9.662   0.958  1.00  0.00     0.031 C 
ATOM     53  C   UNL     1       7.280  -6.811   4.885  1.00  0.00     0.029 A 
ATOM     54  C   UNL     1       7.677  -6.835   3.557  1.00  0.00     0.049 A 
ATOM     55  H   UNL     1       8.333  -5.236   2.385  1.00  0.00     0.167 HD
ATOM     56  C   UNL     1       6.610  -8.419   2.059  1.00  0.00     0.074 A 
ATOM     57  C   UNL     1       6.291  -9.383   1.015  1.00  0.00     0.031 C 
ATOM     58  C   UNL     1       7.772  -7.825   2.480  1.00  0.00     0.037 A 
BRANCH  45  59
ATOM     59  C   UNL     1       8.483  -2.158   4.742  1.00  0.00     0.057 A 
ATOM     60  C   UNL     1       9.521  -2.536   5.611  1.00  0.00     0.134 A 
ATOM     61  C   UNL     1       8.218  -0.770   4.727  1.00  0.00     0.134 A 
ATOM     62  F   UNL     1       9.884  -3.820   5.745  1.00  0.00    -0.206 F 
ATOM     63  C   UNL     1      10.231  -1.617   6.398  1.00  0.00     0.040 A 
ATOM     64  C   UNL     1       8.953   0.163   5.471  1.00  0.00     0.040 A 
ATOM     65  F   UNL     1       7.204  -0.232   4.045  1.00  0.00    -0.206 F 
ATOM     66  C   UNL     1       9.957  -0.260   6.322  1.00  0.00     0.006 A 
ENDBRANCH  45  59
BRANCH  46  67
ATOM     67  C   UNL     1       1.823  -8.661   1.285  1.00  0.00     0.057 A 
ATOM     68  C   UNL     1       0.544  -8.940   1.814  1.00  0.00     0.134 A 
ATOM     69  C   UNL     1       1.858  -8.065   0.022  1.00  0.00     0.134 A 
ATOM     70  F   UNL     1       0.429  -9.551   3.004  1.00  0.00    -0.206 F 
ATOM     71  C   UNL     1      -0.627  -8.469   1.216  1.00  0.00     0.040 A 
ATOM     72  C   UNL     1       0.682  -7.628  -0.610  1.00  0.00     0.040 A 
ATOM     73  F   UNL     1       3.027  -7.751  -0.555  1.00  0.00    -0.206 F 
ATOM     74  C   UNL     1      -0.555  -7.772   0.017  1.00  0.00     0.006 A 
ENDBRANCH  46  67
BRANCH  58  75
ATOM     75  C   UNL     1       9.119  -8.116   1.856  1.00  0.00     0.057 A 
ATOM     76  C   UNL     1       9.513  -9.411   1.497  1.00  0.00     0.134 A 
ATOM     77  C   UNL     1      10.111  -7.125   1.676  1.00  0.00     0.134 A 
ATOM     78  F   UNL     1       8.722 -10.468   1.734  1.00  0.00    -0.206 F 
ATOM     79  C   UNL     1      10.753  -9.681   0.903  1.00  0.00     0.040 A 
ATOM     80  C   UNL     1      11.378  -7.394   1.156  1.00  0.00     0.040 A 
ATOM     81  F   UNL     1       9.904  -5.833   1.959  1.00  0.00    -0.206 F 
ATOM     82  C   UNL     1      11.693  -8.672   0.735  1.00  0.00     0.006 A 
ENDBRANCH  58  75
ENDBRANCH  32  33
ENDBRANCH  25  27
ENDBRANCH  24  25
ENDBRANCH  23  24
ENDBRANCH   1  23
TORSDOF 14
