REMARK SMILES CC1(C)[C@@]2(C(=O)OCCOC(=O)c3ccc(-c4c5nc(c(-c6c(F)cccc6F)c6ccc([nH]6)c(-c6c(F)cccc6F)c6nc(c(-c7c(F)cccc7F)c7ccc4[nH]7)C=C6)C=C5)cc3)CC[C@]1(C)/C(=N/NC(=O)c1ccc(Cl)cc1)C2
REMARK SMILES IDX 8 1 7 2 5 3 6 4 4 5 1 6 2 7 3 8 69 9 67 10 83 11 68 12 70 13
REMARK SMILES IDX 71 14 72 15 73 16 74 17 75 19 76 20 77 21 82 22 78 23 81 24
REMARK SMILES IDX 79 25 80 26 9 27 10 28 11 29 12 30 13 31 14 32 66 33 15 34
REMARK SMILES IDX 65 35 16 36 17 37 18 38 59 39 19 40 64 41 58 42 60 43 20 44
REMARK SMILES IDX 63 45 57 46 56 47 21 49 47 50 30 51 46 52 31 53 34 54 45 55
REMARK SMILES IDX 61 56 32 57 33 58 44 60 62 61 35 62 22 63 23 64 28 65 24 66
REMARK SMILES IDX 25 67 27 68 29 69 26 70 48 71 49 72 54 73 50 74 51 75 53 76
REMARK SMILES IDX 55 77 52 78 36 79 37 80 42 81 38 82 39 83 41 84 43 85 40 86
REMARK H PARENT 73 18 60 48 34 59
REMARK Flexibility Score: inf
ROOT
ATOM      1  C   UNL     1      -1.701   3.495  -1.648  1.00  0.00     0.274 C 
ENDROOT
BRANCH   1   2
ATOM      2  O   UNL     1      -1.002   2.300  -2.066  1.00  0.00    -0.462 OA
BRANCH   2   3
ATOM      3  C   UNL     1      -0.147   1.716  -1.181  1.00  0.00     0.313 C 
ATOM      4  O   UNL     1       0.029   2.089  -0.030  1.00  0.00    -0.252 OA
BRANCH   3   5
ATOM      5  C   UNL     1       0.673   0.623  -1.847  1.00  0.00     0.079 C 
ATOM      6  C   UNL     1       1.545  -0.604   0.282  1.00  0.00     0.013 C 
ATOM      7  C   UNL     1       0.935  -0.732  -1.125  1.00  0.00    -0.008 C 
ATOM      8  C   UNL     1      -0.292  -1.672  -1.028  1.00  0.00     0.013 C 
ATOM      9  C   UNL     1       1.936  -1.196  -2.241  1.00  0.00     0.014 C 
ATOM     10  C   UNL     1       2.113   1.186  -2.076  1.00  0.00     0.021 C 
ATOM     11  C   UNL     1       0.109   0.161  -3.209  1.00  0.00     0.073 C 
ATOM     12  C   UNL     1       2.970  -0.065  -2.320  1.00  0.00     0.014 C 
ATOM     13  C   UNL     1       2.529  -2.581  -2.083  1.00  0.00     0.018 C 
ATOM     14  C   UNL     1       1.052  -0.975  -3.493  1.00  0.00     0.046 C 
ATOM     15  N   UNL     1       1.168  -1.749  -4.522  1.00  0.00    -0.181 NA
BRANCH  15  16
ATOM     16  N   UNL     1       0.357  -1.763  -5.612  1.00  0.00    -0.243 N 
ATOM     17  C   UNL     1      -0.321  -0.829  -6.362  1.00  0.00     0.271 C 
ATOM     18  H   UNL     1       0.220  -2.676  -5.954  1.00  0.00     0.194 HD
ATOM     19  O   UNL     1      -1.132  -1.205  -7.210  1.00  0.00    -0.267 OA
BRANCH  17  20
ATOM     20  C   UNL     1      -0.104   0.618  -6.234  1.00  0.00     0.041 A 
ATOM     21  C   UNL     1      -1.239   1.437  -6.105  1.00  0.00     0.015 A 
ATOM     22  C   UNL     1       1.179   1.175  -6.211  1.00  0.00     0.015 A 
ATOM     23  C   UNL     1      -1.088   2.802  -5.861  1.00  0.00     0.021 A 
ATOM     24  C   UNL     1       1.325   2.547  -5.975  1.00  0.00     0.021 A 
ATOM     25  C   UNL     1       0.194   3.347  -5.779  1.00  0.00     0.041 A 
ATOM     26  Cl  UNL     1       0.381   5.013  -5.392  1.00  0.00    -0.084 Cl
ENDBRANCH  17  20
ENDBRANCH  15  16
ENDBRANCH   3   5
ENDBRANCH   2   3
ENDBRANCH   1   2
BRANCH   1  27
ATOM     27  C   UNL     1      -3.204   3.228  -1.606  1.00  0.00     0.275 C 
BRANCH  27  28
ATOM     28  O   UNL     1      -3.448   2.327  -0.515  1.00  0.00    -0.458 OA
BRANCH  28  29
ATOM     29  C   UNL     1      -4.160   1.210  -0.786  1.00  0.00     0.338 C 
ATOM     30  O   UNL     1      -4.826   0.979  -1.779  1.00  0.00    -0.246 OA
BRANCH  29  31
ATOM     31  C   UNL     1      -3.910   0.226   0.291  1.00  0.00     0.060 A 
ATOM     32  C   UNL     1      -2.639   0.141   0.854  1.00  0.00     0.016 A 
ATOM     33  C   UNL     1      -4.877  -0.713   0.644  1.00  0.00     0.016 A 
ATOM     34  C   UNL     1      -2.292  -0.941   1.653  1.00  0.00     0.010 A 
ATOM     35  C   UNL     1      -4.557  -1.728   1.560  1.00  0.00     0.010 A 
ATOM     36  C   UNL     1      -3.244  -1.886   2.043  1.00  0.00    -0.014 A 
BRANCH  36  37
ATOM     37  C   UNL     1      -2.851  -3.055   2.888  1.00  0.00     0.031 A 
ATOM     38  C   UNL     1      -3.260  -4.448   2.482  1.00  0.00     0.074 A 
ATOM     39  C   UNL     1      -2.104  -2.907   4.004  1.00  0.00     0.049 A 
ATOM     40  N   UNL     1      -3.327  -5.534   3.209  1.00  0.00    -0.248 NA
ATOM     41  C   UNL     1      -3.670  -4.641   1.081  1.00  0.00     0.031 C 
ATOM     42  C   UNL     1      -1.550  -1.648   4.508  1.00  0.00     0.029 A 
ATOM     43  N   UNL     1      -1.671  -3.839   4.918  1.00  0.00    -0.354 N 
ATOM     44  C   UNL     1      -3.897  -6.502   2.392  1.00  0.00     0.074 A 
ATOM     45  C   UNL     1      -4.113  -5.892   1.098  1.00  0.00     0.031 C 
ATOM     46  C   UNL     1      -0.803  -1.894   5.593  1.00  0.00     0.029 A 
ATOM     47  C   UNL     1      -0.940  -3.299   5.950  1.00  0.00     0.049 A 
ATOM     48  H   UNL     1      -1.867  -4.801   4.842  1.00  0.00     0.167 HD
ATOM     49  C   UNL     1      -4.231  -7.776   2.709  1.00  0.00     0.037 A 
ATOM     50  C   UNL     1      -0.494  -3.842   7.098  1.00  0.00     0.037 A 
ATOM     51  C   UNL     1      -3.904  -8.410   3.959  1.00  0.00     0.049 A 
ATOM     52  C   UNL     1      -0.844  -5.263   7.421  1.00  0.00     0.074 A 
ATOM     53  C   UNL     1      -4.192  -9.699   4.376  1.00  0.00     0.029 A 
ATOM     54  N   UNL     1      -3.175  -7.815   4.975  1.00  0.00    -0.354 N 
ATOM     55  N   UNL     1      -1.530  -6.124   6.710  1.00  0.00    -0.248 NA
ATOM     56  C   UNL     1      -0.401  -5.774   8.725  1.00  0.00     0.031 C 
ATOM     57  C   UNL     1      -3.645  -9.879   5.651  1.00  0.00     0.029 A 
ATOM     58  C   UNL     1      -2.994  -8.712   6.014  1.00  0.00     0.049 A 
ATOM     59  H   UNL     1      -2.834  -6.891   4.960  1.00  0.00     0.167 HD
ATOM     60  C   UNL     1      -1.615  -7.272   7.485  1.00  0.00     0.074 A 
ATOM     61  C   UNL     1      -0.880  -7.010   8.706  1.00  0.00     0.031 C 
ATOM     62  C   UNL     1      -2.261  -8.431   7.219  1.00  0.00     0.037 A 
BRANCH  49  63
ATOM     63  C   UNL     1      -5.035  -8.557   1.715  1.00  0.00     0.057 A 
ATOM     64  C   UNL     1      -4.471  -9.132   0.572  1.00  0.00     0.134 A 
ATOM     65  C   UNL     1      -6.398  -8.787   1.950  1.00  0.00     0.134 A 
ATOM     66  F   UNL     1      -3.176  -8.936   0.281  1.00  0.00    -0.206 F 
ATOM     67  C   UNL     1      -5.235  -9.903  -0.307  1.00  0.00     0.040 A 
ATOM     68  C   UNL     1      -7.168  -9.572   1.091  1.00  0.00     0.040 A 
ATOM     69  F   UNL     1      -6.999  -8.267   3.031  1.00  0.00    -0.206 F 
ATOM     70  C   UNL     1      -6.585 -10.132  -0.043  1.00  0.00     0.006 A 
ENDBRANCH  49  63
BRANCH  50  71
ATOM     71  C   UNL     1       0.243  -2.999   8.074  1.00  0.00     0.057 A 
ATOM     72  C   UNL     1       1.604  -3.200   8.323  1.00  0.00     0.134 A 
ATOM     73  C   UNL     1      -0.395  -1.963   8.769  1.00  0.00     0.134 A 
ATOM     74  F   UNL     1       2.263  -4.195   7.711  1.00  0.00    -0.206 F 
ATOM     75  C   UNL     1       2.306  -2.399   9.226  1.00  0.00     0.040 A 
ATOM     76  C   UNL     1       0.300  -1.137   9.651  1.00  0.00     0.040 A 
ATOM     77  F   UNL     1      -1.700  -1.721   8.574  1.00  0.00    -0.206 F 
ATOM     78  C   UNL     1       1.655  -1.357   9.885  1.00  0.00     0.006 A 
ENDBRANCH  50  71
BRANCH  62  79
ATOM     79  C   UNL     1      -2.188  -9.500   8.263  1.00  0.00     0.057 A 
ATOM     80  C   UNL     1      -2.973  -9.444   9.421  1.00  0.00     0.134 A 
ATOM     81  C   UNL     1      -1.341 -10.602   8.100  1.00  0.00     0.134 A 
ATOM     82  F   UNL     1      -3.792  -8.405   9.637  1.00  0.00    -0.206 F 
ATOM     83  C   UNL     1      -2.905 -10.443  10.392  1.00  0.00     0.040 A 
ATOM     84  C   UNL     1      -1.276 -11.615   9.057  1.00  0.00     0.040 A 
ATOM     85  F   UNL     1      -0.567 -10.711   7.010  1.00  0.00    -0.206 F 
ATOM     86  C   UNL     1      -2.057 -11.535  10.209  1.00  0.00     0.006 A 
ENDBRANCH  62  79
ENDBRANCH  36  37
ENDBRANCH  29  31
ENDBRANCH  28  29
ENDBRANCH  27  28
ENDBRANCH   1  27
TORSDOF 13
