REMARK SMILES CC(C)[C@H](NC(=O)CCNC(=O)c1ccoc1)C(=O)OCCOC(=O)c1ccc(-c2c3nc(c(-c4c(F)cccc4F)c4ccc([nH]4)c(-c4c(F)cccc4F)c4nc(c(-c5c(F)cccc5F)c5ccc2[nH]5)C=C4)C=C3)cc1
REMARK SMILES IDX 20 1 18 2 19 3 4 4 2 5 1 6 3 7 5 8 6 9 7 11 8 12 9 13 10 14
REMARK SMILES IDX 11 15 12 17 13 18 14 19 17 20 15 21 16 22 21 23 22 24 23 25
REMARK SMILES IDX 24 26 25 27 26 28 27 29 79 30 28 31 78 32 29 33 30 34 31 35
REMARK SMILES IDX 72 36 32 37 77 38 71 39 73 40 33 41 76 42 70 43 69 44 34 46
REMARK SMILES IDX 60 47 43 48 59 49 44 50 47 51 58 52 74 53 45 54 46 55 57 57
REMARK SMILES IDX 75 58 48 59 35 60 36 61 41 62 37 63 38 64 40 65 42 66 39 67
REMARK SMILES IDX 61 68 62 69 67 70 63 71 64 72 66 73 68 74 65 75 49 76 50 77
REMARK SMILES IDX 55 78 51 79 52 80 54 81 56 82 53 83
REMARK H PARENT 5 10 10 16 73 45 47 56
REMARK Flexibility Score: inf
ROOT
ATOM      1  O   UNL     1      -0.497  -4.146  -0.327  1.00  0.00    -0.461 OA
ENDROOT
BRANCH   1   2
ATOM      2  C   UNL     1      -1.321  -3.159   0.109  1.00  0.00     0.329 C 
ATOM      3  O   UNL     1      -2.377  -3.364   0.706  1.00  0.00    -0.250 OA
BRANCH   2   4
ATOM      4  C   UNL     1      -0.915  -1.737  -0.318  1.00  0.00     0.194 C 
BRANCH   4   5
ATOM      5  C   UNL     1      -2.104  -1.210  -1.146  1.00  0.00     0.017 C 
ATOM      6  C   UNL     1      -2.660  -2.216  -2.159  1.00  0.00     0.010 C 
ATOM      7  C   UNL     1      -3.186  -0.599  -0.250  1.00  0.00     0.010 C 
ENDBRANCH   4   5
BRANCH   4   8
ATOM      8  N   UNL     1       0.371  -1.518  -0.992  1.00  0.00    -0.342 N 
ATOM      9  C   UNL     1       0.978  -0.330  -1.318  1.00  0.00     0.222 C 
ATOM     10  H   UNL     1       0.865  -2.332  -1.243  1.00  0.00     0.164 HD
ATOM     11  O   UNL     1       2.132  -0.361  -1.750  1.00  0.00    -0.275 OA
BRANCH   9  12
ATOM     12  C   UNL     1       0.258   1.011  -1.160  1.00  0.00     0.121 C 
BRANCH  12  13
ATOM     13  C   UNL     1      -0.008   1.722  -2.503  1.00  0.00     0.126 C 
BRANCH  13  14
ATOM     14  N   UNL     1      -1.025   1.090  -3.338  1.00  0.00    -0.351 N 
ATOM     15  C   UNL     1      -2.363   1.356  -3.501  1.00  0.00     0.254 C 
ATOM     16  H   UNL     1      -0.693   0.339  -3.881  1.00  0.00     0.163 HD
ATOM     17  O   UNL     1      -3.065   0.517  -4.064  1.00  0.00    -0.269 OA
BRANCH  15  18
ATOM     18  C   UNL     1      -2.930   2.591  -3.014  1.00  0.00     0.077 A 
ATOM     19  C   UNL     1      -2.650   3.925  -3.420  1.00  0.00     0.056 A 
ATOM     20  C   UNL     1      -4.023   2.689  -2.174  1.00  0.00     0.208 A 
ATOM     21  C   UNL     1      -3.575   4.728  -2.793  1.00  0.00     0.195 A 
ATOM     22  O   UNL     1      -4.398   3.983  -2.012  1.00  0.00    -0.472 OA
ENDBRANCH  15  18
ENDBRANCH  13  14
ENDBRANCH  12  13
ENDBRANCH   9  12
ENDBRANCH   4   8
ENDBRANCH   2   4
ENDBRANCH   1   2
BRANCH   1  23
ATOM     23  C   UNL     1      -1.068  -5.467  -0.189  1.00  0.00     0.274 C 
BRANCH  23  24
ATOM     24  C   UNL     1      -0.813  -6.143   1.169  1.00  0.00     0.275 C 
BRANCH  24  25
ATOM     25  O   UNL     1      -1.391  -5.446   2.291  1.00  0.00    -0.458 OA
BRANCH  25  26
ATOM     26  C   UNL     1      -0.596  -4.485   2.820  1.00  0.00     0.338 C 
ATOM     27  O   UNL     1       0.538  -4.204   2.469  1.00  0.00    -0.246 OA
BRANCH  26  28
ATOM     28  C   UNL     1      -1.332  -3.645   3.783  1.00  0.00     0.060 A 
ATOM     29  C   UNL     1      -1.476  -2.293   3.461  1.00  0.00     0.016 A 
ATOM     30  C   UNL     1      -1.722  -4.109   5.037  1.00  0.00     0.016 A 
ATOM     31  C   UNL     1      -1.980  -1.388   4.380  1.00  0.00     0.010 A 
ATOM     32  C   UNL     1      -2.227  -3.195   5.974  1.00  0.00     0.010 A 
ATOM     33  C   UNL     1      -2.329  -1.826   5.659  1.00  0.00    -0.014 A 
BRANCH  33  34
ATOM     34  C   UNL     1      -2.654  -0.803   6.681  1.00  0.00     0.031 A 
ATOM     35  C   UNL     1      -1.654  -0.503   7.762  1.00  0.00     0.074 A 
ATOM     36  C   UNL     1      -3.779  -0.071   6.575  1.00  0.00     0.049 A 
ATOM     37  N   UNL     1      -1.754   0.309   8.783  1.00  0.00    -0.248 NA
ATOM     38  C   UNL     1      -0.367  -1.212   7.679  1.00  0.00     0.031 C 
ATOM     39  C   UNL     1      -4.777  -0.205   5.513  1.00  0.00     0.029 A 
ATOM     40  N   UNL     1      -4.260   0.943   7.362  1.00  0.00    -0.354 N 
ATOM     41  C   UNL     1      -0.562   0.178   9.485  1.00  0.00     0.074 A 
ATOM     42  C   UNL     1       0.242  -0.797   8.780  1.00  0.00     0.031 C 
ATOM     43  C   UNL     1      -5.747   0.703   5.708  1.00  0.00     0.029 A 
ATOM     44  C   UNL     1      -5.468   1.439   6.938  1.00  0.00     0.049 A 
ATOM     45  H   UNL     1      -3.786   1.283   8.155  1.00  0.00     0.167 HD
ATOM     46  C   UNL     1      -0.175   0.816  10.616  1.00  0.00     0.037 A 
ATOM     47  C   UNL     1      -6.272   2.363   7.497  1.00  0.00     0.037 A 
ATOM     48  C   UNL     1      -0.971   1.807  11.292  1.00  0.00     0.049 A 
ATOM     49  C   UNL     1      -5.846   3.017   8.782  1.00  0.00     0.074 A 
ATOM     50  C   UNL     1      -0.683   2.502  12.454  1.00  0.00     0.029 A 
ATOM     51  N   UNL     1      -2.212   2.252  10.858  1.00  0.00    -0.354 N 
ATOM     52  N   UNL     1      -4.743   2.847   9.471  1.00  0.00    -0.248 NA
ATOM     53  C   UNL     1      -6.778   3.987   9.369  1.00  0.00     0.031 C 
ATOM     54  C   UNL     1      -1.767   3.339  12.742  1.00  0.00     0.029 A 
ATOM     55  C   UNL     1      -2.708   3.204  11.733  1.00  0.00     0.049 A 
ATOM     56  H   UNL     1      -2.673   1.936  10.047  1.00  0.00     0.167 HD
ATOM     57  C   UNL     1      -4.837   3.705  10.559  1.00  0.00     0.074 A 
ATOM     58  C   UNL     1      -6.097   4.408  10.425  1.00  0.00     0.031 C 
ATOM     59  C   UNL     1      -3.962   3.896  11.577  1.00  0.00     0.037 A 
BRANCH  46  60
ATOM     60  C   UNL     1       1.145   0.421  11.212  1.00  0.00     0.057 A 
ATOM     61  C   UNL     1       2.367   0.765  10.620  1.00  0.00     0.134 A 
ATOM     62  C   UNL     1       1.190  -0.313  12.405  1.00  0.00     0.134 A 
ATOM     63  F   UNL     1       2.395   1.449   9.466  1.00  0.00    -0.206 F 
ATOM     64  C   UNL     1       3.585   0.369  11.178  1.00  0.00     0.040 A 
ATOM     65  C   UNL     1       2.401  -0.690  12.986  1.00  0.00     0.040 A 
ATOM     66  F   UNL     1       0.057  -0.674  13.026  1.00  0.00    -0.206 F 
ATOM     67  C   UNL     1       3.604  -0.355  12.368  1.00  0.00     0.006 A 
ENDBRANCH  46  60
BRANCH  47  68
ATOM     68  C   UNL     1      -7.571   2.703   6.862  1.00  0.00     0.057 A 
ATOM     69  C   UNL     1      -7.800   3.965   6.303  1.00  0.00     0.134 A 
ATOM     70  C   UNL     1      -8.620   1.776   6.810  1.00  0.00     0.134 A 
ATOM     71  F   UNL     1      -6.843   4.904   6.342  1.00  0.00    -0.206 F 
ATOM     72  C   UNL     1      -9.028   4.300   5.729  1.00  0.00     0.040 A 
ATOM     73  C   UNL     1      -9.843   2.087   6.215  1.00  0.00     0.040 A 
ATOM     74  F   UNL     1      -8.466   0.548   7.327  1.00  0.00    -0.206 F 
ATOM     75  C   UNL     1     -10.052   3.356   5.678  1.00  0.00     0.006 A 
ENDBRANCH  47  68
BRANCH  59  76
ATOM     76  C   UNL     1      -4.324   4.938  12.595  1.00  0.00     0.057 A 
ATOM     77  C   UNL     1      -5.358   4.746  13.520  1.00  0.00     0.134 A 
ATOM     78  C   UNL     1      -3.621   6.148  12.651  1.00  0.00     0.134 A 
ATOM     79  F   UNL     1      -6.079   3.615  13.510  1.00  0.00    -0.206 F 
ATOM     80  C   UNL     1      -5.704   5.736  14.441  1.00  0.00     0.040 A 
ATOM     81  C   UNL     1      -3.938   7.133  13.587  1.00  0.00     0.040 A 
ATOM     82  F   UNL     1      -2.612   6.391  11.801  1.00  0.00    -0.206 F 
ATOM     83  C   UNL     1      -4.990   6.933  14.478  1.00  0.00     0.006 A 
ENDBRANCH  59  76
ENDBRANCH  33  34
ENDBRANCH  26  28
ENDBRANCH  25  26
ENDBRANCH  24  25
ENDBRANCH  23  24
ENDBRANCH   1  23
TORSDOF 17
