REMARK SMILES COc1cc2cc(C(=O)OCCOC(=O)c3ccc(-c4c5nc(c(-c6c(F)cccc6F)c6ccc([nH]6)c(-c6c(F)cccc6F)c6nc(c(-c7c(F)cccc7F)c7ccc4[nH]7)C=C6)C=C5)cc3)n(Cc3ccccc3)c2c(OC)c1OC
REMARK SMILES IDX 11 1 10 2 8 3 9 4 7 5 3 6 4 7 82 8 5 9 79 10 6 11 78 12
REMARK SMILES IDX 70 13 2 14 1 15 83 16 84 17 80 18 81 19 71 20 72 21 73 22
REMARK SMILES IDX 77 23 74 24 76 25 75 26 12 27 13 28 14 29 15 30 16 31 17 32
REMARK SMILES IDX 69 33 18 34 68 35 19 36 20 37 21 38 62 39 22 40 67 41 61 42
REMARK SMILES IDX 63 43 23 44 66 45 60 46 59 47 24 49 50 50 33 51 49 52 34 53
REMARK SMILES IDX 37 54 48 55 64 56 35 57 36 58 47 60 65 61 38 62 25 63 26 64
REMARK SMILES IDX 31 65 27 66 28 67 30 68 32 69 29 70 51 71 52 72 57 73 53 74
REMARK SMILES IDX 54 75 56 76 58 77 55 78 39 79 40 80 45 81 41 82 42 83 44 84
REMARK SMILES IDX 46 85 43 86
REMARK H PARENT 63 48 37 59
REMARK Flexibility Score: inf
ROOT
ATOM      1  C   UNL     1       0.748  -2.034 -10.476  1.00  0.00     0.275 C 
ENDROOT
BRANCH   1   2
ATOM      2  O   UNL     1       1.356  -1.876  -9.162  1.00  0.00    -0.457 OA
BRANCH   2   3
ATOM      3  C   UNL     1       0.511  -1.407  -8.206  1.00  0.00     0.355 C 
ATOM      4  O   UNL     1      -0.646  -1.129  -8.479  1.00  0.00    -0.244 OA
BRANCH   3   5
ATOM      5  C   UNL     1       1.061  -1.329  -6.848  1.00  0.00     0.129 A 
ATOM      6  C   UNL     1       1.547  -1.172  -2.200  1.00  0.00     0.165 A 
ATOM      7  C   UNL     1       0.604  -1.020  -3.210  1.00  0.00     0.061 A 
ATOM      8  C   UNL     1       2.896  -1.359  -2.534  1.00  0.00     0.205 A 
ATOM      9  C   UNL     1       1.003  -1.131  -4.553  1.00  0.00     0.008 A 
ATOM     10  C   UNL     1       3.308  -1.451  -3.902  1.00  0.00     0.189 A 
ATOM     11  C   UNL     1       0.293  -1.013  -5.745  1.00  0.00     0.044 A 
ATOM     12  C   UNL     1       2.318  -1.398  -4.913  1.00  0.00     0.096 A 
ATOM     13  N   UNL     1       2.326  -1.557  -6.313  1.00  0.00    -0.327 N 
BRANCH   6  14
ATOM     14  O   UNL     1       1.149  -1.253  -0.889  1.00  0.00    -0.493 OA
ATOM     15  C   UNL     1       0.256  -0.225  -0.466  1.00  0.00     0.278 C 
ENDBRANCH   6  14
BRANCH   8  16
ATOM     16  O   UNL     1       3.888  -1.521  -1.587  1.00  0.00    -0.490 OA
ATOM     17  C   UNL     1       3.745  -0.764  -0.387  1.00  0.00     0.278 C 
ENDBRANCH   8  16
BRANCH  10  18
ATOM     18  O   UNL     1       4.623  -1.604  -4.270  1.00  0.00    -0.491 OA
ATOM     19  C   UNL     1       5.487  -0.637  -3.672  1.00  0.00     0.278 C 
ENDBRANCH  10  18
BRANCH  13  20
ATOM     20  C   UNL     1       3.495  -1.873  -7.120  1.00  0.00     0.158 C 
BRANCH  20  21
ATOM     21  C   UNL     1       3.645  -3.341  -7.457  1.00  0.00    -0.028 A 
ATOM     22  C   UNL     1       2.568  -4.175  -7.804  1.00  0.00     0.005 A 
ATOM     23  C   UNL     1       4.939  -3.866  -7.565  1.00  0.00     0.005 A 
ATOM     24  C   UNL     1       2.775  -5.452  -8.322  1.00  0.00     0.000 A 
ATOM     25  C   UNL     1       5.147  -5.159  -8.048  1.00  0.00     0.000 A 
ATOM     26  C   UNL     1       4.067  -5.942  -8.451  1.00  0.00     0.000 A 
ENDBRANCH  20  21
ENDBRANCH  13  20
ENDBRANCH   3   5
ENDBRANCH   2   3
ENDBRANCH   1   2
BRANCH   1  27
ATOM     27  C   UNL     1       0.043  -3.393 -10.675  1.00  0.00     0.275 C 
BRANCH  27  28
ATOM     28  O   UNL     1      -1.292  -3.340 -10.148  1.00  0.00    -0.458 OA
BRANCH  28  29
ATOM     29  C   UNL     1      -1.646  -4.253  -9.209  1.00  0.00     0.338 C 
ATOM     30  O   UNL     1      -1.097  -5.316  -8.969  1.00  0.00    -0.246 OA
BRANCH  29  31
ATOM     31  C   UNL     1      -2.560  -3.534  -8.292  1.00  0.00     0.060 A 
ATOM     32  C   UNL     1      -3.459  -2.574  -8.783  1.00  0.00     0.016 A 
ATOM     33  C   UNL     1      -2.184  -3.535  -6.953  1.00  0.00     0.016 A 
ATOM     34  C   UNL     1      -3.758  -1.453  -8.007  1.00  0.00     0.010 A 
ATOM     35  C   UNL     1      -2.513  -2.429  -6.183  1.00  0.00     0.010 A 
ATOM     36  C   UNL     1      -3.180  -1.321  -6.746  1.00  0.00    -0.014 A 
BRANCH  36  37
ATOM     37  C   UNL     1      -3.271  -0.048  -6.001  1.00  0.00     0.031 A 
ATOM     38  C   UNL     1      -4.239  -0.067  -4.889  1.00  0.00     0.074 A 
ATOM     39  C   UNL     1      -2.491   1.062  -6.115  1.00  0.00     0.049 A 
ATOM     40  N   UNL     1      -5.343   0.603  -4.862  1.00  0.00    -0.248 NA
ATOM     41  C   UNL     1      -4.034  -0.949  -3.736  1.00  0.00     0.031 C 
ATOM     42  C   UNL     1      -1.358   1.330  -7.002  1.00  0.00     0.029 A 
ATOM     43  N   UNL     1      -2.475   2.182  -5.317  1.00  0.00    -0.354 N 
ATOM     44  C   UNL     1      -5.894   0.364  -3.618  1.00  0.00     0.074 A 
ATOM     45  C   UNL     1      -5.149  -0.724  -3.040  1.00  0.00     0.031 C 
ATOM     46  C   UNL     1      -0.592   2.333  -6.515  1.00  0.00     0.029 A 
ATOM     47  C   UNL     1      -1.327   2.964  -5.439  1.00  0.00     0.049 A 
ATOM     48  H   UNL     1      -3.214   2.413  -4.709  1.00  0.00     0.167 HD
ATOM     49  C   UNL     1      -6.769   1.238  -3.059  1.00  0.00     0.037 A 
ATOM     50  C   UNL     1      -1.020   4.119  -4.802  1.00  0.00     0.037 A 
ATOM     51  C   UNL     1      -7.290   2.176  -4.023  1.00  0.00     0.049 A 
ATOM     52  C   UNL     1      -2.302   4.750  -4.437  1.00  0.00     0.074 A 
ATOM     53  C   UNL     1      -7.952   2.068  -5.233  1.00  0.00     0.029 A 
ATOM     54  N   UNL     1      -6.840   3.472  -3.970  1.00  0.00    -0.354 N 
ATOM     55  N   UNL     1      -3.133   5.252  -5.306  1.00  0.00    -0.248 NA
ATOM     56  C   UNL     1      -2.845   4.510  -3.112  1.00  0.00     0.031 C 
ATOM     57  C   UNL     1      -7.468   3.149  -6.030  1.00  0.00     0.029 A 
ATOM     58  C   UNL     1      -6.559   3.867  -5.254  1.00  0.00     0.049 A 
ATOM     59  H   UNL     1      -6.738   4.019  -3.158  1.00  0.00     0.167 HD
ATOM     60  C   UNL     1      -4.382   4.960  -4.789  1.00  0.00     0.074 A 
ATOM     61  C   UNL     1      -4.144   4.655  -3.381  1.00  0.00     0.031 C 
ATOM     62  C   UNL     1      -5.438   4.706  -5.615  1.00  0.00     0.037 A 
BRANCH  49  63
ATOM     63  C   UNL     1      -6.889   1.436  -1.577  1.00  0.00     0.057 A 
ATOM     64  C   UNL     1      -5.840   1.210  -0.661  1.00  0.00     0.134 A 
ATOM     65  C   UNL     1      -8.009   2.101  -1.059  1.00  0.00     0.134 A 
ATOM     66  F   UNL     1      -4.655   0.710  -1.040  1.00  0.00    -0.206 F 
ATOM     67  C   UNL     1      -5.915   1.580   0.682  1.00  0.00     0.040 A 
ATOM     68  C   UNL     1      -8.070   2.533   0.270  1.00  0.00     0.040 A 
ATOM     69  F   UNL     1      -9.048   2.413  -1.848  1.00  0.00    -0.206 F 
ATOM     70  C   UNL     1      -7.024   2.267   1.147  1.00  0.00     0.006 A 
ENDBRANCH  49  63
BRANCH  50  71
ATOM     71  C   UNL     1       0.283   4.716  -4.439  1.00  0.00     0.057 A 
ATOM     72  C   UNL     1       1.350   3.902  -4.023  1.00  0.00     0.134 A 
ATOM     73  C   UNL     1       0.432   6.092  -4.208  1.00  0.00     0.134 A 
ATOM     74  F   UNL     1       1.278   2.567  -4.139  1.00  0.00    -0.206 F 
ATOM     75  C   UNL     1       2.485   4.421  -3.387  1.00  0.00     0.040 A 
ATOM     76  C   UNL     1       1.562   6.625  -3.572  1.00  0.00     0.040 A 
ATOM     77  F   UNL     1      -0.545   6.948  -4.538  1.00  0.00    -0.206 F 
ATOM     78  C   UNL     1       2.587   5.787  -3.146  1.00  0.00     0.006 A 
ENDBRANCH  50  71
BRANCH  62  79
ATOM     79  C   UNL     1      -5.289   5.069  -7.071  1.00  0.00     0.057 A 
ATOM     80  C   UNL     1      -6.183   5.980  -7.643  1.00  0.00     0.134 A 
ATOM     81  C   UNL     1      -4.379   4.453  -7.944  1.00  0.00     0.134 A 
ATOM     82  F   UNL     1      -7.119   6.573  -6.886  1.00  0.00    -0.206 F 
ATOM     83  C   UNL     1      -6.165   6.273  -9.011  1.00  0.00     0.040 A 
ATOM     84  C   UNL     1      -4.330   4.758  -9.308  1.00  0.00     0.040 A 
ATOM     85  F   UNL     1      -3.547   3.501  -7.515  1.00  0.00    -0.206 F 
ATOM     86  C   UNL     1      -5.231   5.668  -9.847  1.00  0.00     0.006 A 
ENDBRANCH  62  79
ENDBRANCH  36  37
ENDBRANCH  29  31
ENDBRANCH  28  29
ENDBRANCH  27  28
ENDBRANCH   1  27
TORSDOF 16
