REMARK SMILES Cc1ccc(-n2c(C)c(C[NH2+]Cc3ccc(F)cc3)c(C(=O)OCCOC(=O)c3ccc(-c4c5nc(c(-c6c(F)cccc6F)c6ccc([nH]6)c(-c6c(F)cccc6F)c6nc(c(-c7c(F)cccc7F)c7ccc4[nH]7)C=C6)C=C5)cc3)c2C)cc1
REMARK SMILES IDX 24 1 23 2 21 3 22 4 20 5 6 6 7 7 83 8 8 9 9 10 84 11 5 12
REMARK SMILES IDX 1 13 2 14 3 15 86 16 4 17 85 18 10 19 11 20 12 23 13 24
REMARK SMILES IDX 14 25 19 26 15 27 18 28 16 29 17 30 25 31 26 32 27 33 28 34
REMARK SMILES IDX 29 35 30 36 82 37 31 38 81 39 32 40 33 41 34 42 75 43 35 44
REMARK SMILES IDX 80 45 74 46 76 47 36 48 79 49 73 50 72 51 37 53 63 54 46 55
REMARK SMILES IDX 62 56 47 57 50 58 61 59 77 60 48 61 49 62 60 64 78 65 51 66
REMARK SMILES IDX 38 67 39 68 44 69 40 70 41 71 43 72 45 73 42 74 64 75 65 76
REMARK SMILES IDX 70 77 66 78 67 79 69 80 71 81 68 82 52 83 53 84 58 85 54 86
REMARK SMILES IDX 55 87 57 88 59 89 56 90
REMARK H PARENT 11 21 11 22 76 52 50 63
REMARK Flexibility Score: inf
ROOT
ATOM      1  C   UNL     1      -5.846  -0.058  -4.465  1.00  0.00     0.275 C 
ENDROOT
BRANCH   1   2
ATOM      2  O   UNL     1      -5.638  -0.552  -3.135  1.00  0.00    -0.458 OA
BRANCH   2   3
ATOM      3  C   UNL     1      -5.105   0.389  -2.294  1.00  0.00     0.340 C 
ATOM      4  O   UNL     1      -4.995   1.578  -2.568  1.00  0.00    -0.246 OA
BRANCH   3   5
ATOM      5  C   UNL     1      -4.398  -0.194  -1.171  1.00  0.00     0.090 A 
ATOM      6  N   UNL     1      -2.556  -0.654   0.019  1.00  0.00    -0.317 N 
ATOM      7  C   UNL     1      -3.634  -1.057   0.784  1.00  0.00     0.030 A 
ATOM      8  C   UNL     1      -3.012  -0.206  -1.198  1.00  0.00     0.035 A 
ATOM      9  C   UNL     1      -3.494  -1.627   2.157  1.00  0.00     0.065 C 
ATOM     10  C   UNL     1      -4.808  -0.669   0.120  1.00  0.00     0.042 A 
ATOM     11  C   UNL     1      -2.107   0.253  -2.301  1.00  0.00     0.066 C 
BRANCH   6  12
ATOM     12  C   UNL     1      -1.207  -0.538   0.416  1.00  0.00     0.046 A 
ATOM     13  C   UNL     1       3.045  -0.083   0.358  1.00  0.00     0.044 C 
ATOM     14  C   UNL     1       1.558  -0.237   0.474  1.00  0.00    -0.051 A 
ATOM     15  C   UNL     1       0.981  -1.519   0.470  1.00  0.00     0.005 A 
ATOM     16  C   UNL     1       0.733   0.893   0.510  1.00  0.00     0.005 A 
ATOM     17  C   UNL     1      -0.406  -1.678   0.443  1.00  0.00     0.027 A 
ATOM     18  C   UNL     1      -0.650   0.746   0.476  1.00  0.00     0.027 A 
ENDBRANCH   6  12
BRANCH  10  19
ATOM     19  C   UNL     1      -6.163  -0.600   0.777  1.00  0.00     0.300 C 
BRANCH  19  20
ATOM     20  N   UNL     1      -6.999  -1.739   0.442  1.00  0.00    -0.339 N 
ATOM     21  H   UNL     1      -6.393  -2.500   0.136  1.00  0.00     0.346 HD
ATOM     22  H   UNL     1      -7.641  -1.422  -0.285  1.00  0.00     0.346 HD
BRANCH  20  23
ATOM     23  C   UNL     1      -7.832  -2.232   1.547  1.00  0.00     0.297 C 
BRANCH  23  24
ATOM     24  C   UNL     1      -8.893  -1.304   2.121  1.00  0.00     0.006 A 
ATOM     25  C   UNL     1     -10.261  -1.565   1.910  1.00  0.00     0.012 A 
ATOM     26  C   UNL     1      -8.552  -0.232   2.968  1.00  0.00     0.012 A 
ATOM     27  C   UNL     1     -11.246  -0.779   2.525  1.00  0.00     0.040 A 
ATOM     28  C   UNL     1      -9.535   0.570   3.557  1.00  0.00     0.040 A 
ATOM     29  C   UNL     1     -10.874   0.286   3.336  1.00  0.00     0.123 A 
ATOM     30  F   UNL     1     -11.816   1.058   3.893  1.00  0.00    -0.207 F 
ENDBRANCH  23  24
ENDBRANCH  20  23
ENDBRANCH  19  20
ENDBRANCH  10  19
ENDBRANCH   3   5
ENDBRANCH   2   3
ENDBRANCH   1   2
BRANCH   1  31
ATOM     31  C   UNL     1      -6.970  -0.786  -5.203  1.00  0.00     0.275 C 
BRANCH  31  32
ATOM     32  O   UNL     1      -8.098  -1.256  -4.424  1.00  0.00    -0.458 OA
BRANCH  32  33
ATOM     33  C   UNL     1      -8.778  -0.606  -3.455  1.00  0.00     0.338 C 
ATOM     34  O   UNL     1      -9.559  -1.180  -2.705  1.00  0.00    -0.246 OA
BRANCH  33  35
ATOM     35  C   UNL     1      -8.507   0.824  -3.252  1.00  0.00     0.060 A 
ATOM     36  C   UNL     1      -8.123   1.228  -1.970  1.00  0.00     0.016 A 
ATOM     37  C   UNL     1      -8.602   1.750  -4.288  1.00  0.00     0.016 A 
ATOM     38  C   UNL     1      -7.739   2.545  -1.731  1.00  0.00     0.010 A 
ATOM     39  C   UNL     1      -8.217   3.068  -4.052  1.00  0.00     0.010 A 
ATOM     40  C   UNL     1      -7.771   3.467  -2.780  1.00  0.00    -0.014 A 
BRANCH  40  41
ATOM     41  C   UNL     1      -7.613   4.898  -2.514  1.00  0.00     0.031 A 
ATOM     42  C   UNL     1      -6.336   5.531  -2.091  1.00  0.00     0.074 A 
ATOM     43  C   UNL     1      -8.757   5.607  -2.377  1.00  0.00     0.049 A 
ATOM     44  N   UNL     1      -6.255   6.431  -1.160  1.00  0.00    -0.248 NA
ATOM     45  C   UNL     1      -5.041   5.191  -2.673  1.00  0.00     0.031 C 
ATOM     46  C   UNL     1      -8.901   7.026  -2.096  1.00  0.00     0.029 A 
ATOM     47  N   UNL     1     -10.030   5.077  -2.146  1.00  0.00    -0.354 N 
ATOM     48  C   UNL     1      -4.995   6.981  -1.221  1.00  0.00     0.074 A 
ATOM     49  C   UNL     1      -4.250   6.122  -2.118  1.00  0.00     0.031 C 
ATOM     50  C   UNL     1     -10.047   7.199  -1.417  1.00  0.00     0.029 A 
ATOM     51  C   UNL     1     -10.617   5.881  -1.169  1.00  0.00     0.049 A 
ATOM     52  H   UNL     1     -10.431   4.292  -2.585  1.00  0.00     0.167 HD
ATOM     53  C   UNL     1      -4.735   8.191  -0.647  1.00  0.00     0.037 A 
ATOM     54  C   UNL     1     -11.111   5.425   0.015  1.00  0.00     0.037 A 
ATOM     55  C   UNL     1      -5.892   8.757   0.027  1.00  0.00     0.049 A 
ATOM     56  C   UNL     1     -10.619   6.193   1.208  1.00  0.00     0.074 A 
ATOM     57  C   UNL     1      -6.863   9.643  -0.407  1.00  0.00     0.029 A 
ATOM     58  N   UNL     1      -6.348   8.224   1.226  1.00  0.00    -0.354 N 
ATOM     59  N   UNL     1      -9.513   6.879   1.216  1.00  0.00    -0.248 NA
ATOM     60  C   UNL     1     -11.298   6.198   2.501  1.00  0.00     0.031 C 
ATOM     61  C   UNL     1      -7.923   9.630   0.521  1.00  0.00     0.029 A 
ATOM     62  C   UNL     1      -7.594   8.740   1.526  1.00  0.00     0.049 A 
ATOM     63  H   UNL     1      -5.857   7.575   1.780  1.00  0.00     0.167 HD
ATOM     64  C   UNL     1      -9.361   7.465   2.446  1.00  0.00     0.074 A 
ATOM     65  C   UNL     1     -10.491   6.994   3.223  1.00  0.00     0.031 C 
ATOM     66  C   UNL     1      -8.334   8.324   2.702  1.00  0.00     0.037 A 
BRANCH  53  67
ATOM     67  C   UNL     1      -3.510   8.996  -0.997  1.00  0.00     0.057 A 
ATOM     68  C   UNL     1      -3.599  10.361  -1.338  1.00  0.00     0.134 A 
ATOM     69  C   UNL     1      -2.218   8.454  -1.052  1.00  0.00     0.134 A 
ATOM     70  F   UNL     1      -4.755  11.033  -1.281  1.00  0.00    -0.206 F 
ATOM     71  C   UNL     1      -2.504  11.107  -1.787  1.00  0.00     0.040 A 
ATOM     72  C   UNL     1      -1.116   9.182  -1.528  1.00  0.00     0.040 A 
ATOM     73  F   UNL     1      -1.984   7.196  -0.649  1.00  0.00    -0.206 F 
ATOM     74  C   UNL     1      -1.260  10.511  -1.912  1.00  0.00     0.006 A 
ENDBRANCH  53  67
BRANCH  54  75
ATOM     75  C   UNL     1     -11.432   3.981   0.069  1.00  0.00     0.057 A 
ATOM     76  C   UNL     1     -12.524   3.473  -0.653  1.00  0.00     0.134 A 
ATOM     77  C   UNL     1     -10.501   3.061   0.553  1.00  0.00     0.134 A 
ATOM     78  F   UNL     1     -13.439   4.309  -1.166  1.00  0.00    -0.206 F 
ATOM     79  C   UNL     1     -12.651   2.111  -0.936  1.00  0.00     0.040 A 
ATOM     80  C   UNL     1     -10.610   1.704   0.255  1.00  0.00     0.040 A 
ATOM     81  F   UNL     1      -9.410   3.471   1.217  1.00  0.00    -0.206 F 
ATOM     82  C   UNL     1     -11.675   1.222  -0.500  1.00  0.00     0.006 A 
ENDBRANCH  54  75
BRANCH  66  83
ATOM     83  C   UNL     1      -8.051   8.983   4.021  1.00  0.00     0.057 A 
ATOM     84  C   UNL     1      -8.228   8.356   5.260  1.00  0.00     0.134 A 
ATOM     85  C   UNL     1      -7.471  10.270   4.068  1.00  0.00     0.134 A 
ATOM     86  F   UNL     1      -8.680   7.097   5.344  1.00  0.00    -0.206 F 
ATOM     87  C   UNL     1      -7.904   8.987   6.469  1.00  0.00     0.040 A 
ATOM     88  C   UNL     1      -7.107  10.893   5.263  1.00  0.00     0.040 A 
ATOM     89  F   UNL     1      -7.228  10.975   2.953  1.00  0.00    -0.206 F 
ATOM     90  C   UNL     1      -7.335  10.256   6.473  1.00  0.00     0.006 A 
ENDBRANCH  66  83
ENDBRANCH  40  41
ENDBRANCH  33  35
ENDBRANCH  32  33
ENDBRANCH  31  32
ENDBRANCH   1  31
TORSDOF 16
