REMARK SMILES Cc1ccc(C(=O)N2CCC(CC(=O)OCCOC(=O)c3ccc(-c4c5nc(c(-c6c(F)cccc6F)c6ccc([nH]6)c(-c6c(F)cccc6F)c6nc(c(-c7c(F)cccc7F)c7ccc4[nH]7)C=C6)C=C5)cc3)CC2)cn1
REMARK SMILES IDX 16 1 15 2 13 3 14 4 12 5 11 6 6 7 7 8 8 9 9 10 76 11 10 12
REMARK SMILES IDX 75 13 5 14 1 15 2 16 3 17 78 18 4 19 77 20 17 21 18 22 19 23
REMARK SMILES IDX 20 24 21 25 22 26 74 27 23 28 73 29 24 30 25 31 26 32 67 33
REMARK SMILES IDX 27 34 72 35 66 36 68 37 28 38 71 39 65 40 64 41 29 43 55 44
REMARK SMILES IDX 38 45 54 46 39 47 42 48 53 49 69 50 40 51 41 52 52 54 70 55
REMARK SMILES IDX 43 56 30 57 31 58 36 59 32 60 33 61 35 62 37 63 34 64 56 65
REMARK SMILES IDX 57 66 62 67 58 68 59 69 61 70 63 71 60 72 44 73 45 74 50 75
REMARK SMILES IDX 46 76 47 77 49 78 51 79 48 80
REMARK H PARENT 68 42 42 53
REMARK Flexibility Score: inf
ROOT
ATOM      1  C   UNL     1      -9.769  -2.342  -3.192  1.00  0.00     0.274 C 
ENDROOT
BRANCH   1   2
ATOM      2  O   UNL     1      -8.861  -1.904  -2.164  1.00  0.00    -0.462 OA
BRANCH   2   3
ATOM      3  C   UNL     1      -9.152  -2.249  -0.885  1.00  0.00     0.306 C 
ATOM      4  O   UNL     1     -10.136  -2.891  -0.541  1.00  0.00    -0.252 OA
BRANCH   3   5
ATOM      5  C   UNL     1      -8.145  -1.694   0.105  1.00  0.00     0.126 C 
BRANCH   5   6
ATOM      6  C   UNL     1      -6.669  -1.974  -0.228  1.00  0.00     0.003 C 
ATOM      7  C   UNL     1      -3.207  -0.013  -0.081  1.00  0.00     0.255 C 
ATOM      8  O   UNL     1      -3.751   1.084  -0.153  1.00  0.00    -0.269 OA
ATOM      9  N   UNL     1      -3.872  -1.200  -0.353  1.00  0.00    -0.339 N 
ATOM     10  C   UNL     1      -4.657  -1.270  -1.570  1.00  0.00     0.120 C 
ATOM     11  C   UNL     1      -4.302  -2.070   0.733  1.00  0.00     0.120 C 
ATOM     12  C   UNL     1      -6.130  -1.006  -1.295  1.00  0.00     0.026 C 
ATOM     13  C   UNL     1      -5.792  -1.875   1.042  1.00  0.00     0.026 C 
BRANCH   7  14
ATOM     14  C   UNL     1      -1.738  -0.112   0.118  1.00  0.00     0.058 A 
ATOM     15  C   UNL     1       2.516  -0.003   0.143  1.00  0.00     0.066 C 
ATOM     16  C   UNL     1       1.020  -0.077   0.195  1.00  0.00     0.037 A 
ATOM     17  C   UNL     1       0.362  -1.298   0.081  1.00  0.00     0.024 A 
ATOM     18  N   UNL     1       0.357   1.099   0.292  1.00  0.00    -0.261 NA
ATOM     19  C   UNL     1      -1.032  -1.314   0.043  1.00  0.00     0.017 A 
ATOM     20  C   UNL     1      -1.000   1.057   0.248  1.00  0.00     0.125 A 
ENDBRANCH   7  14
ENDBRANCH   5   6
ENDBRANCH   3   5
ENDBRANCH   2   3
ENDBRANCH   1   2
BRANCH   1  21
ATOM     21  C   UNL     1      -9.271  -3.616  -3.881  1.00  0.00     0.275 C 
BRANCH  21  22
ATOM     22  O   UNL     1      -9.415  -4.760  -3.020  1.00  0.00    -0.458 OA
BRANCH  22  23
ATOM     23  C   UNL     1      -8.311  -5.089  -2.312  1.00  0.00     0.338 C 
ATOM     24  O   UNL     1      -7.203  -4.586  -2.392  1.00  0.00    -0.246 OA
BRANCH  23  25
ATOM     25  C   UNL     1      -8.659  -6.091  -1.293  1.00  0.00     0.060 A 
ATOM     26  C   UNL     1      -8.416  -5.774   0.047  1.00  0.00     0.016 A 
ATOM     27  C   UNL     1      -9.146  -7.351  -1.648  1.00  0.00     0.016 A 
ATOM     28  C   UNL     1      -8.640  -6.724   1.039  1.00  0.00     0.010 A 
ATOM     29  C   UNL     1      -9.370  -8.306  -0.651  1.00  0.00     0.010 A 
ATOM     30  C   UNL     1      -9.098  -8.004   0.695  1.00  0.00    -0.014 A 
BRANCH  30  31
ATOM     31  C   UNL     1      -9.212  -9.039   1.750  1.00  0.00     0.031 A 
ATOM     32  C   UNL     1      -8.149 -10.093   1.875  1.00  0.00     0.074 A 
ATOM     33  C   UNL     1     -10.235  -9.003   2.623  1.00  0.00     0.049 A 
ATOM     34  N   UNL     1      -8.056 -11.076   2.733  1.00  0.00    -0.248 NA
ATOM     35  C   UNL     1      -7.043 -10.030   0.907  1.00  0.00     0.031 C 
ATOM     36  C   UNL     1     -11.310  -8.011   2.624  1.00  0.00     0.029 A 
ATOM     37  N   UNL     1     -10.529  -9.821   3.684  1.00  0.00    -0.354 N 
ATOM     38  C   UNL     1      -6.887 -11.752   2.408  1.00  0.00     0.074 A 
ATOM     39  C   UNL     1      -6.318 -11.083   1.257  1.00  0.00     0.031 C 
ATOM     40  C   UNL     1     -12.144  -8.274   3.644  1.00  0.00     0.029 A 
ATOM     41  C   UNL     1     -11.677  -9.467   4.348  1.00  0.00     0.049 A 
ATOM     42  H   UNL     1      -9.971 -10.589   3.944  1.00  0.00     0.167 HD
ATOM     43  C   UNL     1      -6.333 -12.825   3.019  1.00  0.00     0.037 A 
ATOM     44  C   UNL     1     -12.288 -10.046   5.399  1.00  0.00     0.037 A 
ATOM     45  C   UNL     1      -6.893 -13.488   4.168  1.00  0.00     0.049 A 
ATOM     46  C   UNL     1     -11.679 -11.270   6.025  1.00  0.00     0.074 A 
ATOM     47  C   UNL     1      -6.395 -14.575   4.865  1.00  0.00     0.029 A 
ATOM     48  N   UNL     1      -8.079 -13.125   4.786  1.00  0.00    -0.354 N 
ATOM     49  N   UNL     1     -10.566 -11.890   5.718  1.00  0.00    -0.248 NA
ATOM     50  C   UNL     1     -12.415 -11.876   7.145  1.00  0.00     0.031 C 
ATOM     51  C   UNL     1      -7.300 -14.892   5.885  1.00  0.00     0.029 A 
ATOM     52  C   UNL     1      -8.341 -13.979   5.845  1.00  0.00     0.049 A 
ATOM     53  H   UNL     1      -8.651 -12.371   4.513  1.00  0.00     0.167 HD
ATOM     54  C   UNL     1     -10.459 -12.946   6.614  1.00  0.00     0.074 A 
ATOM     55  C   UNL     1     -11.612 -12.873   7.488  1.00  0.00     0.031 C 
ATOM     56  C   UNL     1      -9.493 -13.893   6.704  1.00  0.00     0.037 A 
BRANCH  43  57
ATOM     57  C   UNL     1      -5.058 -13.362   2.441  1.00  0.00     0.057 A 
ATOM     58  C   UNL     1      -3.835 -12.702   2.614  1.00  0.00     0.134 A 
ATOM     59  C   UNL     1      -5.050 -14.568   1.730  1.00  0.00     0.134 A 
ATOM     60  F   UNL     1      -3.780 -11.534   3.272  1.00  0.00    -0.206 F 
ATOM     61  C   UNL     1      -2.650 -13.214   2.082  1.00  0.00     0.040 A 
ATOM     62  C   UNL     1      -3.868 -15.100   1.211  1.00  0.00     0.040 A 
ATOM     63  F   UNL     1      -6.188 -15.250   1.532  1.00  0.00    -0.206 F 
ATOM     64  C   UNL     1      -2.664 -14.419   1.383  1.00  0.00     0.006 A 
ENDBRANCH  43  57
BRANCH  44  65
ATOM     65  C   UNL     1     -13.553  -9.480   5.926  1.00  0.00     0.057 A 
ATOM     66  C   UNL     1     -13.598  -8.839   7.169  1.00  0.00     0.134 A 
ATOM     67  C   UNL     1     -14.750  -9.582   5.207  1.00  0.00     0.134 A 
ATOM     68  F   UNL     1     -12.488  -8.733   7.914  1.00  0.00    -0.206 F 
ATOM     69  C   UNL     1     -14.791  -8.332   7.686  1.00  0.00     0.040 A 
ATOM     70  C   UNL     1     -15.946  -9.060   5.701  1.00  0.00     0.040 A 
ATOM     71  F   UNL     1     -14.771 -10.187   4.010  1.00  0.00    -0.206 F 
ATOM     72  C   UNL     1     -15.969  -8.438   6.947  1.00  0.00     0.006 A 
ENDBRANCH  44  65
BRANCH  56  73
ATOM     73  C   UNL     1      -9.636 -14.912   7.795  1.00  0.00     0.057 A 
ATOM     74  C   UNL     1     -10.571 -15.951   7.712  1.00  0.00     0.134 A 
ATOM     75  C   UNL     1      -8.809 -14.870   8.924  1.00  0.00     0.134 A 
ATOM     76  F   UNL     1     -11.400 -16.037   6.661  1.00  0.00    -0.206 F 
ATOM     77  C   UNL     1     -10.694 -16.902   8.726  1.00  0.00     0.040 A 
ATOM     78  C   UNL     1      -8.908 -15.828   9.934  1.00  0.00     0.040 A 
ATOM     79  F   UNL     1      -7.888 -13.905   9.060  1.00  0.00    -0.206 F 
ATOM     80  C   UNL     1      -9.856 -16.845   9.839  1.00  0.00     0.006 A 
ENDBRANCH  56  73
ENDBRANCH  30  31
ENDBRANCH  23  25
ENDBRANCH  22  23
ENDBRANCH  21  22
ENDBRANCH   1  21
TORSDOF 13
