REMARK SMILES O=C(OCCOC(=O)c1ccc(F)cc1-c1ccc(F)c(Cl)c1)c1ccc(-c2c3nc(c(-c4c(F)cccc4F)c4ccc([nH]4)c(-c4c(F)cccc4F)c4nc(c(-c5c(F)cccc5F)c5ccc2[nH]5)C=C4)C=C3)cc1
REMARK SMILES IDX 4 1 3 2 2 3 1 4 24 5 25 6 77 7 26 8 76 9 27 10 28 11 29 12
REMARK SMILES IDX 70 13 30 14 75 15 69 16 71 17 31 18 74 19 68 20 67 21 32 23
REMARK SMILES IDX 58 24 41 25 57 26 42 27 45 28 56 29 72 30 43 31 44 32 55 34
REMARK SMILES IDX 73 35 46 36 33 37 34 38 39 39 35 40 36 41 38 42 40 43 37 44
REMARK SMILES IDX 59 45 60 46 65 47 61 48 62 49 64 50 66 51 63 52 47 53 48 54
REMARK SMILES IDX 53 55 49 56 50 57 52 58 54 59 51 60 5 61 6 62 7 63 8 64 9 65
REMARK SMILES IDX 10 66 15 67 11 68 14 69 12 70 13 71 16 72 17 73 23 74 18 75
REMARK SMILES IDX 21 76 19 77 22 78 20 79
REMARK H PARENT 71 22 45 33
REMARK Flexibility Score: inf
ROOT
ATOM      1  C   UNL     1       4.417  -1.863  -0.628  1.00  0.00     0.275 C 
ENDROOT
BRANCH   1   2
ATOM      2  O   UNL     1       5.071  -0.861   0.147  1.00  0.00    -0.458 OA
BRANCH   2   3
ATOM      3  C   UNL     1       4.250  -0.083   0.891  1.00  0.00     0.338 C 
ATOM      4  O   UNL     1       3.231  -0.430   1.458  1.00  0.00    -0.246 OA
BRANCH   3   5
ATOM      5  C   UNL     1       4.660   1.325   0.653  1.00  0.00     0.060 A 
ATOM      6  C   UNL     1       5.789   1.602  -0.128  1.00  0.00     0.016 A 
ATOM      7  C   UNL     1       3.824   2.367   1.065  1.00  0.00     0.016 A 
ATOM      8  C   UNL     1       6.085   2.902  -0.482  1.00  0.00     0.010 A 
ATOM      9  C   UNL     1       4.068   3.665   0.641  1.00  0.00     0.010 A 
ATOM     10  C   UNL     1       5.228   3.932  -0.090  1.00  0.00    -0.014 A 
BRANCH  10  11
ATOM     11  C   UNL     1       5.684   5.312  -0.273  1.00  0.00     0.031 A 
ATOM     12  C   UNL     1       6.203   6.027   0.936  1.00  0.00     0.074 A 
ATOM     13  C   UNL     1       5.711   5.838  -1.507  1.00  0.00     0.049 A 
ATOM     14  N   UNL     1       6.781   7.192   1.016  1.00  0.00    -0.248 NA
ATOM     15  C   UNL     1       6.062   5.336   2.232  1.00  0.00     0.031 C 
ATOM     16  C   UNL     1       5.237   5.168  -2.720  1.00  0.00     0.029 A 
ATOM     17  N   UNL     1       6.166   7.046  -1.949  1.00  0.00    -0.354 N 
ATOM     18  C   UNL     1       7.095   7.353   2.358  1.00  0.00     0.074 A 
ATOM     19  C   UNL     1       6.563   6.222   3.075  1.00  0.00     0.031 C 
ATOM     20  C   UNL     1       5.408   5.987  -3.770  1.00  0.00     0.029 A 
ATOM     21  C   UNL     1       6.018   7.225  -3.301  1.00  0.00     0.049 A 
ATOM     22  H   UNL     1       6.561   7.724  -1.354  1.00  0.00     0.167 HD
ATOM     23  C   UNL     1       7.820   8.340   2.926  1.00  0.00     0.037 A 
ATOM     24  C   UNL     1       6.365   8.275  -4.065  1.00  0.00     0.037 A 
ATOM     25  C   UNL     1       8.341   9.443   2.174  1.00  0.00     0.049 A 
ATOM     26  C   UNL     1       7.115   9.396  -3.402  1.00  0.00     0.074 A 
ATOM     27  C   UNL     1       9.097  10.510   2.611  1.00  0.00     0.029 A 
ATOM     28  N   UNL     1       8.146   9.610   0.807  1.00  0.00    -0.354 N 
ATOM     29  N   UNL     1       7.459   9.518  -2.140  1.00  0.00    -0.248 NA
ATOM     30  C   UNL     1       7.559  10.499  -4.259  1.00  0.00     0.031 C 
ATOM     31  C   UNL     1       9.332  11.343   1.512  1.00  0.00     0.029 A 
ATOM     32  C   UNL     1       8.758  10.772   0.383  1.00  0.00     0.049 A 
ATOM     33  H   UNL     1       7.646   8.991   0.227  1.00  0.00     0.167 HD
ATOM     34  C   UNL     1       8.189  10.693  -2.054  1.00  0.00     0.074 A 
ATOM     35  C   UNL     1       8.238  11.244  -3.396  1.00  0.00     0.031 C 
ATOM     36  C   UNL     1       8.776  11.265  -0.973  1.00  0.00     0.037 A 
BRANCH  23  37
ATOM     37  C   UNL     1       8.082   8.238   4.398  1.00  0.00     0.057 A 
ATOM     38  C   UNL     1       7.466   9.109   5.302  1.00  0.00     0.134 A 
ATOM     39  C   UNL     1       8.930   7.253   4.927  1.00  0.00     0.134 A 
ATOM     40  F   UNL     1       6.634  10.066   4.866  1.00  0.00    -0.206 F 
ATOM     41  C   UNL     1       7.683   9.006   6.678  1.00  0.00     0.040 A 
ATOM     42  C   UNL     1       9.136   7.124   6.302  1.00  0.00     0.040 A 
ATOM     43  F   UNL     1       9.528   6.364   4.118  1.00  0.00    -0.206 F 
ATOM     44  C   UNL     1       8.515   8.007   7.182  1.00  0.00     0.006 A 
ENDBRANCH  23  37
BRANCH  24  45
ATOM     45  C   UNL     1       6.060   8.257  -5.516  1.00  0.00     0.057 A 
ATOM     46  C   UNL     1       4.740   8.351  -5.980  1.00  0.00     0.134 A 
ATOM     47  C   UNL     1       7.063   8.069  -6.472  1.00  0.00     0.134 A 
ATOM     48  F   UNL     1       3.729   8.511  -5.114  1.00  0.00    -0.206 F 
ATOM     49  C   UNL     1       4.429   8.246  -7.337  1.00  0.00     0.040 A 
ATOM     50  C   UNL     1       6.769   7.979  -7.835  1.00  0.00     0.040 A 
ATOM     51  F   UNL     1       8.346   7.970  -6.093  1.00  0.00    -0.206 F 
ATOM     52  C   UNL     1       5.447   8.061  -8.270  1.00  0.00     0.006 A 
ENDBRANCH  24  45
BRANCH  36  53
ATOM     53  C   UNL     1       9.532  12.534  -1.205  1.00  0.00     0.057 A 
ATOM     54  C   UNL     1      10.930  12.547  -1.139  1.00  0.00     0.134 A 
ATOM     55  C   UNL     1       8.870  13.753  -1.387  1.00  0.00     0.134 A 
ATOM     56  F   UNL     1      11.615  11.408  -0.951  1.00  0.00    -0.206 F 
ATOM     57  C   UNL     1      11.647  13.738  -1.226  1.00  0.00     0.040 A 
ATOM     58  C   UNL     1       9.578  14.947  -1.500  1.00  0.00     0.040 A 
ATOM     59  F   UNL     1       7.532  13.795  -1.465  1.00  0.00    -0.206 F 
ATOM     60  C   UNL     1      10.970  14.943  -1.407  1.00  0.00     0.006 A 
ENDBRANCH  36  53
ENDBRANCH  10  11
ENDBRANCH   3   5
ENDBRANCH   2   3
ENDBRANCH   1   2
BRANCH   1  61
ATOM     61  C   UNL     1       3.639  -1.286  -1.829  1.00  0.00     0.275 C 
BRANCH  61  62
ATOM     62  O   UNL     1       3.106   0.039  -1.623  1.00  0.00    -0.458 OA
BRANCH  62  63
ATOM     63  C   UNL     1       1.758   0.202  -1.611  1.00  0.00     0.338 C 
ATOM     64  O   UNL     1       0.917  -0.673  -1.689  1.00  0.00    -0.246 OA
BRANCH  63  65
ATOM     65  C   UNL     1       1.461   1.661  -1.559  1.00  0.00     0.068 A 
ATOM     66  C   UNL     1       2.100   2.489  -2.509  1.00  0.00     0.019 A 
ATOM     67  C   UNL     1       0.538   2.215  -0.644  1.00  0.00    -0.001 A 
ATOM     68  C   UNL     1       1.851   3.863  -2.540  1.00  0.00     0.040 A 
ATOM     69  C   UNL     1       0.339   3.614  -0.677  1.00  0.00     0.048 A 
ATOM     70  C   UNL     1       0.988   4.415  -1.610  1.00  0.00     0.123 A 
ATOM     71  F   UNL     1       0.766   5.736  -1.614  1.00  0.00    -0.207 F 
BRANCH  67  72
ATOM     72  C   UNL     1      -0.244   1.452   0.345  1.00  0.00    -0.016 A 
ATOM     73  C   UNL     1       0.318   1.021   1.555  1.00  0.00     0.012 A 
ATOM     74  C   UNL     1      -1.621   1.254   0.160  1.00  0.00     0.032 A 
ATOM     75  C   UNL     1      -0.455   0.448   2.565  1.00  0.00     0.041 A 
ATOM     76  C   UNL     1      -2.400   0.670   1.165  1.00  0.00     0.077 A 
ATOM     77  C   UNL     1      -1.814   0.281   2.367  1.00  0.00     0.141 A 
ATOM     78  Cl  UNL     1      -4.091   0.474   0.916  1.00  0.00    -0.081 Cl
ATOM     79  F   UNL     1      -2.549  -0.247   3.357  1.00  0.00    -0.205 F 
ENDBRANCH  67  72
ENDBRANCH  63  65
ENDBRANCH  62  63
ENDBRANCH  61  62
ENDBRANCH   1  61
TORSDOF 12
