REMARK SMILES Cc1cnn(C2(C(=O)OCCOC(=O)c3ccc(-c4c5nc(c(-c6c(F)cccc6F)c6ccc([nH]6)c(-c6c(F)cccc6F)c6nc(c(-c7c(F)cccc7F)c7ccc4[nH]7)C=C6)C=C5)cc3)CCN(C(=O)c3cc4ccccc4[nH]3)CC2)c1
REMARK SMILES IDX 11 1 10 2 9 3 7 4 8 5 6 6 69 7 84 8 70 9 83 10 71 11 72 12
REMARK SMILES IDX 73 13 5 14 1 15 2 16 3 17 85 18 4 19 74 20 75 21 82 22 76 23
REMARK SMILES IDX 81 24 77 26 80 27 78 28 79 29 12 30 13 31 14 32 15 33 16 34
REMARK SMILES IDX 68 35 17 36 67 37 18 38 19 39 20 40 61 41 21 42 66 43 60 44
REMARK SMILES IDX 62 45 22 46 65 47 59 48 58 49 23 51 49 52 32 53 48 54 33 55
REMARK SMILES IDX 36 56 47 57 63 58 34 59 35 60 46 62 64 63 37 64 24 65 25 66
REMARK SMILES IDX 30 67 26 68 27 69 29 70 31 71 28 72 50 73 51 74 56 75 52 76
REMARK SMILES IDX 53 77 55 78 57 79 54 80 38 81 39 82 44 83 40 84 41 85 43 86
REMARK SMILES IDX 45 87 42 88
REMARK H PARENT 82 25 62 50 36 61
REMARK Flexibility Score: inf
ROOT
ATOM      1  C   UNL     1      -0.786  -5.181  -6.986  1.00  0.00     0.275 C 
ENDROOT
BRANCH   1   2
ATOM      2  C   UNL     1      -2.054  -4.490  -6.489  1.00  0.00     0.274 C 
BRANCH   2   3
ATOM      3  O   UNL     1      -1.774  -3.182  -5.948  1.00  0.00    -0.460 OA
BRANCH   3   4
ATOM      4  C   UNL     1      -1.586  -3.088  -4.587  1.00  0.00     0.334 C 
ATOM      5  O   UNL     1      -1.818  -4.033  -3.844  1.00  0.00    -0.249 OA
BRANCH   4   6
ATOM      6  C   UNL     1      -1.282  -1.619  -4.160  1.00  0.00     0.163 C 
ATOM      7  C   UNL     1      -0.436  -0.869  -5.227  1.00  0.00     0.064 C 
ATOM      8  C   UNL     1      -2.709  -1.050  -4.057  1.00  0.00     0.064 C 
ATOM      9  C   UNL     1      -0.631   0.642  -5.280  1.00  0.00     0.123 C 
ATOM     10  C   UNL     1      -2.799   0.457  -4.084  1.00  0.00     0.123 C 
ATOM     11  N   UNL     1      -2.029   1.036  -5.181  1.00  0.00    -0.337 N 
ATOM     12  C   UNL     1      -2.528   1.988  -6.080  1.00  0.00     0.270 C 
ATOM     13  O   UNL     1      -1.919   2.312  -7.095  1.00  0.00    -0.267 OA
BRANCH   6  14
ATOM     14  N   UNL     1      -0.594  -1.534  -2.842  1.00  0.00    -0.255 N 
ATOM     15  C   UNL     1       0.863   0.072   0.121  1.00  0.00     0.048 C 
ATOM     16  C   UNL     1       0.346  -0.787  -0.968  1.00  0.00    -0.013 A 
ATOM     17  C   UNL     1       0.381  -2.188  -1.066  1.00  0.00     0.138 A 
ATOM     18  C   UNL     1      -0.270  -0.398  -2.135  1.00  0.00     0.113 A 
ATOM     19  N   UNL     1      -0.134  -2.633  -2.212  1.00  0.00    -0.180 NA
ENDBRANCH   6  14
BRANCH  12  20
ATOM     20  C   UNL     1      -3.837   2.529  -5.797  1.00  0.00     0.105 A 
ATOM     21  C   UNL     1      -4.382   3.015  -4.620  1.00  0.00     0.042 A 
ATOM     22  N   UNL     1      -4.817   2.642  -6.755  1.00  0.00    -0.351 N 
ATOM     23  C   UNL     1      -5.783   3.123  -4.808  1.00  0.00     0.000 A 
ATOM     24  C   UNL     1      -6.033   2.883  -6.158  1.00  0.00     0.046 A 
ATOM     25  H   UNL     1      -4.670   2.563  -7.725  1.00  0.00     0.167 HD
ATOM     26  C   UNL     1      -6.865   3.364  -3.943  1.00  0.00     0.010 A 
ATOM     27  C   UNL     1      -7.322   2.893  -6.698  1.00  0.00     0.026 A 
ATOM     28  C   UNL     1      -8.164   3.346  -4.460  1.00  0.00     0.001 A 
ATOM     29  C   UNL     1      -8.386   3.120  -5.818  1.00  0.00     0.002 A 
ENDBRANCH  12  20
ENDBRANCH   4   6
ENDBRANCH   3   4
ENDBRANCH   2   3
ENDBRANCH   1   2
BRANCH   1  30
ATOM     30  O   UNL     1       0.105  -5.465  -5.904  1.00  0.00    -0.458 OA
BRANCH  30  31
ATOM     31  C   UNL     1       0.917  -4.428  -5.603  1.00  0.00     0.338 C 
ATOM     32  O   UNL     1       0.926  -3.328  -6.130  1.00  0.00    -0.246 OA
BRANCH  31  33
ATOM     33  C   UNL     1       1.931  -4.806  -4.623  1.00  0.00     0.060 A 
ATOM     34  C   UNL     1       2.561  -3.754  -3.946  1.00  0.00     0.016 A 
ATOM     35  C   UNL     1       2.483  -6.086  -4.697  1.00  0.00     0.016 A 
ATOM     36  C   UNL     1       3.861  -3.918  -3.533  1.00  0.00     0.010 A 
ATOM     37  C   UNL     1       3.785  -6.250  -4.281  1.00  0.00     0.010 A 
ATOM     38  C   UNL     1       4.486  -5.131  -3.811  1.00  0.00    -0.014 A 
BRANCH  38  39
ATOM     39  C   UNL     1       5.935  -5.175  -3.727  1.00  0.00     0.031 A 
ATOM     40  C   UNL     1       6.517  -5.294  -2.365  1.00  0.00     0.074 A 
ATOM     41  C   UNL     1       6.644  -5.277  -4.869  1.00  0.00     0.049 A 
ATOM     42  N   UNL     1       7.553  -4.701  -1.867  1.00  0.00    -0.248 NA
ATOM     43  C   UNL     1       5.812  -6.171  -1.414  1.00  0.00     0.031 C 
ATOM     44  C   UNL     1       6.126  -5.455  -6.234  1.00  0.00     0.029 A 
ATOM     45  N   UNL     1       7.984  -5.426  -5.032  1.00  0.00    -0.354 N 
ATOM     46  C   UNL     1       7.719  -5.232  -0.589  1.00  0.00     0.074 A 
ATOM     47  C   UNL     1       6.574  -6.064  -0.329  1.00  0.00     0.031 C 
ATOM     48  C   UNL     1       7.105  -5.965  -7.010  1.00  0.00     0.029 A 
ATOM     49  C   UNL     1       8.325  -6.041  -6.225  1.00  0.00     0.049 A 
ATOM     50  H   UNL     1       8.647  -5.127  -4.368  1.00  0.00     0.167 HD
ATOM     51  C   UNL     1       8.861  -5.084   0.133  1.00  0.00     0.037 A 
ATOM     52  C   UNL     1       9.480  -6.698  -6.484  1.00  0.00     0.037 A 
ATOM     53  C   UNL     1       9.650  -3.975  -0.314  1.00  0.00     0.049 A 
ATOM     54  C   UNL     1      10.475  -6.291  -5.459  1.00  0.00     0.074 A 
ATOM     55  C   UNL     1       9.444  -2.611  -0.368  1.00  0.00     0.029 A 
ATOM     56  N   UNL     1      10.756  -4.216  -1.091  1.00  0.00    -0.354 N 
ATOM     57  N   UNL     1      10.993  -5.097  -5.365  1.00  0.00    -0.248 NA
ATOM     58  C   UNL     1      10.570  -7.105  -4.254  1.00  0.00     0.031 C 
ATOM     59  C   UNL     1      10.125  -2.178  -1.540  1.00  0.00     0.029 A 
ATOM     60  C   UNL     1      10.711  -3.306  -2.116  1.00  0.00     0.049 A 
ATOM     61  H   UNL     1      11.443  -4.904  -0.941  1.00  0.00     0.167 HD
ATOM     62  C   UNL     1      11.120  -4.865  -4.001  1.00  0.00     0.074 A 
ATOM     63  C   UNL     1      10.931  -6.170  -3.373  1.00  0.00     0.031 C 
ATOM     64  C   UNL     1      11.083  -3.604  -3.479  1.00  0.00     0.037 A 
BRANCH  51  65
ATOM     65  C   UNL     1       9.369  -6.109   1.105  1.00  0.00     0.057 A 
ATOM     66  C   UNL     1      10.370  -5.772   2.029  1.00  0.00     0.134 A 
ATOM     67  C   UNL     1       9.088  -7.486   0.990  1.00  0.00     0.134 A 
ATOM     68  F   UNL     1      10.748  -4.496   2.200  1.00  0.00    -0.206 F 
ATOM     69  C   UNL     1      11.065  -6.740   2.764  1.00  0.00     0.040 A 
ATOM     70  C   UNL     1       9.739  -8.456   1.755  1.00  0.00     0.040 A 
ATOM     71  F   UNL     1       8.238  -7.961   0.070  1.00  0.00    -0.206 F 
ATOM     72  C   UNL     1      10.750  -8.087   2.628  1.00  0.00     0.006 A 
ENDBRANCH  51  65
BRANCH  52  73
ATOM     73  C   UNL     1       9.626  -7.903  -7.334  1.00  0.00     0.057 A 
ATOM     74  C   UNL     1      10.866  -8.284  -7.856  1.00  0.00     0.134 A 
ATOM     75  C   UNL     1       8.579  -8.833  -7.495  1.00  0.00     0.134 A 
ATOM     76  F   UNL     1      11.940  -7.498  -7.695  1.00  0.00    -0.206 F 
ATOM     77  C   UNL     1      11.049  -9.505  -8.521  1.00  0.00     0.040 A 
ATOM     78  C   UNL     1       8.742 -10.044  -8.172  1.00  0.00     0.040 A 
ATOM     79  F   UNL     1       7.377  -8.635  -6.933  1.00  0.00    -0.206 F 
ATOM     80  C   UNL     1       9.984 -10.387  -8.685  1.00  0.00     0.006 A 
ENDBRANCH  52  73
BRANCH  64  81
ATOM     81  C   UNL     1      11.105  -2.437  -4.427  1.00  0.00     0.057 A 
ATOM     82  C   UNL     1      10.060  -2.163  -5.322  1.00  0.00     0.134 A 
ATOM     83  C   UNL     1      12.087  -1.452  -4.283  1.00  0.00     0.134 A 
ATOM     84  F   UNL     1       9.016  -2.991  -5.438  1.00  0.00    -0.206 F 
ATOM     85  C   UNL     1      10.013  -0.982  -6.067  1.00  0.00     0.040 A 
ATOM     86  C   UNL     1      12.036  -0.252  -4.998  1.00  0.00     0.040 A 
ATOM     87  F   UNL     1      13.079  -1.611  -3.392  1.00  0.00    -0.206 F 
ATOM     88  C   UNL     1      11.000  -0.017  -5.899  1.00  0.00     0.006 A 
ENDBRANCH  64  81
ENDBRANCH  38  39
ENDBRANCH  31  33
ENDBRANCH  30  31
ENDBRANCH   1  30
TORSDOF 13
