REMARK SMILES CS(=O)(=O)c1ccc(-c2cc(Cl)cnc2-c2ccc(C(=O)OCCOC(=O)c3ccc(-c4c5nc(c(-c6c(F)cccc6F)c6ccc([nH]6)c(-c6c(F)cccc6F)c6nc(c(-c7c(F)cccc7F)c7ccc4[nH]7)C=C6)C=C5)cc3)nc2)cc1
REMARK SMILES IDX 23 1 22 2 20 3 21 4 19 5 16 6 17 7 83 8 18 9 82 10 15 11
REMARK SMILES IDX 9 12 10 13 11 14 14 15 12 16 13 17 8 18 5 19 6 20 85 21 7 22
REMARK SMILES IDX 84 23 2 24 1 25 3 26 4 27 24 28 25 29 26 30 27 31 28 32
REMARK SMILES IDX 29 33 81 34 30 35 80 36 31 37 32 38 33 39 74 40 34 41 79 42
REMARK SMILES IDX 73 43 75 44 35 45 78 46 72 47 71 48 36 50 62 51 45 52 61 53
REMARK SMILES IDX 46 54 49 55 60 56 76 57 47 58 48 59 59 61 77 62 50 63 37 64
REMARK SMILES IDX 38 65 43 66 39 67 40 68 42 69 44 70 41 71 63 72 64 73 69 74
REMARK SMILES IDX 65 75 66 76 68 77 70 78 67 79 51 80 52 81 57 82 53 83 54 84
REMARK SMILES IDX 56 85 58 86 55 87
REMARK H PARENT 75 49 49 60
REMARK Flexibility Score: inf
ROOT
ATOM      1  C   UNL     1      -0.056  -0.517  -8.793  1.00  0.00     0.275 C 
ENDROOT
BRANCH   1   2
ATOM      2  O   UNL     1       0.045   0.732  -8.082  1.00  0.00    -0.457 OA
BRANCH   2   3
ATOM      3  C   UNL     1       1.174   0.874  -7.340  1.00  0.00     0.357 C 
ATOM      4  O   UNL     1       2.026   0.013  -7.172  1.00  0.00    -0.244 OA
BRANCH   3   5
ATOM      5  C   UNL     1       1.312   2.272  -6.830  1.00  0.00     0.148 A 
ATOM      6  C   UNL     1       1.795   4.740  -5.703  1.00  0.00     0.019 A 
ATOM      7  C   UNL     1       0.476   4.316  -5.922  1.00  0.00     0.014 A 
ATOM      8  C   UNL     1       2.808   3.909  -6.156  1.00  0.00     0.122 A 
ATOM      9  C   UNL     1       0.224   3.069  -6.505  1.00  0.00     0.037 A 
ATOM     10  N   UNL     1       2.597   2.682  -6.662  1.00  0.00    -0.249 NA
BRANCH   6  11
ATOM     11  C   UNL     1       2.139   5.868  -4.837  1.00  0.00     0.080 A 
ATOM     12  C   UNL     1       2.187   5.712  -3.430  1.00  0.00     0.010 A 
ATOM     13  C   UNL     1       2.586   6.818  -2.671  1.00  0.00     0.033 A 
ATOM     14  C   UNL     1       2.941   8.000  -3.315  1.00  0.00     0.060 A 
ATOM     15  N   UNL     1       2.491   7.010  -5.477  1.00  0.00    -0.254 NA
ATOM     16  Cl  UNL     1       3.448   9.365  -2.407  1.00  0.00    -0.083 Cl
ATOM     17  C   UNL     1       2.885   8.048  -4.700  1.00  0.00     0.132 A 
BRANCH  12  18
ATOM     18  C   UNL     1       1.841   4.430  -2.790  1.00  0.00    -0.016 A 
ATOM     19  C   UNL     1       1.006   1.885  -1.958  1.00  0.00     0.067 A 
ATOM     20  C   UNL     1       2.275   2.043  -2.515  1.00  0.00     0.021 A 
ATOM     21  C   UNL     1       0.163   2.985  -1.780  1.00  0.00     0.021 A 
ATOM     22  C   UNL     1       2.696   3.317  -2.903  1.00  0.00     0.010 A 
ATOM     23  C   UNL     1       0.584   4.252  -2.192  1.00  0.00     0.010 A 
BRANCH  19  24
ATOM     24  S   UNL     1       0.424   0.253  -1.564  1.00  0.00     0.175 S 
ATOM     25  C   UNL     1       1.073  -0.028   0.060  1.00  0.00     0.163 C 
ATOM     26  O   UNL     1       1.065  -0.672  -2.477  1.00  0.00    -0.224 OA
ATOM     27  O   UNL     1      -1.023   0.319  -1.468  1.00  0.00    -0.224 OA
ENDBRANCH  19  24
ENDBRANCH  12  18
ENDBRANCH   6  11
ENDBRANCH   3   5
ENDBRANCH   2   3
ENDBRANCH   1   2
BRANCH   1  28
ATOM     28  C   UNL     1       0.434  -0.382 -10.239  1.00  0.00     0.275 C 
BRANCH  28  29
ATOM     29  O   UNL     1       1.859  -0.176 -10.313  1.00  0.00    -0.458 OA
BRANCH  29  30
ATOM     30  C   UNL     1       2.249   1.111 -10.464  1.00  0.00     0.338 C 
ATOM     31  O   UNL     1       1.532   2.093 -10.563  1.00  0.00    -0.246 OA
BRANCH  30  32
ATOM     32  C   UNL     1       3.717   1.208 -10.415  1.00  0.00     0.060 A 
ATOM     33  C   UNL     1       4.301   1.625  -9.223  1.00  0.00     0.016 A 
ATOM     34  C   UNL     1       4.505   1.041 -11.552  1.00  0.00     0.016 A 
ATOM     35  C   UNL     1       5.651   1.942  -9.161  1.00  0.00     0.010 A 
ATOM     36  C   UNL     1       5.882   1.301 -11.477  1.00  0.00     0.010 A 
ATOM     37  C   UNL     1       6.463   1.778 -10.286  1.00  0.00    -0.014 A 
BRANCH  37  38
ATOM     38  C   UNL     1       7.901   2.146 -10.206  1.00  0.00     0.031 A 
ATOM     39  C   UNL     1       8.433   3.294 -11.019  1.00  0.00     0.074 A 
ATOM     40  C   UNL     1       8.721   1.487  -9.364  1.00  0.00     0.049 A 
ATOM     41  N   UNL     1       9.670   3.694 -11.176  1.00  0.00    -0.248 NA
ATOM     42  C   UNL     1       7.444   4.100 -11.751  1.00  0.00     0.031 C 
ATOM     43  C   UNL     1       8.320   0.397  -8.472  1.00  0.00     0.029 A 
ATOM     44  N   UNL     1      10.062   1.642  -9.116  1.00  0.00    -0.354 N 
ATOM     45  C   UNL     1       9.611   4.775 -12.046  1.00  0.00     0.074 A 
ATOM     46  C   UNL     1       8.219   4.962 -12.394  1.00  0.00     0.031 C 
ATOM     47  C   UNL     1       9.388  -0.010  -7.768  1.00  0.00     0.029 A 
ATOM     48  C   UNL     1      10.559   0.742  -8.204  1.00  0.00     0.049 A 
ATOM     49  H   UNL     1      10.615   2.332  -9.550  1.00  0.00     0.167 HD
ATOM     50  C   UNL     1      10.627   5.543 -12.508  1.00  0.00     0.037 A 
ATOM     51  C   UNL     1      11.822   0.519  -7.794  1.00  0.00     0.037 A 
ATOM     52  C   UNL     1      12.008   5.373 -12.139  1.00  0.00     0.049 A 
ATOM     53  C   UNL     1      12.937   1.350  -8.364  1.00  0.00     0.074 A 
ATOM     54  C   UNL     1      13.113   6.084 -12.576  1.00  0.00     0.029 A 
ATOM     55  N   UNL     1      12.472   4.433 -11.232  1.00  0.00    -0.354 N 
ATOM     56  N   UNL     1      12.876   2.332  -9.229  1.00  0.00    -0.248 NA
ATOM     57  C   UNL     1      14.298   1.034  -7.908  1.00  0.00     0.031 C 
ATOM     58  C   UNL     1      14.249   5.558 -11.951  1.00  0.00     0.029 A 
ATOM     59  C   UNL     1      13.846   4.544 -11.098  1.00  0.00     0.049 A 
ATOM     60  H   UNL     1      11.908   3.784 -10.753  1.00  0.00     0.167 HD
ATOM     61  C   UNL     1      14.184   2.759  -9.411  1.00  0.00     0.074 A 
ATOM     62  C   UNL     1      15.015   1.945  -8.549  1.00  0.00     0.031 C 
ATOM     63  C   UNL     1      14.656   3.734 -10.226  1.00  0.00     0.037 A 
BRANCH  50  64
ATOM     64  C   UNL     1      10.285   6.630 -13.483  1.00  0.00     0.057 A 
ATOM     65  C   UNL     1       9.659   7.816 -13.080  1.00  0.00     0.134 A 
ATOM     66  C   UNL     1      10.627   6.506 -14.836  1.00  0.00     0.134 A 
ATOM     67  F   UNL     1       9.294   7.990 -11.801  1.00  0.00    -0.206 F 
ATOM     68  C   UNL     1       9.371   8.834 -13.990  1.00  0.00     0.040 A 
ATOM     69  C   UNL     1      10.364   7.527 -15.752  1.00  0.00     0.040 A 
ATOM     70  F   UNL     1      11.233   5.398 -15.287  1.00  0.00    -0.206 F 
ATOM     71  C   UNL     1       9.731   8.694 -15.330  1.00  0.00     0.006 A 
ENDBRANCH  50  64
BRANCH  51  72
ATOM     72  C   UNL     1      12.109  -0.573  -6.829  1.00  0.00     0.057 A 
ATOM     73  C   UNL     1      12.552  -0.301  -5.531  1.00  0.00     0.134 A 
ATOM     74  C   UNL     1      11.967  -1.918  -7.194  1.00  0.00     0.134 A 
ATOM     75  F   UNL     1      12.732   0.966  -5.130  1.00  0.00    -0.206 F 
ATOM     76  C   UNL     1      12.861  -1.326  -4.635  1.00  0.00     0.040 A 
ATOM     77  C   UNL     1      12.245  -2.952  -6.300  1.00  0.00     0.040 A 
ATOM     78  F   UNL     1      11.547  -2.246  -8.425  1.00  0.00    -0.206 F 
ATOM     79  C   UNL     1      12.702  -2.657  -5.018  1.00  0.00     0.006 A 
ENDBRANCH  51  72
BRANCH  63  80
ATOM     80  C   UNL     1      16.132   3.992 -10.195  1.00  0.00     0.057 A 
ATOM     81  C   UNL     1      17.045   3.119 -10.799  1.00  0.00     0.134 A 
ATOM     82  C   UNL     1      16.641   5.141  -9.579  1.00  0.00     0.134 A 
ATOM     83  F   UNL     1      16.619   1.994 -11.393  1.00  0.00    -0.206 F 
ATOM     84  C   UNL     1      18.417   3.370 -10.773  1.00  0.00     0.040 A 
ATOM     85  C   UNL     1      18.010   5.414  -9.565  1.00  0.00     0.040 A 
ATOM     86  F   UNL     1      15.818   6.019  -8.987  1.00  0.00    -0.206 F 
ATOM     87  C   UNL     1      18.902   4.524 -10.159  1.00  0.00     0.006 A 
ENDBRANCH  63  80
ENDBRANCH  37  38
ENDBRANCH  30  32
ENDBRANCH  29  30
ENDBRANCH  28  29
ENDBRANCH   1  28
TORSDOF 14
