REMARK SMILES Cc1cs/c(=N\S(=O)(=O)c2ccc(/C=C/C(=O)OCCOC(=O)c3ccc(-c4c5nc(c(-c6c(F)cccc6F)c6ccc([nH]6)c(-c6c(F)cccc6F)c6nc(c(-c7c(F)cccc7F)c7ccc4[nH]7)C=C6)C=C5)cc3)cc2)[nH]1
REMARK SMILES IDX 19 1 18 2 16 3 17 4 15 5 14 6 13 7 10 8 11 9 79 10 12 11
REMARK SMILES IDX 78 12 7 13 8 14 9 15 6 16 1 17 2 18 3 19 80 20 4 21 5 22
REMARK SMILES IDX 20 24 21 25 22 26 23 27 24 28 25 29 77 30 26 31 76 32 27 33
REMARK SMILES IDX 28 34 29 35 70 36 30 37 75 38 69 39 71 40 31 41 74 42 68 43
REMARK SMILES IDX 67 44 32 46 58 47 41 48 57 49 42 50 45 51 56 52 72 53 43 54
REMARK SMILES IDX 44 55 55 57 73 58 46 59 33 60 34 61 39 62 35 63 36 64 38 65
REMARK SMILES IDX 40 66 37 67 59 68 60 69 65 70 61 71 62 72 64 73 66 74 63 75
REMARK SMILES IDX 47 76 48 77 53 78 49 79 50 80 52 81 54 82 51 83
REMARK H PARENT 80 23 71 45 45 56
REMARK Flexibility Score: inf
ROOT
ATOM      1  C   UNL     1     -10.292  -8.513   0.169  1.00  0.00     0.275 C 
ENDROOT
BRANCH   1   2
ATOM      2  O   UNL     1      -9.260  -7.516   0.047  1.00  0.00    -0.459 OA
BRANCH   2   3
ATOM      3  C   UNL     1      -9.616  -6.384  -0.603  1.00  0.00     0.330 C 
ATOM      4  O   UNL     1     -10.698  -6.164  -1.130  1.00  0.00    -0.247 OA
BRANCH   3   5
ATOM      5  C   UNL     1      -8.560  -5.353  -0.587  1.00  0.00     0.094 C 
ATOM      6  C   UNL     1      -7.380  -5.433   0.047  1.00  0.00     0.015 C 
BRANCH   6   7
ATOM      7  C   UNL     1      -6.433  -4.307   0.062  1.00  0.00    -0.025 A 
ATOM      8  C   UNL     1      -4.609  -2.177   0.069  1.00  0.00     0.089 A 
ATOM      9  C   UNL     1      -5.965  -1.929   0.293  1.00  0.00     0.023 A 
ATOM     10  C   UNL     1      -4.148  -3.481  -0.127  1.00  0.00     0.023 A 
ATOM     11  C   UNL     1      -6.869  -2.993   0.294  1.00  0.00     0.009 A 
ATOM     12  C   UNL     1      -5.063  -4.543  -0.123  1.00  0.00     0.009 A 
BRANCH   8  13
ATOM     13  S   UNL     1      -3.501  -0.775   0.043  1.00  0.00     0.285 S 
ATOM     14  O   UNL     1      -3.730  -0.087   1.298  1.00  0.00    -0.199 OA
ATOM     15  O   UNL     1      -3.748  -0.131  -1.232  1.00  0.00    -0.199 OA
BRANCH  13  16
ATOM     16  N   UNL     1      -2.015  -1.409   0.048  1.00  0.00    -0.130 NA
ATOM     17  C   UNL     1       2.751  -0.533   0.006  1.00  0.00     0.065 C 
ATOM     18  C   UNL     1       1.315  -0.139   0.004  1.00  0.00     0.024 A 
ATOM     19  C   UNL     1       0.842   1.118  -0.017  1.00  0.00     0.089 A 
ATOM     20  N   UNL     1       0.317  -1.094   0.026  1.00  0.00    -0.334 N 
ATOM     21  S   UNL     1      -0.909   1.143  -0.011  1.00  0.00    -0.104 S 
ATOM     22  C   UNL     1      -0.982  -0.642   0.025  1.00  0.00     0.199 A 
ATOM     23  H   UNL     1       0.526  -2.056   0.041  1.00  0.00     0.169 HD
ENDBRANCH  13  16
ENDBRANCH   8  13
ENDBRANCH   6   7
ENDBRANCH   3   5
ENDBRANCH   2   3
ENDBRANCH   1   2
BRANCH   1  24
ATOM     24  C   UNL     1     -10.942  -8.490   1.556  1.00  0.00     0.275 C 
BRANCH  24  25
ATOM     25  O   UNL     1     -11.673  -7.272   1.794  1.00  0.00    -0.458 OA
BRANCH  25  26
ATOM     26  C   UNL     1     -10.958  -6.282   2.379  1.00  0.00     0.338 C 
ATOM     27  O   UNL     1      -9.793  -6.327   2.740  1.00  0.00    -0.246 OA
BRANCH  26  28
ATOM     28  C   UNL     1     -11.757  -5.044   2.428  1.00  0.00     0.060 A 
ATOM     29  C   UNL     1     -11.193  -3.883   1.891  1.00  0.00     0.016 A 
ATOM     30  C   UNL     1     -13.005  -5.002   3.054  1.00  0.00     0.016 A 
ATOM     31  C   UNL     1     -11.875  -2.671   1.982  1.00  0.00     0.010 A 
ATOM     32  C   UNL     1     -13.687  -3.783   3.147  1.00  0.00     0.010 A 
ATOM     33  C   UNL     1     -13.122  -2.608   2.621  1.00  0.00    -0.014 A 
BRANCH  33  34
ATOM     34  C   UNL     1     -13.811  -1.302   2.760  1.00  0.00     0.031 A 
ATOM     35  C   UNL     1     -13.812  -0.584   4.079  1.00  0.00     0.074 A 
ATOM     36  C   UNL     1     -14.413  -0.748   1.692  1.00  0.00     0.049 A 
ATOM     37  N   UNL     1     -14.370   0.556   4.400  1.00  0.00    -0.248 NA
ATOM     38  C   UNL     1     -13.090  -1.234   5.183  1.00  0.00     0.031 C 
ATOM     39  C   UNL     1     -14.461  -1.335   0.353  1.00  0.00     0.029 A 
ATOM     40  N   UNL     1     -15.100   0.433   1.566  1.00  0.00    -0.354 N 
ATOM     41  C   UNL     1     -14.073   0.759   5.741  1.00  0.00     0.074 A 
ATOM     42  C   UNL     1     -13.307  -0.389   6.181  1.00  0.00     0.031 C 
ATOM     43  C   UNL     1     -15.138  -0.508  -0.462  1.00  0.00     0.029 A 
ATOM     44  C   UNL     1     -15.599   0.647   0.305  1.00  0.00     0.049 A 
ATOM     45  H   UNL     1     -15.224   1.067   2.309  1.00  0.00     0.167 HD
ATOM     46  C   UNL     1     -14.401   1.810   6.530  1.00  0.00     0.037 A 
ATOM     47  C   UNL     1     -16.357   1.651  -0.174  1.00  0.00     0.037 A 
ATOM     48  C   UNL     1     -15.157   2.955   6.092  1.00  0.00     0.049 A 
ATOM     49  C   UNL     1     -16.754   2.779   0.737  1.00  0.00     0.074 A 
ATOM     50  C   UNL     1     -15.519   4.079   6.815  1.00  0.00     0.029 A 
ATOM     51  N   UNL     1     -15.673   3.119   4.815  1.00  0.00    -0.354 N 
ATOM     52  N   UNL     1     -16.448   2.970   1.998  1.00  0.00    -0.248 NA
ATOM     53  C   UNL     1     -17.602   3.831   0.159  1.00  0.00     0.031 C 
ATOM     54  C   UNL     1     -16.289   4.904   5.987  1.00  0.00     0.029 A 
ATOM     55  C   UNL     1     -16.370   4.315   4.736  1.00  0.00     0.049 A 
ATOM     56  H   UNL     1     -15.560   2.482   4.074  1.00  0.00     0.167 HD
ATOM     57  C   UNL     1     -17.047   4.171   2.357  1.00  0.00     0.074 A 
ATOM     58  C   UNL     1     -17.722   4.672   1.177  1.00  0.00     0.031 C 
ATOM     59  C   UNL     1     -17.037   4.802   3.556  1.00  0.00     0.037 A 
BRANCH  46  60
ATOM     60  C   UNL     1     -13.959   1.762   7.963  1.00  0.00     0.057 A 
ATOM     61  C   UNL     1     -12.621   1.954   8.331  1.00  0.00     0.134 A 
ATOM     62  C   UNL     1     -14.889   1.562   8.991  1.00  0.00     0.134 A 
ATOM     63  F   UNL     1     -11.678   2.139   7.394  1.00  0.00    -0.206 F 
ATOM     64  C   UNL     1     -12.221   1.926   9.668  1.00  0.00     0.040 A 
ATOM     65  C   UNL     1     -14.505   1.556  10.333  1.00  0.00     0.040 A 
ATOM     66  F   UNL     1     -16.188   1.379   8.708  1.00  0.00    -0.206 F 
ATOM     67  C   UNL     1     -13.166   1.733  10.674  1.00  0.00     0.006 A 
ENDBRANCH  46  60
BRANCH  47  68
ATOM     68  C   UNL     1     -16.801   1.631  -1.590  1.00  0.00     0.057 A 
ATOM     69  C   UNL     1     -16.291   2.541  -2.523  1.00  0.00     0.134 A 
ATOM     70  C   UNL     1     -17.753   0.709  -2.041  1.00  0.00     0.134 A 
ATOM     71  F   UNL     1     -15.394   3.464  -2.144  1.00  0.00    -0.206 F 
ATOM     72  C   UNL     1     -16.720   2.542  -3.851  1.00  0.00     0.040 A 
ATOM     73  C   UNL     1     -18.173   0.683  -3.371  1.00  0.00     0.040 A 
ATOM     74  F   UNL     1     -18.280  -0.188  -1.194  1.00  0.00    -0.206 F 
ATOM     75  C   UNL     1     -17.660   1.607  -4.279  1.00  0.00     0.006 A 
ENDBRANCH  47  68
BRANCH  59  76
ATOM     76  C   UNL     1     -17.756   6.115   3.646  1.00  0.00     0.057 A 
ATOM     77  C   UNL     1     -19.155   6.191   3.663  1.00  0.00     0.134 A 
ATOM     78  C   UNL     1     -17.042   7.316   3.748  1.00  0.00     0.134 A 
ATOM     79  F   UNL     1     -19.897   5.079   3.555  1.00  0.00    -0.206 F 
ATOM     80  C   UNL     1     -19.817   7.416   3.759  1.00  0.00     0.040 A 
ATOM     81  C   UNL     1     -17.692   8.544   3.867  1.00  0.00     0.040 A 
ATOM     82  F   UNL     1     -15.700   7.312   3.744  1.00  0.00    -0.206 F 
ATOM     83  C   UNL     1     -19.085   8.597   3.867  1.00  0.00     0.006 A 
ENDBRANCH  59  76
ENDBRANCH  33  34
ENDBRANCH  26  28
ENDBRANCH  25  26
ENDBRANCH  24  25
ENDBRANCH   1  24
TORSDOF 14
