REMARK SMILES CC(C)C[C@H]([NH2+]C[C@@](C)(O)C#Cc1ccccc1)C(=O)OCCOC(=O)c1ccc(-c2c3nc(c(-c4c(F)cccc4F)c4ccc([nH]4)c(-c4c(F)cccc4F)c4nc(c(-c5c(F)cccc5F)c5ccc2[nH]5)C=C4)C=C3)cc1
REMARK SMILES IDX 21 1 19 2 20 3 5 4 4 5 2 6 1 7 3 8 6 9 7 12 8 13 9 14 10 15
REMARK SMILES IDX 11 17 12 18 13 19 14 20 18 21 15 22 17 23 16 24 22 25 23 26
REMARK SMILES IDX 24 27 25 28 26 29 27 30 28 31 80 32 29 33 79 34 30 35 31 36
REMARK SMILES IDX 32 37 73 38 33 39 78 40 72 41 74 42 34 43 77 44 71 45 70 46
REMARK SMILES IDX 35 48 61 49 44 50 60 51 45 52 48 53 59 54 75 55 46 56 47 57
REMARK SMILES IDX 58 59 76 60 49 61 36 62 37 63 42 64 38 65 39 66 41 67 43 68
REMARK SMILES IDX 40 69 62 70 63 71 68 72 64 73 65 74 67 75 69 76 66 77 50 78
REMARK SMILES IDX 51 79 56 80 52 81 53 82 55 83 57 84 54 85
REMARK H PARENT 6 10 6 11 10 16 74 47 48 58
REMARK Flexibility Score: inf
ROOT
ATOM      1  O   UNL     1      -3.765   2.142   0.738  1.00  0.00    -0.458 OA
ENDROOT
BRANCH   1   2
ATOM      2  C   UNL     1      -3.080   1.195   1.437  1.00  0.00     0.364 C 
ATOM      3  O   UNL     1      -3.611   0.270   2.045  1.00  0.00    -0.245 OA
BRANCH   2   4
ATOM      4  C   UNL     1      -1.560   1.400   1.425  1.00  0.00     0.293 C 
BRANCH   4   5
ATOM      5  C   UNL     1      -1.039   2.284   2.578  1.00  0.00     0.080 C 
BRANCH   5   6
ATOM      6  C   UNL     1      -2.057   2.909   3.562  1.00  0.00    -0.011 C 
ATOM      7  C   UNL     1      -2.729   1.912   4.514  1.00  0.00     0.007 C 
ATOM      8  C   UNL     1      -1.337   3.948   4.429  1.00  0.00     0.007 C 
ENDBRANCH   5   6
ENDBRANCH   4   5
BRANCH   4   9
ATOM      9  N   UNL     1      -1.118   1.847   0.083  1.00  0.00    -0.331 N 
ATOM     10  H   UNL     1      -0.959   2.854   0.121  1.00  0.00     0.347 HD
ATOM     11  H   UNL     1      -1.858   1.577  -0.565  1.00  0.00     0.347 HD
BRANCH   9  12
ATOM     12  C   UNL     1       0.109   1.211  -0.410  1.00  0.00     0.310 C 
BRANCH  12  13
ATOM     13  C   UNL     1       0.545   1.554  -1.878  1.00  0.00     0.171 C 
ATOM     14  C   UNL     1       0.634   3.067  -2.107  1.00  0.00     0.063 C 
BRANCH  13  15
ATOM     15  O   UNL     1       1.860   1.013  -2.085  1.00  0.00    -0.372 OA
ATOM     16  H   UNL     1       2.471   1.389  -1.431  1.00  0.00     0.212 HD
ENDBRANCH  13  15
BRANCH  13  17
ATOM     17  C   UNL     1      -0.346   0.952  -2.896  1.00  0.00    -0.057 C 
ATOM     18  C   UNL     1      -1.059   0.523  -3.762  1.00  0.00    -0.064 C 
BRANCH  18  19
ATOM     19  C   UNL     1      -1.943   0.083  -4.808  1.00  0.00     0.025 A 
ATOM     20  C   UNL     1      -1.554   0.152  -6.147  1.00  0.00     0.017 A 
ATOM     21  C   UNL     1      -3.225  -0.373  -4.497  1.00  0.00     0.017 A 
ATOM     22  C   UNL     1      -2.450  -0.211  -7.159  1.00  0.00     0.001 A 
ATOM     23  C   UNL     1      -4.122  -0.735  -5.503  1.00  0.00     0.001 A 
ATOM     24  C   UNL     1      -3.736  -0.647  -6.836  1.00  0.00     0.000 A 
ENDBRANCH  18  19
ENDBRANCH  13  17
ENDBRANCH  12  13
ENDBRANCH   9  12
ENDBRANCH   4   9
ENDBRANCH   2   4
ENDBRANCH   1   2
BRANCH   1  25
ATOM     25  C   UNL     1      -5.192   1.959   0.700  1.00  0.00     0.274 C 
BRANCH  25  26
ATOM     26  C   UNL     1      -5.658   1.033  -0.435  1.00  0.00     0.275 C 
BRANCH  26  27
ATOM     27  O   UNL     1      -5.330  -0.352  -0.207  1.00  0.00    -0.458 OA
BRANCH  27  28
ATOM     28  C   UNL     1      -4.101  -0.723  -0.640  1.00  0.00     0.338 C 
ATOM     29  O   UNL     1      -3.308  -0.029  -1.249  1.00  0.00    -0.246 OA
BRANCH  28  30
ATOM     30  C   UNL     1      -3.746  -2.051  -0.116  1.00  0.00     0.060 A 
ATOM     31  C   UNL     1      -4.586  -3.147  -0.281  1.00  0.00     0.016 A 
ATOM     32  C   UNL     1      -2.517  -2.191   0.541  1.00  0.00     0.016 A 
ATOM     33  C   UNL     1      -4.202  -4.376   0.256  1.00  0.00     0.010 A 
ATOM     34  C   UNL     1      -2.139  -3.409   1.091  1.00  0.00     0.010 A 
ATOM     35  C   UNL     1      -2.984  -4.510   0.953  1.00  0.00    -0.014 A 
BRANCH  35  36
ATOM     36  C   UNL     1      -2.550  -5.842   1.424  1.00  0.00     0.031 A 
ATOM     37  C   UNL     1      -2.547  -6.199   2.877  1.00  0.00     0.074 A 
ATOM     38  C   UNL     1      -2.158  -6.733   0.497  1.00  0.00     0.049 A 
ATOM     39  N   UNL     1      -2.387  -7.374   3.432  1.00  0.00    -0.248 NA
ATOM     40  C   UNL     1      -2.729  -5.098   3.833  1.00  0.00     0.031 C 
ATOM     41  C   UNL     1      -2.039  -6.452  -0.935  1.00  0.00     0.029 A 
ATOM     42  N   UNL     1      -1.821  -8.054   0.613  1.00  0.00    -0.354 N 
ATOM     43  C   UNL     1      -2.477  -7.161   4.801  1.00  0.00     0.074 A 
ATOM     44  C   UNL     1      -2.631  -5.734   4.993  1.00  0.00     0.031 C 
ATOM     45  C   UNL     1      -1.734  -7.589  -1.577  1.00  0.00     0.029 A 
ATOM     46  C   UNL     1      -1.606  -8.663  -0.598  1.00  0.00     0.049 A 
ATOM     47  H   UNL     1      -1.741  -8.520   1.476  1.00  0.00     0.167 HD
ATOM     48  C   UNL     1      -2.455  -8.080   5.798  1.00  0.00     0.037 A 
ATOM     49  C   UNL     1      -1.361  -9.953  -0.885  1.00  0.00     0.037 A 
ATOM     50  C   UNL     1      -2.256  -9.493   5.583  1.00  0.00     0.049 A 
ATOM     51  C   UNL     1      -1.315 -10.947   0.240  1.00  0.00     0.074 A 
ATOM     52  C   UNL     1      -2.260 -10.520   6.510  1.00  0.00     0.029 A 
ATOM     53  N   UNL     1      -1.988 -10.074   4.349  1.00  0.00    -0.354 N 
ATOM     54  N   UNL     1      -1.520 -10.761   1.522  1.00  0.00    -0.248 NA
ATOM     55  C   UNL     1      -1.014 -12.335  -0.128  1.00  0.00     0.031 C 
ATOM     56  C   UNL     1      -1.925 -11.709   5.849  1.00  0.00     0.029 A 
ATOM     57  C   UNL     1      -1.787 -11.438   4.497  1.00  0.00     0.049 A 
ATOM     58  H   UNL     1      -1.947  -9.587   3.494  1.00  0.00     0.167 HD
ATOM     59  C   UNL     1      -1.398 -12.011   2.112  1.00  0.00     0.074 A 
ATOM     60  C   UNL     1      -1.128 -12.949   1.040  1.00  0.00     0.031 C 
ATOM     61  C   UNL     1      -1.500 -12.355   3.421  1.00  0.00     0.037 A 
BRANCH  48  62
ATOM     62  C   UNL     1      -2.635  -7.576   7.204  1.00  0.00     0.057 A 
ATOM     63  C   UNL     1      -1.601  -7.675   8.144  1.00  0.00     0.134 A 
ATOM     64  C   UNL     1      -3.837  -6.996   7.635  1.00  0.00     0.134 A 
ATOM     65  F   UNL     1      -0.427  -8.232   7.811  1.00  0.00    -0.206 F 
ATOM     66  C   UNL     1      -1.750  -7.203   9.450  1.00  0.00     0.040 A 
ATOM     67  C   UNL     1      -3.986  -6.489   8.928  1.00  0.00     0.040 A 
ATOM     68  F   UNL     1      -4.873  -6.869   6.791  1.00  0.00    -0.206 F 
ATOM     69  C   UNL     1      -2.940  -6.595   9.841  1.00  0.00     0.006 A 
ENDBRANCH  48  62
BRANCH  49  70
ATOM     70  C   UNL     1      -1.195 -10.380  -2.296  1.00  0.00     0.057 A 
ATOM     71  C   UNL     1      -0.091  -9.976  -3.055  1.00  0.00     0.134 A 
ATOM     72  C   UNL     1      -2.139 -11.205  -2.918  1.00  0.00     0.134 A 
ATOM     73  F   UNL     1       0.842  -9.173  -2.522  1.00  0.00    -0.206 F 
ATOM     74  C   UNL     1       0.068 -10.374  -4.382  1.00  0.00     0.040 A 
ATOM     75  C   UNL     1      -1.977 -11.637  -4.234  1.00  0.00     0.040 A 
ATOM     76  F   UNL     1      -3.215 -11.631  -2.239  1.00  0.00    -0.206 F 
ATOM     77  C   UNL     1      -0.872 -11.217  -4.972  1.00  0.00     0.006 A 
ENDBRANCH  49  70
BRANCH  61  78
ATOM     78  C   UNL     1      -1.347 -13.815   3.749  1.00  0.00     0.057 A 
ATOM     79  C   UNL     1      -2.441 -14.559   4.210  1.00  0.00     0.134 A 
ATOM     80  C   UNL     1      -0.127 -14.489   3.601  1.00  0.00     0.134 A 
ATOM     81  F   UNL     1      -3.637 -13.977   4.386  1.00  0.00    -0.206 F 
ATOM     82  C   UNL     1      -2.330 -15.919   4.501  1.00  0.00     0.040 A 
ATOM     83  C   UNL     1      -0.013 -15.857   3.853  1.00  0.00     0.040 A 
ATOM     84  F   UNL     1       0.959 -13.841   3.152  1.00  0.00    -0.206 F 
ATOM     85  C   UNL     1      -1.117 -16.575   4.308  1.00  0.00     0.006 A 
ENDBRANCH  61  78
ENDBRANCH  35  36
ENDBRANCH  28  30
ENDBRANCH  27  28
ENDBRANCH  26  27
ENDBRANCH  25  26
ENDBRANCH   1  25
TORSDOF 19
