REMARK SMILES O=C(C[NH+]1CC2(CCCC2)C1)OCCOC(=O)c1ccc(-c2c3nc(c(-c4c(F)cccc4F)c4ccc([nH]4)c(-c4c(F)cccc4F)c4nc(c(-c5c(F)cccc5F)c5ccc2[nH]5)C=C4)C=C3)cc1
REMARK SMILES IDX 14 1 13 2 12 3 2 4 1 5 3 6 4 7 5 8 11 9 6 11 7 12 10 13 8 14
REMARK SMILES IDX 9 15 15 16 16 17 17 18 18 19 19 20 71 21 20 22 70 23 21 24
REMARK SMILES IDX 22 25 23 26 64 27 24 28 69 29 63 30 65 31 25 32 68 33 62 34
REMARK SMILES IDX 61 35 26 37 52 38 35 39 51 40 36 41 39 42 50 43 66 44 37 45
REMARK SMILES IDX 38 46 49 48 67 49 40 50 27 51 28 52 33 53 29 54 30 55 32 56
REMARK SMILES IDX 34 57 31 58 53 59 54 60 59 61 55 62 56 63 58 64 60 65 57 66
REMARK SMILES IDX 41 67 42 68 47 69 43 70 44 71 46 72 48 73 45 74
REMARK H PARENT 4 10 65 36 39 47
REMARK Flexibility Score: inf
ROOT
ATOM      1  C   UNL     1       4.609   2.150  -0.490  1.00  0.00     0.275 C 
ENDROOT
BRANCH   1   2
ATOM      2  C   UNL     1       4.751   0.741  -1.076  1.00  0.00     0.274 C 
BRANCH   2   3
ATOM      3  O   UNL     1       3.467   0.172  -1.399  1.00  0.00    -0.458 OA
BRANCH   3   4
ATOM      4  C   UNL     1       2.811  -0.743  -0.646  1.00  0.00     0.361 C 
ATOM      5  O   UNL     1       1.821  -1.315  -1.103  1.00  0.00    -0.245 OA
BRANCH   4   6
ATOM      6  C   UNL     1       3.276  -0.980   0.786  1.00  0.00     0.386 C 
BRANCH   6   7
ATOM      7  N   UNL     1       3.809  -2.344   0.962  1.00  0.00    -0.324 N 
ATOM      8  C   UNL     1       2.711  -3.305   1.215  1.00  0.00     0.275 C 
ATOM      9  C   UNL     1       4.294  -2.541   2.347  1.00  0.00     0.275 C 
ATOM     10  H   UNL     1       4.436  -2.460   0.165  1.00  0.00     0.348 HD
ATOM     11  C   UNL     1       2.927  -3.155   2.746  1.00  0.00     0.068 C 
ATOM     12  C   UNL     1       2.971  -4.462   3.550  1.00  0.00     0.019 C 
ATOM     13  C   UNL     1       1.967  -2.210   3.488  1.00  0.00     0.019 C 
ATOM     14  C   UNL     1       1.771  -4.364   4.487  1.00  0.00     0.001 C 
ATOM     15  C   UNL     1       1.752  -2.892   4.829  1.00  0.00     0.001 C 
ENDBRANCH   6   7
ENDBRANCH   4   6
ENDBRANCH   3   4
ENDBRANCH   2   3
ENDBRANCH   1   2
BRANCH   1  16
ATOM     16  O   UNL     1       4.161   2.126   0.883  1.00  0.00    -0.458 OA
BRANCH  16  17
ATOM     17  C   UNL     1       2.835   2.330   1.085  1.00  0.00     0.338 C 
ATOM     18  O   UNL     1       1.996   2.513   0.220  1.00  0.00    -0.246 OA
BRANCH  17  19
ATOM     19  C   UNL     1       2.494   2.171   2.523  1.00  0.00     0.060 A 
ATOM     20  C   UNL     1       1.211   1.709   2.848  1.00  0.00     0.016 A 
ATOM     21  C   UNL     1       3.395   2.480   3.549  1.00  0.00     0.016 A 
ATOM     22  C   UNL     1       0.828   1.569   4.186  1.00  0.00     0.010 A 
ATOM     23  C   UNL     1       3.004   2.353   4.891  1.00  0.00     0.010 A 
ATOM     24  C   UNL     1       1.713   1.911   5.219  1.00  0.00    -0.014 A 
BRANCH  24  25
ATOM     25  C   UNL     1       1.240   1.884   6.629  1.00  0.00     0.031 A 
ATOM     26  C   UNL     1       0.562   3.088   7.205  1.00  0.00     0.074 A 
ATOM     27  C   UNL     1       1.388   0.788   7.394  1.00  0.00     0.049 A 
ATOM     28  N   UNL     1       0.024   3.243   8.386  1.00  0.00    -0.248 NA
ATOM     29  C   UNL     1       0.520   4.284   6.353  1.00  0.00     0.031 C 
ATOM     30  C   UNL     1       2.096  -0.411   6.982  1.00  0.00     0.029 A 
ATOM     31  N   UNL     1       0.931   0.489   8.655  1.00  0.00    -0.354 N 
ATOM     32  C   UNL     1      -0.384   4.567   8.441  1.00  0.00     0.074 A 
ATOM     33  C   UNL     1      -0.045   5.165   7.165  1.00  0.00     0.031 C 
ATOM     34  C   UNL     1       1.943  -1.358   7.923  1.00  0.00     0.029 A 
ATOM     35  C   UNL     1       1.165  -0.815   9.029  1.00  0.00     0.049 A 
ATOM     36  H   UNL     1       0.481   1.145   9.236  1.00  0.00     0.167 HD
ATOM     37  C   UNL     1      -0.960   5.229   9.472  1.00  0.00     0.037 A 
ATOM     38  C   UNL     1       0.786  -1.496  10.129  1.00  0.00     0.037 A 
ATOM     39  C   UNL     1      -1.280   4.640  10.745  1.00  0.00     0.049 A 
ATOM     40  C   UNL     1       0.065  -0.761  11.225  1.00  0.00     0.074 A 
ATOM     41  C   UNL     1      -1.855   5.240  11.852  1.00  0.00     0.029 A 
ATOM     42  N   UNL     1      -1.049   3.316  11.086  1.00  0.00    -0.354 N 
ATOM     43  N   UNL     1      -0.334   0.487  11.257  1.00  0.00    -0.248 NA
ATOM     44  C   UNL     1      -0.219  -1.514  12.457  1.00  0.00     0.031 C 
ATOM     45  C   UNL     1      -1.939   4.289  12.875  1.00  0.00     0.029 A 
ATOM     46  C   UNL     1      -1.458   3.084  12.390  1.00  0.00     0.049 A 
ATOM     47  H   UNL     1      -0.653   2.640  10.490  1.00  0.00     0.167 HD
ATOM     48  C   UNL     1      -0.892   0.675  12.514  1.00  0.00     0.074 A 
ATOM     49  C   UNL     1      -0.831  -0.601  13.197  1.00  0.00     0.031 C 
ATOM     50  C   UNL     1      -1.382   1.812  13.063  1.00  0.00     0.037 A 
BRANCH  37  51
ATOM     51  C   UNL     1      -1.217   6.690   9.273  1.00  0.00     0.057 A 
ATOM     52  C   UNL     1      -2.245   7.157   8.445  1.00  0.00     0.134 A 
ATOM     53  C   UNL     1      -0.414   7.643   9.912  1.00  0.00     0.134 A 
ATOM     54  F   UNL     1      -3.032   6.293   7.786  1.00  0.00    -0.206 F 
ATOM     55  C   UNL     1      -2.450   8.522   8.240  1.00  0.00     0.040 A 
ATOM     56  C   UNL     1      -0.624   9.010   9.734  1.00  0.00     0.040 A 
ATOM     57  F   UNL     1       0.590   7.259  10.716  1.00  0.00    -0.206 F 
ATOM     58  C   UNL     1      -1.640   9.452   8.889  1.00  0.00     0.006 A 
ENDBRANCH  37  51
BRANCH  38  59
ATOM     59  C   UNL     1       1.068  -2.951  10.264  1.00  0.00     0.057 A 
ATOM     60  C   UNL     1       0.021  -3.883  10.291  1.00  0.00     0.134 A 
ATOM     61  C   UNL     1       2.369  -3.448  10.404  1.00  0.00     0.134 A 
ATOM     62  F   UNL     1      -1.252  -3.471  10.191  1.00  0.00    -0.206 F 
ATOM     63  C   UNL     1       0.255  -5.248  10.470  1.00  0.00     0.040 A 
ATOM     64  C   UNL     1       2.620  -4.814  10.553  1.00  0.00     0.040 A 
ATOM     65  F   UNL     1       3.418  -2.613  10.389  1.00  0.00    -0.206 F 
ATOM     66  C   UNL     1       1.560  -5.717  10.595  1.00  0.00     0.006 A 
ENDBRANCH  38  59
BRANCH  50  67
ATOM     67  C   UNL     1      -1.875   1.730  14.477  1.00  0.00     0.057 A 
ATOM     68  C   UNL     1      -0.989   1.624  15.557  1.00  0.00     0.134 A 
ATOM     69  C   UNL     1      -3.244   1.794  14.765  1.00  0.00     0.134 A 
ATOM     70  F   UNL     1       0.334   1.544  15.347  1.00  0.00    -0.206 F 
ATOM     71  C   UNL     1      -1.448   1.566  16.874  1.00  0.00     0.040 A 
ATOM     72  C   UNL     1      -3.714   1.759  16.079  1.00  0.00     0.040 A 
ATOM     73  F   UNL     1      -4.143   1.901  13.776  1.00  0.00    -0.206 F 
ATOM     74  C   UNL     1      -2.815   1.641  17.137  1.00  0.00     0.006 A 
ENDBRANCH  50  67
ENDBRANCH  24  25
ENDBRANCH  17  19
ENDBRANCH  16  17
ENDBRANCH   1  16
TORSDOF 12
