REMARK SMILES O=C(OCCOC(=O)c1cc(SCc2csc(-c3ccsc3)n2)ccn1)c1ccc(-c2c3nc(c(-c4c(F)cccc4F)c4ccc([nH]4)c(-c4c(F)cccc4F)c4nc(c(-c5c(F)cccc5F)c5ccc2[nH]5)C=C4)C=C3)cc1
REMARK SMILES IDX 5 1 4 2 3 3 2 4 1 5 27 6 28 7 80 8 29 9 79 10 30 11 31 12
REMARK SMILES IDX 32 13 73 14 33 15 78 16 72 17 74 18 34 19 77 20 71 21 70 22
REMARK SMILES IDX 35 24 61 25 44 26 60 27 45 28 48 29 59 30 75 31 46 32 47 33
REMARK SMILES IDX 58 35 76 36 49 37 36 38 37 39 42 40 38 41 39 42 41 43 43 44
REMARK SMILES IDX 40 45 62 46 63 47 68 48 64 49 65 50 67 51 69 52 66 53 50 54
REMARK SMILES IDX 51 55 56 56 52 57 53 58 55 59 57 60 54 61 6 62 7 63 8 64
REMARK SMILES IDX 9 65 10 66 26 67 11 68 25 69 24 70 12 71 13 72 14 73 15 74
REMARK SMILES IDX 23 75 16 76 17 77 18 78 19 79 22 80 20 81 21 82
REMARK H PARENT 74 23 48 34
REMARK Flexibility Score: inf
ROOT
ATOM      1  C   UNL     1       4.192  -2.003  -0.771  1.00  0.00     0.275 C 
ENDROOT
BRANCH   1   2
ATOM      2  C   UNL     1       4.346  -1.144   0.486  1.00  0.00     0.275 C 
BRANCH   2   3
ATOM      3  O   UNL     1       3.106  -0.521   0.871  1.00  0.00    -0.458 OA
BRANCH   3   4
ATOM      4  C   UNL     1       2.696   0.766   0.785  1.00  0.00     0.338 C 
ATOM      5  O   UNL     1       1.823   1.144   1.567  1.00  0.00    -0.246 OA
BRANCH   4   6
ATOM      6  C   UNL     1       3.176   1.760  -0.238  1.00  0.00     0.060 A 
ATOM      7  C   UNL     1       4.294   1.638  -1.061  1.00  0.00     0.016 A 
ATOM      8  C   UNL     1       2.408   2.937  -0.378  1.00  0.00     0.016 A 
ATOM      9  C   UNL     1       4.644   2.652  -1.962  1.00  0.00     0.010 A 
ATOM     10  C   UNL     1       2.752   3.952  -1.287  1.00  0.00     0.010 A 
ATOM     11  C   UNL     1       3.898   3.830  -2.072  1.00  0.00    -0.014 A 
BRANCH  11  12
ATOM     12  C   UNL     1       4.395   4.968  -2.897  1.00  0.00     0.031 A 
ATOM     13  C   UNL     1       5.097   6.099  -2.222  1.00  0.00     0.074 A 
ATOM     14  C   UNL     1       4.386   4.944  -4.243  1.00  0.00     0.049 A 
ATOM     15  N   UNL     1       5.712   7.117  -2.762  1.00  0.00    -0.248 NA
ATOM     16  C   UNL     1       5.172   6.042  -0.757  1.00  0.00     0.031 C 
ATOM     17  C   UNL     1       3.910   3.814  -5.005  1.00  0.00     0.029 A 
ATOM     18  N   UNL     1       4.834   5.821  -5.203  1.00  0.00    -0.354 N 
ATOM     19  C   UNL     1       6.239   7.833  -1.704  1.00  0.00     0.074 A 
ATOM     20  C   UNL     1       5.866   7.136  -0.490  1.00  0.00     0.031 C 
ATOM     21  C   UNL     1       4.080   4.049  -6.311  1.00  0.00     0.029 A 
ATOM     22  C   UNL     1       4.674   5.355  -6.490  1.00  0.00     0.049 A 
ATOM     23  H   UNL     1       5.230   6.697  -4.992  1.00  0.00     0.167 HD
ATOM     24  C   UNL     1       6.966   8.973  -1.746  1.00  0.00     0.037 A 
ATOM     25  C   UNL     1       4.979   5.875  -7.694  1.00  0.00     0.037 A 
ATOM     26  C   UNL     1       7.296   9.683  -2.952  1.00  0.00     0.049 A 
ATOM     27  C   UNL     1       5.675   7.196  -7.719  1.00  0.00     0.074 A 
ATOM     28  C   UNL     1       7.930  10.905  -3.085  1.00  0.00     0.029 A 
ATOM     29  N   UNL     1       7.005   9.242  -4.238  1.00  0.00    -0.354 N 
ATOM     30  N   UNL     1       6.113   7.897  -6.702  1.00  0.00    -0.248 NA
ATOM     31  C   UNL     1       5.920   7.806  -9.031  1.00  0.00     0.031 C 
ATOM     32  C   UNL     1       7.970  11.231  -4.446  1.00  0.00     0.029 A 
ATOM     33  C   UNL     1       7.413  10.187  -5.168  1.00  0.00     0.049 A 
ATOM     34  H   UNL     1       6.574   8.385  -4.457  1.00  0.00     0.167 HD
ATOM     35  C   UNL     1       6.695   9.027  -7.246  1.00  0.00     0.074 A 
ATOM     36  C   UNL     1       6.573   8.909  -8.687  1.00  0.00     0.031 C 
ATOM     37  C   UNL     1       7.273  10.066  -6.599  1.00  0.00     0.037 A 
BRANCH  24  38
ATOM     38  C   UNL     1       7.330   9.549  -0.413  1.00  0.00     0.057 A 
ATOM     39  C   UNL     1       8.294   8.958   0.415  1.00  0.00     0.134 A 
ATOM     40  C   UNL     1       6.607  10.634   0.097  1.00  0.00     0.134 A 
ATOM     41  F   UNL     1       8.986   7.888  -0.004  1.00  0.00    -0.206 F 
ATOM     42  C   UNL     1       8.491   9.398   1.725  1.00  0.00     0.040 A 
ATOM     43  C   UNL     1       6.813  11.097   1.396  1.00  0.00     0.040 A 
ATOM     44  F   UNL     1       5.662  11.231  -0.643  1.00  0.00    -0.206 F 
ATOM     45  C   UNL     1       7.745  10.468   2.219  1.00  0.00     0.006 A 
ENDBRANCH  24  38
BRANCH  25  46
ATOM     46  C   UNL     1       4.636   5.138  -8.946  1.00  0.00     0.057 A 
ATOM     47  C   UNL     1       5.622   4.631  -9.801  1.00  0.00     0.134 A 
ATOM     48  C   UNL     1       3.302   4.877  -9.294  1.00  0.00     0.134 A 
ATOM     49  F   UNL     1       6.920   4.854  -9.545  1.00  0.00    -0.206 F 
ATOM     50  C   UNL     1       5.298   3.895 -10.946  1.00  0.00     0.040 A 
ATOM     51  C   UNL     1       2.963   4.118 -10.417  1.00  0.00     0.040 A 
ATOM     52  F   UNL     1       2.301   5.328  -8.523  1.00  0.00    -0.206 F 
ATOM     53  C   UNL     1       3.964   3.627 -11.251  1.00  0.00     0.006 A 
ENDBRANCH  25  46
BRANCH  37  54
ATOM     54  C   UNL     1       7.818  11.168  -7.452  1.00  0.00     0.057 A 
ATOM     55  C   UNL     1       6.977  12.079  -8.103  1.00  0.00     0.134 A 
ATOM     56  C   UNL     1       9.200  11.349  -7.580  1.00  0.00     0.134 A 
ATOM     57  F   UNL     1       5.644  11.944  -8.033  1.00  0.00    -0.206 F 
ATOM     58  C   UNL     1       7.493  13.130  -8.860  1.00  0.00     0.040 A 
ATOM     59  C   UNL     1       9.727  12.410  -8.316  1.00  0.00     0.040 A 
ATOM     60  F   UNL     1      10.056  10.508  -6.981  1.00  0.00    -0.206 F 
ATOM     61  C   UNL     1       8.872  13.303  -8.959  1.00  0.00     0.006 A 
ENDBRANCH  37  54
ENDBRANCH  11  12
ENDBRANCH   4   6
ENDBRANCH   3   4
ENDBRANCH   2   3
ENDBRANCH   1   2
BRANCH   1  62
ATOM     62  O   UNL     1       3.667  -1.251  -1.872  1.00  0.00    -0.457 OA
BRANCH  62  63
ATOM     63  C   UNL     1       2.308  -1.282  -1.998  1.00  0.00     0.357 C 
ATOM     64  O   UNL     1       1.530  -1.967  -1.371  1.00  0.00    -0.244 OA
BRANCH  63  65
ATOM     65  C   UNL     1       1.940  -0.255  -3.003  1.00  0.00     0.149 A 
ATOM     66  C   UNL     1       2.553  -0.277  -4.249  1.00  0.00     0.051 A 
ATOM     67  N   UNL     1       1.046   0.681  -2.597  1.00  0.00    -0.249 NA
ATOM     68  C   UNL     1       2.239   0.735  -5.136  1.00  0.00     0.012 A 
ATOM     69  C   UNL     1       0.753   1.652  -3.478  1.00  0.00     0.113 A 
ATOM     70  C   UNL     1       1.301   1.706  -4.747  1.00  0.00     0.035 A 
BRANCH  68  71
ATOM     71  S   UNL     1       2.906   0.848  -6.775  1.00  0.00    -0.120 SA
BRANCH  71  72
ATOM     72  C   UNL     1       4.657   0.356  -6.747  1.00  0.00     0.132 C 
BRANCH  72  73
ATOM     73  C   UNL     1       5.610   0.586  -5.597  1.00  0.00     0.062 A 
ATOM     74  C   UNL     1       6.199  -0.451  -4.893  1.00  0.00     0.091 A 
ATOM     75  N   UNL     1       6.213   1.830  -5.351  1.00  0.00    -0.240 NA
ATOM     76  S   UNL     1       7.613   0.079  -4.092  1.00  0.00    -0.122 S 
ATOM     77  C   UNL     1       7.310   1.690  -4.623  1.00  0.00     0.124 A 
BRANCH  77  78
ATOM     78  C   UNL     1       8.232   2.809  -4.192  1.00  0.00     0.021 A 
ATOM     79  C   UNL     1       7.858   3.967  -3.454  1.00  0.00     0.023 A 
ATOM     80  C   UNL     1       9.597   2.782  -4.397  1.00  0.00     0.076 A 
ATOM     81  C   UNL     1       8.933   4.738  -3.065  1.00  0.00     0.065 A 
ATOM     82  S   UNL     1      10.400   4.121  -3.682  1.00  0.00    -0.152 S 
ENDBRANCH  77  78
ENDBRANCH  72  73
ENDBRANCH  71  72
ENDBRANCH  68  71
ENDBRANCH  63  65
ENDBRANCH  62  63
ENDBRANCH   1  62
TORSDOF 15
