REMARK SMILES O=C(OCCOC(=O)[C@@H]1CC[C@@H](CNC(=O)c2ccno2)O1)c1ccc(-c2c3nc(c(-c4c(F)cccc4F)c4ccc([nH]4)c(-c4c(F)cccc4F)c4nc(c(-c5c(F)cccc5F)c5ccc2[nH]5)C=C4)C=C3)cc1
REMARK SMILES IDX 5 1 4 2 3 3 2 4 1 5 23 6 24 7 76 8 25 9 75 10 26 11 27 12
REMARK SMILES IDX 28 13 69 14 29 15 74 16 68 17 70 18 30 19 73 20 67 21 66 22
REMARK SMILES IDX 31 24 57 25 40 26 56 27 41 28 44 29 55 30 71 31 42 32 43 33
REMARK SMILES IDX 54 35 72 36 45 37 32 38 33 39 38 40 34 41 35 42 37 43 39 44
REMARK SMILES IDX 36 45 58 46 59 47 64 48 60 49 61 50 63 51 65 52 62 53 46 54
REMARK SMILES IDX 47 55 52 56 48 57 49 58 51 59 53 60 50 61 6 62 7 63 8 64
REMARK SMILES IDX 9 65 10 66 22 67 11 68 12 69 13 70 14 71 15 72 16 74 17 75
REMARK SMILES IDX 18 76 21 77 19 78 20 79
REMARK H PARENT 70 23 44 34 14 73
REMARK Flexibility Score: inf
ROOT
ATOM      1  C   UNL     1       3.893   1.892  -0.974  1.00  0.00     0.274 C 
ENDROOT
BRANCH   1   2
ATOM      2  C   UNL     1       4.221   0.517  -1.566  1.00  0.00     0.275 C 
BRANCH   2   3
ATOM      3  O   UNL     1       3.208  -0.468  -1.302  1.00  0.00    -0.458 OA
BRANCH   3   4
ATOM      4  C   UNL     1       3.118  -1.374  -0.301  1.00  0.00     0.338 C 
ATOM      5  O   UNL     1       2.292  -2.280  -0.414  1.00  0.00    -0.246 OA
BRANCH   4   6
ATOM      6  C   UNL     1       3.831  -1.256   1.018  1.00  0.00     0.060 A 
ATOM      7  C   UNL     1       4.944  -0.464   1.304  1.00  0.00     0.016 A 
ATOM      8  C   UNL     1       3.240  -1.951   2.093  1.00  0.00     0.016 A 
ATOM      9  C   UNL     1       5.388  -0.281   2.616  1.00  0.00     0.010 A 
ATOM     10  C   UNL     1       3.637  -1.725   3.414  1.00  0.00     0.010 A 
ATOM     11  C   UNL     1       4.727  -0.892   3.681  1.00  0.00    -0.014 A 
BRANCH  11  12
ATOM     12  C   UNL     1       5.323  -0.829   5.032  1.00  0.00     0.031 A 
ATOM     13  C   UNL     1       5.981  -2.074   5.554  1.00  0.00     0.074 A 
ATOM     14  C   UNL     1       5.345   0.320   5.735  1.00  0.00     0.049 A 
ATOM     15  N   UNL     1       6.591  -2.280   6.690  1.00  0.00    -0.248 NA
ATOM     16  C   UNL     1       5.931  -3.256   4.675  1.00  0.00     0.031 C 
ATOM     17  C   UNL     1       4.767   1.595   5.305  1.00  0.00     0.029 A 
ATOM     18  N   UNL     1       5.901   0.605   6.956  1.00  0.00    -0.354 N 
ATOM     19  C   UNL     1       6.985  -3.611   6.659  1.00  0.00     0.074 A 
ATOM     20  C   UNL     1       6.476  -4.186   5.437  1.00  0.00     0.031 C 
ATOM     21  C   UNL     1       5.022   2.532   6.237  1.00  0.00     0.029 A 
ATOM     22  C   UNL     1       5.761   1.919   7.337  1.00  0.00     0.049 A 
ATOM     23  H   UNL     1       6.358  -0.069   7.509  1.00  0.00     0.167 HD
ATOM     24  C   UNL     1       7.745  -4.288   7.548  1.00  0.00     0.037 A 
ATOM     25  C   UNL     1       6.194   2.545   8.450  1.00  0.00     0.037 A 
ATOM     26  C   UNL     1       8.267  -3.702   8.747  1.00  0.00     0.049 A 
ATOM     27  C   UNL     1       6.985   1.750   9.461  1.00  0.00     0.074 A 
ATOM     28  C   UNL     1       9.033  -4.290   9.735  1.00  0.00     0.029 A 
ATOM     29  N   UNL     1       8.073  -2.378   9.115  1.00  0.00    -0.354 N 
ATOM     30  N   UNL     1       7.369   0.495   9.412  1.00  0.00    -0.248 NA
ATOM     31  C   UNL     1       7.408   2.458  10.678  1.00  0.00     0.031 C 
ATOM     32  C   UNL     1       9.267  -3.330  10.724  1.00  0.00     0.029 A 
ATOM     33  C   UNL     1       8.692  -2.132  10.326  1.00  0.00     0.049 A 
ATOM     34  H   UNL     1       7.570  -1.713   8.592  1.00  0.00     0.167 HD
ATOM     35  C   UNL     1       8.106   0.275  10.570  1.00  0.00     0.074 A 
ATOM     36  C   UNL     1       8.127   1.530  11.294  1.00  0.00     0.031 C 
ATOM     37  C   UNL     1       8.710  -0.860  11.004  1.00  0.00     0.037 A 
BRANCH  24  38
ATOM     38  C   UNL     1       8.017  -5.730   7.238  1.00  0.00     0.057 A 
ATOM     39  C   UNL     1       8.831  -6.115   6.163  1.00  0.00     0.134 A 
ATOM     40  C   UNL     1       7.402  -6.745   7.979  1.00  0.00     0.134 A 
ATOM     41  F   UNL     1       9.423  -5.189   5.392  1.00  0.00    -0.206 F 
ATOM     42  C   UNL     1       8.984  -7.456   5.807  1.00  0.00     0.040 A 
ATOM     43  C   UNL     1       7.573  -8.091   7.652  1.00  0.00     0.040 A 
ATOM     44  F   UNL     1       6.605  -6.445   9.015  1.00  0.00    -0.206 F 
ATOM     45  C   UNL     1       8.355  -8.448   6.555  1.00  0.00     0.006 A 
ENDBRANCH  24  38
BRANCH  25  46
ATOM     46  C   UNL     1       5.910   3.989   8.675  1.00  0.00     0.057 A 
ATOM     47  C   UNL     1       6.940   4.937   8.730  1.00  0.00     0.134 A 
ATOM     48  C   UNL     1       4.606   4.451   8.896  1.00  0.00     0.134 A 
ATOM     49  F   UNL     1       8.214   4.560   8.547  1.00  0.00    -0.206 F 
ATOM     50  C   UNL     1       6.691   6.279   9.032  1.00  0.00     0.040 A 
ATOM     51  C   UNL     1       4.339   5.795   9.168  1.00  0.00     0.040 A 
ATOM     52  F   UNL     1       3.571   3.598   8.862  1.00  0.00    -0.206 F 
ATOM     53  C   UNL     1       5.385   6.711   9.250  1.00  0.00     0.006 A 
ENDBRANCH  25  46
BRANCH  37  54
ATOM     54  C   UNL     1       9.478  -0.785  12.290  1.00  0.00     0.057 A 
ATOM     55  C   UNL     1       8.837  -0.684  13.530  1.00  0.00     0.134 A 
ATOM     56  C   UNL     1      10.875  -0.895  12.287  1.00  0.00     0.134 A 
ATOM     57  F   UNL     1       7.502  -0.568  13.598  1.00  0.00    -0.206 F 
ATOM     58  C   UNL     1       9.560  -0.678  14.723  1.00  0.00     0.040 A 
ATOM     59  C   UNL     1      11.606  -0.921  13.475  1.00  0.00     0.040 A 
ATOM     60  F   UNL     1      11.548  -1.009  11.132  1.00  0.00    -0.206 F 
ATOM     61  C   UNL     1      10.948  -0.807  14.697  1.00  0.00     0.006 A 
ENDBRANCH  37  54
ENDBRANCH  11  12
ENDBRANCH   4   6
ENDBRANCH   3   4
ENDBRANCH   2   3
ENDBRANCH   1   2
BRANCH   1  62
ATOM     62  O   UNL     1       3.417   1.801   0.380  1.00  0.00    -0.460 OA
BRANCH  62  63
ATOM     63  C   UNL     1       2.093   2.075   0.598  1.00  0.00     0.335 C 
ATOM     64  O   UNL     1       1.300   2.431  -0.262  1.00  0.00    -0.249 OA
BRANCH  63  65
ATOM     65  C   UNL     1       1.736   1.795   2.065  1.00  0.00     0.228 C 
ATOM     66  C   UNL     1       0.919   0.518   2.165  1.00  0.00     0.047 C 
ATOM     67  O   UNL     1       0.946   2.780   2.753  1.00  0.00    -0.361 OA
ATOM     68  C   UNL     1       0.347   0.631   3.546  1.00  0.00     0.037 C 
ATOM     69  C   UNL     1      -0.054   2.091   3.536  1.00  0.00     0.138 C 
BRANCH  69  70
ATOM     70  C   UNL     1      -0.231   2.654   4.952  1.00  0.00     0.148 C 
BRANCH  70  71
ATOM     71  N   UNL     1       0.895   3.446   5.417  1.00  0.00    -0.347 N 
ATOM     72  C   UNL     1       1.045   4.815   5.334  1.00  0.00     0.289 C 
ATOM     73  H   UNL     1       1.633   2.950   5.840  1.00  0.00     0.164 HD
ATOM     74  O   UNL     1       2.174   5.279   5.487  1.00  0.00    -0.266 OA
BRANCH  72  75
ATOM     75  C   UNL     1      -0.129   5.622   5.105  1.00  0.00     0.224 A 
ATOM     76  C   UNL     1      -1.402   5.608   5.634  1.00  0.00     0.079 A 
ATOM     77  O   UNL     1      -0.045   6.642   4.203  1.00  0.00    -0.351 OA
ATOM     78  C   UNL     1      -2.084   6.613   4.932  1.00  0.00     0.159 A 
ATOM     79  N   UNL     1      -1.287   7.250   4.073  1.00  0.00    -0.088 NA
ENDBRANCH  72  75
ENDBRANCH  70  71
ENDBRANCH  69  70
ENDBRANCH  63  65
ENDBRANCH  62  63
ENDBRANCH   1  62
TORSDOF 14
