REMARK SMILES C[C@H](O)C[NH2+][C@H](CC(=O)Nc1cccc2ccccc12)C(=O)OCCOC(=O)c1ccc(-c2c3nc(c(-c4c(F)cccc4F)c4ccc([nH]4)c(-c4c(F)cccc4F)c4nc(c(-c5c(F)cccc5F)c5ccc2[nH]5)C=C4)C=C3)cc1
REMARK SMILES IDX 24 1 23 2 21 3 22 4 6 5 5 6 4 9 2 10 1 11 3 12 7 14 8 15
REMARK SMILES IDX 9 16 10 17 11 19 12 20 20 21 13 22 15 23 19 24 14 25 16 26
REMARK SMILES IDX 18 27 17 28 25 29 26 30 27 31 28 32 29 33 30 34 82 35 31 36
REMARK SMILES IDX 81 37 32 38 33 39 34 40 75 41 35 42 80 43 74 44 76 45 36 46
REMARK SMILES IDX 79 47 73 48 72 49 37 51 63 52 46 53 62 54 47 55 50 56 61 57
REMARK SMILES IDX 77 58 48 59 49 60 60 62 78 63 51 64 38 65 39 66 44 67 40 68
REMARK SMILES IDX 41 69 43 70 45 71 42 72 64 73 65 74 70 75 66 76 67 77 69 78
REMARK SMILES IDX 71 79 68 80 52 81 53 82 58 83 54 84 55 85 57 86 59 87 56 88
REMARK H PARENT 5 7 5 8 3 13 10 18 76 50 50 61
REMARK Flexibility Score: inf
ROOT
ATOM      1  C   UNL     1      -3.193   2.161  -3.744  1.00  0.00     0.274 C 
ENDROOT
BRANCH   1   2
ATOM      2  O   UNL     1      -2.579   1.397  -2.682  1.00  0.00    -0.458 OA
BRANCH   2   3
ATOM      3  C   UNL     1      -3.449   0.652  -1.955  1.00  0.00     0.365 C 
ATOM      4  O   UNL     1      -4.666   0.639  -2.141  1.00  0.00    -0.245 OA
BRANCH   3   5
ATOM      5  C   UNL     1      -2.809  -0.210  -0.850  1.00  0.00     0.302 C 
BRANCH   5   6
ATOM      6  N   UNL     1      -3.056   0.415   0.478  1.00  0.00    -0.332 N 
ATOM      7  H   UNL     1      -3.859   1.038   0.387  1.00  0.00     0.347 HD
ATOM      8  H   UNL     1      -3.205  -0.358   1.127  1.00  0.00     0.347 HD
BRANCH   6   9
ATOM      9  C   UNL     1      -1.940   1.193   1.031  1.00  0.00     0.292 C 
BRANCH   9  10
ATOM     10  C   UNL     1      -2.418   2.021   2.243  1.00  0.00     0.166 C 
ATOM     11  C   UNL     1      -1.244   2.589   3.028  1.00  0.00     0.044 C 
BRANCH  10  12
ATOM     12  O   UNL     1      -3.190   1.203   3.128  1.00  0.00    -0.388 OA
ATOM     13  H   UNL     1      -2.638   0.480   3.465  1.00  0.00     0.211 HD
ENDBRANCH  10  12
ENDBRANCH   9  10
ENDBRANCH   6   9
ENDBRANCH   5   6
BRANCH   5  14
ATOM     14  C   UNL     1      -1.425  -0.803  -1.112  1.00  0.00     0.177 C 
BRANCH  14  15
ATOM     15  C   UNL     1      -1.357  -2.293  -1.448  1.00  0.00     0.231 C 
ATOM     16  O   UNL     1      -0.882  -2.656  -2.529  1.00  0.00    -0.274 OA
ATOM     17  N   UNL     1      -1.620  -3.276  -0.535  1.00  0.00    -0.325 N 
ATOM     18  H   UNL     1      -1.249  -4.155  -0.775  1.00  0.00     0.169 HD
BRANCH  17  19
ATOM     19  C   UNL     1      -2.321  -3.265   0.683  1.00  0.00     0.049 A 
ATOM     20  C   UNL     1      -3.670  -2.898   0.697  1.00  0.00     0.027 A 
ATOM     21  C   UNL     1      -1.741  -3.817   1.853  1.00  0.00     0.005 A 
ATOM     22  C   UNL     1      -4.399  -2.871   1.880  1.00  0.00     0.003 A 
ATOM     23  C   UNL     1      -2.501  -3.812   3.053  1.00  0.00    -0.016 A 
ATOM     24  C   UNL     1      -0.441  -4.372   1.901  1.00  0.00     0.011 A 
ATOM     25  C   UNL     1      -3.804  -3.299   3.059  1.00  0.00     0.009 A 
ATOM     26  C   UNL     1      -1.958  -4.344   4.231  1.00  0.00     0.009 A 
ATOM     27  C   UNL     1       0.074  -4.923   3.078  1.00  0.00     0.001 A 
ATOM     28  C   UNL     1      -0.684  -4.906   4.242  1.00  0.00     0.001 A 
ENDBRANCH  17  19
ENDBRANCH  14  15
ENDBRANCH   5  14
ENDBRANCH   3   5
ENDBRANCH   2   3
ENDBRANCH   1   2
BRANCH   1  29
ATOM     29  C   UNL     1      -3.107   1.450  -5.097  1.00  0.00     0.275 C 
BRANCH  29  30
ATOM     30  O   UNL     1      -3.715   0.145  -5.057  1.00  0.00    -0.458 OA
BRANCH  30  31
ATOM     31  C   UNL     1      -2.837  -0.883  -4.994  1.00  0.00     0.338 C 
ATOM     32  O   UNL     1      -1.621  -0.808  -4.974  1.00  0.00    -0.246 OA
BRANCH  31  33
ATOM     33  C   UNL     1      -3.560  -2.163  -4.917  1.00  0.00     0.060 A 
ATOM     34  C   UNL     1      -3.937  -2.656  -3.669  1.00  0.00     0.016 A 
ATOM     35  C   UNL     1      -3.726  -2.943  -6.059  1.00  0.00     0.016 A 
ATOM     36  C   UNL     1      -4.411  -3.960  -3.541  1.00  0.00     0.010 A 
ATOM     37  C   UNL     1      -4.263  -4.231  -5.940  1.00  0.00     0.010 A 
ATOM     38  C   UNL     1      -4.580  -4.761  -4.677  1.00  0.00    -0.014 A 
BRANCH  38  39
ATOM     39  C   UNL     1      -5.053  -6.163  -4.539  1.00  0.00     0.031 A 
ATOM     40  C   UNL     1      -4.138  -7.307  -4.877  1.00  0.00     0.074 A 
ATOM     41  C   UNL     1      -6.301  -6.415  -4.102  1.00  0.00     0.049 A 
ATOM     42  N   UNL     1      -4.408  -8.586  -4.963  1.00  0.00    -0.248 NA
ATOM     43  C   UNL     1      -2.734  -6.968  -5.158  1.00  0.00     0.031 C 
ATOM     44  C   UNL     1      -7.275  -5.404  -3.690  1.00  0.00     0.029 A 
ATOM     45  N   UNL     1      -6.966  -7.605  -3.936  1.00  0.00    -0.354 N 
ATOM     46  C   UNL     1      -3.221  -9.199  -5.344  1.00  0.00     0.074 A 
ATOM     47  C   UNL     1      -2.229  -8.153  -5.475  1.00  0.00     0.031 C 
ATOM     48  C   UNL     1      -8.408  -6.015  -3.311  1.00  0.00     0.029 A 
ATOM     49  C   UNL     1      -8.263  -7.454  -3.512  1.00  0.00     0.049 A 
ATOM     50  H   UNL     1      -6.553  -8.482  -4.106  1.00  0.00     0.167 HD
ATOM     51  C   UNL     1      -2.982 -10.514  -5.564  1.00  0.00     0.037 A 
ATOM     52  C   UNL     1      -9.239  -8.365  -3.341  1.00  0.00     0.037 A 
ATOM     53  C   UNL     1      -3.958 -11.560  -5.401  1.00  0.00     0.049 A 
ATOM     54  C   UNL     1      -8.964  -9.810  -3.641  1.00  0.00     0.074 A 
ATOM     55  C   UNL     1      -3.804 -12.923  -5.591  1.00  0.00     0.029 A 
ATOM     56  N   UNL     1      -5.270 -11.360  -4.999  1.00  0.00    -0.354 N 
ATOM     57  N   UNL     1      -7.850 -10.373  -4.039  1.00  0.00    -0.248 NA
ATOM     58  C   UNL     1     -10.088 -10.744  -3.484  1.00  0.00     0.031 C 
ATOM     59  C   UNL     1      -5.031 -13.544  -5.332  1.00  0.00     0.029 A 
ATOM     60  C   UNL     1      -5.939 -12.572  -4.949  1.00  0.00     0.049 A 
ATOM     61  H   UNL     1      -5.666 -10.485  -4.782  1.00  0.00     0.167 HD
ATOM     62  C   UNL     1      -8.134 -11.726  -4.169  1.00  0.00     0.074 A 
ATOM     63  C   UNL     1      -9.521 -11.902  -3.792  1.00  0.00     0.031 C 
ATOM     64  C   UNL     1      -7.319 -12.731  -4.570  1.00  0.00     0.037 A 
BRANCH  51  65
ATOM     65  C   UNL     1      -1.612 -10.897  -6.036  1.00  0.00     0.057 A 
ATOM     66  C   UNL     1      -0.511 -10.928  -5.171  1.00  0.00     0.134 A 
ATOM     67  C   UNL     1      -1.401 -11.277  -7.367  1.00  0.00     0.134 A 
ATOM     68  F   UNL     1      -0.646 -10.564  -3.887  1.00  0.00    -0.206 F 
ATOM     69  C   UNL     1       0.756 -11.306  -5.619  1.00  0.00     0.040 A 
ATOM     70  C   UNL     1      -0.143 -11.677  -7.822  1.00  0.00     0.040 A 
ATOM     71  F   UNL     1      -2.415 -11.276  -8.245  1.00  0.00    -0.206 F 
ATOM     72  C   UNL     1       0.941 -11.688  -6.947  1.00  0.00     0.006 A 
ENDBRANCH  51  65
BRANCH  52  73
ATOM     73  C   UNL     1     -10.585  -7.929  -2.896  1.00  0.00     0.057 A 
ATOM     74  C   UNL     1     -11.055  -8.231  -1.614  1.00  0.00     0.134 A 
ATOM     75  C   UNL     1     -11.434  -7.206  -3.744  1.00  0.00     0.134 A 
ATOM     76  F   UNL     1     -10.296  -8.943  -0.768  1.00  0.00    -0.206 F 
ATOM     77  C   UNL     1     -12.325  -7.837  -1.191  1.00  0.00     0.040 A 
ATOM     78  C   UNL     1     -12.697  -6.785  -3.327  1.00  0.00     0.040 A 
ATOM     79  F   UNL     1     -11.039  -6.887  -4.985  1.00  0.00    -0.206 F 
ATOM     80  C   UNL     1     -13.147  -7.106  -2.048  1.00  0.00     0.006 A 
ENDBRANCH  52  73
BRANCH  64  81
ATOM     81  C   UNL     1      -7.902 -14.111  -4.597  1.00  0.00     0.057 A 
ATOM     82  C   UNL     1      -8.775 -14.520  -5.612  1.00  0.00     0.134 A 
ATOM     83  C   UNL     1      -7.566 -15.048  -3.612  1.00  0.00     0.134 A 
ATOM     84  F   UNL     1      -9.147 -13.662  -6.575  1.00  0.00    -0.206 F 
ATOM     85  C   UNL     1      -9.309 -15.809  -5.638  1.00  0.00     0.040 A 
ATOM     86  C   UNL     1      -8.079 -16.346  -3.638  1.00  0.00     0.040 A 
ATOM     87  F   UNL     1      -6.732 -14.719  -2.615  1.00  0.00    -0.206 F 
ATOM     88  C   UNL     1      -8.956 -16.728  -4.651  1.00  0.00     0.006 A 
ENDBRANCH  64  81
ENDBRANCH  38  39
ENDBRANCH  31  33
ENDBRANCH  30  31
ENDBRANCH  29  30
ENDBRANCH   1  29
TORSDOF 18
