REMARK SMILES C[C@@H](C[C@H]([NH3+])C(=O)OCCOC(=O)c1ccc(-c2c3nc(c(-c4c(F)cccc4F)c4ccc([nH]4)c(-c4c(F)cccc4F)c4nc(c(-c5c(F)cccc5F)c5ccc2[nH]5)C=C4)C=C3)cc1)C1CCOCC1
REMARK SMILES IDX 9 1 8 2 6 3 7 4 4 5 3 6 2 7 1 8 68 9 69 10 73 11 70 12 72 13
REMARK SMILES IDX 71 14 5 15 10 19 11 20 12 21 13 22 14 23 15 24 67 25 16 26
REMARK SMILES IDX 66 27 17 28 18 29 19 30 60 31 20 32 65 33 59 34 61 35 21 36
REMARK SMILES IDX 64 37 58 38 57 39 22 41 48 42 31 43 47 44 32 45 35 46 46 47
REMARK SMILES IDX 62 48 33 49 34 50 45 52 63 53 36 54 23 55 24 56 29 57 25 58
REMARK SMILES IDX 26 59 28 60 30 61 27 62 49 63 50 64 55 65 51 66 52 67 54 68
REMARK SMILES IDX 56 69 53 70 37 71 38 72 43 73 39 74 40 75 42 76 44 77 41 78
REMARK H PARENT 5 16 5 17 5 18 61 40 35 51
REMARK Flexibility Score: inf
ROOT
ATOM      1  C   UNL     1       1.369  -5.188   4.145  1.00  0.00     0.274 C 
ENDROOT
BRANCH   1   2
ATOM      2  O   UNL     1       0.903  -4.306   3.110  1.00  0.00    -0.458 OA
BRANCH   2   3
ATOM      3  C   UNL     1       0.177  -3.222   3.490  1.00  0.00     0.364 C 
ATOM      4  O   UNL     1      -0.196  -2.997   4.636  1.00  0.00    -0.245 OA
BRANCH   3   5
ATOM      5  C   UNL     1      -0.101  -2.257   2.320  1.00  0.00     0.292 C 
BRANCH   5   6
ATOM      6  C   UNL     1      -1.563  -2.321   1.841  1.00  0.00     0.081 C 
BRANCH   6   7
ATOM      7  C   UNL     1      -1.955  -3.338   0.730  1.00  0.00    -0.004 C 
ATOM      8  C   UNL     1      -1.562  -4.764   1.129  1.00  0.00     0.008 C 
BRANCH   7   9
ATOM      9  C   UNL     1      -1.464  -2.943  -0.700  1.00  0.00    -0.004 C 
ATOM     10  C   UNL     1      -2.115  -1.638  -1.196  1.00  0.00     0.032 C 
ATOM     11  C   UNL     1      -1.684  -4.041  -1.755  1.00  0.00     0.032 C 
ATOM     12  C   UNL     1      -1.660  -1.298  -2.611  1.00  0.00     0.160 C 
ATOM     13  C   UNL     1      -1.222  -3.560  -3.126  1.00  0.00     0.160 C 
ATOM     14  O   UNL     1      -1.920  -2.376  -3.506  1.00  0.00    -0.381 OA
ENDBRANCH   7   9
ENDBRANCH   6   7
ENDBRANCH   5   6
BRANCH   5  15
ATOM     15  N   UNL     1       0.880  -2.365   1.230  1.00  0.00    -0.346 N 
ATOM     16  H   UNL     1       0.811  -3.289   0.803  1.00  0.00     0.345 HD
ATOM     17  H   UNL     1       1.819  -2.232   1.604  1.00  0.00     0.345 HD
ATOM     18  H   UNL     1       0.689  -1.651   0.528  1.00  0.00     0.345 HD
ENDBRANCH   5  15
ENDBRANCH   3   5
ENDBRANCH   2   3
ENDBRANCH   1   2
BRANCH   1  19
ATOM     19  C   UNL     1       2.898  -5.250   4.123  1.00  0.00     0.275 C 
BRANCH  19  20
ATOM     20  O   UNL     1       3.474  -3.978   4.488  1.00  0.00    -0.458 OA
BRANCH  20  21
ATOM     21  C   UNL     1       3.665  -3.127   3.459  1.00  0.00     0.338 C 
ATOM     22  O   UNL     1       3.459  -3.337   2.268  1.00  0.00    -0.246 OA
BRANCH  21  23
ATOM     23  C   UNL     1       4.013  -1.790   3.953  1.00  0.00     0.060 A 
ATOM     24  C   UNL     1       3.206  -0.722   3.547  1.00  0.00     0.016 A 
ATOM     25  C   UNL     1       5.165  -1.564   4.705  1.00  0.00     0.016 A 
ATOM     26  C   UNL     1       3.557   0.582   3.864  1.00  0.00     0.010 A 
ATOM     27  C   UNL     1       5.519  -0.250   5.027  1.00  0.00     0.010 A 
ATOM     28  C   UNL     1       4.728   0.827   4.588  1.00  0.00    -0.014 A 
BRANCH  28  29
ATOM     29  C   UNL     1       5.159   2.225   4.799  1.00  0.00     0.031 A 
ATOM     30  C   UNL     1       6.273   2.785   3.965  1.00  0.00     0.074 A 
ATOM     31  C   UNL     1       4.517   2.997   5.692  1.00  0.00     0.049 A 
ATOM     32  N   UNL     1       6.857   3.952   4.041  1.00  0.00    -0.248 NA
ATOM     33  C   UNL     1       6.797   1.914   2.900  1.00  0.00     0.031 C 
ATOM     34  C   UNL     1       3.375   2.578   6.505  1.00  0.00     0.029 A 
ATOM     35  N   UNL     1       4.735   4.299   6.062  1.00  0.00    -0.354 N 
ATOM     36  C   UNL     1       7.833   3.948   3.054  1.00  0.00     0.074 A 
ATOM     37  C   UNL     1       7.769   2.661   2.396  1.00  0.00     0.031 C 
ATOM     38  C   UNL     1       2.992   3.606   7.281  1.00  0.00     0.029 A 
ATOM     39  C   UNL     1       3.891   4.734   7.053  1.00  0.00     0.049 A 
ATOM     40  H   UNL     1       5.430   4.866   5.656  1.00  0.00     0.167 HD
ATOM     41  C   UNL     1       8.704   4.932   2.729  1.00  0.00     0.037 A 
ATOM     42  C   UNL     1       3.869   5.902   7.720  1.00  0.00     0.037 A 
ATOM     43  C   UNL     1       8.750   6.215   3.378  1.00  0.00     0.049 A 
ATOM     44  C   UNL     1       4.884   6.957   7.381  1.00  0.00     0.074 A 
ATOM     45  C   UNL     1       9.601   7.279   3.133  1.00  0.00     0.029 A 
ATOM     46  N   UNL     1       7.899   6.609   4.401  1.00  0.00    -0.354 N 
ATOM     47  N   UNL     1       5.827   6.933   6.470  1.00  0.00    -0.248 NA
ATOM     48  C   UNL     1       4.838   8.197   8.167  1.00  0.00     0.031 C 
ATOM     49  C   UNL     1       9.284   8.306   4.029  1.00  0.00     0.029 A 
ATOM     50  C   UNL     1       8.213   7.895   4.807  1.00  0.00     0.049 A 
ATOM     51  H   UNL     1       7.180   6.056   4.782  1.00  0.00     0.167 HD
ATOM     52  C   UNL     1       6.474   8.158   6.560  1.00  0.00     0.074 A 
ATOM     53  C   UNL     1       5.808   8.906   7.606  1.00  0.00     0.031 C 
ATOM     54  C   UNL     1       7.528   8.621   5.845  1.00  0.00     0.037 A 
BRANCH  41  55
ATOM     55  C   UNL     1       9.700   4.639   1.649  1.00  0.00     0.057 A 
ATOM     56  C   UNL     1       9.338   4.601   0.297  1.00  0.00     0.134 A 
ATOM     57  C   UNL     1      11.044   4.407   1.967  1.00  0.00     0.134 A 
ATOM     58  F   UNL     1       8.063   4.795  -0.071  1.00  0.00    -0.206 F 
ATOM     59  C   UNL     1      10.275   4.323  -0.700  1.00  0.00     0.040 A 
ATOM     60  C   UNL     1      11.994   4.149   0.978  1.00  0.00     0.040 A 
ATOM     61  F   UNL     1      11.455   4.429   3.244  1.00  0.00    -0.206 F 
ATOM     62  C   UNL     1      11.609   4.102  -0.361  1.00  0.00     0.006 A 
ENDBRANCH  41  55
BRANCH  42  63
ATOM     63  C   UNL     1       2.871   6.122   8.795  1.00  0.00     0.057 A 
ATOM     64  C   UNL     1       1.819   7.030   8.633  1.00  0.00     0.134 A 
ATOM     65  C   UNL     1       2.949   5.433  10.011  1.00  0.00     0.134 A 
ATOM     66  F   UNL     1       1.705   7.735   7.498  1.00  0.00    -0.206 F 
ATOM     67  C   UNL     1       0.887   7.255   9.648  1.00  0.00     0.040 A 
ATOM     68  C   UNL     1       2.011   5.630  11.025  1.00  0.00     0.040 A 
ATOM     69  F   UNL     1       3.934   4.548  10.226  1.00  0.00    -0.206 F 
ATOM     70  C   UNL     1       0.979   6.548  10.846  1.00  0.00     0.006 A 
ENDBRANCH  42  63
BRANCH  54  71
ATOM     71  C   UNL     1       7.998  10.011   6.149  1.00  0.00     0.057 A 
ATOM     72  C   UNL     1       8.744  10.300   7.298  1.00  0.00     0.134 A 
ATOM     73  C   UNL     1       7.731  11.063   5.264  1.00  0.00     0.134 A 
ATOM     74  F   UNL     1       9.019   9.337   8.190  1.00  0.00    -0.206 F 
ATOM     75  C   UNL     1       9.194  11.594   7.566  1.00  0.00     0.040 A 
ATOM     76  C   UNL     1       8.194  12.356   5.510  1.00  0.00     0.040 A 
ATOM     77  F   UNL     1       7.027  10.847   4.143  1.00  0.00    -0.206 F 
ATOM     78  C   UNL     1       8.924  12.624   6.667  1.00  0.00     0.006 A 
ENDBRANCH  54  71
ENDBRANCH  28  29
ENDBRANCH  21  23
ENDBRANCH  20  21
ENDBRANCH  19  20
ENDBRANCH   1  19
TORSDOF 15
