REMARK SMILES O=C(C[C@@H]([NH2+][C@@H]1CC[NH2+]C1)c1cccs1)OCCOC(=O)c1ccc(-c2c3nc(c(-c4c(F)cccc4F)c4ccc([nH]4)c(-c4c(F)cccc4F)c4nc(c(-c5c(F)cccc5F)c5ccc2[nH]5)C=C4)C=C3)cc1
REMARK SMILES IDX 17 1 16 2 2 3 1 4 3 5 4 6 5 7 6 10 7 11 10 12 8 13 9 14
REMARK SMILES IDX 11 17 12 18 15 19 13 20 14 21 18 22 19 23 20 24 21 25 22 26
REMARK SMILES IDX 23 27 75 28 24 29 74 30 25 31 26 32 27 33 68 34 28 35 73 36
REMARK SMILES IDX 67 37 69 38 29 39 72 40 66 41 65 42 30 44 56 45 39 46 55 47
REMARK SMILES IDX 40 48 43 49 54 50 70 51 41 52 42 53 53 55 71 56 44 57 31 58
REMARK SMILES IDX 32 59 37 60 33 61 34 62 36 63 38 64 35 65 57 66 58 67 63 68
REMARK SMILES IDX 59 69 60 70 62 71 64 72 61 73 45 74 46 75 51 76 47 77 48 78
REMARK SMILES IDX 50 79 52 80 49 81
REMARK H PARENT 5 8 5 9 9 15 9 16 69 43 43 54
REMARK Flexibility Score: inf
ROOT
ATOM      1  C   UNL     1       4.221  -0.771   0.975  1.00  0.00     0.274 C 
ENDROOT
BRANCH   1   2
ATOM      2  O   UNL     1       2.892  -0.195   0.952  1.00  0.00    -0.462 OA
BRANCH   2   3
ATOM      3  C   UNL     1       2.487   0.736   0.051  1.00  0.00     0.312 C 
ATOM      4  O   UNL     1       1.589   1.530   0.325  1.00  0.00    -0.252 OA
BRANCH   3   5
ATOM      5  C   UNL     1       3.126   0.736  -1.308  1.00  0.00     0.193 C 
BRANCH   5   6
ATOM      6  C   UNL     1       4.084   1.906  -1.570  1.00  0.00     0.235 C 
BRANCH   6   7
ATOM      7  N   UNL     1       4.909   2.163  -0.382  1.00  0.00    -0.332 N 
ATOM      8  H   UNL     1       5.175   1.254  -0.004  1.00  0.00     0.347 HD
ATOM      9  H   UNL     1       4.311   2.752   0.199  1.00  0.00     0.347 HD
BRANCH   7  10
ATOM     10  C   UNL     1       6.139   2.947  -0.509  1.00  0.00     0.244 C 
ATOM     11  C   UNL     1       6.491   3.528   0.869  1.00  0.00     0.132 C 
ATOM     12  C   UNL     1       6.125   4.189  -1.425  1.00  0.00     0.326 C 
ATOM     13  C   UNL     1       6.114   4.990   0.746  1.00  0.00     0.267 C 
ATOM     14  N   UNL     1       6.561   5.332  -0.607  1.00  0.00    -0.341 N 
ATOM     15  H   UNL     1       7.576   5.434  -0.639  1.00  0.00     0.346 HD
ATOM     16  H   UNL     1       6.178   6.219  -0.935  1.00  0.00     0.346 HD
ENDBRANCH   7  10
ENDBRANCH   6   7
BRANCH   6  17
ATOM     17  C   UNL     1       4.846   1.637  -2.860  1.00  0.00     0.062 A 
ATOM     18  C   UNL     1       4.777   2.365  -4.035  1.00  0.00     0.021 A 
ATOM     19  S   UNL     1       5.891   0.282  -3.043  1.00  0.00    -0.143 S 
ATOM     20  C   UNL     1       5.553   1.796  -5.084  1.00  0.00     0.012 A 
ATOM     21  C   UNL     1       6.191   0.645  -4.685  1.00  0.00     0.065 A 
ENDBRANCH   6  17
ENDBRANCH   5   6
ENDBRANCH   3   5
ENDBRANCH   2   3
ENDBRANCH   1   2
BRANCH   1  22
ATOM     22  C   UNL     1       4.213  -2.268   0.663  1.00  0.00     0.275 C 
BRANCH  22  23
ATOM     23  O   UNL     1       3.851  -2.487  -0.711  1.00  0.00    -0.458 OA
BRANCH  23  24
ATOM     24  C   UNL     1       2.534  -2.716  -0.933  1.00  0.00     0.338 C 
ATOM     25  O   UNL     1       1.681  -2.943  -0.092  1.00  0.00    -0.246 OA
BRANCH  24  26
ATOM     26  C   UNL     1       2.225  -2.447  -2.357  1.00  0.00     0.060 A 
ATOM     27  C   UNL     1       0.987  -1.862  -2.651  1.00  0.00     0.016 A 
ATOM     28  C   UNL     1       3.138  -2.711  -3.384  1.00  0.00     0.016 A 
ATOM     29  C   UNL     1       0.644  -1.573  -3.972  1.00  0.00     0.010 A 
ATOM     30  C   UNL     1       2.792  -2.425  -4.708  1.00  0.00     0.010 A 
ATOM     31  C   UNL     1       1.532  -1.883  -5.011  1.00  0.00    -0.014 A 
BRANCH  31  32
ATOM     32  C   UNL     1       1.073  -1.803  -6.417  1.00  0.00     0.031 A 
ATOM     33  C   UNL     1       0.551  -3.052  -7.073  1.00  0.00     0.074 A 
ATOM     34  C   UNL     1       1.095  -0.644  -7.098  1.00  0.00     0.049 A 
ATOM     35  N   UNL     1       0.086  -3.224  -8.284  1.00  0.00    -0.248 NA
ATOM     36  C   UNL     1       0.560  -4.273  -6.250  1.00  0.00     0.031 C 
ATOM     37  C   UNL     1       1.558   0.639  -6.575  1.00  0.00     0.029 A 
ATOM     38  N   UNL     1       0.716  -0.367  -8.388  1.00  0.00    -0.354 N 
ATOM     39  C   UNL     1      -0.260  -4.566  -8.365  1.00  0.00     0.074 A 
ATOM     40  C   UNL     1       0.086  -5.173  -7.098  1.00  0.00     0.031 C 
ATOM     41  C   UNL     1       1.436   1.570  -7.538  1.00  0.00     0.029 A 
ATOM     42  C   UNL     1       0.908   0.943  -8.750  1.00  0.00     0.049 A 
ATOM     43  H   UNL     1       0.342  -1.044  -8.997  1.00  0.00     0.167 HD
ATOM     44  C   UNL     1      -0.829  -5.233  -9.396  1.00  0.00     0.037 A 
ATOM     45  C   UNL     1       0.688   1.559  -9.928  1.00  0.00     0.037 A 
ATOM     46  C   UNL     1      -1.166  -4.640 -10.662  1.00  0.00     0.049 A 
ATOM     47  C   UNL     1       0.122   0.777 -11.086  1.00  0.00     0.074 A 
ATOM     48  C   UNL     1      -1.760  -5.234 -11.761  1.00  0.00     0.029 A 
ATOM     49  N   UNL     1      -0.927  -3.318 -10.999  1.00  0.00    -0.354 N 
ATOM     50  N   UNL     1      -0.247  -0.480 -11.137  1.00  0.00    -0.248 NA
ATOM     51  C   UNL     1      -0.062   1.505 -12.352  1.00  0.00     0.031 C 
ATOM     52  C   UNL     1      -1.840  -4.281 -12.782  1.00  0.00     0.029 A 
ATOM     53  C   UNL     1      -1.339  -3.082 -12.300  1.00  0.00     0.049 A 
ATOM     54  H   UNL     1      -0.525  -2.645 -10.403  1.00  0.00     0.167 HD
ATOM     55  C   UNL     1      -0.735  -0.683 -12.423  1.00  0.00     0.074 A 
ATOM     56  C   UNL     1      -0.623   0.581 -13.119  1.00  0.00     0.031 C 
ATOM     57  C   UNL     1      -1.234  -1.815 -12.977  1.00  0.00     0.037 A 
BRANCH  44  58
ATOM     58  C   UNL     1      -1.108  -6.692  -9.195  1.00  0.00     0.057 A 
ATOM     59  C   UNL     1      -2.145  -7.135  -8.363  1.00  0.00     0.134 A 
ATOM     60  C   UNL     1      -0.344  -7.663  -9.852  1.00  0.00     0.134 A 
ATOM     61  F   UNL     1      -2.901  -6.253  -7.691  1.00  0.00    -0.206 F 
ATOM     62  C   UNL     1      -2.398  -8.494  -8.174  1.00  0.00     0.040 A 
ATOM     63  C   UNL     1      -0.603  -9.025  -9.691  1.00  0.00     0.040 A 
ATOM     64  F   UNL     1       0.662  -7.305 -10.664  1.00  0.00    -0.206 F 
ATOM     65  C   UNL     1      -1.629  -9.443  -8.845  1.00  0.00     0.006 A 
ENDBRANCH  44  58
BRANCH  45  66
ATOM     66  C   UNL     1       1.002   3.002 -10.088  1.00  0.00     0.057 A 
ATOM     67  C   UNL     1      -0.015   3.950 -10.249  1.00  0.00     0.134 A 
ATOM     68  C   UNL     1       2.324   3.460 -10.129  1.00  0.00     0.134 A 
ATOM     69  F   UNL     1      -1.300   3.567 -10.246  1.00  0.00    -0.206 F 
ATOM     70  C   UNL     1       0.270   5.298 -10.469  1.00  0.00     0.040 A 
ATOM     71  C   UNL     1       2.624   4.809 -10.325  1.00  0.00     0.040 A 
ATOM     72  F   UNL     1       3.344   2.602  -9.981  1.00  0.00    -0.206 F 
ATOM     73  C   UNL     1       1.595   5.731 -10.504  1.00  0.00     0.006 A 
ENDBRANCH  45  66
BRANCH  57  74
ATOM     74  C   UNL     1      -1.735  -1.736 -14.390  1.00  0.00     0.057 A 
ATOM     75  C   UNL     1      -0.862  -1.641 -15.481  1.00  0.00     0.134 A 
ATOM     76  C   UNL     1      -3.107  -1.810 -14.665  1.00  0.00     0.134 A 
ATOM     77  F   UNL     1       0.463  -1.554 -15.286  1.00  0.00    -0.206 F 
ATOM     78  C   UNL     1      -1.336  -1.605 -16.794  1.00  0.00     0.040 A 
ATOM     79  C   UNL     1      -3.592  -1.800 -15.973  1.00  0.00     0.040 A 
ATOM     80  F   UNL     1      -3.997  -1.913 -13.666  1.00  0.00    -0.206 F 
ATOM     81  C   UNL     1      -2.705  -1.693 -17.043  1.00  0.00     0.006 A 
ENDBRANCH  57  74
ENDBRANCH  31  32
ENDBRANCH  24  26
ENDBRANCH  23  24
ENDBRANCH  22  23
ENDBRANCH   1  22
TORSDOF 15
