REMARK SMILES NS(=O)(=O)c1ccc(-n2nc(C(F)(F)F)cc2-c2ccc(C(=O)OCCOC(=O)c3ccc(-c4c5nc(c(-c6c(F)cccc6F)c6ccc([nH]6)c(-c6c(F)cccc6F)c6nc(c(-c7c(F)cccc7F)c7ccc4[nH]7)C=C6)C=C5)cc3)cc2)cc1
REMARK SMILES IDX 25 1 24 2 22 3 23 4 21 5 18 6 19 7 85 8 20 9 84 10 17 11
REMARK SMILES IDX 9 12 10 13 11 14 16 15 8 16 5 17 6 18 87 19 7 20 86 21 2 22
REMARK SMILES IDX 3 23 4 24 1 25 12 28 13 29 14 30 15 31 26 32 27 33 28 34
REMARK SMILES IDX 29 35 30 36 31 37 83 38 32 39 82 40 33 41 34 42 35 43 76 44
REMARK SMILES IDX 36 45 81 46 75 47 77 48 37 49 80 50 74 51 73 52 38 54 64 55
REMARK SMILES IDX 47 56 63 57 48 58 51 59 62 60 78 61 49 62 50 63 61 65 79 66
REMARK SMILES IDX 52 67 39 68 40 69 45 70 41 71 42 72 44 73 46 74 43 75 65 76
REMARK SMILES IDX 66 77 71 78 67 79 68 80 70 81 72 82 69 83 53 84 54 85 59 86
REMARK SMILES IDX 55 87 56 88 58 89 60 90 57 91
REMARK H PARENT 1 26 1 27 77 53 51 64
REMARK Flexibility Score: inf
ROOT
ATOM      1  C   UNL     1      -0.916  -7.068  -6.423  1.00  0.00     0.275 C 
ENDROOT
BRANCH   1   2
ATOM      2  O   UNL     1      -0.395  -7.375  -5.120  1.00  0.00    -0.458 OA
BRANCH   2   3
ATOM      3  C   UNL     1       0.817  -6.836  -4.831  1.00  0.00     0.338 C 
ATOM      4  O   UNL     1       1.555  -6.252  -5.610  1.00  0.00    -0.246 OA
BRANCH   3   5
ATOM      5  C   UNL     1       1.103  -6.953  -3.381  1.00  0.00     0.060 A 
ATOM      6  C   UNL     1       1.818  -7.202  -0.684  1.00  0.00     0.000 A 
ATOM      7  C   UNL     1       2.412  -6.215  -1.483  1.00  0.00     0.011 A 
ATOM      8  C   UNL     1       0.828  -8.027  -1.230  1.00  0.00     0.011 A 
ATOM      9  C   UNL     1       2.055  -6.089  -2.825  1.00  0.00     0.016 A 
ATOM     10  C   UNL     1       0.464  -7.898  -2.571  1.00  0.00     0.016 A 
BRANCH   6  11
ATOM     11  C   UNL     1       2.301  -7.440   0.673  1.00  0.00     0.075 A 
ATOM     12  N   UNL     1       2.481  -6.482   1.661  1.00  0.00    -0.233 N 
ATOM     13  N   UNL     1       3.259  -6.947   2.676  1.00  0.00    -0.163 NA
ATOM     14  C   UNL     1       3.408  -8.263   2.429  1.00  0.00     0.167 A 
ATOM     15  C   UNL     1       2.843  -8.604   1.179  1.00  0.00     0.064 A 
BRANCH  12  16
ATOM     16  C   UNL     1       1.981  -5.153   1.688  1.00  0.00     0.065 A 
ATOM     17  C   UNL     1       1.071  -2.520   1.624  1.00  0.00     0.082 A 
ATOM     18  C   UNL     1       0.237  -3.547   1.176  1.00  0.00     0.024 A 
ATOM     19  C   UNL     1       2.341  -2.806   2.142  1.00  0.00     0.024 A 
ATOM     20  C   UNL     1       0.700  -4.865   1.192  1.00  0.00     0.030 A 
ATOM     21  C   UNL     1       2.788  -4.128   2.196  1.00  0.00     0.030 A 
BRANCH  17  22
ATOM     22  S   UNL     1       0.500  -0.843   1.624  1.00  0.00     0.238 S 
ATOM     23  O   UNL     1       1.133  -0.133   2.706  1.00  0.00    -0.207 OA
ATOM     24  O   UNL     1      -0.934  -0.834   1.421  1.00  0.00    -0.207 OA
BRANCH  22  25
ATOM     25  N   UNL     1       1.170  -0.237   0.208  1.00  0.00    -0.225 NA
ATOM     26  H   UNL     1       0.905   0.742   0.098  1.00  0.00     0.137 HD
ATOM     27  H   UNL     1       0.826  -0.774  -0.588  1.00  0.00     0.137 HD
ENDBRANCH  22  25
ENDBRANCH  17  22
ENDBRANCH  12  16
BRANCH  14  28
ATOM     28  C   UNL     1       4.117  -9.212   3.358  1.00  0.00     0.435 C 
ATOM     29  F   UNL     1       5.304  -8.733   3.810  1.00  0.00    -0.164 F 
ATOM     30  F   UNL     1       3.364  -9.518   4.449  1.00  0.00    -0.164 F 
ATOM     31  F   UNL     1       4.391 -10.399   2.744  1.00  0.00    -0.164 F 
ENDBRANCH  14  28
ENDBRANCH   6  11
ENDBRANCH   3   5
ENDBRANCH   2   3
ENDBRANCH   1   2
BRANCH   1  32
ATOM     32  C   UNL     1      -1.709  -5.770  -6.402  1.00  0.00     0.275 C 
BRANCH  32  33
ATOM     33  O   UNL     1      -0.851  -4.647  -6.216  1.00  0.00    -0.458 OA
BRANCH  33  34
ATOM     34  C   UNL     1      -0.724  -4.223  -4.939  1.00  0.00     0.338 C 
ATOM     35  O   UNL     1      -1.022  -4.825  -3.921  1.00  0.00    -0.246 OA
BRANCH  34  36
ATOM     36  C   UNL     1      -0.428  -2.789  -4.952  1.00  0.00     0.060 A 
ATOM     37  C   UNL     1      -0.243  -2.170  -3.713  1.00  0.00     0.016 A 
ATOM     38  C   UNL     1      -0.706  -2.061  -6.118  1.00  0.00     0.016 A 
ATOM     39  C   UNL     1      -0.560  -0.835  -3.606  1.00  0.00     0.010 A 
ATOM     40  C   UNL     1      -1.034  -0.735  -6.005  1.00  0.00     0.010 A 
ATOM     41  C   UNL     1      -1.043  -0.166  -4.737  1.00  0.00    -0.014 A 
BRANCH  41  42
ATOM     42  C   UNL     1      -1.429   1.220  -4.605  1.00  0.00     0.031 A 
ATOM     43  C   UNL     1      -0.253   2.091  -4.387  1.00  0.00     0.074 A 
ATOM     44  C   UNL     1      -2.691   1.641  -4.813  1.00  0.00     0.049 A 
ATOM     45  N   UNL     1       0.063   2.728  -3.310  1.00  0.00    -0.248 NA
ATOM     46  C   UNL     1       0.814   2.064  -5.404  1.00  0.00     0.031 C 
ATOM     47  C   UNL     1      -3.845   0.873  -5.289  1.00  0.00     0.029 A 
ATOM     48  N   UNL     1      -3.182   2.907  -4.733  1.00  0.00    -0.354 N 
ATOM     49  C   UNL     1       1.243   3.395  -3.619  1.00  0.00     0.074 A 
ATOM     50  C   UNL     1       1.770   2.768  -4.799  1.00  0.00     0.031 C 
ATOM     51  C   UNL     1      -4.822   1.726  -5.677  1.00  0.00     0.029 A 
ATOM     52  C   UNL     1      -4.416   3.082  -5.357  1.00  0.00     0.049 A 
ATOM     53  H   UNL     1      -2.706   3.637  -4.275  1.00  0.00     0.167 HD
ATOM     54  C   UNL     1       1.520   4.604  -3.064  1.00  0.00     0.037 A 
ATOM     55  C   UNL     1      -4.979   4.284  -5.647  1.00  0.00     0.037 A 
ATOM     56  C   UNL     1       0.740   4.817  -1.870  1.00  0.00     0.049 A 
ATOM     57  C   UNL     1      -4.311   5.298  -4.784  1.00  0.00     0.074 A 
ATOM     58  C   UNL     1       0.597   4.131  -0.678  1.00  0.00     0.029 A 
ATOM     59  N   UNL     1      -0.360   5.636  -1.961  1.00  0.00    -0.354 N 
ATOM     60  N   UNL     1      -4.450   5.337  -3.486  1.00  0.00    -0.248 NA
ATOM     61  C   UNL     1      -3.097   5.917  -5.301  1.00  0.00     0.031 C 
ATOM     62  C   UNL     1      -0.798   4.188  -0.388  1.00  0.00     0.029 A 
ATOM     63  C   UNL     1      -1.407   4.985  -1.357  1.00  0.00     0.049 A 
ATOM     64  H   UNL     1      -0.392   6.526  -2.381  1.00  0.00     0.167 HD
ATOM     65  C   UNL     1      -3.172   5.577  -3.001  1.00  0.00     0.074 A 
ATOM     66  C   UNL     1      -2.388   5.976  -4.170  1.00  0.00     0.031 C 
ATOM     67  C   UNL     1      -2.784   5.139  -1.767  1.00  0.00     0.037 A 
BRANCH  54  68
ATOM     68  C   UNL     1       2.171   5.729  -3.829  1.00  0.00     0.057 A 
ATOM     69  C   UNL     1       2.552   6.891  -3.139  1.00  0.00     0.134 A 
ATOM     70  C   UNL     1       2.181   5.840  -5.237  1.00  0.00     0.134 A 
ATOM     71  F   UNL     1       2.561   6.920  -1.797  1.00  0.00    -0.206 F 
ATOM     72  C   UNL     1       2.855   8.088  -3.798  1.00  0.00     0.040 A 
ATOM     73  C   UNL     1       2.535   7.013  -5.906  1.00  0.00     0.040 A 
ATOM     74  F   UNL     1       1.752   4.864  -6.045  1.00  0.00    -0.206 F 
ATOM     75  C   UNL     1       2.843   8.153  -5.186  1.00  0.00     0.006 A 
ENDBRANCH  54  68
BRANCH  55  76
ATOM     76  C   UNL     1      -5.772   4.665  -6.843  1.00  0.00     0.057 A 
ATOM     77  C   UNL     1      -6.493   5.868  -6.888  1.00  0.00     0.134 A 
ATOM     78  C   UNL     1      -5.618   3.998  -8.071  1.00  0.00     0.134 A 
ATOM     79  F   UNL     1      -6.657   6.605  -5.780  1.00  0.00    -0.206 F 
ATOM     80  C   UNL     1      -7.013   6.385  -8.085  1.00  0.00     0.040 A 
ATOM     81  C   UNL     1      -6.135   4.499  -9.271  1.00  0.00     0.040 A 
ATOM     82  F   UNL     1      -4.883   2.881  -8.167  1.00  0.00    -0.206 F 
ATOM     83  C   UNL     1      -6.825   5.705  -9.284  1.00  0.00     0.006 A 
ENDBRANCH  55  76
BRANCH  67  84
ATOM     84  C   UNL     1      -3.832   4.566  -0.851  1.00  0.00     0.057 A 
ATOM     85  C   UNL     1      -4.587   3.415  -1.132  1.00  0.00     0.134 A 
ATOM     86  C   UNL     1      -3.964   5.103   0.434  1.00  0.00     0.134 A 
ATOM     87  F   UNL     1      -4.452   2.765  -2.295  1.00  0.00    -0.206 F 
ATOM     88  C   UNL     1      -5.460   2.855  -0.194  1.00  0.00     0.040 A 
ATOM     89  C   UNL     1      -4.805   4.534   1.392  1.00  0.00     0.040 A 
ATOM     90  F   UNL     1      -3.231   6.168   0.797  1.00  0.00    -0.206 F 
ATOM     91  C   UNL     1      -5.566   3.411   1.076  1.00  0.00     0.006 A 
ENDBRANCH  67  84
ENDBRANCH  41  42
ENDBRANCH  34  36
ENDBRANCH  33  34
ENDBRANCH  32  33
ENDBRANCH   1  32
TORSDOF 16
