REMARK SMILES COc1ccc(N2C(=O)/C(=C/c3c(C(=O)OCCOC(=O)c4ccc(-c5c6nc(c(-c7c(F)cccc7F)c7ccc([nH]7)c(-c7c(F)cccc7F)c7nc(c(-c8c(F)cccc8F)c8ccc5[nH]8)C=C7)C=C6)cc4)[nH]c4cc(OC)ccc34)SC2=S)cc1
REMARK SMILES IDX 17 1 16 2 14 3 15 4 13 5 12 6 84 7 76 8 77 9 83 10 78 12
REMARK SMILES IDX 82 13 79 14 11 15 7 16 8 17 86 18 9 19 10 20 85 21 87 22
REMARK SMILES IDX 6 23 3 24 4 25 89 26 5 27 88 28 2 29 1 30 80 31 81 32 18 33
REMARK SMILES IDX 19 34 20 35 21 36 22 37 23 38 75 39 24 40 74 41 25 42 26 43
REMARK SMILES IDX 27 44 68 45 28 46 73 47 67 48 69 49 29 50 72 51 66 52 65 53
REMARK SMILES IDX 30 55 56 56 39 57 55 58 40 59 43 60 54 61 70 62 41 63 42 64
REMARK SMILES IDX 53 66 71 67 44 68 31 69 32 70 37 71 33 72 34 73 36 74 38 75
REMARK SMILES IDX 35 76 57 77 58 78 63 79 59 80 60 81 62 82 64 83 61 84 45 85
REMARK SMILES IDX 46 86 51 87 47 88 48 89 50 90 52 91 49 92
REMARK H PARENT 76 11 69 54 43 65
REMARK Flexibility Score: inf
ROOT
ATOM      1  C   UNL     1       3.084  -4.309  -7.334  1.00  0.00     0.275 C 
ENDROOT
BRANCH   1   2
ATOM      2  O   UNL     1       2.433  -3.674  -8.454  1.00  0.00    -0.457 OA
BRANCH   2   3
ATOM      3  C   UNL     1       3.272  -3.316  -9.463  1.00  0.00     0.355 C 
ATOM      4  O   UNL     1       4.492  -3.416  -9.421  1.00  0.00    -0.244 OA
BRANCH   3   5
ATOM      5  C   UNL     1       2.549  -2.875 -10.627  1.00  0.00     0.133 A 
ATOM      6  C   UNL     1       1.705  -1.797 -10.875  1.00  0.00     0.016 A 
ATOM      7  C   UNL     1       1.486  -1.735 -12.299  1.00  0.00     0.008 A 
ATOM      8  N   UNL     1       2.623  -3.572 -11.802  1.00  0.00    -0.348 N 
ATOM      9  C   UNL     1       2.088  -2.869 -12.838  1.00  0.00     0.050 A 
ATOM     10  C   UNL     1       0.845  -0.869 -13.213  1.00  0.00     0.015 A 
ATOM     11  H   UNL     1       3.014  -4.471 -11.888  1.00  0.00     0.167 HD
ATOM     12  C   UNL     1       2.082  -3.200 -14.193  1.00  0.00     0.073 A 
ATOM     13  C   UNL     1       0.858  -1.168 -14.599  1.00  0.00     0.047 A 
ATOM     14  C   UNL     1       1.463  -2.328 -15.082  1.00  0.00     0.120 A 
BRANCH   6  15
ATOM     15  C   UNL     1       1.108  -1.028  -9.821  1.00  0.00     0.032 C 
ATOM     16  N   UNL     1       1.964  -0.504  -6.412  1.00  0.00    -0.261 N 
ATOM     17  C   UNL     1       1.034  -0.372  -7.455  1.00  0.00     0.270 C 
ATOM     18  C   UNL     1       3.301  -0.509  -6.814  1.00  0.00     0.152 C 
ATOM     19  O   UNL     1      -0.180  -0.232  -7.382  1.00  0.00    -0.268 OA
ATOM     20  C   UNL     1       1.736  -0.479  -8.767  1.00  0.00     0.081 C 
ATOM     21  S   UNL     1       3.405  -0.184  -8.546  1.00  0.00    -0.054 SA
ATOM     22  S   UNL     1       4.705  -0.894  -5.984  1.00  0.00    -0.051 S 
BRANCH  16  23
ATOM     23  C   UNL     1       1.511  -0.669  -5.050  1.00  0.00     0.051 A 
ATOM     24  C   UNL     1       0.603  -1.001  -2.371  1.00  0.00     0.119 A 
ATOM     25  C   UNL     1      -0.145  -1.486  -3.440  1.00  0.00     0.048 A 
ATOM     26  C   UNL     1       1.815  -0.375  -2.632  1.00  0.00     0.048 A 
ATOM     27  C   UNL     1       0.299  -1.318  -4.761  1.00  0.00     0.030 A 
ATOM     28  C   UNL     1       2.250  -0.198  -3.955  1.00  0.00     0.030 A 
BRANCH  24  29
ATOM     29  O   UNL     1       0.065  -1.200  -1.131  1.00  0.00    -0.497 OA
ATOM     30  C   UNL     1       0.532  -0.327  -0.106  1.00  0.00     0.278 C 
ENDBRANCH  24  29
ENDBRANCH  16  23
ENDBRANCH   6  15
BRANCH  14  31
ATOM     31  O   UNL     1       1.523  -2.760 -16.377  1.00  0.00    -0.497 OA
ATOM     32  C   UNL     1       1.067  -1.883 -17.393  1.00  0.00     0.278 C 
ENDBRANCH  14  31
ENDBRANCH   3   5
ENDBRANCH   2   3
ENDBRANCH   1   2
BRANCH   1  33
ATOM     33  C   UNL     1       3.040  -5.836  -7.446  1.00  0.00     0.275 C 
BRANCH  33  34
ATOM     34  O   UNL     1       3.934  -6.322  -8.468  1.00  0.00    -0.458 OA
BRANCH  34  35
ATOM     35  C   UNL     1       3.360  -6.553  -9.666  1.00  0.00     0.338 C 
ATOM     36  O   UNL     1       2.190  -6.396  -9.974  1.00  0.00    -0.246 OA
BRANCH  35  37
ATOM     37  C   UNL     1       4.367  -6.907 -10.674  1.00  0.00     0.060 A 
ATOM     38  C   UNL     1       4.935  -5.876 -11.416  1.00  0.00     0.016 A 
ATOM     39  C   UNL     1       4.555  -8.232 -11.056  1.00  0.00     0.016 A 
ATOM     40  C   UNL     1       5.562  -6.142 -12.620  1.00  0.00     0.010 A 
ATOM     41  C   UNL     1       5.320  -8.507 -12.194  1.00  0.00     0.010 A 
ATOM     42  C   UNL     1       5.800  -7.462 -13.006  1.00  0.00    -0.014 A 
BRANCH  42  43
ATOM     43  C   UNL     1       6.545  -7.735 -14.259  1.00  0.00     0.031 A 
ATOM     44  C   UNL     1       5.923  -8.585 -15.328  1.00  0.00     0.074 A 
ATOM     45  C   UNL     1       7.773  -7.212 -14.439  1.00  0.00     0.049 A 
ATOM     46  N   UNL     1       6.491  -9.172 -16.348  1.00  0.00    -0.248 NA
ATOM     47  C   UNL     1       4.474  -8.824 -15.225  1.00  0.00     0.031 C 
ATOM     48  C   UNL     1       8.460  -6.309 -13.510  1.00  0.00     0.029 A 
ATOM     49  N   UNL     1       8.666  -7.362 -15.469  1.00  0.00    -0.354 N 
ATOM     50  C   UNL     1       5.490  -9.918 -16.957  1.00  0.00     0.074 A 
ATOM     51  C   UNL     1       4.272  -9.687 -16.211  1.00  0.00     0.031 C 
ATOM     52  C   UNL     1       9.644  -5.957 -14.027  1.00  0.00     0.029 A 
ATOM     53  C   UNL     1       9.852  -6.700 -15.261  1.00  0.00     0.049 A 
ATOM     54  H   UNL     1       8.476  -7.891 -16.277  1.00  0.00     0.167 HD
ATOM     55  C   UNL     1       5.597 -10.736 -18.031  1.00  0.00     0.037 A 
ATOM     56  C   UNL     1      11.009  -6.743 -15.946  1.00  0.00     0.037 A 
ATOM     57  C   UNL     1       6.805 -10.891 -18.798  1.00  0.00     0.049 A 
ATOM     58  C   UNL     1      11.108  -7.660 -17.126  1.00  0.00     0.074 A 
ATOM     59  C   UNL     1       7.030 -11.684 -19.909  1.00  0.00     0.029 A 
ATOM     60  N   UNL     1       7.989 -10.214 -18.542  1.00  0.00    -0.354 N 
ATOM     61  N   UNL     1      10.192  -8.447 -17.635  1.00  0.00    -0.248 NA
ATOM     62  C   UNL     1      12.408  -7.726 -17.804  1.00  0.00     0.031 C 
ATOM     63  C   UNL     1       8.358 -11.501 -20.313  1.00  0.00     0.029 A 
ATOM     64  C   UNL     1       8.950 -10.573 -19.470  1.00  0.00     0.049 A 
ATOM     65  H   UNL     1       8.125  -9.571 -17.808  1.00  0.00     0.167 HD
ATOM     66  C   UNL     1      10.804  -9.111 -18.686  1.00  0.00     0.074 A 
ATOM     67  C   UNL     1      12.164  -8.611 -18.760  1.00  0.00     0.031 C 
ATOM     68  C   UNL     1      10.295 -10.059 -19.509  1.00  0.00     0.037 A 
BRANCH  55  69
ATOM     69  C   UNL     1       4.400 -11.559 -18.398  1.00  0.00     0.057 A 
ATOM     70  C   UNL     1       3.277 -11.013 -19.029  1.00  0.00     0.134 A 
ATOM     71  C   UNL     1       4.383 -12.934 -18.125  1.00  0.00     0.134 A 
ATOM     72  F   UNL     1       3.221  -9.701 -19.301  1.00  0.00    -0.206 F 
ATOM     73  C   UNL     1       2.172 -11.801 -19.360  1.00  0.00     0.040 A 
ATOM     74  C   UNL     1       3.294 -13.736 -18.470  1.00  0.00     0.040 A 
ATOM     75  F   UNL     1       5.428 -13.521 -17.521  1.00  0.00    -0.206 F 
ATOM     76  C   UNL     1       2.181 -13.168 -19.085  1.00  0.00     0.006 A 
ENDBRANCH  55  69
BRANCH  56  77
ATOM     77  C   UNL     1      12.173  -5.955 -15.472  1.00  0.00     0.057 A 
ATOM     78  C   UNL     1      12.627  -4.837 -16.179  1.00  0.00     0.134 A 
ATOM     79  C   UNL     1      12.831  -6.274 -14.276  1.00  0.00     0.134 A 
ATOM     80  F   UNL     1      12.050  -4.493 -17.339  1.00  0.00    -0.206 F 
ATOM     81  C   UNL     1      13.691  -4.063 -15.713  1.00  0.00     0.040 A 
ATOM     82  C   UNL     1      13.879  -5.495 -13.786  1.00  0.00     0.040 A 
ATOM     83  F   UNL     1      12.439  -7.331 -13.549  1.00  0.00    -0.206 F 
ATOM     84  C   UNL     1      14.313  -4.386 -14.508  1.00  0.00     0.006 A 
ENDBRANCH  56  77
BRANCH  68  85
ATOM     85  C   UNL     1      11.216 -10.601 -20.555  1.00  0.00     0.057 A 
ATOM     86  C   UNL     1      12.197 -11.549 -20.240  1.00  0.00     0.134 A 
ATOM     87  C   UNL     1      11.103 -10.192 -21.888  1.00  0.00     0.134 A 
ATOM     88  F   UNL     1      12.361 -11.965 -18.976  1.00  0.00    -0.206 F 
ATOM     89  C   UNL     1      13.045 -12.064 -21.220  1.00  0.00     0.040 A 
ATOM     90  C   UNL     1      11.934 -10.712 -22.878  1.00  0.00     0.040 A 
ATOM     91  F   UNL     1      10.179  -9.287 -22.246  1.00  0.00    -0.206 F 
ATOM     92  C   UNL     1      12.911 -11.649 -22.544  1.00  0.00     0.006 A 
ENDBRANCH  68  85
ENDBRANCH  42  43
ENDBRANCH  35  37
ENDBRANCH  34  35
ENDBRANCH  33  34
ENDBRANCH   1  33
TORSDOF 15
