REMARK SMILES Cn1cc(C(=O)N[C@@H]2CCCCC[C@@H]2C(=O)OCCOC(=O)c2ccc(-c3c4nc(c(-c5c(F)cccc5F)c5ccc([nH]5)c(-c5c(F)cccc5F)c5nc(c(-c6c(F)cccc6F)c6ccc3[nH]6)C=C5)C=C4)cc2)cn1
REMARK SMILES IDX 18 1 17 2 15 3 16 4 14 5 8 6 7 7 5 8 6 9 4 11 1 12 2 13 3 14
REMARK SMILES IDX 78 15 77 16 9 17 10 18 13 20 12 21 11 22 19 24 20 25 21 26
REMARK SMILES IDX 22 27 23 28 24 29 76 30 25 31 75 32 26 33 27 34 28 35 69 36
REMARK SMILES IDX 29 37 74 38 68 39 70 40 30 41 73 42 67 43 66 44 31 46 57 47
REMARK SMILES IDX 40 48 56 49 41 50 44 51 55 52 71 53 42 54 43 55 54 57 72 58
REMARK SMILES IDX 45 59 32 60 33 61 38 62 34 63 35 64 37 65 39 66 36 67 58 68
REMARK SMILES IDX 59 69 64 70 60 71 61 72 63 73 65 74 62 75 46 76 47 77 52 78
REMARK SMILES IDX 48 79 49 80 51 81 53 82 50 83
REMARK H PARENT 7 10 70 45 44 56
REMARK Flexibility Score: 100.00
ROOT
ATOM      1  C   UNL     1       4.613  -5.832  -2.377  1.00  0.00     0.274 C 
ENDROOT
BRANCH   1   2
ATOM      2  O   UNL     1       3.774  -5.756  -1.208  1.00  0.00    -0.462 OA
BRANCH   2   3
ATOM      3  C   UNL     1       2.751  -4.867  -1.267  1.00  0.00     0.311 C 
ATOM      4  O   UNL     1       2.574  -4.081  -2.192  1.00  0.00    -0.252 OA
BRANCH   3   5
ATOM      5  C   UNL     1       1.766  -4.991  -0.109  1.00  0.00     0.121 C 
BRANCH   5   6
ATOM      6  C   UNL     1       1.405  -3.601   0.466  1.00  0.00     0.096 C 
BRANCH   6   7
ATOM      7  N   UNL     1       2.508  -2.648   0.492  1.00  0.00    -0.348 N 
ATOM      8  C   UNL     1       2.520  -1.284   0.302  1.00  0.00     0.254 C 
ATOM      9  O   UNL     1       3.624  -0.738   0.339  1.00  0.00    -0.269 OA
ATOM     10  H   UNL     1       3.390  -3.045   0.676  1.00  0.00     0.164 HD
BRANCH   8  11
ATOM     11  C   UNL     1       1.310  -0.491   0.098  1.00  0.00     0.077 A 
ATOM     12  C   UNL     1      -2.155   0.530  -0.169  1.00  0.00     0.173 C 
ATOM     13  N   UNL     1      -0.722   0.367  -0.118  1.00  0.00    -0.275 N 
ATOM     14  C   UNL     1      -0.038  -0.802   0.067  1.00  0.00     0.122 A 
ATOM     15  N   UNL     1       0.077   1.437  -0.227  1.00  0.00    -0.181 NA
ATOM     16  C   UNL     1       1.302   0.919  -0.097  1.00  0.00     0.149 A 
ENDBRANCH   8  11
ENDBRANCH   6   7
BRANCH   6  17
ATOM     17  C   UNL     1       0.756  -3.629   1.857  1.00  0.00     0.026 C 
BRANCH  17  18
ATOM     18  C   UNL     1      -0.473  -4.524   1.940  1.00  0.00     0.002 CG0
ATOM     19  G   UNL     1      -0.135  -5.947   2.368  1.00  0.00     0.000 G0
ENDBRANCH  17  18
ENDBRANCH   6  17
ENDBRANCH   5   6
BRANCH   5  20
ATOM     20  C   UNL     1       2.011  -6.117   0.908  1.00  0.00     0.017 C 
BRANCH  20  21
ATOM     21  C   UNL     1       0.692  -6.760   1.375  1.00  0.00     0.001 C 
BRANCH  21  22
ATOM     22  C   UNL     1      -0.135  -5.947   2.368  1.00  0.00     0.000 CG0
ATOM     23  G   UNL     1      -0.473  -4.524   1.940  1.00  0.00     0.000 G0
ENDBRANCH  21  22
ENDBRANCH  20  21
ENDBRANCH   5  20
ENDBRANCH   3   5
ENDBRANCH   2   3
ENDBRANCH   1   2
BRANCH   1  24
ATOM     24  C   UNL     1       4.128  -6.903  -3.364  1.00  0.00     0.275 C 
BRANCH  24  25
ATOM     25  O   UNL     1       2.924  -6.518  -4.059  1.00  0.00    -0.458 OA
BRANCH  25  26
ATOM     26  C   UNL     1       1.767  -6.868  -3.450  1.00  0.00     0.338 C 
ATOM     27  O   UNL     1       1.643  -7.480  -2.401  1.00  0.00    -0.246 OA
BRANCH  26  28
ATOM     28  C   UNL     1       0.615  -6.287  -4.161  1.00  0.00     0.060 A 
ATOM     29  C   UNL     1      -0.260  -5.478  -3.431  1.00  0.00     0.016 A 
ATOM     30  C   UNL     1       0.332  -6.606  -5.489  1.00  0.00     0.016 A 
ATOM     31  C   UNL     1      -1.430  -5.002  -4.006  1.00  0.00     0.010 A 
ATOM     32  C   UNL     1      -0.843  -6.119  -6.074  1.00  0.00     0.010 A 
ATOM     33  C   UNL     1      -1.737  -5.328  -5.330  1.00  0.00    -0.014 A 
BRANCH  33  34
ATOM     34  C   UNL     1      -3.024  -4.872  -5.900  1.00  0.00     0.031 A 
ATOM     35  C   UNL     1      -4.145  -5.851  -6.089  1.00  0.00     0.074 A 
ATOM     36  C   UNL     1      -3.202  -3.570  -6.187  1.00  0.00     0.049 A 
ATOM     37  N   UNL     1      -5.322  -5.665  -6.628  1.00  0.00    -0.248 NA
ATOM     38  C   UNL     1      -3.913  -7.219  -5.601  1.00  0.00     0.031 C 
ATOM     39  C   UNL     1      -2.209  -2.516  -5.978  1.00  0.00     0.029 A 
ATOM     40  N   UNL     1      -4.285  -2.913  -6.711  1.00  0.00    -0.354 N 
ATOM     41  C   UNL     1      -5.965  -6.894  -6.564  1.00  0.00     0.074 A 
ATOM     42  C   UNL     1      -5.043  -7.822  -5.944  1.00  0.00     0.031 C 
ATOM     43  C   UNL     1      -2.731  -1.341  -6.367  1.00  0.00     0.029 A 
ATOM     44  C   UNL     1      -4.072  -1.570  -6.897  1.00  0.00     0.049 A 
ATOM     45  H   UNL     1      -5.134  -3.361  -6.932  1.00  0.00     0.167 HD
ATOM     46  C   UNL     1      -7.211  -7.215  -6.983  1.00  0.00     0.037 A 
ATOM     47  C   UNL     1      -4.859  -0.636  -7.462  1.00  0.00     0.037 A 
ATOM     48  C   UNL     1      -8.127  -6.285  -7.590  1.00  0.00     0.049 A 
ATOM     49  C   UNL     1      -6.208  -1.034  -7.988  1.00  0.00     0.074 A 
ATOM     50  C   UNL     1      -9.408  -6.515  -8.060  1.00  0.00     0.029 A 
ATOM     51  N   UNL     1      -7.856  -4.942  -7.809  1.00  0.00    -0.354 N 
ATOM     52  N   UNL     1      -6.795  -2.206  -7.954  1.00  0.00    -0.248 NA
ATOM     53  C   UNL     1      -7.000   0.017  -8.642  1.00  0.00     0.031 C 
ATOM     54  C   UNL     1      -9.900  -5.319  -8.593  1.00  0.00     0.029 A 
ATOM     55  C   UNL     1      -8.940  -4.335  -8.420  1.00  0.00     0.049 A 
ATOM     56  H   UNL     1      -7.017  -4.488  -7.566  1.00  0.00     0.167 HD
ATOM     57  C   UNL     1      -8.029  -2.031  -8.565  1.00  0.00     0.074 A 
ATOM     58  C   UNL     1      -8.113  -0.636  -8.947  1.00  0.00     0.031 C 
ATOM     59  C   UNL     1      -9.005  -2.944  -8.790  1.00  0.00     0.037 A 
BRANCH  46  60
ATOM     60  C   UNL     1      -7.643  -8.642  -6.827  1.00  0.00     0.057 A 
ATOM     61  C   UNL     1      -7.989  -9.178  -5.580  1.00  0.00     0.134 A 
ATOM     62  C   UNL     1      -7.737  -9.483  -7.943  1.00  0.00     0.134 A 
ATOM     63  F   UNL     1      -7.903  -8.428  -4.471  1.00  0.00    -0.206 F 
ATOM     64  C   UNL     1      -8.397 -10.506  -5.447  1.00  0.00     0.040 A 
ATOM     65  C   UNL     1      -8.164 -10.806  -7.825  1.00  0.00     0.040 A 
ATOM     66  F   UNL     1      -7.422  -9.030  -9.165  1.00  0.00    -0.206 F 
ATOM     67  C   UNL     1      -8.491 -11.323  -6.572  1.00  0.00     0.006 A 
ENDBRANCH  46  60
BRANCH  47  68
ATOM     68  C   UNL     1      -4.377   0.762  -7.582  1.00  0.00     0.057 A 
ATOM     69  C   UNL     1      -4.934   1.788  -6.812  1.00  0.00     0.134 A 
ATOM     70  C   UNL     1      -3.347   1.102  -8.467  1.00  0.00     0.134 A 
ATOM     71  F   UNL     1      -5.938   1.526  -5.963  1.00  0.00    -0.206 F 
ATOM     72  C   UNL     1      -4.490   3.107  -6.925  1.00  0.00     0.040 A 
ATOM     73  C   UNL     1      -2.877   2.411  -8.573  1.00  0.00     0.040 A 
ATOM     74  F   UNL     1      -2.773   0.161  -9.232  1.00  0.00    -0.206 F 
ATOM     75  C   UNL     1      -3.453   3.419  -7.803  1.00  0.00     0.006 A 
ENDBRANCH  47  68
BRANCH  59  76
ATOM     76  C   UNL     1     -10.256  -2.454  -9.456  1.00  0.00     0.057 A 
ATOM     77  C   UNL     1     -10.297  -2.169 -10.825  1.00  0.00     0.134 A 
ATOM     78  C   UNL     1     -11.439  -2.300  -8.723  1.00  0.00     0.134 A 
ATOM     79  F   UNL     1      -9.192  -2.284 -11.577  1.00  0.00    -0.206 F 
ATOM     80  C   UNL     1     -11.469  -1.729 -11.442  1.00  0.00     0.040 A 
ATOM     81  C   UNL     1     -12.623  -1.882  -9.332  1.00  0.00     0.040 A 
ATOM     82  F   UNL     1     -11.466  -2.564  -7.408  1.00  0.00    -0.206 F 
ATOM     83  C   UNL     1     -12.638  -1.591 -10.695  1.00  0.00     0.006 A 
ENDBRANCH  59  76
ENDBRANCH  33  34
ENDBRANCH  26  28
ENDBRANCH  25  26
ENDBRANCH  24  25
ENDBRANCH   1  24
TORSDOF 13
