REMARK SMILES Cc1cc(=O)oc2cc(O[C@@H](C)C(=O)N[C@H](CC(C)C)C(=O)OCCOC(=O)c3ccc(-c4c5nc(c(-c6c(F)cccc6F)c6ccc([nH]6)c(-c6c(F)cccc6F)c6nc(c(-c7c(F)cccc7F)c7ccc4[nH]7)C=C6)C=C5)cc3)ccc12
REMARK SMILES IDX 24 1 23 2 21 3 22 4 16 5 15 6 13 7 14 8 11 10 12 11 10 12
REMARK SMILES IDX 9 13 1 14 2 15 3 16 85 17 4 18 7 19 84 20 5 21 6 22 8 23
REMARK SMILES IDX 83 24 17 25 18 26 19 27 20 28 25 29 26 30 27 31 28 32 29 33
REMARK SMILES IDX 30 34 82 35 31 36 81 37 32 38 33 39 34 40 75 41 35 42 80 43
REMARK SMILES IDX 74 44 76 45 36 46 79 47 73 48 72 49 37 51 63 52 46 53 62 54
REMARK SMILES IDX 47 55 50 56 61 57 77 58 48 59 49 60 60 62 78 63 51 64 38 65
REMARK SMILES IDX 39 66 44 67 40 68 41 69 43 70 45 71 42 72 64 73 65 74 70 75
REMARK SMILES IDX 66 76 67 77 69 78 71 79 68 80 52 81 53 82 58 83 54 84 55 85
REMARK SMILES IDX 57 86 59 87 56 88
REMARK H PARENT 15 9 76 50 50 61
REMARK Flexibility Score: inf
ROOT
ATOM      1  C   UNL     1      -2.833   2.699   0.354  1.00  0.00     0.274 C 
ENDROOT
BRANCH   1   2
ATOM      2  O   UNL     1      -1.813   3.149   1.396  1.00  0.00    -0.461 OA
BRANCH   2   3
ATOM      3  C   UNL     1      -0.529   2.950   1.816  1.00  0.00     0.328 C 
ATOM      4  O   UNL     1       0.167   3.937   2.102  1.00  0.00    -0.250 OA
BRANCH   3   5
ATOM      5  C   UNL     1       0.130   1.621   2.167  1.00  0.00     0.192 C 
BRANCH   5   6
ATOM      6  N   UNL     1      -0.649   0.476   1.797  1.00  0.00    -0.339 N 
ATOM      7  C   UNL     1      -0.724   0.063   0.491  1.00  0.00     0.261 C 
ATOM      8  O   UNL     1      -1.151  -1.081   0.296  1.00  0.00    -0.271 OA
ATOM      9  H   UNL     1      -1.137  -0.022   2.491  1.00  0.00     0.164 HD
BRANCH   7  10
ATOM     10  C   UNL     1      -0.391   1.050  -0.758  1.00  0.00     0.258 C 
ATOM     11  C   UNL     1       0.353   0.285  -1.851  1.00  0.00     0.064 C 
BRANCH  10  12
ATOM     12  O   UNL     1      -0.375   2.476  -0.868  1.00  0.00    -0.481 OA
BRANCH  12  13
ATOM     13  C   UNL     1       0.363   3.605  -0.717  1.00  0.00     0.124 A 
ATOM     14  C   UNL     1       1.256   8.431   1.245  1.00  0.00     0.045 C 
ATOM     15  C   UNL     1       2.093   7.273   0.760  1.00  0.00    -0.033 A 
ATOM     16  C   UNL     1       3.414   7.200   0.949  1.00  0.00     0.098 A 
ATOM     17  C   UNL     1       1.475   6.115   0.118  1.00  0.00     0.021 A 
ATOM     18  C   UNL     1       4.226   6.059   0.496  1.00  0.00     0.336 A 
ATOM     19  C   UNL     1       2.240   5.043  -0.386  1.00  0.00     0.142 A 
ATOM     20  C   UNL     1       0.119   5.979   0.090  1.00  0.00     0.016 A 
ATOM     21  O   UNL     1       5.409   5.971   0.831  1.00  0.00    -0.246 OA
ATOM     22  O   UNL     1       3.643   5.130  -0.346  1.00  0.00    -0.423 OA
ATOM     23  C   UNL     1       1.710   3.799  -0.829  1.00  0.00     0.094 A 
ATOM     24  C   UNL     1      -0.385   4.767  -0.351  1.00  0.00     0.047 A 
ENDBRANCH  12  13
ENDBRANCH  10  12
ENDBRANCH   7  10
ENDBRANCH   5   6
BRANCH   5  25
ATOM     25  C   UNL     1       0.542   1.813   3.680  1.00  0.00     0.040 C 
BRANCH  25  26
ATOM     26  C   UNL     1       2.067   1.942   4.061  1.00  0.00    -0.015 C 
ATOM     27  C   UNL     1       3.099   1.544   3.005  1.00  0.00     0.007 C 
ATOM     28  C   UNL     1       2.456   3.351   4.564  1.00  0.00     0.007 C 
ENDBRANCH  25  26
ENDBRANCH   5  25
ENDBRANCH   3   5
ENDBRANCH   2   3
ENDBRANCH   1   2
BRANCH   1  29
ATOM     29  C   UNL     1      -3.155   3.592  -1.006  1.00  0.00     0.275 C 
BRANCH  29  30
ATOM     30  O   UNL     1      -2.231   3.516  -2.175  1.00  0.00    -0.458 OA
BRANCH  30  31
ATOM     31  C   UNL     1      -1.887   4.646  -2.915  1.00  0.00     0.338 C 
ATOM     32  O   UNL     1      -2.454   5.725  -2.825  1.00  0.00    -0.246 OA
BRANCH  31  33
ATOM     33  C   UNL     1      -0.604   4.475  -3.746  1.00  0.00     0.060 A 
ATOM     34  C   UNL     1       0.062   3.262  -3.730  1.00  0.00     0.016 A 
ATOM     35  C   UNL     1       0.054   5.519  -4.427  1.00  0.00     0.016 A 
ATOM     36  C   UNL     1       1.382   3.125  -4.190  1.00  0.00     0.010 A 
ATOM     37  C   UNL     1       1.309   5.310  -5.092  1.00  0.00     0.010 A 
ATOM     38  C   UNL     1       1.994   4.086  -5.001  1.00  0.00    -0.014 A 
BRANCH  38  39
ATOM     39  C   UNL     1       3.214   3.704  -5.825  1.00  0.00     0.031 A 
ATOM     40  C   UNL     1       4.433   4.596  -5.984  1.00  0.00     0.074 A 
ATOM     41  C   UNL     1       3.226   2.524  -6.499  1.00  0.00     0.049 A 
ATOM     42  N   UNL     1       5.393   4.538  -6.881  1.00  0.00    -0.248 NA
ATOM     43  C   UNL     1       4.606   5.680  -5.008  1.00  0.00     0.031 C 
ATOM     44  C   UNL     1       2.186   1.491  -6.439  1.00  0.00     0.029 A 
ATOM     45  N   UNL     1       4.139   1.986  -7.387  1.00  0.00    -0.354 N 
ATOM     46  C   UNL     1       6.242   5.614  -6.625  1.00  0.00     0.074 A 
ATOM     47  C   UNL     1       5.696   6.291  -5.465  1.00  0.00     0.031 C 
ATOM     48  C   UNL     1       2.527   0.449  -7.201  1.00  0.00     0.029 A 
ATOM     49  C   UNL     1       3.721   0.797  -7.946  1.00  0.00     0.049 A 
ATOM     50  H   UNL     1       5.002   2.410  -7.599  1.00  0.00     0.167 HD
ATOM     51  C   UNL     1       7.356   6.007  -7.302  1.00  0.00     0.037 A 
ATOM     52  C   UNL     1       4.150   0.088  -9.007  1.00  0.00     0.037 A 
ATOM     53  C   UNL     1       7.932   5.299  -8.427  1.00  0.00     0.049 A 
ATOM     54  C   UNL     1       5.316   0.584  -9.798  1.00  0.00     0.074 A 
ATOM     55  C   UNL     1       9.063   5.619  -9.164  1.00  0.00     0.029 A 
ATOM     56  N   UNL     1       7.431   4.126  -8.971  1.00  0.00    -0.354 N 
ATOM     57  N   UNL     1       6.048   1.650  -9.599  1.00  0.00    -0.248 NA
ATOM     58  C   UNL     1       5.703  -0.209 -10.972  1.00  0.00     0.031 C 
ATOM     59  C   UNL     1       9.212   4.673 -10.185  1.00  0.00     0.029 A 
ATOM     60  C   UNL     1       8.211   3.728 -10.049  1.00  0.00     0.049 A 
ATOM     61  H   UNL     1       6.637   3.645  -8.642  1.00  0.00     0.167 HD
ATOM     62  C   UNL     1       6.997   1.648 -10.609  1.00  0.00     0.074 A 
ATOM     63  C   UNL     1       6.757   0.465 -11.410  1.00  0.00     0.031 C 
ATOM     64  C   UNL     1       7.977   2.550 -10.846  1.00  0.00     0.037 A 
BRANCH  51  65
ATOM     65  C   UNL     1       8.012   7.305  -6.900  1.00  0.00     0.057 A 
ATOM     66  C   UNL     1       8.749   7.450  -5.719  1.00  0.00     0.134 A 
ATOM     67  C   UNL     1       7.957   8.416  -7.758  1.00  0.00     0.134 A 
ATOM     68  F   UNL     1       8.855   6.429  -4.856  1.00  0.00    -0.206 F 
ATOM     69  C   UNL     1       9.376   8.656  -5.389  1.00  0.00     0.040 A 
ATOM     70  C   UNL     1       8.603   9.617  -7.452  1.00  0.00     0.040 A 
ATOM     71  F   UNL     1       7.293   8.346  -8.921  1.00  0.00    -0.206 F 
ATOM     72  C   UNL     1       9.308   9.743  -6.259  1.00  0.00     0.006 A 
ENDBRANCH  51  65
BRANCH  52  73
ATOM     73  C   UNL     1       3.397  -1.123  -9.435  1.00  0.00     0.057 A 
ATOM     74  C   UNL     1       3.949  -2.401  -9.315  1.00  0.00     0.134 A 
ATOM     75  C   UNL     1       2.093  -1.030  -9.945  1.00  0.00     0.134 A 
ATOM     76  F   UNL     1       5.199  -2.555  -8.855  1.00  0.00    -0.206 F 
ATOM     77  C   UNL     1       3.236  -3.542  -9.688  1.00  0.00     0.040 A 
ATOM     78  C   UNL     1       1.356  -2.163 -10.288  1.00  0.00     0.040 A 
ATOM     79  F   UNL     1       1.499   0.167 -10.077  1.00  0.00    -0.206 F 
ATOM     80  C   UNL     1       1.932  -3.425 -10.165  1.00  0.00     0.006 A 
ENDBRANCH  52  73
BRANCH  64  81
ATOM     81  C   UNL     1       8.898   2.264 -11.995  1.00  0.00     0.057 A 
ATOM     82  C   UNL     1       8.483   2.382 -13.327  1.00  0.00     0.134 A 
ATOM     83  C   UNL     1      10.220   1.865 -11.762  1.00  0.00     0.134 A 
ATOM     84  F   UNL     1       7.221   2.735 -13.618  1.00  0.00    -0.206 F 
ATOM     85  C   UNL     1       9.344   2.093 -14.387  1.00  0.00     0.040 A 
ATOM     86  C   UNL     1      11.099   1.600 -12.814  1.00  0.00     0.040 A 
ATOM     87  F   UNL     1      10.681   1.730 -10.510  1.00  0.00    -0.206 F 
ATOM     88  C   UNL     1      10.659   1.707 -14.131  1.00  0.00     0.006 A 
ENDBRANCH  64  81
ENDBRANCH  38  39
ENDBRANCH  31  33
ENDBRANCH  30  31
ENDBRANCH  29  30
ENDBRANCH   1  29
TORSDOF 17
