REMARK SMILES Cc1cc(Cl)c2c(c1)C=C(C(=O)OCCOC(=O)c1ccc(-c3c4nc(c(-c5c(F)cccc5F)c5ccc([nH]5)c(-c5c(F)cccc5F)c5nc(c(-c6c(F)cccc6F)c6ccc3[nH]6)C=C5)C=C4)cc1)[C@@H](C(F)(F)F)O2
REMARK SMILES IDX 15 1 14 2 13 3 11 4 12 5 10 6 1 7 2 8 3 9 8 10 4 11 7 12
REMARK SMILES IDX 5 13 6 14 9 15 78 16 73 17 74 18 75 19 76 20 77 21 16 22
REMARK SMILES IDX 17 23 18 24 19 25 20 26 72 27 21 28 71 29 22 30 23 31 24 32
REMARK SMILES IDX 65 33 25 34 70 35 64 36 66 37 26 38 69 39 63 40 62 41 27 43
REMARK SMILES IDX 53 44 36 45 52 46 37 47 40 48 51 49 67 50 38 51 39 52 50 54
REMARK SMILES IDX 68 55 41 56 28 57 29 58 34 59 30 60 31 61 33 62 35 63 32 64
REMARK SMILES IDX 54 65 55 66 60 67 56 68 57 69 59 70 61 71 58 72 42 73 43 74
REMARK SMILES IDX 48 75 44 76 45 77 47 78 49 79 46 80
REMARK H PARENT 66 42 40 53
REMARK Flexibility Score: inf
ROOT
ATOM      1  C   UNL     1       1.506   9.771   1.134  1.00  0.00     0.275 C 
ENDROOT
BRANCH   1   2
ATOM      2  C   UNL     1       1.661   9.506  -0.363  1.00  0.00     0.275 C 
BRANCH   2   3
ATOM      3  O   UNL     1       0.991   8.287  -0.751  1.00  0.00    -0.459 OA
BRANCH   3   4
ATOM      4  C   UNL     1       1.798   7.212  -0.921  1.00  0.00     0.338 C 
ATOM      5  O   UNL     1       3.007   7.180  -0.787  1.00  0.00    -0.246 OA
BRANCH   4   6
ATOM      6  C   UNL     1       0.999   6.019  -1.262  1.00  0.00     0.087 C 
ATOM      7  C   UNL     1       0.764  -0.024  -0.123  1.00  0.00     0.044 C 
ATOM      8  C   UNL     1       0.373   1.257  -0.798  1.00  0.00    -0.049 A 
ATOM      9  C   UNL     1      -0.586   1.286  -1.816  1.00  0.00     0.028 A 
ATOM     10  C   UNL     1       0.958   2.459  -0.392  1.00  0.00     0.015 A 
ATOM     11  C   UNL     1      -0.945   2.499  -2.421  1.00  0.00     0.084 A 
ATOM     12  C   UNL     1       0.613   3.669  -1.012  1.00  0.00     0.019 A 
ATOM     13  Cl  UNL     1      -2.127   2.465  -3.680  1.00  0.00    -0.080 Cl
ATOM     14  C   UNL     1      -0.345   3.701  -2.024  1.00  0.00     0.146 A 
ATOM     15  C   UNL     1       1.285   4.887  -0.612  1.00  0.00     0.027 C 
ATOM     16  O   UNL     1      -0.740   4.866  -2.627  1.00  0.00    -0.474 OA
ATOM     17  C   UNL     1       0.019   6.086  -2.397  1.00  0.00     0.316 C 
BRANCH  17  18
ATOM     18  C   UNL     1       0.715   6.497  -3.705  1.00  0.00     0.430 C 
ATOM     19  F   UNL     1      -0.157   6.545  -4.739  1.00  0.00    -0.167 F 
ATOM     20  F   UNL     1       1.267   7.731  -3.607  1.00  0.00    -0.167 F 
ATOM     21  F   UNL     1       1.705   5.640  -4.045  1.00  0.00    -0.167 F 
ENDBRANCH  17  18
ENDBRANCH   4   6
ENDBRANCH   3   4
ENDBRANCH   2   3
ENDBRANCH   1   2
BRANCH   1  22
ATOM     22  O   UNL     1       2.194   8.758   1.889  1.00  0.00    -0.458 OA
BRANCH  22  23
ATOM     23  C   UNL     1       1.418   7.963   2.658  1.00  0.00     0.338 C 
ATOM     24  O   UNL     1       0.209   8.029   2.818  1.00  0.00    -0.246 OA
BRANCH  23  25
ATOM     25  C   UNL     1       2.244   6.916   3.281  1.00  0.00     0.060 A 
ATOM     26  C   UNL     1       2.900   6.004   2.463  1.00  0.00     0.016 A 
ATOM     27  C   UNL     1       2.262   6.748   4.664  1.00  0.00     0.016 A 
ATOM     28  C   UNL     1       3.465   4.855   3.007  1.00  0.00     0.010 A 
ATOM     29  C   UNL     1       2.955   5.664   5.219  1.00  0.00     0.010 A 
ATOM     30  C   UNL     1       3.534   4.681   4.397  1.00  0.00    -0.014 A 
BRANCH  30  31
ATOM     31  C   UNL     1       4.209   3.474   4.961  1.00  0.00     0.031 A 
ATOM     32  C   UNL     1       3.478   2.540   5.893  1.00  0.00     0.074 A 
ATOM     33  C   UNL     1       5.479   3.186   4.602  1.00  0.00     0.049 A 
ATOM     34  N   UNL     1       3.938   1.504   6.550  1.00  0.00    -0.248 NA
ATOM     35  C   UNL     1       2.050   2.807   6.128  1.00  0.00     0.031 C 
ATOM     36  C   UNL     1       6.301   3.981   3.687  1.00  0.00     0.029 A 
ATOM     37  N   UNL     1       6.293   2.129   4.934  1.00  0.00    -0.354 N 
ATOM     38  C   UNL     1       2.875   1.031   7.312  1.00  0.00     0.074 A 
ATOM     39  C   UNL     1       1.747   1.896   7.042  1.00  0.00     0.031 C 
ATOM     40  C   UNL     1       7.459   3.345   3.464  1.00  0.00     0.029 A 
ATOM     41  C   UNL     1       7.511   2.150   4.297  1.00  0.00     0.049 A 
ATOM     42  H   UNL     1       6.028   1.424   5.568  1.00  0.00     0.167 HD
ATOM     43  C   UNL     1       2.842  -0.029   8.154  1.00  0.00     0.037 A 
ATOM     44  C   UNL     1       8.569   1.321   4.386  1.00  0.00     0.037 A 
ATOM     45  C   UNL     1       3.948  -0.924   8.379  1.00  0.00     0.049 A 
ATOM     46  C   UNL     1       8.515   0.166   5.342  1.00  0.00     0.074 A 
ATOM     47  C   UNL     1       4.007  -2.026   9.216  1.00  0.00     0.029 A 
ATOM     48  N   UNL     1       5.179  -0.835   7.748  1.00  0.00    -0.354 N 
ATOM     49  N   UNL     1       7.522  -0.227   6.101  1.00  0.00    -0.248 NA
ATOM     50  C   UNL     1       9.735  -0.643   5.477  1.00  0.00     0.031 C 
ATOM     51  C   UNL     1       5.282  -2.588   9.111  1.00  0.00     0.029 A 
ATOM     52  C   UNL     1       6.005  -1.859   8.181  1.00  0.00     0.049 A 
ATOM     53  H   UNL     1       5.429  -0.146   7.090  1.00  0.00     0.167 HD
ATOM     54  C   UNL     1       7.992  -1.330   6.798  1.00  0.00     0.074 A 
ATOM     55  C   UNL     1       9.354  -1.557   6.360  1.00  0.00     0.031 C 
ATOM     56  C   UNL     1       7.353  -2.080   7.727  1.00  0.00     0.037 A 
BRANCH  43  57
ATOM     57  C   UNL     1       1.574  -0.283   8.915  1.00  0.00     0.057 A 
ATOM     58  C   UNL     1       0.437  -0.825   8.303  1.00  0.00     0.134 A 
ATOM     59  C   UNL     1       1.514  -0.047  10.296  1.00  0.00     0.134 A 
ATOM     60  F   UNL     1       0.426  -1.064   6.983  1.00  0.00    -0.206 F 
ATOM     61  C   UNL     1      -0.718  -1.112   9.034  1.00  0.00     0.040 A 
ATOM     62  C   UNL     1       0.374  -0.351  11.041  1.00  0.00     0.040 A 
ATOM     63  F   UNL     1       2.572   0.462  10.946  1.00  0.00    -0.206 F 
ATOM     64  C   UNL     1      -0.748  -0.883  10.409  1.00  0.00     0.006 A 
ENDBRANCH  43  57
BRANCH  44  65
ATOM     65  C   UNL     1       9.772   1.568   3.551  1.00  0.00     0.057 A 
ATOM     66  C   UNL     1      10.104   0.710   2.497  1.00  0.00     0.134 A 
ATOM     67  C   UNL     1      10.596   2.682   3.760  1.00  0.00     0.134 A 
ATOM     68  F   UNL     1       9.367  -0.385   2.260  1.00  0.00    -0.206 F 
ATOM     69  C   UNL     1      11.208   0.952   1.678  1.00  0.00     0.040 A 
ATOM     70  C   UNL     1      11.687   2.951   2.933  1.00  0.00     0.040 A 
ATOM     71  F   UNL     1      10.330   3.544   4.753  1.00  0.00    -0.206 F 
ATOM     72  C   UNL     1      11.996   2.082   1.888  1.00  0.00     0.006 A 
ENDBRANCH  44  65
BRANCH  56  73
ATOM     73  C   UNL     1       8.102  -3.233   8.320  1.00  0.00     0.057 A 
ATOM     74  C   UNL     1       9.082  -3.043   9.300  1.00  0.00     0.134 A 
ATOM     75  C   UNL     1       7.779  -4.550   7.967  1.00  0.00     0.134 A 
ATOM     76  F   UNL     1       9.441  -1.805   9.672  1.00  0.00    -0.206 F 
ATOM     77  C   UNL     1       9.720  -4.125   9.908  1.00  0.00     0.040 A 
ATOM     78  C   UNL     1       8.397  -5.639   8.581  1.00  0.00     0.040 A 
ATOM     79  F   UNL     1       6.842  -4.795   7.039  1.00  0.00    -0.206 F 
ATOM     80  C   UNL     1       9.371  -5.428   9.556  1.00  0.00     0.006 A 
ENDBRANCH  56  73
ENDBRANCH  30  31
ENDBRANCH  23  25
ENDBRANCH  22  23
ENDBRANCH   1  22
TORSDOF 12
