REMARK SMILES CCOc1ccc(CNC(=O)Cc2c(C(=O)OCCOC(=O)c3ccc(-c4c5nc(c(-c6c(F)cccc6F)c6ccc([nH]6)c(-c6c(F)cccc6F)c6nc(c(-c7c(F)cccc7F)c7ccc4[nH]7)C=C6)C=C5)cc3)c(C)cn2C)cc1
REMARK SMILES IDX 15 1 16 2 14 3 13 4 80 5 77 6 79 7 81 8 78 9 12 10 10 11
REMARK SMILES IDX 9 12 11 14 8 15 7 16 4 17 5 18 83 19 6 20 82 21 3 22 2 23
REMARK SMILES IDX 1 24 17 25 18 26 19 27 20 28 21 29 22 30 23 31 24 32 76 33
REMARK SMILES IDX 25 34 75 35 26 36 27 37 28 38 69 39 29 40 74 41 68 42 70 43
REMARK SMILES IDX 30 44 73 45 67 46 66 47 31 49 57 50 40 51 56 52 41 53 44 54
REMARK SMILES IDX 55 55 71 56 42 57 43 58 54 60 72 61 45 62 32 63 33 64 38 65
REMARK SMILES IDX 34 66 35 67 37 68 39 69 36 70 58 71 59 72 64 73 60 74 61 75
REMARK SMILES IDX 63 76 65 77 62 78 46 79 47 80 52 81 48 82 49 83 51 84 53 85
REMARK SMILES IDX 50 86
REMARK H PARENT 9 13 70 48 44 59
REMARK Flexibility Score: inf
ROOT
ATOM      1  C   UNL     1       7.217   3.618   0.503  1.00  0.00     0.340 C 
ATOM      2  O   UNL     1       8.434   3.482   0.603  1.00  0.00    -0.246 OA
ENDROOT
BRANCH   1   3
ATOM      3  C   UNL     1       6.600   4.932   0.368  1.00  0.00     0.084 A 
ATOM      4  C   UNL     1       6.893   5.811  -0.676  1.00  0.00     0.041 A 
ATOM      5  N   UNL     1       6.321   7.019  -0.362  1.00  0.00    -0.353 N 
ATOM      6  C   UNL     1       5.448   5.496   1.015  1.00  0.00    -0.019 A 
ATOM      7  C   UNL     1       5.357   6.809   0.586  1.00  0.00     0.089 A 
ATOM      8  C   UNL     1       6.610   8.286  -0.998  1.00  0.00     0.149 C 
ATOM      9  C   UNL     1       4.480   4.801   1.904  1.00  0.00     0.047 C 
BRANCH   4  10
ATOM     10  C   UNL     1       7.533   5.515  -2.003  1.00  0.00     0.154 C 
BRANCH  10  11
ATOM     11  C   UNL     1       6.538   5.727  -3.168  1.00  0.00     0.226 C 
ATOM     12  N   UNL     1       5.351   5.033  -3.234  1.00  0.00    -0.352 N 
ATOM     13  H   UNL     1       4.740   5.260  -3.972  1.00  0.00     0.163 HD
ATOM     14  O   UNL     1       6.815   6.500  -4.089  1.00  0.00    -0.275 OA
BRANCH  12  15
ATOM     15  C   UNL     1       4.924   4.007  -2.322  1.00  0.00     0.151 C 
BRANCH  15  16
ATOM     16  C   UNL     1       3.496   3.551  -2.328  1.00  0.00    -0.029 A 
ATOM     17  C   UNL     1       0.979   2.643  -1.504  1.00  0.00     0.119 A 
ATOM     18  C   UNL     1       1.171   3.993  -1.802  1.00  0.00     0.047 A 
ATOM     19  C   UNL     1       2.002   1.730  -1.726  1.00  0.00     0.047 A 
ATOM     20  C   UNL     1       2.431   4.452  -2.204  1.00  0.00     0.009 A 
ATOM     21  C   UNL     1       3.251   2.184  -2.130  1.00  0.00     0.009 A 
BRANCH  17  22
ATOM     22  O   UNL     1      -0.242   2.236  -1.044  1.00  0.00    -0.494 OA
BRANCH  22  23
ATOM     23  C   UNL     1      -0.194   1.735   0.303  1.00  0.00     0.226 C 
ATOM     24  C   UNL     1      -0.036   0.221   0.346  1.00  0.00     0.049 C 
ENDBRANCH  22  23
ENDBRANCH  17  22
ENDBRANCH  15  16
ENDBRANCH  12  15
ENDBRANCH  10  11
ENDBRANCH   4  10
ENDBRANCH   1   3
BRANCH   1  25
ATOM     25  O   UNL     1       6.329   2.586   0.419  1.00  0.00    -0.458 OA
BRANCH  25  26
ATOM     26  C   UNL     1       6.918   1.275   0.475  1.00  0.00     0.275 C 
BRANCH  26  27
ATOM     27  C   UNL     1       6.533   0.443  -0.740  1.00  0.00     0.275 C 
BRANCH  27  28
ATOM     28  O   UNL     1       6.972   1.025  -1.982  1.00  0.00    -0.458 OA
BRANCH  28  29
ATOM     29  C   UNL     1       6.496   0.299  -3.026  1.00  0.00     0.338 C 
ATOM     30  O   UNL     1       5.776  -0.687  -2.925  1.00  0.00    -0.246 OA
BRANCH  29  31
ATOM     31  C   UNL     1       6.879   0.803  -4.358  1.00  0.00     0.060 A 
ATOM     32  C   UNL     1       6.985   2.160  -4.674  1.00  0.00     0.016 A 
ATOM     33  C   UNL     1       6.925  -0.158  -5.371  1.00  0.00     0.016 A 
ATOM     34  C   UNL     1       6.943   2.564  -6.009  1.00  0.00     0.010 A 
ATOM     35  C   UNL     1       6.950   0.239  -6.694  1.00  0.00     0.010 A 
ATOM     36  C   UNL     1       6.857   1.599  -7.017  1.00  0.00    -0.014 A 
BRANCH  36  37
ATOM     37  C   UNL     1       6.724   1.993  -8.427  1.00  0.00     0.031 A 
ATOM     38  C   UNL     1       7.899   2.663  -9.066  1.00  0.00     0.074 A 
ATOM     39  C   UNL     1       5.717   1.492  -9.179  1.00  0.00     0.049 A 
ATOM     40  N   UNL     1       7.918   3.597  -9.968  1.00  0.00    -0.248 NA
ATOM     41  C   UNL     1       9.239   2.224  -8.636  1.00  0.00     0.031 C 
ATOM     42  C   UNL     1       4.658   0.574  -8.737  1.00  0.00     0.029 A 
ATOM     43  N   UNL     1       5.537   1.535 -10.534  1.00  0.00    -0.354 N 
ATOM     44  C   UNL     1       9.256   3.754 -10.329  1.00  0.00     0.074 A 
ATOM     45  C   UNL     1      10.032   2.948  -9.422  1.00  0.00     0.031 C 
ATOM     46  C   UNL     1       4.140  -0.053  -9.812  1.00  0.00     0.029 A 
ATOM     47  C   UNL     1       4.748   0.495 -11.012  1.00  0.00     0.049 A 
ATOM     48  H   UNL     1       5.926   2.231 -11.111  1.00  0.00     0.167 HD
ATOM     49  C   UNL     1       9.662   4.395 -11.458  1.00  0.00     0.037 A 
ATOM     50  C   UNL     1       4.673   0.035 -12.285  1.00  0.00     0.037 A 
ATOM     51  C   UNL     1       8.679   5.293 -11.984  1.00  0.00     0.049 A 
ATOM     52  C   UNL     1       5.245   1.059 -13.186  1.00  0.00     0.074 A 
ATOM     53  C   UNL     1       8.023   6.407 -11.498  1.00  0.00     0.029 A 
ATOM     54  N   UNL     1       8.018   4.955 -13.136  1.00  0.00    -0.354 N 
ATOM     55  N   UNL     1       4.684   2.198 -13.474  1.00  0.00    -0.248 NA
ATOM     56  C   UNL     1       6.660   0.959 -13.516  1.00  0.00     0.031 C 
ATOM     57  C   UNL     1       6.735   6.379 -12.105  1.00  0.00     0.029 A 
ATOM     58  C   UNL     1       6.696   5.249 -12.921  1.00  0.00     0.049 A 
ATOM     59  H   UNL     1       8.413   4.576 -13.955  1.00  0.00     0.167 HD
ATOM     60  C   UNL     1       5.741   3.081 -13.629  1.00  0.00     0.074 A 
ATOM     61  C   UNL     1       6.924   2.241 -13.769  1.00  0.00     0.031 C 
ATOM     62  C   UNL     1       5.603   4.409 -13.345  1.00  0.00     0.037 A 
BRANCH  49  63
ATOM     63  C   UNL     1      10.887   3.988 -12.226  1.00  0.00     0.057 A 
ATOM     64  C   UNL     1      11.501   4.874 -13.124  1.00  0.00     0.134 A 
ATOM     65  C   UNL     1      11.333   2.652 -12.286  1.00  0.00     0.134 A 
ATOM     66  F   UNL     1      11.117   6.157 -13.194  1.00  0.00    -0.206 F 
ATOM     67  C   UNL     1      12.487   4.455 -14.026  1.00  0.00     0.040 A 
ATOM     68  C   UNL     1      12.350   2.233 -13.147  1.00  0.00     0.040 A 
ATOM     69  F   UNL     1      10.743   1.681 -11.575  1.00  0.00    -0.206 F 
ATOM     70  C   UNL     1      12.918   3.132 -14.036  1.00  0.00     0.006 A 
ENDBRANCH  49  63
BRANCH  50  71
ATOM     71  C   UNL     1       4.354  -1.336 -12.748  1.00  0.00     0.057 A 
ATOM     72  C   UNL     1       3.930  -1.582 -14.061  1.00  0.00     0.134 A 
ATOM     73  C   UNL     1       4.665  -2.474 -11.981  1.00  0.00     0.134 A 
ATOM     74  F   UNL     1       3.667  -0.564 -14.893  1.00  0.00    -0.206 F 
ATOM     75  C   UNL     1       3.812  -2.880 -14.576  1.00  0.00     0.040 A 
ATOM     76  C   UNL     1       4.533  -3.775 -12.475  1.00  0.00     0.040 A 
ATOM     77  F   UNL     1       5.184  -2.362 -10.749  1.00  0.00    -0.206 F 
ATOM     78  C   UNL     1       4.113  -3.982 -13.782  1.00  0.00     0.006 A 
ENDBRANCH  50  71
BRANCH  62  79
ATOM     79  C   UNL     1       4.216   4.944 -13.132  1.00  0.00     0.057 A 
ATOM     80  C   UNL     1       3.384   4.531 -12.081  1.00  0.00     0.134 A 
ATOM     81  C   UNL     1       3.771   6.019 -13.908  1.00  0.00     0.134 A 
ATOM     82  F   UNL     1       3.776   3.586 -11.217  1.00  0.00    -0.206 F 
ATOM     83  C   UNL     1       2.142   5.126 -11.846  1.00  0.00     0.040 A 
ATOM     84  C   UNL     1       2.546   6.645 -13.663  1.00  0.00     0.040 A 
ATOM     85  F   UNL     1       4.543   6.512 -14.889  1.00  0.00    -0.206 F 
ATOM     86  C   UNL     1       1.722   6.191 -12.636  1.00  0.00     0.006 A 
ENDBRANCH  62  79
ENDBRANCH  36  37
ENDBRANCH  29  31
ENDBRANCH  28  29
ENDBRANCH  27  28
ENDBRANCH  26  27
ENDBRANCH  25  26
ENDBRANCH   1  25
TORSDOF 17
