REMARK SMILES Cn1c(=O)c2c(-c3ccc(Cl)cc3)n(CC(=O)OCCOC(=O)c3ccc(-c4c5nc(c(-c6c(F)cccc6F)c6ccc([nH]6)c(-c6c(F)cccc6F)c6nc(c(-c7c(F)cccc7F)c7ccc4[nH]7)C=C6)C=C5)cc3)cc2n(C)c1=O
REMARK SMILES IDX 19 1 18 2 16 3 17 4 15 5 14 6 1 7 2 8 3 9 82 10 4 11 5 12
REMARK SMILES IDX 80 13 83 14 6 15 79 16 81 17 78 18 7 19 8 20 13 21 9 22
REMARK SMILES IDX 12 23 10 24 11 25 20 26 21 27 22 28 23 29 24 30 25 31 77 32
REMARK SMILES IDX 26 33 76 34 27 35 28 36 29 37 70 38 30 39 75 40 69 41 71 42
REMARK SMILES IDX 31 43 74 44 68 45 67 46 32 48 58 49 41 50 57 51 42 52 45 53
REMARK SMILES IDX 56 54 72 55 43 56 44 57 55 59 73 60 46 61 33 62 34 63 39 64
REMARK SMILES IDX 35 65 36 66 38 67 40 68 37 69 59 70 60 71 65 72 61 73 62 74
REMARK SMILES IDX 64 75 66 76 63 77 47 78 48 79 53 80 49 81 50 82 52 83 54 84
REMARK SMILES IDX 51 85
REMARK H PARENT 71 47 45 58
REMARK Flexibility Score: inf
ROOT
ATOM      1  C   UNL     1      -4.838  -2.285  -6.319  1.00  0.00     0.274 C 
ENDROOT
BRANCH   1   2
ATOM      2  O   UNL     1      -3.451  -2.366  -5.923  1.00  0.00    -0.461 OA
BRANCH   2   3
ATOM      3  C   UNL     1      -2.549  -2.450  -6.937  1.00  0.00     0.326 C 
ATOM      4  O   UNL     1      -2.861  -2.501  -8.126  1.00  0.00    -0.250 OA
BRANCH   3   5
ATOM      5  C   UNL     1      -1.111  -2.579  -6.503  1.00  0.00     0.244 C 
BRANCH   5   6
ATOM      6  N   UNL     1      -0.717  -1.906  -5.267  1.00  0.00    -0.333 N 
ATOM      7  C   UNL     1       0.963  -0.086   0.109  1.00  0.00     0.158 C 
ATOM      8  N   UNL     1       0.527  -0.164  -1.272  1.00  0.00    -0.263 N 
ATOM      9  C   UNL     1       0.323  -1.456  -1.793  1.00  0.00     0.265 A 
ATOM     10  C   UNL     1       0.387   1.056  -1.961  1.00  0.00     0.330 A 
ATOM     11  O   UNL     1       0.474  -2.480  -1.149  1.00  0.00    -0.268 OA
ATOM     12  C   UNL     1      -0.074  -1.450  -3.184  1.00  0.00     0.090 A 
ATOM     13  N   UNL     1       0.015   0.991  -3.307  1.00  0.00    -0.295 N 
ATOM     14  O   UNL     1       0.594   2.136  -1.398  1.00  0.00    -0.248 OA
ATOM     15  C   UNL     1      -0.360  -2.495  -4.061  1.00  0.00     0.064 A 
ATOM     16  C   UNL     1      -0.183  -0.249  -3.890  1.00  0.00     0.076 A 
ATOM     17  C   UNL     1      -0.201   2.223  -4.053  1.00  0.00     0.155 C 
ATOM     18  C   UNL     1      -0.465  -0.557  -5.191  1.00  0.00     0.114 A 
BRANCH  15  19
ATOM     19  C   UNL     1      -0.311  -3.938  -3.849  1.00  0.00    -0.001 A 
ATOM     20  C   UNL     1       0.612  -4.719  -4.559  1.00  0.00     0.012 A 
ATOM     21  C   UNL     1      -1.176  -4.553  -2.939  1.00  0.00     0.012 A 
ATOM     22  C   UNL     1       0.645  -6.103  -4.388  1.00  0.00     0.021 A 
ATOM     23  C   UNL     1      -1.131  -5.937  -2.754  1.00  0.00     0.021 A 
ATOM     24  C   UNL     1      -0.227  -6.706  -3.485  1.00  0.00     0.041 A 
ATOM     25  Cl  UNL     1      -0.184  -8.412  -3.270  1.00  0.00    -0.084 Cl
ENDBRANCH  15  19
ENDBRANCH   5   6
ENDBRANCH   3   5
ENDBRANCH   2   3
ENDBRANCH   1   2
BRANCH   1  26
ATOM     26  C   UNL     1      -5.353  -0.852  -6.482  1.00  0.00     0.275 C 
BRANCH  26  27
ATOM     27  O   UNL     1      -4.724  -0.136  -7.551  1.00  0.00    -0.458 OA
BRANCH  27  28
ATOM     28  C   UNL     1      -3.601   0.497  -7.157  1.00  0.00     0.338 C 
ATOM     29  O   UNL     1      -3.022   0.351  -6.091  1.00  0.00    -0.246 OA
BRANCH  28  30
ATOM     30  C   UNL     1      -3.199   1.555  -8.079  1.00  0.00     0.060 A 
ATOM     31  C   UNL     1      -1.862   1.964  -8.035  1.00  0.00     0.016 A 
ATOM     32  C   UNL     1      -4.184   2.326  -8.701  1.00  0.00     0.016 A 
ATOM     33  C   UNL     1      -1.533   3.226  -8.475  1.00  0.00     0.010 A 
ATOM     34  C   UNL     1      -3.850   3.589  -9.153  1.00  0.00     0.010 A 
ATOM     35  C   UNL     1      -2.545   4.050  -8.974  1.00  0.00    -0.014 A 
BRANCH  35  36
ATOM     36  C   UNL     1      -2.154   5.386  -9.385  1.00  0.00     0.031 A 
ATOM     37  C   UNL     1      -1.273   5.421 -10.577  1.00  0.00     0.074 A 
ATOM     38  C   UNL     1      -2.625   6.504  -8.806  1.00  0.00     0.049 A 
ATOM     39  N   UNL     1      -0.079   5.903 -10.677  1.00  0.00    -0.248 NA
ATOM     40  C   UNL     1      -1.754   4.731 -11.783  1.00  0.00     0.031 C 
ATOM     41  C   UNL     1      -3.704   6.622  -7.823  1.00  0.00     0.029 A 
ATOM     42  N   UNL     1      -2.297   7.798  -9.072  1.00  0.00    -0.354 N 
ATOM     43  C   UNL     1       0.276   5.743 -12.014  1.00  0.00     0.074 A 
ATOM     44  C   UNL     1      -0.721   4.894 -12.608  1.00  0.00     0.031 C 
ATOM     45  C   UNL     1      -4.088   7.916  -7.747  1.00  0.00     0.029 A 
ATOM     46  C   UNL     1      -3.202   8.721  -8.572  1.00  0.00     0.049 A 
ATOM     47  H   UNL     1      -1.490   8.055  -9.573  1.00  0.00     0.167 HD
ATOM     48  C   UNL     1       1.238   6.511 -12.589  1.00  0.00     0.037 A 
ATOM     49  C   UNL     1      -3.257  10.037  -8.886  1.00  0.00     0.037 A 
ATOM     50  C   UNL     1       2.118   7.087 -11.608  1.00  0.00     0.049 A 
ATOM     51  C   UNL     1      -1.939  10.427  -9.442  1.00  0.00     0.074 A 
ATOM     52  C   UNL     1       2.976   6.587 -10.649  1.00  0.00     0.029 A 
ATOM     53  N   UNL     1       1.960   8.416 -11.312  1.00  0.00    -0.354 N 
ATOM     54  N   UNL     1      -0.838  10.505  -8.749  1.00  0.00    -0.248 NA
ATOM     55  C   UNL     1      -1.764  10.397 -10.886  1.00  0.00     0.031 C 
ATOM     56  C   UNL     1       2.933   7.527  -9.579  1.00  0.00     0.029 A 
ATOM     57  C   UNL     1       2.068   8.555  -9.955  1.00  0.00     0.049 A 
ATOM     58  H   UNL     1       1.797   9.140 -11.960  1.00  0.00     0.167 HD
ATOM     59  C   UNL     1       0.160  10.112  -9.627  1.00  0.00     0.074 A 
ATOM     60  C   UNL     1      -0.446  10.194 -10.951  1.00  0.00     0.031 C 
ATOM     61  C   UNL     1       1.287   9.490  -9.177  1.00  0.00     0.037 A 
BRANCH  48  62
ATOM     62  C   UNL     1       1.141   7.042 -13.999  1.00  0.00     0.057 A 
ATOM     63  C   UNL     1       2.235   7.735 -14.548  1.00  0.00     0.134 A 
ATOM     64  C   UNL     1      -0.067   7.168 -14.717  1.00  0.00     0.134 A 
ATOM     65  F   UNL     1       3.436   7.712 -13.951  1.00  0.00    -0.206 F 
ATOM     66  C   UNL     1       2.115   8.553 -15.678  1.00  0.00     0.040 A 
ATOM     67  C   UNL     1      -0.184   7.938 -15.877  1.00  0.00     0.040 A 
ATOM     68  F   UNL     1      -1.220   6.644 -14.285  1.00  0.00    -0.206 F 
ATOM     69  C   UNL     1       0.900   8.662 -16.343  1.00  0.00     0.006 A 
ENDBRANCH  48  62
BRANCH  49  70
ATOM     70  C   UNL     1      -4.445  10.914  -8.998  1.00  0.00     0.057 A 
ATOM     71  C   UNL     1      -4.305  12.307  -9.075  1.00  0.00     0.134 A 
ATOM     72  C   UNL     1      -5.718  10.405  -9.311  1.00  0.00     0.134 A 
ATOM     73  F   UNL     1      -3.120  12.887  -8.832  1.00  0.00    -0.206 F 
ATOM     74  C   UNL     1      -5.356  13.141  -9.474  1.00  0.00     0.040 A 
ATOM     75  C   UNL     1      -6.780  11.228  -9.697  1.00  0.00     0.040 A 
ATOM     76  F   UNL     1      -5.953   9.085  -9.343  1.00  0.00    -0.206 F 
ATOM     77  C   UNL     1      -6.596  12.601  -9.798  1.00  0.00     0.006 A 
ENDBRANCH  49  70
BRANCH  61  78
ATOM     78  C   UNL     1       1.584   9.551  -7.706  1.00  0.00     0.057 A 
ATOM     79  C   UNL     1       0.781   8.964  -6.718  1.00  0.00     0.134 A 
ATOM     80  C   UNL     1       2.809  10.088  -7.293  1.00  0.00     0.134 A 
ATOM     81  F   UNL     1      -0.362   8.339  -7.032  1.00  0.00    -0.206 F 
ATOM     82  C   UNL     1       1.164   8.948  -5.373  1.00  0.00     0.040 A 
ATOM     83  C   UNL     1       3.220  10.047  -5.959  1.00  0.00     0.040 A 
ATOM     84  F   UNL     1       3.654  10.617  -8.193  1.00  0.00    -0.206 F 
ATOM     85  C   UNL     1       2.392   9.483  -4.992  1.00  0.00     0.006 A 
ENDBRANCH  61  78
ENDBRANCH  35  36
ENDBRANCH  28  30
ENDBRANCH  27  28
ENDBRANCH  26  27
ENDBRANCH   1  26
TORSDOF 13
