REMARK SMILES COc1ccc(CCn2cc(C(=O)OCCOC(=O)c3ccc(-c4c5nc(c(-c6c(F)cccc6F)c6ccc([nH]6)c(-c6c(F)cccc6F)c6nc(c(-c7c(F)cccc7F)c7ccc4[nH]7)C=C6)C=C5)cc3)c(=O)[nH]c2=O)cc1
REMARK SMILES IDX 15 1 14 2 12 3 13 4 11 5 9 6 10 7 77 8 76 9 78 10 74 11
REMARK SMILES IDX 75 13 8 14 7 15 6 16 3 17 4 18 80 19 5 20 79 21 2 22 1 23
REMARK SMILES IDX 16 24 17 25 18 26 19 27 20 28 21 29 73 30 22 31 72 32 23 33
REMARK SMILES IDX 24 34 25 35 66 36 26 37 71 38 65 39 67 40 27 41 70 42 64 43
REMARK SMILES IDX 63 44 28 46 54 47 37 48 53 49 38 50 41 51 52 52 68 53 39 54
REMARK SMILES IDX 40 55 51 57 69 58 42 59 29 60 30 61 35 62 31 63 32 64 34 65
REMARK SMILES IDX 36 66 33 67 55 68 56 69 61 70 57 71 58 72 60 73 62 74 59 75
REMARK SMILES IDX 43 76 44 77 49 78 45 79 46 80 48 81 50 82 47 83
REMARK H PARENT 76 12 67 45 41 56
REMARK Flexibility Score: inf
ROOT
ATOM      1  C   UNL     1      -2.463   3.248   0.596  1.00  0.00     0.275 C 
ENDROOT
BRANCH   1   2
ATOM      2  O   UNL     1      -2.046   4.426   1.325  1.00  0.00    -0.458 OA
BRANCH   2   3
ATOM      3  C   UNL     1      -1.766   5.513   0.563  1.00  0.00     0.345 C 
ATOM      4  O   UNL     1      -1.876   5.571  -0.654  1.00  0.00    -0.246 OA
BRANCH   3   5
ATOM      5  C   UNL     1      -1.162   6.616   1.331  1.00  0.00     0.141 A 
ATOM      6  N   UNL     1       0.967   7.213   2.203  1.00  0.00    -0.299 N 
ATOM      7  C   UNL     1      -0.058   6.303   2.020  1.00  0.00     0.112 A 
ATOM      8  C   UNL     1       0.795   8.569   1.910  1.00  0.00     0.328 A 
ATOM      9  N   UNL     1      -0.433   8.911   1.418  1.00  0.00    -0.273 N 
ATOM     10  O   UNL     1       1.681   9.414   2.008  1.00  0.00    -0.248 OA
ATOM     11  C   UNL     1      -1.387   8.033   0.992  1.00  0.00     0.268 A 
ATOM     12  H   UNL     1      -0.647   9.871   1.366  1.00  0.00     0.175 HD
ATOM     13  O   UNL     1      -2.368   8.425   0.374  1.00  0.00    -0.268 OA
BRANCH   6  14
ATOM     14  C   UNL     1       2.359   6.780   2.391  1.00  0.00     0.132 C 
BRANCH  14  15
ATOM     15  C   UNL     1       2.682   5.328   2.776  1.00  0.00     0.057 C 
BRANCH  15  16
ATOM     16  C   UNL     1       2.531   4.192   1.776  1.00  0.00    -0.046 A 
ATOM     17  C   UNL     1       1.940   1.853   0.297  1.00  0.00     0.118 A 
ATOM     18  C   UNL     1       1.469   3.096  -0.121  1.00  0.00     0.046 A 
ATOM     19  C   UNL     1       2.795   1.792   1.392  1.00  0.00     0.046 A 
ATOM     20  C   UNL     1       1.800   4.260   0.584  1.00  0.00     0.007 A 
ATOM     21  C   UNL     1       3.071   2.946   2.134  1.00  0.00     0.007 A 
BRANCH  17  22
ATOM     22  O   UNL     1       1.501   0.786  -0.438  1.00  0.00    -0.497 OA
ATOM     23  C   UNL     1       1.753  -0.502   0.112  1.00  0.00     0.278 C 
ENDBRANCH  17  22
ENDBRANCH  15  16
ENDBRANCH  14  15
ENDBRANCH   6  14
ENDBRANCH   3   5
ENDBRANCH   2   3
ENDBRANCH   1   2
BRANCH   1  24
ATOM     24  C   UNL     1      -3.912   2.892   0.914  1.00  0.00     0.275 C 
BRANCH  24  25
ATOM     25  O   UNL     1      -4.768   3.945   0.441  1.00  0.00    -0.458 OA
BRANCH  25  26
ATOM     26  C   UNL     1      -5.267   4.764   1.395  1.00  0.00     0.338 C 
ATOM     27  O   UNL     1      -5.199   4.635   2.603  1.00  0.00    -0.246 OA
BRANCH  26  28
ATOM     28  C   UNL     1      -5.843   5.947   0.743  1.00  0.00     0.060 A 
ATOM     29  C   UNL     1      -4.989   6.793   0.045  1.00  0.00     0.016 A 
ATOM     30  C   UNL     1      -7.174   6.304   0.937  1.00  0.00     0.016 A 
ATOM     31  C   UNL     1      -5.421   8.040  -0.376  1.00  0.00     0.010 A 
ATOM     32  C   UNL     1      -7.639   7.516   0.413  1.00  0.00     0.010 A 
ATOM     33  C   UNL     1      -6.757   8.413  -0.220  1.00  0.00    -0.014 A 
BRANCH  33  34
ATOM     34  C   UNL     1      -7.197   9.763  -0.659  1.00  0.00     0.031 A 
ATOM     35  C   UNL     1      -7.806  10.706   0.339  1.00  0.00     0.074 A 
ATOM     36  C   UNL     1      -7.011  10.166  -1.932  1.00  0.00     0.049 A 
ATOM     37  N   UNL     1      -8.466  11.817   0.135  1.00  0.00    -0.248 NA
ATOM     38  C   UNL     1      -7.669  10.341   1.758  1.00  0.00     0.031 C 
ATOM     39  C   UNL     1      -6.343   9.393  -2.981  1.00  0.00     0.029 A 
ATOM     40  N   UNL     1      -7.357  11.338  -2.557  1.00  0.00    -0.354 N 
ATOM     41  C   UNL     1      -8.886  12.241   1.389  1.00  0.00     0.074 A 
ATOM     42  C   UNL     1      -8.397  11.277   2.350  1.00  0.00     0.031 C 
ATOM     43  C   UNL     1      -6.289  10.125  -4.103  1.00  0.00     0.029 A 
ATOM     44  C   UNL     1      -7.017  11.369  -3.888  1.00  0.00     0.049 A 
ATOM     45  H   UNL     1      -7.806  12.084  -2.097  1.00  0.00     0.167 HD
ATOM     46  C   UNL     1      -9.623  13.334   1.699  1.00  0.00     0.037 A 
ATOM     47  C   UNL     1      -7.310  12.267  -4.846  1.00  0.00     0.037 A 
ATOM     48  C   UNL     1     -10.039  14.320   0.736  1.00  0.00     0.049 A 
ATOM     49  C   UNL     1      -8.169  13.445  -4.491  1.00  0.00     0.074 A 
ATOM     50  C   UNL     1     -10.783  15.469   0.940  1.00  0.00     0.029 A 
ATOM     51  N   UNL     1      -9.725  14.281  -0.615  1.00  0.00    -0.354 N 
ATOM     52  N   UNL     1      -8.658  13.787  -3.324  1.00  0.00    -0.248 NA
ATOM     53  C   UNL     1      -8.548  14.341  -5.591  1.00  0.00     0.031 C 
ATOM     54  C   UNL     1     -10.947  16.108  -0.295  1.00  0.00     0.029 A 
ATOM     55  C   UNL     1     -10.272  15.377  -1.260  1.00  0.00     0.049 A 
ATOM     56  H   UNL     1      -9.191  13.578  -1.051  1.00  0.00     0.167 HD
ATOM     57  C   UNL     1      -9.407  14.933  -3.547  1.00  0.00     0.074 A 
ATOM     58  C   UNL     1      -9.282  15.245  -4.957  1.00  0.00     0.031 C 
ATOM     59  C   UNL     1     -10.142  15.657  -2.668  1.00  0.00     0.037 A 
BRANCH  46  60
ATOM     60  C   UNL     1     -10.069  13.486   3.123  1.00  0.00     0.057 A 
ATOM     61  C   UNL     1      -9.191  13.842   4.154  1.00  0.00     0.134 A 
ATOM     62  C   UNL     1     -11.413  13.282   3.463  1.00  0.00     0.134 A 
ATOM     63  F   UNL     1      -7.888  14.034   3.902  1.00  0.00    -0.206 F 
ATOM     64  C   UNL     1      -9.629  13.965   5.475  1.00  0.00     0.040 A 
ATOM     65  C   UNL     1     -11.868  13.427   4.775  1.00  0.00     0.040 A 
ATOM     66  F   UNL     1     -12.309  12.942   2.524  1.00  0.00    -0.206 F 
ATOM     67  C   UNL     1     -10.973  13.763   5.787  1.00  0.00     0.006 A 
ENDBRANCH  46  60
BRANCH  47  68
ATOM     68  C   UNL     1      -6.849  12.039  -6.239  1.00  0.00     0.057 A 
ATOM     69  C   UNL     1      -5.880  12.859  -6.825  1.00  0.00     0.134 A 
ATOM     70  C   UNL     1      -7.347  10.979  -7.008  1.00  0.00     0.134 A 
ATOM     71  F   UNL     1      -5.384  13.907  -6.151  1.00  0.00    -0.206 F 
ATOM     72  C   UNL     1      -5.420  12.632  -8.124  1.00  0.00     0.040 A 
ATOM     73  C   UNL     1      -6.875  10.723  -8.296  1.00  0.00     0.040 A 
ATOM     74  F   UNL     1      -8.280  10.157  -6.506  1.00  0.00    -0.206 F 
ATOM     75  C   UNL     1      -5.910  11.553  -8.859  1.00  0.00     0.006 A 
ENDBRANCH  47  68
BRANCH  59  76
ATOM     76  C   UNL     1     -10.855  16.856  -3.214  1.00  0.00     0.057 A 
ATOM     77  C   UNL     1     -12.009  16.727  -3.995  1.00  0.00     0.134 A 
ATOM     78  C   UNL     1     -10.394  18.148  -2.939  1.00  0.00     0.134 A 
ATOM     79  F   UNL     1     -12.490  15.514  -4.306  1.00  0.00    -0.206 F 
ATOM     80  C   UNL     1     -12.671  17.846  -4.503  1.00  0.00     0.040 A 
ATOM     81  C   UNL     1     -11.059  19.275  -3.422  1.00  0.00     0.040 A 
ATOM     82  F   UNL     1      -9.296  18.336  -2.192  1.00  0.00    -0.206 F 
ATOM     83  C   UNL     1     -12.198  19.125  -4.212  1.00  0.00     0.006 A 
ENDBRANCH  59  76
ENDBRANCH  33  34
ENDBRANCH  26  28
ENDBRANCH  25  26
ENDBRANCH  24  25
ENDBRANCH   1  24
TORSDOF 15
