REMARK SMILES CCC[N@H+]1CCC[C@H](CC(=O)OCCOC(=O)c2ccc(-c3c4nc(c(-c5c(F)cccc5F)c5ccc([nH]5)c(-c5c(F)cccc5F)c5nc(c(-c6c(F)cccc6F)c6ccc3[nH]6)C=C5)C=C4)cc2)C1
REMARK SMILES IDX 13 1 12 2 10 3 11 4 9 5 8 6 4 7 5 8 72 9 6 11 7 12 3 13 2 14
REMARK SMILES IDX 1 15 14 16 15 17 16 18 17 19 18 20 19 21 71 22 20 23 70 24
REMARK SMILES IDX 21 25 22 26 23 27 64 28 24 29 69 30 63 31 65 32 25 33 68 34
REMARK SMILES IDX 62 35 61 36 26 38 52 39 35 40 51 41 36 42 39 43 50 44 66 45
REMARK SMILES IDX 37 46 38 47 49 49 67 50 40 51 27 52 28 53 33 54 29 55 30 56
REMARK SMILES IDX 32 57 34 58 31 59 53 60 54 61 59 62 55 63 56 64 58 65 60 66
REMARK SMILES IDX 57 67 41 68 42 69 47 70 43 71 44 72 46 73 48 74 45 75
REMARK H PARENT 4 10 65 37 39 48
REMARK Flexibility Score: inf
ROOT
ATOM      1  C   UNL     1      -2.488   5.981   4.800  1.00  0.00     0.274 C 
ENDROOT
BRANCH   1   2
ATOM      2  O   UNL     1      -1.711   4.865   4.329  1.00  0.00    -0.462 OA
BRANCH   2   3
ATOM      3  C   UNL     1      -1.883   3.681   4.967  1.00  0.00     0.306 C 
ATOM      4  O   UNL     1      -2.609   3.509   5.938  1.00  0.00    -0.252 OA
BRANCH   3   5
ATOM      5  C   UNL     1      -1.027   2.581   4.380  1.00  0.00     0.132 C 
BRANCH   5   6
ATOM      6  C   UNL     1      -1.014   2.520   2.838  1.00  0.00     0.055 C 
ATOM      7  N   UNL     1       0.747   0.765   2.649  1.00  0.00    -0.335 N 
ATOM      8  C   UNL     1       1.718   1.726   2.117  1.00  0.00     0.262 C 
ATOM      9  C   UNL     1      -0.643   1.110   2.340  1.00  0.00     0.266 C 
ATOM     10  H   UNL     1       0.819   0.837   3.663  1.00  0.00     0.348 HD
ATOM     11  C   UNL     1       1.401   3.174   2.495  1.00  0.00     0.062 C 
ATOM     12  C   UNL     1      -0.050   3.523   2.185  1.00  0.00     0.016 C 
BRANCH   7  13
ATOM     13  C   UNL     1       1.084  -0.628   2.318  1.00  0.00     0.261 C 
BRANCH  13  14
ATOM     14  C   UNL     1       0.646  -1.222   0.966  1.00  0.00     0.058 C 
ATOM     15  C   UNL     1       1.206  -0.535  -0.269  1.00  0.00     0.010 C 
ENDBRANCH  13  14
ENDBRANCH   7  13
ENDBRANCH   5   6
ENDBRANCH   3   5
ENDBRANCH   2   3
ENDBRANCH   1   2
BRANCH   1  16
ATOM     16  C   UNL     1      -3.743   6.177   3.949  1.00  0.00     0.275 C 
BRANCH  16  17
ATOM     17  O   UNL     1      -4.690   5.117   4.179  1.00  0.00    -0.458 OA
BRANCH  17  18
ATOM     18  C   UNL     1      -4.706   4.139   3.245  1.00  0.00     0.338 C 
ATOM     19  O   UNL     1      -4.077   4.091   2.203  1.00  0.00    -0.246 OA
BRANCH  18  20
ATOM     20  C   UNL     1      -5.548   3.031   3.722  1.00  0.00     0.060 A 
ATOM     21  C   UNL     1      -4.938   1.808   4.017  1.00  0.00     0.016 A 
ATOM     22  C   UNL     1      -6.933   3.176   3.802  1.00  0.00     0.016 A 
ATOM     23  C   UNL     1      -5.717   0.716   4.391  1.00  0.00     0.010 A 
ATOM     24  C   UNL     1      -7.713   2.079   4.178  1.00  0.00     0.010 A 
ATOM     25  C   UNL     1      -7.111   0.840   4.462  1.00  0.00    -0.014 A 
BRANCH  25  26
ATOM     26  C   UNL     1      -7.948  -0.342   4.773  1.00  0.00     0.031 A 
ATOM     27  C   UNL     1      -8.710  -1.024   3.674  1.00  0.00     0.074 A 
ATOM     28  C   UNL     1      -8.025  -0.802   6.035  1.00  0.00     0.049 A 
ATOM     29  N   UNL     1      -9.571  -2.006   3.748  1.00  0.00    -0.248 NA
ATOM     30  C   UNL     1      -8.473  -0.530   2.308  1.00  0.00     0.031 C 
ATOM     31  C   UNL     1      -7.303  -0.251   7.181  1.00  0.00     0.029 A 
ATOM     32  N   UNL     1      -8.755  -1.837   6.562  1.00  0.00    -0.354 N 
ATOM     33  C   UNL     1      -9.993  -2.237   2.445  1.00  0.00     0.074 A 
ATOM     34  C   UNL     1      -9.305  -1.282   1.602  1.00  0.00     0.031 C 
ATOM     35  C   UNL     1      -7.632  -0.950   8.280  1.00  0.00     0.029 A 
ATOM     36  C   UNL     1      -8.614  -1.970   7.921  1.00  0.00     0.049 A 
ATOM     37  H   UNL     1      -9.326  -2.427   6.018  1.00  0.00     0.167 HD
ATOM     38  C   UNL     1     -10.872  -3.163   1.995  1.00  0.00     0.037 A 
ATOM     39  C   UNL     1      -9.229  -2.803   8.782  1.00  0.00     0.037 A 
ATOM     40  C   UNL     1     -11.545  -4.120   2.832  1.00  0.00     0.049 A 
ATOM     41  C   UNL     1     -10.238  -3.789   8.263  1.00  0.00     0.074 A 
ATOM     42  C   UNL     1     -12.446  -5.106   2.466  1.00  0.00     0.029 A 
ATOM     43  N   UNL     1     -11.389  -4.213   4.207  1.00  0.00    -0.354 N 
ATOM     44  N   UNL     1     -10.634  -3.996   7.031  1.00  0.00    -0.248 NA
ATOM     45  C   UNL     1     -10.891  -4.654   9.257  1.00  0.00     0.031 C 
ATOM     46  C   UNL     1     -12.859  -5.774   3.624  1.00  0.00     0.029 A 
ATOM     47  C   UNL     1     -12.187  -5.228   4.706  1.00  0.00     0.049 A 
ATOM     48  H   UNL     1     -10.797  -3.641   4.748  1.00  0.00     0.167 HD
ATOM     49  C   UNL     1     -11.564  -5.026   7.097  1.00  0.00     0.074 A 
ATOM     50  C   UNL     1     -11.665  -5.409   8.490  1.00  0.00     0.031 C 
ATOM     51  C   UNL     1     -12.270  -5.601   6.094  1.00  0.00     0.037 A 
BRANCH  38  52
ATOM     52  C   UNL     1     -11.175  -3.167   0.527  1.00  0.00     0.057 A 
ATOM     53  C   UNL     1     -10.263  -3.661  -0.414  1.00  0.00     0.134 A 
ATOM     54  C   UNL     1     -12.405  -2.696   0.053  1.00  0.00     0.134 A 
ATOM     55  F   UNL     1      -9.061  -4.112  -0.025  1.00  0.00    -0.206 F 
ATOM     56  C   UNL     1     -10.559  -3.671  -1.779  1.00  0.00     0.040 A 
ATOM     57  C   UNL     1     -12.720  -2.719  -1.307  1.00  0.00     0.040 A 
ATOM     58  F   UNL     1     -13.323  -2.212   0.903  1.00  0.00    -0.206 F 
ATOM     59  C   UNL     1     -11.793  -3.204  -2.227  1.00  0.00     0.006 A 
ENDBRANCH  38  52
BRANCH  39  60
ATOM     60  C   UNL     1      -8.921  -2.728  10.231  1.00  0.00     0.057 A 
ATOM     61  C   UNL     1      -8.201  -3.743  10.870  1.00  0.00     0.134 A 
ATOM     62  C   UNL     1      -9.348  -1.648  11.011  1.00  0.00     0.134 A 
ATOM     63  F   UNL     1      -7.787  -4.816  10.178  1.00  0.00    -0.206 F 
ATOM     64  C   UNL     1      -7.925  -3.692  12.237  1.00  0.00     0.040 A 
ATOM     65  C   UNL     1      -9.061  -1.573  12.374  1.00  0.00     0.040 A 
ATOM     66  F   UNL     1     -10.044  -0.645  10.456  1.00  0.00    -0.206 F 
ATOM     67  C   UNL     1      -8.351  -2.601  12.992  1.00  0.00     0.006 A 
ENDBRANCH  39  60
BRANCH  51  68
ATOM     68  C   UNL     1     -13.189  -6.726   6.463  1.00  0.00     0.057 A 
ATOM     69  C   UNL     1     -14.415  -6.498   7.100  1.00  0.00     0.134 A 
ATOM     70  C   UNL     1     -12.859  -8.050   6.145  1.00  0.00     0.134 A 
ATOM     71  F   UNL     1     -14.781  -5.253   7.443  1.00  0.00    -0.206 F 
ATOM     72  C   UNL     1     -15.274  -7.549   7.424  1.00  0.00     0.040 A 
ATOM     73  C   UNL     1     -13.719  -9.107   6.445  1.00  0.00     0.040 A 
ATOM     74  F   UNL     1     -11.702  -8.334   5.529  1.00  0.00    -0.206 F 
ATOM     75  C   UNL     1     -14.929  -8.858   7.090  1.00  0.00     0.006 A 
ENDBRANCH  51  68
ENDBRANCH  25  26
ENDBRANCH  18  20
ENDBRANCH  17  18
ENDBRANCH  16  17
ENDBRANCH   1  16
TORSDOF 14
