REMARK SMILES CN1C(=O)/C(=C\c2ccc(-c3ccccc3C(=O)OCCOC(=O)c3ccc(-c4c5nc(c(-c6c(F)cccc6F)c6ccc([nH]6)c(-c6c(F)cccc6F)c6nc(c(-c7c(F)cccc7F)c7ccc4[nH]7)C=C6)C=C5)cc3)o2)C(=O)[NH+]=C1S
REMARK SMILES IDX 20 1 19 2 17 3 18 4 16 5 11 6 12 7 13 8 15 9 14 10 10 11
REMARK SMILES IDX 7 12 8 13 79 14 9 15 6 16 1 17 2 18 3 19 83 20 4 21 5 22
REMARK SMILES IDX 82 23 80 24 81 26 84 27 21 29 22 30 23 31 24 32 25 33 26 34
REMARK SMILES IDX 78 35 27 36 77 37 28 38 29 39 30 40 71 41 31 42 76 43 70 44
REMARK SMILES IDX 72 45 32 46 75 47 69 48 68 49 33 51 59 52 42 53 58 54 43 55
REMARK SMILES IDX 46 56 57 57 73 58 44 59 45 60 56 62 74 63 47 64 34 65 35 66
REMARK SMILES IDX 40 67 36 68 37 69 39 70 41 71 38 72 60 73 61 74 66 75 62 76
REMARK SMILES IDX 63 77 65 78 67 79 64 80 48 81 49 82 54 83 50 84 51 85 53 86
REMARK SMILES IDX 55 87 52 88
REMARK H PARENT 82 25 84 28 72 50 46 61
REMARK Flexibility Score: inf
ROOT
ATOM      1  C   UNL     1      -0.662  -8.230  -0.680  1.00  0.00     0.275 C 
ENDROOT
BRANCH   1   2
ATOM      2  O   UNL     1       0.727  -7.910  -0.896  1.00  0.00    -0.458 OA
BRANCH   2   3
ATOM      3  C   UNL     1       1.604  -8.130   0.113  1.00  0.00     0.338 C 
ATOM      4  O   UNL     1       1.374  -8.707   1.163  1.00  0.00    -0.246 OA
BRANCH   3   5
ATOM      5  C   UNL     1       2.947  -7.598  -0.242  1.00  0.00     0.071 A 
ATOM      6  C   UNL     1       3.114  -6.305  -0.766  1.00  0.00     0.032 A 
ATOM      7  C   UNL     1       4.410  -5.859  -1.075  1.00  0.00     0.013 A 
ATOM      8  C   UNL     1       5.520  -6.681  -0.864  1.00  0.00     0.001 A 
ATOM      9  C   UNL     1       4.072  -8.403   0.000  1.00  0.00     0.016 A 
ATOM     10  C   UNL     1       5.351  -7.955  -0.329  1.00  0.00     0.001 A 
BRANCH   6  11
ATOM     11  C   UNL     1       1.980  -5.418  -0.948  1.00  0.00     0.135 A 
ATOM     12  C   UNL     1       0.718  -4.093  -2.172  1.00  0.00     0.128 A 
ATOM     13  C   UNL     1       0.036  -4.340  -0.987  1.00  0.00     0.051 A 
ATOM     14  O   UNL     1       1.884  -4.811  -2.160  1.00  0.00    -0.457 OA
ATOM     15  C   UNL     1       0.888  -5.104  -0.169  1.00  0.00     0.051 A 
BRANCH  12  16
ATOM     16  C   UNL     1       0.379  -3.174  -3.191  1.00  0.00     0.071 C 
ATOM     17  C   UNL     1       0.923   0.426  -0.046  1.00  0.00     0.301 C 
ATOM     18  N   UNL     1       0.596  -0.014  -1.400  1.00  0.00    -0.189 N 
ATOM     19  C   UNL     1       1.022  -1.286  -1.708  1.00  0.00     0.349 C 
ATOM     20  C   UNL     1       0.053   0.763  -2.389  1.00  0.00     0.318 C 
ATOM     21  O   UNL     1       1.840  -1.879  -1.009  1.00  0.00    -0.240 OA
ATOM     22  C   UNL     1       0.460  -1.850  -2.956  1.00  0.00     0.157 C 
ATOM     23  N   UNL     1      -0.250   0.371  -3.573  1.00  0.00    -0.200 N 
ATOM     24  C   UNL     1      -0.107  -0.932  -3.962  1.00  0.00     0.347 C 
ATOM     25  H   UNL     1      -0.596   1.027  -4.220  1.00  0.00     0.316 HD
ATOM     26  O   UNL     1      -0.467  -1.330  -5.059  1.00  0.00    -0.241 OA
BRANCH  20  27
ATOM     27  S   UNL     1      -0.240   2.451  -2.059  1.00  0.00    -0.055 SA
ATOM     28  H   UNL     1       0.122   2.733  -0.779  1.00  0.00     0.116 HD
ENDBRANCH  20  27
ENDBRANCH  12  16
ENDBRANCH   6  11
ENDBRANCH   3   5
ENDBRANCH   2   3
ENDBRANCH   1   2
BRANCH   1  29
ATOM     29  C   UNL     1      -1.136  -9.236  -1.723  1.00  0.00     0.275 C 
BRANCH  29  30
ATOM     30  O   UNL     1      -0.481 -10.493  -1.500  1.00  0.00    -0.458 OA
BRANCH  30  31
ATOM     31  C   UNL     1       0.688 -10.627  -2.162  1.00  0.00     0.338 C 
ATOM     32  O   UNL     1       1.169  -9.901  -3.012  1.00  0.00    -0.246 OA
BRANCH  31  33
ATOM     33  C   UNL     1       1.399 -11.780  -1.617  1.00  0.00     0.060 A 
ATOM     34  C   UNL     1       2.303 -11.569  -0.578  1.00  0.00     0.016 A 
ATOM     35  C   UNL     1       1.281 -13.021  -2.224  1.00  0.00     0.016 A 
ATOM     36  C   UNL     1       3.185 -12.570  -0.206  1.00  0.00     0.010 A 
ATOM     37  C   UNL     1       2.098 -14.058  -1.782  1.00  0.00     0.010 A 
ATOM     38  C   UNL     1       3.085 -13.829  -0.801  1.00  0.00    -0.014 A 
BRANCH  38  39
ATOM     39  C   UNL     1       4.028 -14.917  -0.455  1.00  0.00     0.031 A 
ATOM     40  C   UNL     1       4.841 -15.545  -1.548  1.00  0.00     0.074 A 
ATOM     41  C   UNL     1       4.102 -15.381   0.805  1.00  0.00     0.049 A 
ATOM     42  N   UNL     1       5.461 -16.695  -1.566  1.00  0.00    -0.248 NA
ATOM     43  C   UNL     1       4.935 -14.787  -2.806  1.00  0.00     0.031 C 
ATOM     44  C   UNL     1       3.416 -14.809   1.965  1.00  0.00     0.029 A 
ATOM     45  N   UNL     1       4.764 -16.470   1.311  1.00  0.00    -0.354 N 
ATOM     46  C   UNL     1       5.955 -16.832  -2.857  1.00  0.00     0.074 A 
ATOM     47  C   UNL     1       5.556 -15.652  -3.593  1.00  0.00     0.031 C 
ATOM     48  C   UNL     1       3.681 -15.559   3.044  1.00  0.00     0.029 A 
ATOM     49  C   UNL     1       4.469 -16.713   2.630  1.00  0.00     0.049 A 
ATOM     50  H   UNL     1       5.386 -17.021   0.783  1.00  0.00     0.167 HD
ATOM     51  C   UNL     1       6.666 -17.862  -3.374  1.00  0.00     0.037 A 
ATOM     52  C   UNL     1       4.735 -17.783   3.401  1.00  0.00     0.037 A 
ATOM     53  C   UNL     1       7.074 -19.008  -2.603  1.00  0.00     0.049 A 
ATOM     54  C   UNL     1       5.479 -18.939   2.802  1.00  0.00     0.074 A 
ATOM     55  C   UNL     1       7.821 -20.099  -3.007  1.00  0.00     0.029 A 
ATOM     56  N   UNL     1       6.766 -19.205  -1.263  1.00  0.00    -0.354 N 
ATOM     57  N   UNL     1       5.915 -19.091   1.574  1.00  0.00    -0.248 NA
ATOM     58  C   UNL     1       5.762 -20.076   3.687  1.00  0.00     0.031 C 
ATOM     59  C   UNL     1       7.916 -20.983  -1.927  1.00  0.00     0.029 A 
ATOM     60  C   UNL     1       7.288 -20.411  -0.830  1.00  0.00     0.049 A 
ATOM     61  H   UNL     1       6.251 -18.579  -0.704  1.00  0.00     0.167 HD
ATOM     62  C   UNL     1       6.552 -20.323   1.545  1.00  0.00     0.074 A 
ATOM     63  C   UNL     1       6.441 -20.879   2.879  1.00  0.00     0.031 C 
ATOM     64  C   UNL     1       7.179 -20.934   0.510  1.00  0.00     0.037 A 
BRANCH  51  65
ATOM     65  C   UNL     1       6.985 -17.815  -4.842  1.00  0.00     0.057 A 
ATOM     66  C   UNL     1       7.857 -16.869  -5.396  1.00  0.00     0.134 A 
ATOM     67  C   UNL     1       6.391 -18.730  -5.722  1.00  0.00     0.134 A 
ATOM     68  F   UNL     1       8.452 -15.954  -4.615  1.00  0.00    -0.206 F 
ATOM     69  C   UNL     1       8.088 -16.803  -6.772  1.00  0.00     0.040 A 
ATOM     70  C   UNL     1       6.642 -18.698  -7.095  1.00  0.00     0.040 A 
ATOM     71  F   UNL     1       5.551 -19.671  -5.263  1.00  0.00    -0.206 F 
ATOM     72  C   UNL     1       7.482 -17.723  -7.625  1.00  0.00     0.006 A 
ENDBRANCH  51  65
BRANCH  52  73
ATOM     73  C   UNL     1       4.250 -17.804   4.803  1.00  0.00     0.057 A 
ATOM     74  C   UNL     1       5.138 -17.674   5.875  1.00  0.00     0.134 A 
ATOM     75  C   UNL     1       2.883 -17.885   5.103  1.00  0.00     0.134 A 
ATOM     76  F   UNL     1       6.458 -17.605   5.652  1.00  0.00    -0.206 F 
ATOM     77  C   UNL     1       4.686 -17.622   7.195  1.00  0.00     0.040 A 
ATOM     78  C   UNL     1       2.415 -17.807   6.415  1.00  0.00     0.040 A 
ATOM     79  F   UNL     1       1.978 -17.997   4.118  1.00  0.00    -0.206 F 
ATOM     80  C   UNL     1       3.320 -17.677   7.466  1.00  0.00     0.006 A 
ENDBRANCH  52  73
BRANCH  64  81
ATOM     81  C   UNL     1       7.857 -22.242   0.789  1.00  0.00     0.057 A 
ATOM     82  C   UNL     1       7.140 -23.431   0.969  1.00  0.00     0.134 A 
ATOM     83  C   UNL     1       9.256 -22.320   0.795  1.00  0.00     0.134 A 
ATOM     84  F   UNL     1       5.799 -23.420   0.990  1.00  0.00    -0.206 F 
ATOM     85  C   UNL     1       7.792 -24.651   1.151  1.00  0.00     0.040 A 
ATOM     86  C   UNL     1       9.919 -23.537   0.947  1.00  0.00     0.040 A 
ATOM     87  F   UNL     1      10.000 -21.217   0.621  1.00  0.00    -0.206 F 
ATOM     88  C   UNL     1       9.185 -24.708   1.128  1.00  0.00     0.006 A 
ENDBRANCH  64  81
ENDBRANCH  38  39
ENDBRANCH  31  33
ENDBRANCH  30  31
ENDBRANCH  29  30
ENDBRANCH   1  29
TORSDOF 14
