REMARK SMILES O=Cc1[nH]nc2cc(C(=O)OCCOC(=O)c3ccc(-c4c5nc(c(-c6c(F)cccc6F)c6ccc([nH]6)c(-c6c(F)cccc6F)c6nc(c(-c7c(F)cccc7F)c7ccc4[nH]7)C=C6)C=C5)cc3)ccc12
REMARK SMILES IDX 13 1 12 2 11 3 9 4 10 5 8 6 3 7 4 8 73 9 5 10 6 12 72 13
REMARK SMILES IDX 7 14 71 15 2 16 1 17 14 18 15 19 16 20 17 21 18 22 70 23
REMARK SMILES IDX 19 24 69 25 20 26 21 27 22 28 63 29 23 30 68 31 62 32 64 33
REMARK SMILES IDX 24 34 67 35 61 36 60 37 25 39 51 40 34 41 50 42 35 43 38 44
REMARK SMILES IDX 49 45 65 46 36 47 37 48 48 50 66 51 39 52 26 53 27 54 32 55
REMARK SMILES IDX 28 56 29 57 31 58 33 59 30 60 52 61 53 62 58 63 54 64 55 65
REMARK SMILES IDX 57 66 59 67 56 68 40 69 41 70 46 71 42 72 43 73 45 74 47 75
REMARK SMILES IDX 44 76
REMARK H PARENT 4 11 64 38 38 49
REMARK Flexibility Score: inf
ROOT
ATOM      1  C   UNL     1       2.896  -7.840   4.749  1.00  0.00     0.275 C 
ENDROOT
BRANCH   1   2
ATOM      2  C   UNL     1       1.579  -7.073   4.622  1.00  0.00     0.275 C 
BRANCH   2   3
ATOM      3  O   UNL     1       1.707  -5.957   3.716  1.00  0.00    -0.458 OA
BRANCH   3   4
ATOM      4  C   UNL     1       1.873  -4.745   4.304  1.00  0.00     0.338 C 
ATOM      5  O   UNL     1       1.931  -4.520   5.498  1.00  0.00    -0.246 OA
BRANCH   4   6
ATOM      6  C   UNL     1       2.075  -3.685   3.283  1.00  0.00     0.062 A 
ATOM      7  C   UNL     1       2.681  -0.573   0.721  1.00  0.00     0.105 A 
ATOM      8  N   UNL     1       3.670   0.015   1.468  1.00  0.00    -0.274 N 
ATOM      9  C   UNL     1       2.360  -1.708   1.427  1.00  0.00     0.030 A 
ATOM     10  N   UNL     1       3.942  -0.603   2.628  1.00  0.00    -0.175 NA
ATOM     11  H   UNL     1       4.143   0.827   1.175  1.00  0.00     0.190 HD
ATOM     12  C   UNL     1       3.138  -1.675   2.639  1.00  0.00     0.094 A 
ATOM     13  C   UNL     1       1.429  -2.686   1.073  1.00  0.00     0.013 A 
ATOM     14  C   UNL     1       2.987  -2.658   3.622  1.00  0.00     0.046 A 
ATOM     15  C   UNL     1       1.332  -3.697   2.058  1.00  0.00     0.016 A 
BRANCH   7  16
ATOM     16  C   UNL     1       2.171  -0.013  -0.499  1.00  0.00     0.280 C 
ATOM     17  O   UNL     1       1.245  -0.472  -1.160  1.00  0.00    -0.296 OA
ENDBRANCH   7  16
ENDBRANCH   4   6
ENDBRANCH   3   4
ENDBRANCH   2   3
ENDBRANCH   1   2
BRANCH   1  18
ATOM     18  O   UNL     1       3.895  -7.004   5.361  1.00  0.00    -0.458 OA
BRANCH  18  19
ATOM     19  C   UNL     1       5.020  -6.809   4.638  1.00  0.00     0.338 C 
ATOM     20  O   UNL     1       5.306  -7.300   3.559  1.00  0.00    -0.246 OA
BRANCH  19  21
ATOM     21  C   UNL     1       5.908  -5.860   5.331  1.00  0.00     0.060 A 
ATOM     22  C   UNL     1       5.471  -4.558   5.551  1.00  0.00     0.016 A 
ATOM     23  C   UNL     1       7.228  -6.207   5.605  1.00  0.00     0.016 A 
ATOM     24  C   UNL     1       6.378  -3.566   5.925  1.00  0.00     0.010 A 
ATOM     25  C   UNL     1       8.111  -5.234   6.090  1.00  0.00     0.010 A 
ATOM     26  C   UNL     1       7.714  -3.888   6.205  1.00  0.00    -0.014 A 
BRANCH  26  27
ATOM     27  C   UNL     1       8.708  -2.825   6.545  1.00  0.00     0.031 A 
ATOM     28  C   UNL     1       9.966  -2.674   5.722  1.00  0.00     0.074 A 
ATOM     29  C   UNL     1       8.498  -1.974   7.572  1.00  0.00     0.049 A 
ATOM     30  N   UNL     1      11.044  -1.973   5.971  1.00  0.00    -0.248 NA
ATOM     31  C   UNL     1      10.024  -3.427   4.459  1.00  0.00     0.031 C 
ATOM     32  C   UNL     1       7.313  -1.948   8.429  1.00  0.00     0.029 A 
ATOM     33  N   UNL     1       9.283  -0.958   8.065  1.00  0.00    -0.354 N 
ATOM     34  C   UNL     1      11.929  -2.254   4.936  1.00  0.00     0.074 A 
ATOM     35  C   UNL     1      11.264  -3.189   4.055  1.00  0.00     0.031 C 
ATOM     36  C   UNL     1       7.427  -0.942   9.310  1.00  0.00     0.029 A 
ATOM     37  C   UNL     1       8.731  -0.311   9.146  1.00  0.00     0.049 A 
ATOM     38  H   UNL     1      10.156  -0.716   7.680  1.00  0.00     0.167 HD
ATOM     39  C   UNL     1      13.182  -1.776   4.737  1.00  0.00     0.037 A 
ATOM     40  C   UNL     1       9.231   0.650   9.946  1.00  0.00     0.037 A 
ATOM     41  C   UNL     1      13.819  -0.788   5.568  1.00  0.00     0.049 A 
ATOM     42  C   UNL     1      10.628   1.153   9.716  1.00  0.00     0.074 A 
ATOM     43  C   UNL     1      15.086  -0.241   5.444  1.00  0.00     0.029 A 
ATOM     44  N   UNL     1      13.226  -0.175   6.661  1.00  0.00    -0.354 N 
ATOM     45  N   UNL     1      11.485   0.816   8.784  1.00  0.00    -0.248 NA
ATOM     46  C   UNL     1      11.135   2.154  10.667  1.00  0.00     0.031 C 
ATOM     47  C   UNL     1      15.267   0.687   6.475  1.00  0.00     0.029 A 
ATOM     48  C   UNL     1      14.100   0.744   7.218  1.00  0.00     0.049 A 
ATOM     49  H   UNL     1      12.318  -0.365   6.992  1.00  0.00     0.167 HD
ATOM     50  C   UNL     1      12.624   1.572   9.026  1.00  0.00     0.074 A 
ATOM     51  C   UNL     1      12.344   2.400  10.180  1.00  0.00     0.031 C 
ATOM     52  C   UNL     1      13.802   1.573   8.356  1.00  0.00     0.037 A 
BRANCH  39  53
ATOM     53  C   UNL     1      13.966  -2.334   3.585  1.00  0.00     0.057 A 
ATOM     54  C   UNL     1      13.694  -1.984   2.257  1.00  0.00     0.134 A 
ATOM     55  C   UNL     1      15.045  -3.198   3.817  1.00  0.00     0.134 A 
ATOM     56  F   UNL     1      12.668  -1.170   1.966  1.00  0.00    -0.206 F 
ATOM     57  C   UNL     1      14.454  -2.488   1.200  1.00  0.00     0.040 A 
ATOM     58  C   UNL     1      15.827  -3.689   2.770  1.00  0.00     0.040 A 
ATOM     59  F   UNL     1      15.366  -3.567   5.066  1.00  0.00    -0.206 F 
ATOM     60  C   UNL     1      15.530  -3.337   1.456  1.00  0.00     0.006 A 
ENDBRANCH  39  53
BRANCH  40  61
ATOM     61  C   UNL     1       8.420   1.172  11.076  1.00  0.00     0.057 A 
ATOM     62  C   UNL     1       7.936   2.485  11.073  1.00  0.00     0.134 A 
ATOM     63  C   UNL     1       8.123   0.378  12.191  1.00  0.00     0.134 A 
ATOM     64  F   UNL     1       8.212   3.304  10.047  1.00  0.00    -0.206 F 
ATOM     65  C   UNL     1       7.195   2.993  12.141  1.00  0.00     0.040 A 
ATOM     66  C   UNL     1       7.359   0.863  13.252  1.00  0.00     0.040 A 
ATOM     67  F   UNL     1       8.560  -0.889  12.256  1.00  0.00    -0.206 F 
ATOM     68  C   UNL     1       6.898   2.177  13.232  1.00  0.00     0.006 A 
ENDBRANCH  40  61
BRANCH  52  69
ATOM     69  C   UNL     1      14.855   2.529   8.827  1.00  0.00     0.057 A 
ATOM     70  C   UNL     1      15.591   2.299   9.996  1.00  0.00     0.134 A 
ATOM     71  C   UNL     1      15.151   3.682   8.089  1.00  0.00     0.134 A 
ATOM     72  F   UNL     1      15.344   1.220  10.753  1.00  0.00    -0.206 F 
ATOM     73  C   UNL     1      16.572   3.194  10.426  1.00  0.00     0.040 A 
ATOM     74  C   UNL     1      16.144   4.573   8.498  1.00  0.00     0.040 A 
ATOM     75  F   UNL     1      14.485   3.956   6.957  1.00  0.00    -0.206 F 
ATOM     76  C   UNL     1      16.854   4.332   9.672  1.00  0.00     0.006 A 
ENDBRANCH  52  69
ENDBRANCH  26  27
ENDBRANCH  19  21
ENDBRANCH  18  19
ENDBRANCH   1  18
TORSDOF 12
