REMARK SMILES COC(=O)[C@H]1CC[C@]2(C)[C@H](CC[C@]3(C)[C@H]2CC=C2[C@H]4CC(C)(C)CC[C@]4(C(=O)OCCOC(=O)c4ccc(-c5c6nc(c(-c7c(F)cccc7F)c7ccc([nH]7)c(-c7c(F)cccc7F)c7nc(c(-c8c(F)cccc8F)c8ccc5[nH]8)C=C7)C=C6)cc4)CC[C@@]23C)C1(C)C
REMARK SMILES IDX 30 1 29 2 27 3 28 4 26 5 5 6 6 7 93 8 7 9 10 10 94 11 95 12
REMARK SMILES IDX 8 13 11 14 15 15 9 16 12 17 16 18 13 19 17 20 91 21 14 22
REMARK SMILES IDX 18 23 90 24 92 25 19 26 89 27 20 28 21 29 25 30 24 31 22 32
REMARK SMILES IDX 23 33 3 34 4 35 2 36 1 37 31 38 32 39 33 40 34 41 35 42
REMARK SMILES IDX 36 43 88 44 37 45 87 46 38 47 39 48 40 49 81 50 41 51 86 52
REMARK SMILES IDX 80 53 82 54 42 55 85 56 79 57 78 58 43 60 69 61 52 62 68 63
REMARK SMILES IDX 53 64 56 65 67 66 83 67 54 68 55 69 66 71 84 72 57 73 44 74
REMARK SMILES IDX 45 75 50 76 46 77 47 78 49 79 51 80 48 81 70 82 71 83 76 84
REMARK SMILES IDX 72 85 73 86 75 87 77 88 74 89 58 90 59 91 64 92 60 93 61 94
REMARK SMILES IDX 63 95 65 96 62 97
REMARK H PARENT 82 59 56 70
REMARK Flexibility Score: inf
ROOT
ATOM      1  C   UNL     1       2.695  -8.895  -1.984  1.00  0.00     0.274 C 
ENDROOT
BRANCH   1   2
ATOM      2  O   UNL     1       1.478  -9.525  -1.473  1.00  0.00    -0.462 OA
BRANCH   2   3
ATOM      3  C   UNL     1       0.433  -9.939  -2.241  1.00  0.00     0.312 C 
ATOM      4  O   UNL     1       0.580 -10.263  -3.413  1.00  0.00    -0.252 OA
BRANCH   3   5
ATOM      5  C   UNL     1      -0.987  -9.780  -1.509  1.00  0.00     0.075 C 
ATOM      6  C   UNL     1      -0.391  -2.596   1.464  1.00  0.00     0.105 C 
ATOM      7  C   UNL     1       1.039  -3.084   1.803  1.00  0.00     0.016 C 
ATOM      8  C   UNL     1      -1.472  -3.674   1.049  1.00  0.00    -0.019 C 
ATOM      9  C   UNL     1       1.115  -4.448   2.516  1.00  0.00     0.008 C 
ATOM     10  C   UNL     1      -1.234  -5.012   1.854  1.00  0.00     0.002 C 
ATOM     11  C   UNL     1      -1.518  -3.844  -0.493  1.00  0.00     0.012 C 
ATOM     12  C   UNL     1      -2.913  -3.152   1.344  1.00  0.00     0.012 C 
ATOM     13  C   UNL     1       0.234  -5.529   1.825  1.00  0.00    -0.026 C 
ATOM     14  C   UNL     1      -2.271  -6.115   1.577  1.00  0.00     0.005 C 
ATOM     15  C   UNL     1       0.363  -6.931   2.639  1.00  0.00     0.006 C 
ATOM     16  C   UNL     1       0.872  -5.564   0.410  1.00  0.00     0.012 C 
ATOM     17  C   UNL     1      -2.235  -7.234   2.609  1.00  0.00     0.008 C 
ATOM     18  C   UNL     1       1.581  -7.695   2.111  1.00  0.00     0.032 C 
ATOM     19  C   UNL     1      -0.908  -7.998   2.725  1.00  0.00    -0.020 C 
ATOM     20  C   UNL     1       1.185  -8.257   0.749  1.00  0.00    -0.027 C 
ATOM     21  C   UNL     1      -0.762  -9.233   1.647  1.00  0.00    -0.006 C 
ATOM     22  C   UNL     1      -0.880  -8.569   4.182  1.00  0.00     0.012 C 
ATOM     23  C   UNL     1      -0.109  -8.525   0.470  1.00  0.00    -0.063 C 
ATOM     24  C   UNL     1      -1.931 -10.051   1.006  1.00  0.00     0.013 C 
ATOM     25  C   UNL     1       0.088 -10.418   2.280  1.00  0.00     0.017 C 
ATOM     26  C   UNL     1      -0.959  -8.391  -0.871  1.00  0.00     0.033 C 
ATOM     27  C   UNL     1      -1.470 -10.762  -0.363  1.00  0.00     0.020 C 
ATOM     28  C   UNL     1      -0.796  -7.307  -1.991  1.00  0.00     0.015 C 
ATOM     29  C   UNL     1      -1.868  -7.354  -3.130  1.00  0.00    -0.035 C 
ATOM     30  C   UNL     1      -2.083  -9.871  -2.611  1.00  0.00     0.020 C 
ATOM     31  C   UNL     1      -2.081  -8.775  -3.668  1.00  0.00     0.007 C 
ATOM     32  C   UNL     1      -1.402  -6.474  -4.313  1.00  0.00     0.011 C 
ATOM     33  C   UNL     1      -3.216  -6.765  -2.648  1.00  0.00     0.011 C 
BRANCH   6  34
ATOM     34  C   UNL     1      -0.886  -1.775   2.643  1.00  0.00     0.309 C 
ATOM     35  O   UNL     1      -1.395  -0.668   2.539  1.00  0.00    -0.252 OA
BRANCH  34  36
ATOM     36  O   UNL     1      -0.821  -2.515   3.780  1.00  0.00    -0.469 OA
ATOM     37  C   UNL     1      -1.682  -2.105   4.834  1.00  0.00     0.282 C 
ENDBRANCH  34  36
ENDBRANCH   6  34
ENDBRANCH   3   5
ENDBRANCH   2   3
ENDBRANCH   1   2
BRANCH   1  38
ATOM     38  C   UNL     1       3.875  -9.034  -0.979  1.00  0.00     0.275 C 
BRANCH  38  39
ATOM     39  O   UNL     1       4.286 -10.404  -0.896  1.00  0.00    -0.458 OA
BRANCH  39  40
ATOM     40  C   UNL     1       3.684 -11.174   0.046  1.00  0.00     0.338 C 
ATOM     41  O   UNL     1       3.295 -10.866   1.158  1.00  0.00    -0.246 OA
BRANCH  40  42
ATOM     42  C   UNL     1       3.267 -12.350  -0.724  1.00  0.00     0.060 A 
ATOM     43  C   UNL     1       1.916 -12.421  -1.072  1.00  0.00     0.016 A 
ATOM     44  C   UNL     1       4.226 -13.097  -1.391  1.00  0.00     0.016 A 
ATOM     45  C   UNL     1       1.525 -13.091  -2.222  1.00  0.00     0.010 A 
ATOM     46  C   UNL     1       3.832 -13.815  -2.506  1.00  0.00     0.010 A 
ATOM     47  C   UNL     1       2.498 -13.763  -2.956  1.00  0.00    -0.014 A 
BRANCH  47  48
ATOM     48  C   UNL     1       2.173 -14.568  -4.139  1.00  0.00     0.031 A 
ATOM     49  C   UNL     1       1.984 -16.020  -3.896  1.00  0.00     0.074 A 
ATOM     50  C   UNL     1       2.303 -14.046  -5.370  1.00  0.00     0.049 A 
ATOM     51  N   UNL     1       2.218 -17.027  -4.686  1.00  0.00    -0.248 NA
ATOM     52  C   UNL     1       1.532 -16.385  -2.542  1.00  0.00     0.031 C 
ATOM     53  C   UNL     1       2.415 -12.623  -5.688  1.00  0.00     0.029 A 
ATOM     54  N   UNL     1       2.442 -14.678  -6.579  1.00  0.00    -0.354 N 
ATOM     55  C   UNL     1       2.001 -18.151  -3.906  1.00  0.00     0.074 A 
ATOM     56  C   UNL     1       1.616 -17.704  -2.587  1.00  0.00     0.031 C 
ATOM     57  C   UNL     1       2.669 -12.491  -7.003  1.00  0.00     0.029 A 
ATOM     58  C   UNL     1       2.805 -13.821  -7.591  1.00  0.00     0.049 A 
ATOM     59  H   UNL     1       2.298 -15.643  -6.708  1.00  0.00     0.167 HD
ATOM     60  C   UNL     1       2.145 -19.443  -4.271  1.00  0.00     0.037 A 
ATOM     61  C   UNL     1       3.267 -14.102  -8.826  1.00  0.00     0.037 A 
ATOM     62  C   UNL     1       2.553 -19.836  -5.590  1.00  0.00     0.049 A 
ATOM     63  C   UNL     1       3.473 -15.550  -9.197  1.00  0.00     0.074 A 
ATOM     64  C   UNL     1       2.730 -21.107  -6.099  1.00  0.00     0.029 A 
ATOM     65  N   UNL     1       2.854 -18.942  -6.612  1.00  0.00    -0.354 N 
ATOM     66  N   UNL     1       3.285 -16.627  -8.469  1.00  0.00    -0.248 NA
ATOM     67  C   UNL     1       3.977 -15.822 -10.550  1.00  0.00     0.031 C 
ATOM     68  C   UNL     1       3.177 -20.981  -7.419  1.00  0.00     0.029 A 
ATOM     69  C   UNL     1       3.230 -19.633  -7.747  1.00  0.00     0.049 A 
ATOM     70  H   UNL     1       2.808 -17.962  -6.537  1.00  0.00     0.167 HD
ATOM     71  C   UNL     1       3.618 -17.704  -9.281  1.00  0.00     0.074 A 
ATOM     72  C   UNL     1       4.015 -17.148 -10.560  1.00  0.00     0.031 C 
ATOM     73  C   UNL     1       3.601 -19.032  -9.004  1.00  0.00     0.037 A 
BRANCH  60  74
ATOM     74  C   UNL     1       1.909 -20.478  -3.216  1.00  0.00     0.057 A 
ATOM     75  C   UNL     1       0.636 -20.717  -2.684  1.00  0.00     0.134 A 
ATOM     76  C   UNL     1       2.977 -21.220  -2.697  1.00  0.00     0.134 A 
ATOM     77  F   UNL     1      -0.424 -20.015  -3.113  1.00  0.00    -0.206 F 
ATOM     78  C   UNL     1       0.436 -21.638  -1.654  1.00  0.00     0.040 A 
ATOM     79  C   UNL     1       2.786 -22.164  -1.688  1.00  0.00     0.040 A 
ATOM     80  F   UNL     1       4.225 -21.029  -3.151  1.00  0.00    -0.206 F 
ATOM     81  C   UNL     1       1.514 -22.369  -1.158  1.00  0.00     0.006 A 
ENDBRANCH  60  74
BRANCH  61  82
ATOM     82  C   UNL     1       3.602 -13.011  -9.778  1.00  0.00     0.057 A 
ATOM     83  C   UNL     1       2.832 -12.806 -10.929  1.00  0.00     0.134 A 
ATOM     84  C   UNL     1       4.694 -12.156  -9.578  1.00  0.00     0.134 A 
ATOM     85  F   UNL     1       1.790 -13.608 -11.193  1.00  0.00    -0.206 F 
ATOM     86  C   UNL     1       3.140 -11.804 -11.852  1.00  0.00     0.040 A 
ATOM     87  C   UNL     1       4.999 -11.133 -10.480  1.00  0.00     0.040 A 
ATOM     88  F   UNL     1       5.477 -12.296  -8.499  1.00  0.00    -0.206 F 
ATOM     89  C   UNL     1       4.224 -10.959 -11.625  1.00  0.00     0.006 A 
ENDBRANCH  61  82
BRANCH  73  90
ATOM     90  C   UNL     1       3.972 -19.966 -10.116  1.00  0.00     0.057 A 
ATOM     91  C   UNL     1       5.299 -20.139 -10.525  1.00  0.00     0.134 A 
ATOM     92  C   UNL     1       2.992 -20.756 -10.729  1.00  0.00     0.134 A 
ATOM     93  F   UNL     1       6.280 -19.402  -9.982  1.00  0.00    -0.206 F 
ATOM     94  C   UNL     1       5.637 -21.059 -11.517  1.00  0.00     0.040 A 
ATOM     95  C   UNL     1       3.321 -21.699 -11.702  1.00  0.00     0.040 A 
ATOM     96  F   UNL     1       1.704 -20.645 -10.370  1.00  0.00    -0.206 F 
ATOM     97  C   UNL     1       4.647 -21.849 -12.101  1.00  0.00     0.006 A 
ENDBRANCH  73  90
ENDBRANCH  47  48
ENDBRANCH  40  42
ENDBRANCH  39  40
ENDBRANCH  38  39
ENDBRANCH   1  38
TORSDOF 13
