REMARK SMILES O=C(/C=C/c1cc(F)cc(CN2CCCCC2=O)c1)OCCOC(=O)c1ccc(-c2c3nc(c(-c4c(F)cccc4F)c4ccc([nH]4)c(-c4c(F)cccc4F)c4nc(c(-c5c(F)cccc5F)c5ccc2[nH]5)C=C4)C=C3)cc1
REMARK SMILES IDX 21 1 20 2 2 3 1 4 3 5 4 6 5 7 6 8 19 9 7 10 10 11 8 12 9 13
REMARK SMILES IDX 11 14 12 15 13 16 17 17 14 18 16 19 18 20 15 21 22 22 23 23
REMARK SMILES IDX 24 24 25 25 26 26 27 27 79 28 28 29 78 30 29 31 30 32 31 33
REMARK SMILES IDX 72 34 32 35 77 36 71 37 73 38 33 39 76 40 70 41 69 42 34 44
REMARK SMILES IDX 60 45 43 46 59 47 44 48 47 49 58 50 74 51 45 52 46 53 57 55
REMARK SMILES IDX 75 56 48 57 35 58 36 59 41 60 37 61 38 62 40 63 42 64 39 65
REMARK SMILES IDX 61 66 62 67 67 68 63 69 64 70 66 71 68 72 65 73 49 74 50 75
REMARK SMILES IDX 55 76 51 77 52 78 54 79 56 80 53 81
REMARK H PARENT 73 43 47 54
REMARK Flexibility Score: inf
ROOT
ATOM      1  C   UNL     1       4.203  -0.299  -1.414  1.00  0.00     0.275 C 
ENDROOT
BRANCH   1   2
ATOM      2  O   UNL     1       2.949  -0.782  -0.896  1.00  0.00    -0.459 OA
BRANCH   2   3
ATOM      3  C   UNL     1       2.582  -0.965   0.392  1.00  0.00     0.330 C 
ATOM      4  O   UNL     1       1.538  -1.555   0.661  1.00  0.00    -0.247 OA
BRANCH   3   5
ATOM      5  C   UNL     1       3.298  -0.305   1.498  1.00  0.00     0.094 C 
ATOM      6  C   UNL     1       4.613  -0.131   1.688  1.00  0.00     0.016 C 
BRANCH   6   7
ATOM      7  C   UNL     1       5.162   0.695   2.771  1.00  0.00    -0.022 A 
ATOM      8  C   UNL     1       4.686   0.600   4.078  1.00  0.00     0.047 A 
ATOM      9  C   UNL     1       6.237   1.563   2.485  1.00  0.00     0.014 A 
ATOM     10  C   UNL     1       5.286   1.352   5.075  1.00  0.00     0.124 A 
ATOM     11  C   UNL     1       6.850   2.330   3.492  1.00  0.00    -0.025 A 
ATOM     12  F   UNL     1       4.846   1.239   6.335  1.00  0.00    -0.207 F 
ATOM     13  C   UNL     1       6.358   2.194   4.798  1.00  0.00     0.044 A 
BRANCH  11  14
ATOM     14  C   UNL     1       8.082   3.170   3.186  1.00  0.00     0.155 C 
BRANCH  14  15
ATOM     15  N   UNL     1       8.003   4.555   3.653  1.00  0.00    -0.338 N 
ATOM     16  C   UNL     1       7.805   5.608   2.663  1.00  0.00     0.120 C 
ATOM     17  C   UNL     1       8.247   4.835   4.987  1.00  0.00     0.222 C 
ATOM     18  C   UNL     1       8.071   7.002   3.214  1.00  0.00     0.022 C 
ATOM     19  C   UNL     1       7.750   6.163   5.530  1.00  0.00     0.100 C 
ATOM     20  O   UNL     1       8.779   4.025   5.747  1.00  0.00    -0.275 OA
ATOM     21  C   UNL     1       7.282   7.170   4.494  1.00  0.00     0.012 C 
ENDBRANCH  14  15
ENDBRANCH  11  14
ENDBRANCH   6   7
ENDBRANCH   3   5
ENDBRANCH   2   3
ENDBRANCH   1   2
BRANCH   1  22
ATOM     22  C   UNL     1       4.325   1.224  -1.547  1.00  0.00     0.275 C 
BRANCH  22  23
ATOM     23  O   UNL     1       3.915   1.951  -0.377  1.00  0.00    -0.458 OA
BRANCH  23  24
ATOM     24  C   UNL     1       2.615   2.342  -0.387  1.00  0.00     0.338 C 
ATOM     25  O   UNL     1       1.827   2.196  -1.309  1.00  0.00    -0.246 OA
BRANCH  24  26
ATOM     26  C   UNL     1       2.204   2.869   0.935  1.00  0.00     0.060 A 
ATOM     27  C   UNL     1       0.930   2.516   1.397  1.00  0.00     0.016 A 
ATOM     28  C   UNL     1       3.012   3.714   1.703  1.00  0.00     0.016 A 
ATOM     29  C   UNL     1       0.445   3.042   2.595  1.00  0.00     0.010 A 
ATOM     30  C   UNL     1       2.523   4.238   2.911  1.00  0.00     0.010 A 
ATOM     31  C   UNL     1       1.223   3.933   3.350  1.00  0.00    -0.014 A 
BRANCH  31  32
ATOM     32  C   UNL     1       0.617   4.587   4.544  1.00  0.00     0.031 A 
ATOM     33  C   UNL     1       0.138   6.013   4.462  1.00  0.00     0.074 A 
ATOM     34  C   UNL     1       0.409   3.888   5.677  1.00  0.00     0.049 A 
ATOM     35  N   UNL     1      -0.515   6.720   5.352  1.00  0.00    -0.248 NA
ATOM     36  C   UNL     1       0.427   6.741   3.217  1.00  0.00     0.031 C 
ATOM     37  C   UNL     1       0.807   2.498   5.894  1.00  0.00     0.029 A 
ATOM     38  N   UNL     1      -0.209   4.248   6.851  1.00  0.00    -0.354 N 
ATOM     39  C   UNL     1      -0.731   7.963   4.770  1.00  0.00     0.074 A 
ATOM     40  C   UNL     1      -0.096   7.933   3.470  1.00  0.00     0.031 C 
ATOM     41  C   UNL     1       0.401   2.115   7.117  1.00  0.00     0.029 A 
ATOM     42  C   UNL     1      -0.266   3.236   7.779  1.00  0.00     0.049 A 
ATOM     43  H   UNL     1      -0.576   5.147   7.012  1.00  0.00     0.167 HD
ATOM     44  C   UNL     1      -1.414   9.024   5.261  1.00  0.00     0.037 A 
ATOM     45  C   UNL     1      -0.798   3.208   9.018  1.00  0.00     0.037 A 
ATOM     46  C   UNL     1      -2.056   9.065   6.551  1.00  0.00     0.049 A 
ATOM     47  C   UNL     1      -1.497   4.426   9.563  1.00  0.00     0.074 A 
ATOM     48  C   UNL     1      -2.792  10.097   7.110  1.00  0.00     0.029 A 
ATOM     49  N   UNL     1      -2.039   8.039   7.481  1.00  0.00    -0.354 N 
ATOM     50  N   UNL     1      -1.734   5.577   8.981  1.00  0.00    -0.248 NA
ATOM     51  C   UNL     1      -2.013   4.338  10.939  1.00  0.00     0.031 C 
ATOM     52  C   UNL     1      -3.172   9.718   8.400  1.00  0.00     0.029 A 
ATOM     53  C   UNL     1      -2.726   8.426   8.622  1.00  0.00     0.049 A 
ATOM     54  H   UNL     1      -1.605   7.165   7.352  1.00  0.00     0.167 HD
ATOM     55  C   UNL     1      -2.445   6.334   9.906  1.00  0.00     0.074 A 
ATOM     56  C   UNL     1      -2.622   5.506  11.079  1.00  0.00     0.031 C 
ATOM     57  C   UNL     1      -2.907   7.603   9.790  1.00  0.00     0.037 A 
BRANCH  44  58
ATOM     58  C   UNL     1      -1.525  10.250   4.402  1.00  0.00     0.057 A 
ATOM     59  C   UNL     1      -0.872  11.437   4.760  1.00  0.00     0.134 A 
ATOM     60  C   UNL     1      -2.371  10.288   3.287  1.00  0.00     0.134 A 
ATOM     61  F   UNL     1      -0.055  11.470   5.824  1.00  0.00    -0.206 F 
ATOM     62  C   UNL     1      -1.077  12.623   4.055  1.00  0.00     0.040 A 
ATOM     63  C   UNL     1      -2.564  11.463   2.558  1.00  0.00     0.040 A 
ATOM     64  F   UNL     1      -3.019   9.184   2.886  1.00  0.00    -0.206 F 
ATOM     65  C   UNL     1      -1.926  12.639   2.950  1.00  0.00     0.006 A 
ENDBRANCH  44  58
BRANCH  45  66
ATOM     66  C   UNL     1      -0.709   1.972   9.838  1.00  0.00     0.057 A 
ATOM     67  C   UNL     1       0.517   1.518  10.341  1.00  0.00     0.134 A 
ATOM     68  C   UNL     1      -1.852   1.232  10.165  1.00  0.00     0.134 A 
ATOM     69  F   UNL     1       1.648   2.185  10.071  1.00  0.00    -0.206 F 
ATOM     70  C   UNL     1       0.605   0.368  11.127  1.00  0.00     0.040 A 
ATOM     71  C   UNL     1      -1.783   0.097  10.974  1.00  0.00     0.040 A 
ATOM     72  F   UNL     1      -3.059   1.632   9.739  1.00  0.00    -0.206 F 
ATOM     73  C   UNL     1      -0.549  -0.342  11.452  1.00  0.00     0.006 A 
ENDBRANCH  45  66
BRANCH  57  74
ATOM     74  C   UNL     1      -3.671   8.181  10.949  1.00  0.00     0.057 A 
ATOM     75  C   UNL     1      -5.039   8.463  10.838  1.00  0.00     0.134 A 
ATOM     76  C   UNL     1      -3.043   8.514  12.156  1.00  0.00     0.134 A 
ATOM     77  F   UNL     1      -5.703   8.184   9.706  1.00  0.00    -0.206 F 
ATOM     78  C   UNL     1      -5.752   9.059  11.880  1.00  0.00     0.040 A 
ATOM     79  C   UNL     1      -3.752   9.083  13.217  1.00  0.00     0.040 A 
ATOM     80  F   UNL     1      -1.736   8.267  12.335  1.00  0.00    -0.206 F 
ATOM     81  C   UNL     1      -5.109   9.365  13.077  1.00  0.00     0.006 A 
ENDBRANCH  57  74
ENDBRANCH  31  32
ENDBRANCH  24  26
ENDBRANCH  23  24
ENDBRANCH  22  23
ENDBRANCH   1  22
TORSDOF 14
