REMARK SMILES Cc1ccc(C(c2ccccc2)(c2ccccc2)n2cnc(C[C@H]([NH3+])C(=O)OCCOC(=O)c3ccc(-c4c5nc(c(-c6c(F)cccc6F)c6ccc([nH]6)c(-c6c(F)cccc6F)c6nc(c(-c7c(F)cccc7F)c7ccc4[nH]7)C=C6)C=C5)cc3)c2)cc1
REMARK SMILES IDX 29 1 28 2 26 3 27 4 24 5 23 6 22 7 19 8 20 9 88 10 21 11
REMARK SMILES IDX 6 12 5 13 1 14 2 15 3 16 90 17 4 18 89 19 7 20 8 21 12 22
REMARK SMILES IDX 9 23 11 24 10 25 13 26 14 27 18 28 15 29 17 30 16 31 25 32
REMARK SMILES IDX 30 36 31 37 32 38 33 39 34 40 35 41 87 42 36 43 86 44 37 45
REMARK SMILES IDX 38 46 39 47 80 48 40 49 85 50 79 51 81 52 41 53 84 54 78 55
REMARK SMILES IDX 77 56 42 58 68 59 51 60 67 61 52 62 55 63 66 64 82 65 53 66
REMARK SMILES IDX 54 67 65 69 83 70 56 71 43 72 44 73 49 74 45 75 46 76 48 77
REMARK SMILES IDX 50 78 47 79 69 80 70 81 75 82 71 83 72 84 74 85 76 86 73 87
REMARK SMILES IDX 57 88 58 89 63 90 59 91 60 92 62 93 64 94 61 95
REMARK H PARENT 25 33 25 34 25 35 81 57 55 68
REMARK Flexibility Score: inf
ROOT
ATOM      1  C   UNL     1      -9.354  -6.949   4.078  1.00  0.00     0.274 C 
ENDROOT
BRANCH   1   2
ATOM      2  O   UNL     1      -8.773  -6.994   2.777  1.00  0.00    -0.458 OA
BRANCH   2   3
ATOM      3  C   UNL     1      -8.762  -5.782   2.174  1.00  0.00     0.365 C 
ATOM      4  O   UNL     1      -9.660  -4.971   2.416  1.00  0.00    -0.245 OA
BRANCH   3   5
ATOM      5  C   UNL     1      -7.472  -5.349   1.270  1.00  0.00     0.297 C 
BRANCH   5   6
ATOM      6  C   UNL     1      -8.313  -4.601  -0.224  1.00  0.00     0.135 C 
BRANCH   6   7
ATOM      7  C   UNL     1      -8.525  -5.174  -1.656  1.00  0.00     0.065 A 
ATOM      8  N   UNL     1      -9.003  -5.424  -3.857  1.00  0.00    -0.319 N 
ATOM      9  C   UNL     1      -9.599  -6.389  -3.098  1.00  0.00     0.201 A 
ATOM     10  C   UNL     1      -8.219  -4.699  -2.939  1.00  0.00     0.112 A 
ATOM     11  N   UNL     1      -9.406  -6.190  -1.823  1.00  0.00    -0.241 NA
BRANCH   8  12
ATOM     12  C   UNL     1      -9.499  -5.103  -5.268  1.00  0.00     0.121 C 
BRANCH  12  13
ATOM     13  C   UNL     1      -9.623  -6.445  -6.139  1.00  0.00    -0.013 A 
ATOM     14  C   UNL     1     -10.967 -11.128  -7.970  1.00  0.00     0.044 C 
ATOM     15  C   UNL     1     -10.182  -9.169  -7.544  1.00  0.00    -0.051 A 
ATOM     16  C   UNL     1      -9.025  -8.774  -6.644  1.00  0.00     0.004 A 
ATOM     17  C   UNL     1     -10.666  -7.812  -7.947  1.00  0.00     0.004 A 
ATOM     18  C   UNL     1      -8.825  -7.554  -5.930  1.00  0.00     0.007 A 
ATOM     19  C   UNL     1     -10.383  -6.552  -7.307  1.00  0.00     0.007 A 
ENDBRANCH  12  13
BRANCH  12  20
ATOM     20  C   UNL     1     -10.963  -4.456  -5.024  1.00  0.00    -0.013 A 
ATOM     21  C   UNL     1     -11.141  -3.311  -4.218  1.00  0.00     0.007 A 
ATOM     22  C   UNL     1     -12.174  -5.098  -5.391  1.00  0.00     0.007 A 
ATOM     23  C   UNL     1     -12.408  -2.795  -3.894  1.00  0.00     0.000 A 
ATOM     24  C   UNL     1     -13.445  -4.589  -5.076  1.00  0.00     0.000 A 
ATOM     25  C   UNL     1     -13.562  -3.429  -4.331  1.00  0.00     0.000 A 
ENDBRANCH  12  20
BRANCH  12  26
ATOM     26  C   UNL     1      -8.430  -4.173  -5.977  1.00  0.00    -0.013 A 
ATOM     27  C   UNL     1      -7.496  -4.706  -6.902  1.00  0.00     0.007 A 
ATOM     28  C   UNL     1      -8.229  -2.824  -5.635  1.00  0.00     0.007 A 
ATOM     29  C   UNL     1      -6.403  -3.976  -7.380  1.00  0.00     0.000 A 
ATOM     30  C   UNL     1      -7.122  -2.095  -6.093  1.00  0.00     0.000 A 
ATOM     31  C   UNL     1      -6.200  -2.676  -6.951  1.00  0.00     0.000 A 
ENDBRANCH  12  26
ENDBRANCH   8  12
ENDBRANCH   6   7
ENDBRANCH   5   6
BRANCH   5  32
ATOM     32  N   UNL     1      -5.452  -5.699   1.633  1.00  0.00    -0.346 N 
ATOM     33  H   UNL     1      -5.229  -6.668   1.407  1.00  0.00     0.345 HD
ATOM     34  H   UNL     1      -5.248  -5.524   2.618  1.00  0.00     0.345 HD
ATOM     35  H   UNL     1      -4.889  -5.076   1.054  1.00  0.00     0.345 HD
ENDBRANCH   5  32
ENDBRANCH   3   5
ENDBRANCH   2   3
ENDBRANCH   1   2
BRANCH   1  36
ATOM     36  C   UNL     1      -8.600  -6.040   5.101  1.00  0.00     0.275 C 
BRANCH  36  37
ATOM     37  O   UNL     1      -8.236  -4.633   4.759  1.00  0.00    -0.458 OA
BRANCH  37  38
ATOM     38  C   UNL     1      -7.205  -3.949   4.144  1.00  0.00     0.338 C 
ATOM     39  O   UNL     1      -7.083  -2.738   4.291  1.00  0.00    -0.246 OA
BRANCH  38  40
ATOM     40  C   UNL     1      -6.361  -4.603   3.087  1.00  0.00     0.060 A 
ATOM     41  C   UNL     1      -6.002  -3.785   1.446  1.00  0.00     0.016 A 
ATOM     42  C   UNL     1      -6.482  -6.383   3.193  1.00  0.00     0.016 A 
ATOM     43  C   UNL     1      -5.953  -4.851  -0.082  1.00  0.00     0.010 A 
ATOM     44  C   UNL     1      -6.535  -7.387   1.724  1.00  0.00     0.010 A 
ATOM     45  C   UNL     1      -6.381  -6.652   0.080  1.00  0.00    -0.014 A 
BRANCH  45  46
ATOM     46  C   UNL     1      -7.004  -7.642  -0.801  1.00  0.00     0.031 A 
ATOM     47  C   UNL     1      -6.283  -8.271  -1.903  1.00  0.00     0.074 A 
ATOM     48  C   UNL     1      -8.181  -8.233  -0.401  1.00  0.00     0.049 A 
ATOM     49  N   UNL     1      -6.876  -8.999  -2.794  1.00  0.00    -0.248 NA
ATOM     50  C   UNL     1      -4.848  -8.135  -2.129  1.00  0.00     0.031 C 
ATOM     51  C   UNL     1      -8.574  -9.607  -0.659  1.00  0.00     0.029 A 
ATOM     52  N   UNL     1      -9.315  -7.734   0.308  1.00  0.00    -0.354 N 
ATOM     53  C   UNL     1      -5.891  -9.787  -3.317  1.00  0.00     0.074 A 
ATOM     54  C   UNL     1      -4.690  -9.005  -3.138  1.00  0.00     0.031 C 
ATOM     55  C   UNL     1      -9.886  -9.745  -0.435  1.00  0.00     0.029 A 
ATOM     56  C   UNL     1     -10.454  -8.445  -0.130  1.00  0.00     0.049 A 
ATOM     57  H   UNL     1      -9.304  -7.018   0.984  1.00  0.00     0.167 HD
ATOM     58  C   UNL     1      -6.159 -11.100  -3.580  1.00  0.00     0.037 A 
ATOM     59  C   UNL     1     -11.659  -7.948  -0.559  1.00  0.00     0.037 A 
ATOM     60  C   UNL     1      -7.582 -11.477  -3.393  1.00  0.00     0.049 A 
ATOM     61  C   UNL     1     -12.094  -8.598  -1.865  1.00  0.00     0.074 A 
ATOM     62  C   UNL     1      -8.268 -12.484  -2.726  1.00  0.00     0.029 A 
ATOM     63  N   UNL     1      -8.587 -10.637  -3.854  1.00  0.00    -0.354 N 
ATOM     64  N   UNL     1     -11.643  -9.744  -2.305  1.00  0.00    -0.248 NA
ATOM     65  C   UNL     1     -12.920  -7.933  -2.875  1.00  0.00     0.031 C 
ATOM     66  C   UNL     1      -9.674 -12.309  -2.950  1.00  0.00     0.029 A 
ATOM     67  C   UNL     1      -9.843 -11.210  -3.768  1.00  0.00     0.049 A 
ATOM     68  H   UNL     1      -8.424  -9.732  -4.205  1.00  0.00     0.167 HD
ATOM     69  C   UNL     1     -11.759  -9.767  -3.673  1.00  0.00     0.074 A 
ATOM     70  C   UNL     1     -12.669  -8.677  -3.965  1.00  0.00     0.031 C 
ATOM     71  C   UNL     1     -10.939 -10.535  -4.453  1.00  0.00     0.037 A 
BRANCH  58  72
ATOM     72  C   UNL     1      -5.093 -12.134  -3.901  1.00  0.00     0.057 A 
ATOM     73  C   UNL     1      -5.465 -13.375  -4.455  1.00  0.00     0.134 A 
ATOM     74  C   UNL     1      -3.708 -12.008  -3.661  1.00  0.00     0.134 A 
ATOM     75  F   UNL     1      -6.743 -13.664  -4.736  1.00  0.00    -0.206 F 
ATOM     76  C   UNL     1      -4.544 -14.389  -4.751  1.00  0.00     0.040 A 
ATOM     77  C   UNL     1      -2.770 -12.984  -4.025  1.00  0.00     0.040 A 
ATOM     78  F   UNL     1      -3.178 -10.971  -3.005  1.00  0.00    -0.206 F 
ATOM     79  C   UNL     1      -3.187 -14.188  -4.561  1.00  0.00     0.006 A 
ENDBRANCH  58  72
BRANCH  59  80
ATOM     80  C   UNL     1     -12.089  -6.599  -0.066  1.00  0.00     0.057 A 
ATOM     81  C   UNL     1     -12.425  -6.453   1.287  1.00  0.00     0.134 A 
ATOM     82  C   UNL     1     -12.023  -5.405  -0.794  1.00  0.00     0.134 A 
ATOM     83  F   UNL     1     -12.631  -7.539   2.050  1.00  0.00    -0.206 F 
ATOM     84  C   UNL     1     -12.528  -5.199   1.907  1.00  0.00     0.040 A 
ATOM     85  C   UNL     1     -12.048  -4.144  -0.180  1.00  0.00     0.040 A 
ATOM     86  F   UNL     1     -11.918  -5.416  -2.125  1.00  0.00    -0.206 F 
ATOM     87  C   UNL     1     -12.263  -4.040   1.187  1.00  0.00     0.006 A 
ENDBRANCH  59  80
BRANCH  71  88
ATOM     88  C   UNL     1     -10.885 -10.498  -5.965  1.00  0.00     0.057 A 
ATOM     89  C   UNL     1     -12.202  -9.785  -7.008  1.00  0.00     0.134 A 
ATOM     90  C   UNL     1      -9.344 -11.062  -6.797  1.00  0.00     0.134 A 
ATOM     91  F   UNL     1     -13.444  -9.628  -6.532  1.00  0.00    -0.206 F 
ATOM     92  C   UNL     1     -11.987  -9.577  -8.803  1.00  0.00     0.040 A 
ATOM     93  C   UNL     1      -9.046 -10.705  -8.575  1.00  0.00     0.040 A 
ATOM     94  F   UNL     1      -8.391 -11.756  -6.168  1.00  0.00    -0.206 F 
ATOM     95  C   UNL     1     -10.368  -9.966  -9.570  1.00  0.00     0.006 A 
ENDBRANCH  71  88
ENDBRANCH  45  46
ENDBRANCH  38  40
ENDBRANCH  37  38
ENDBRANCH  36  37
ENDBRANCH   1  36
TORSDOF 18
