REMARK SMILES CN(CC(=O)OCCOC(=O)c1ccc(-c2c3nc(c(-c4c(F)cccc4F)c4ccc([nH]4)c(-c4c(F)cccc4F)c4nc(c(-c5c(F)cccc5F)c5ccc2[nH]5)C=C4)C=C3)cc1)C(=O)c1ccccn1
REMARK SMILES IDX 7 1 6 2 4 3 5 4 3 5 2 6 1 7 66 8 67 9 68 10 69 11 73 12
REMARK SMILES IDX 70 13 72 14 71 15 8 16 9 17 10 18 11 19 12 20 13 21 65 22
REMARK SMILES IDX 14 23 64 24 15 25 16 26 17 27 58 28 18 29 63 30 57 31 59 32
REMARK SMILES IDX 19 33 62 34 56 35 55 36 20 38 46 39 29 40 45 41 30 42 33 43
REMARK SMILES IDX 44 44 60 45 31 46 32 47 43 49 61 50 34 51 21 52 22 53 27 54
REMARK SMILES IDX 23 55 24 56 26 57 28 58 25 59 47 60 48 61 53 62 49 63 50 64
REMARK SMILES IDX 52 65 54 66 51 67 35 68 36 69 41 70 37 71 38 72 40 73 42 74
REMARK SMILES IDX 39 75
REMARK H PARENT 59 37 33 48
REMARK Flexibility Score: inf
ROOT
ATOM      1  C   UNL     1      -3.613  -1.250   1.079  1.00  0.00     0.274 C 
ENDROOT
BRANCH   1   2
ATOM      2  O   UNL     1      -2.224  -1.184   0.672  1.00  0.00    -0.461 OA
BRANCH   2   3
ATOM      3  C   UNL     1      -1.366  -0.671   1.594  1.00  0.00     0.325 C 
ATOM      4  O   UNL     1      -1.723  -0.229   2.685  1.00  0.00    -0.250 OA
BRANCH   3   5
ATOM      5  C   UNL     1       0.122  -0.840   1.254  1.00  0.00     0.242 C 
BRANCH   5   6
ATOM      6  N   UNL     1       0.557  -1.015  -0.133  1.00  0.00    -0.329 N 
ATOM      7  C   UNL     1       0.765   0.206  -0.892  1.00  0.00     0.147 C 
BRANCH   6   8
ATOM      8  C   UNL     1       0.899  -2.229  -0.740  1.00  0.00     0.272 C 
ATOM      9  O   UNL     1       1.302  -2.294  -1.904  1.00  0.00    -0.267 OA
BRANCH   8  10
ATOM     10  C   UNL     1       0.746  -3.521  -0.018  1.00  0.00     0.128 A 
ATOM     11  C   UNL     1      -0.117  -4.465  -0.570  1.00  0.00     0.034 A 
ATOM     12  N   UNL     1       1.507  -3.736   1.090  1.00  0.00    -0.251 NA
ATOM     13  C   UNL     1      -0.260  -5.687   0.081  1.00  0.00     0.004 A 
ATOM     14  C   UNL     1       1.353  -4.944   1.680  1.00  0.00     0.112 A 
ATOM     15  C   UNL     1       0.487  -5.934   1.229  1.00  0.00     0.020 A 
ENDBRANCH   8  10
ENDBRANCH   6   8
ENDBRANCH   5   6
ENDBRANCH   3   5
ENDBRANCH   2   3
ENDBRANCH   1   2
BRANCH   1  16
ATOM     16  C   UNL     1      -4.021  -2.617   1.661  1.00  0.00     0.275 C 
BRANCH  16  17
ATOM     17  O   UNL     1      -3.413  -2.908   2.942  1.00  0.00    -0.458 OA
BRANCH  17  18
ATOM     18  C   UNL     1      -2.187  -3.449   2.811  1.00  0.00     0.338 C 
ATOM     19  O   UNL     1      -1.620  -3.647   1.747  1.00  0.00    -0.246 OA
BRANCH  18  20
ATOM     20  C   UNL     1      -1.499  -3.767   4.061  1.00  0.00     0.060 A 
ATOM     21  C   UNL     1      -0.422  -2.961   4.440  1.00  0.00     0.016 A 
ATOM     22  C   UNL     1      -1.713  -5.002   4.677  1.00  0.00     0.016 A 
ATOM     23  C   UNL     1       0.463  -3.398   5.420  1.00  0.00     0.010 A 
ATOM     24  C   UNL     1      -0.843  -5.425   5.689  1.00  0.00     0.010 A 
ATOM     25  C   UNL     1       0.255  -4.630   6.056  1.00  0.00    -0.014 A 
BRANCH  25  26
ATOM     26  C   UNL     1       1.125  -5.000   7.194  1.00  0.00     0.031 A 
ATOM     27  C   UNL     1       2.253  -5.976   7.050  1.00  0.00     0.074 A 
ATOM     28  C   UNL     1       0.902  -4.380   8.366  1.00  0.00     0.049 A 
ATOM     29  N   UNL     1       3.109  -6.380   7.955  1.00  0.00    -0.248 NA
ATOM     30  C   UNL     1       2.459  -6.568   5.720  1.00  0.00     0.031 C 
ATOM     31  C   UNL     1      -0.145  -3.382   8.597  1.00  0.00     0.029 A 
ATOM     32  N   UNL     1       1.542  -4.482   9.571  1.00  0.00    -0.354 N 
ATOM     33  C   UNL     1       3.964  -7.261   7.307  1.00  0.00     0.074 A 
ATOM     34  C   UNL     1       3.511  -7.350   5.933  1.00  0.00     0.031 C 
ATOM     35  C   UNL     1      -0.065  -2.951   9.863  1.00  0.00     0.029 A 
ATOM     36  C   UNL     1       1.008  -3.671  10.539  1.00  0.00     0.049 A 
ATOM     37  H   UNL     1       2.310  -5.077   9.727  1.00  0.00     0.167 HD
ATOM     38  C   UNL     1       5.026  -7.929   7.817  1.00  0.00     0.037 A 
ATOM     39  C   UNL     1       1.334  -3.534  11.836  1.00  0.00     0.037 A 
ATOM     40  C   UNL     1       5.452  -7.851   9.193  1.00  0.00     0.049 A 
ATOM     41  C   UNL     1       2.467  -4.340  12.390  1.00  0.00     0.074 A 
ATOM     42  C   UNL     1       6.498  -8.514   9.814  1.00  0.00     0.029 A 
ATOM     43  N   UNL     1       4.851  -7.062  10.162  1.00  0.00    -0.354 N 
ATOM     44  N   UNL     1       3.252  -5.187  11.771  1.00  0.00    -0.248 NA
ATOM     45  C   UNL     1       2.756  -4.177  13.819  1.00  0.00     0.031 C 
ATOM     46  C   UNL     1       6.510  -8.148  11.166  1.00  0.00     0.029 A 
ATOM     47  C   UNL     1       5.491  -7.234  11.379  1.00  0.00     0.049 A 
ATOM     48  H   UNL     1       4.081  -6.468  10.008  1.00  0.00     0.167 HD
ATOM     49  C   UNL     1       4.132  -5.657  12.732  1.00  0.00     0.074 A 
ATOM     50  C   UNL     1       3.795  -4.986  13.972  1.00  0.00     0.031 C 
ATOM     51  C   UNL     1       5.128  -6.566  12.602  1.00  0.00     0.037 A 
BRANCH  38  52
ATOM     52  C   UNL     1       5.800  -8.819   6.892  1.00  0.00     0.057 A 
ATOM     53  C   UNL     1       6.729  -8.300   5.983  1.00  0.00     0.134 A 
ATOM     54  C   UNL     1       5.669 -10.212   6.959  1.00  0.00     0.134 A 
ATOM     55  F   UNL     1       6.896  -6.974   5.866  1.00  0.00    -0.206 F 
ATOM     56  C   UNL     1       7.498  -9.134   5.168  1.00  0.00     0.040 A 
ATOM     57  C   UNL     1       6.441 -11.057   6.160  1.00  0.00     0.040 A 
ATOM     58  F   UNL     1       4.800 -10.773   7.813  1.00  0.00    -0.206 F 
ATOM     59  C   UNL     1       7.360 -10.518   5.261  1.00  0.00     0.006 A 
ENDBRANCH  38  52
BRANCH  39  60
ATOM     60  C   UNL     1       0.557  -2.601  12.683  1.00  0.00     0.057 A 
ATOM     61  C   UNL     1       1.099  -1.382  13.101  1.00  0.00     0.134 A 
ATOM     62  C   UNL     1      -0.763  -2.887  13.050  1.00  0.00     0.134 A 
ATOM     63  F   UNL     1       2.363  -1.062  12.789  1.00  0.00    -0.206 F 
ATOM     64  C   UNL     1       0.353  -0.476  13.855  1.00  0.00     0.040 A 
ATOM     65  C   UNL     1      -1.527  -1.982  13.786  1.00  0.00     0.040 A 
ATOM     66  F   UNL     1      -1.338  -4.037  12.669  1.00  0.00    -0.206 F 
ATOM     67  C   UNL     1      -0.967  -0.773  14.193  1.00  0.00     0.006 A 
ENDBRANCH  39  60
BRANCH  51  68
ATOM     68  C   UNL     1       5.915  -6.873  13.837  1.00  0.00     0.057 A 
ATOM     69  C   UNL     1       5.402  -7.707  14.839  1.00  0.00     0.134 A 
ATOM     70  C   UNL     1       7.188  -6.327  14.030  1.00  0.00     0.134 A 
ATOM     71  F   UNL     1       4.179  -8.245  14.716  1.00  0.00    -0.206 F 
ATOM     72  C   UNL     1       6.123  -7.969  16.004  1.00  0.00     0.040 A 
ATOM     73  C   UNL     1       7.925  -6.595  15.184  1.00  0.00     0.040 A 
ATOM     74  F   UNL     1       7.731  -5.521  13.106  1.00  0.00    -0.206 F 
ATOM     75  C   UNL     1       7.390  -7.413  16.178  1.00  0.00     0.006 A 
ENDBRANCH  51  68
ENDBRANCH  25  26
ENDBRANCH  18  20
ENDBRANCH  17  18
ENDBRANCH  16  17
ENDBRANCH   1  16
TORSDOF 14
