REMARK SMILES CCc1ccc2[nH]c(C(=O)c3cc(C)ccn3)c(CC(=O)OCCOC(=O)c3ccc(-c4c5nc(c(-c6c(F)cccc6F)c6ccc([nH]6)c(-c6c(F)cccc6F)c6nc(c(-c7c(F)cccc7F)c7ccc4[nH]7)C=C6)C=C5)cc3)c2c1
REMARK SMILES IDX 23 1 22 2 20 3 21 4 19 5 18 6 3 7 4 8 83 9 5 10 82 11 6 12
REMARK SMILES IDX 7 13 8 14 2 16 1 17 9 18 10 19 11 20 12 21 17 22 13 23 16 24
REMARK SMILES IDX 14 25 15 26 24 27 25 28 26 29 27 30 28 31 29 32 81 33 30 34
REMARK SMILES IDX 80 35 31 36 32 37 33 38 74 39 34 40 79 41 73 42 75 43 35 44
REMARK SMILES IDX 78 45 72 46 71 47 36 49 62 50 45 51 61 52 46 53 49 54 60 55
REMARK SMILES IDX 76 56 47 57 48 58 59 60 77 61 50 62 37 63 38 64 43 65 39 66
REMARK SMILES IDX 40 67 42 68 44 69 41 70 63 71 64 72 69 73 65 74 66 75 68 76
REMARK SMILES IDX 70 77 67 78 51 79 52 80 57 81 53 82 54 83 56 84 58 85 55 86
REMARK H PARENT 7 15 75 48 49 59
REMARK Flexibility Score: inf
ROOT
ATOM      1  C   UNL     1      -0.682   2.976   6.618  1.00  0.00     0.274 C 
ENDROOT
BRANCH   1   2
ATOM      2  O   UNL     1       0.295   2.091   6.032  1.00  0.00    -0.462 OA
BRANCH   2   3
ATOM      3  C   UNL     1       1.154   2.669   5.150  1.00  0.00     0.310 C 
ATOM      4  O   UNL     1       1.094   3.848   4.802  1.00  0.00    -0.252 OA
BRANCH   3   5
ATOM      5  C   UNL     1       2.260   1.767   4.648  1.00  0.00     0.161 C 
BRANCH   5   6
ATOM      6  C   UNL     1       2.131   0.303   4.946  1.00  0.00     0.000 A 
ATOM      7  C   UNL     1       0.656  -1.690   2.038  1.00  0.00    -0.048 A 
ATOM      8  C   UNL     1       0.794  -2.940   2.658  1.00  0.00     0.006 A 
ATOM      9  C   UNL     1       0.966  -0.536   2.771  1.00  0.00     0.014 A 
ATOM     10  C   UNL     1       1.282  -3.070   3.967  1.00  0.00     0.027 A 
ATOM     11  C   UNL     1       1.533  -0.644   4.057  1.00  0.00     0.004 A 
ATOM     12  C   UNL     1       1.671  -1.902   4.628  1.00  0.00     0.046 A 
ATOM     13  N   UNL     1       2.248  -1.717   5.864  1.00  0.00    -0.352 N 
ATOM     14  C   UNL     1       2.720  -0.425   5.982  1.00  0.00     0.093 A 
ATOM     15  H   UNL     1       2.314  -2.407   6.563  1.00  0.00     0.167 HD
BRANCH   7  16
ATOM     16  C   UNL     1       0.171  -1.613   0.607  1.00  0.00     0.032 C 
ATOM     17  C   UNL     1       0.740  -0.455  -0.210  1.00  0.00     0.009 C 
ENDBRANCH   7  16
BRANCH  14  18
ATOM     18  C   UNL     1       3.717   0.014   6.946  1.00  0.00     0.227 C 
ATOM     19  O   UNL     1       4.449   0.984   6.757  1.00  0.00    -0.285 OA
BRANCH  18  20
ATOM     20  C   UNL     1       3.977  -0.789   8.164  1.00  0.00     0.113 A 
ATOM     21  C   UNL     1       5.016  -1.713   8.169  1.00  0.00     0.036 A 
ATOM     22  N   UNL     1       3.233  -0.481   9.250  1.00  0.00    -0.253 NA
ATOM     23  C   UNL     1       5.312  -2.365   9.369  1.00  0.00    -0.047 A 
ATOM     24  C   UNL     1       3.572  -1.082  10.406  1.00  0.00     0.112 A 
ATOM     25  C   UNL     1       6.415  -3.376   9.455  1.00  0.00     0.044 C 
ATOM     26  C   UNL     1       4.588  -2.019  10.514  1.00  0.00     0.023 A 
ENDBRANCH  18  20
ENDBRANCH  14  18
ENDBRANCH   5   6
ENDBRANCH   3   5
ENDBRANCH   2   3
ENDBRANCH   1   2
BRANCH   1  27
ATOM     27  C   UNL     1      -0.270   3.378   8.031  1.00  0.00     0.275 C 
BRANCH  27  28
ATOM     28  O   UNL     1       1.089   3.847   8.024  1.00  0.00    -0.458 OA
BRANCH  28  29
ATOM     29  C   UNL     1       1.950   3.114   8.766  1.00  0.00     0.338 C 
ATOM     30  O   UNL     1       1.662   2.196   9.523  1.00  0.00    -0.246 OA
BRANCH  29  31
ATOM     31  C   UNL     1       3.327   3.614   8.602  1.00  0.00     0.060 A 
ATOM     32  C   UNL     1       3.851   3.917   7.345  1.00  0.00     0.016 A 
ATOM     33  C   UNL     1       4.141   3.693   9.733  1.00  0.00     0.016 A 
ATOM     34  C   UNL     1       5.208   4.209   7.209  1.00  0.00     0.010 A 
ATOM     35  C   UNL     1       5.473   4.092   9.606  1.00  0.00     0.010 A 
ATOM     36  C   UNL     1       6.031   4.328   8.339  1.00  0.00    -0.014 A 
BRANCH  36  37
ATOM     37  C   UNL     1       7.463   4.712   8.208  1.00  0.00     0.031 A 
ATOM     38  C   UNL     1       8.553   3.812   8.724  1.00  0.00     0.074 A 
ATOM     39  C   UNL     1       7.791   5.892   7.646  1.00  0.00     0.049 A 
ATOM     40  N   UNL     1       9.831   4.061   8.870  1.00  0.00    -0.248 NA
ATOM     41  C   UNL     1       8.154   2.459   9.142  1.00  0.00     0.031 C 
ATOM     42  C   UNL     1       6.845   6.849   7.069  1.00  0.00     0.029 A 
ATOM     43  N   UNL     1       9.015   6.486   7.462  1.00  0.00    -0.354 N 
ATOM     44  C   UNL     1      10.379   2.920   9.443  1.00  0.00     0.074 A 
ATOM     45  C   UNL     1       9.294   1.976   9.619  1.00  0.00     0.031 C 
ATOM     46  C   UNL     1       7.524   7.885   6.555  1.00  0.00     0.029 A 
ATOM     47  C   UNL     1       8.943   7.708   6.842  1.00  0.00     0.049 A 
ATOM     48  H   UNL     1       9.862   6.074   7.748  1.00  0.00     0.167 HD
ATOM     49  C   UNL     1      11.668   2.683   9.790  1.00  0.00     0.037 A 
ATOM     50  C   UNL     1       9.902   8.610   6.565  1.00  0.00     0.037 A 
ATOM     51  C   UNL     1      12.757   3.599   9.564  1.00  0.00     0.049 A 
ATOM     52  C   UNL     1      11.312   8.344   6.996  1.00  0.00     0.074 A 
ATOM     53  C   UNL     1      14.101   3.432   9.854  1.00  0.00     0.029 A 
ATOM     54  N   UNL     1      12.630   4.850   8.979  1.00  0.00    -0.354 N 
ATOM     55  N   UNL     1      11.807   7.287   7.590  1.00  0.00    -0.248 NA
ATOM     56  C   UNL     1      12.291   9.411   6.745  1.00  0.00     0.031 C 
ATOM     57  C   UNL     1      14.783   4.593   9.469  1.00  0.00     0.029 A 
ATOM     58  C   UNL     1      13.868   5.470   8.912  1.00  0.00     0.049 A 
ATOM     59  H   UNL     1      11.785   5.239   8.657  1.00  0.00     0.167 HD
ATOM     60  C   UNL     1      13.155   7.555   7.779  1.00  0.00     0.074 A 
ATOM     61  C   UNL     1      13.403   8.870   7.223  1.00  0.00     0.031 C 
ATOM     62  C   UNL     1      14.100   6.781   8.364  1.00  0.00     0.037 A 
BRANCH  49  63
ATOM     63  C   UNL     1      11.970   1.387  10.481  1.00  0.00     0.057 A 
ATOM     64  C   UNL     1      12.020   0.170   9.793  1.00  0.00     0.134 A 
ATOM     65  C   UNL     1      12.257   1.367  11.853  1.00  0.00     0.134 A 
ATOM     66  F   UNL     1      11.745   0.118   8.481  1.00  0.00    -0.206 F 
ATOM     67  C   UNL     1      12.325  -1.026  10.448  1.00  0.00     0.040 A 
ATOM     68  C   UNL     1      12.582   0.182  12.514  1.00  0.00     0.040 A 
ATOM     69  F   UNL     1      12.234   2.501  12.570  1.00  0.00    -0.206 F 
ATOM     70  C   UNL     1      12.612  -1.021  11.812  1.00  0.00     0.006 A 
ENDBRANCH  49  63
BRANCH  50  71
ATOM     71  C   UNL     1       9.546   9.864   5.860  1.00  0.00     0.057 A 
ATOM     72  C   UNL     1       9.908  10.060   4.524  1.00  0.00     0.134 A 
ATOM     73  C   UNL     1       8.812  10.876   6.491  1.00  0.00     0.134 A 
ATOM     74  F   UNL     1      10.630   9.134   3.877  1.00  0.00    -0.206 F 
ATOM     75  C   UNL     1       9.550  11.220   3.836  1.00  0.00     0.040 A 
ATOM     76  C   UNL     1       8.429  12.030   5.809  1.00  0.00     0.040 A 
ATOM     77  F   UNL     1       8.436  10.742   7.771  1.00  0.00    -0.206 F 
ATOM     78  C   UNL     1       8.800  12.205   4.476  1.00  0.00     0.006 A 
ENDBRANCH  50  71
BRANCH  62  79
ATOM     79  C   UNL     1      15.491   7.335   8.412  1.00  0.00     0.057 A 
ATOM     80  C   UNL     1      15.854   8.324   9.334  1.00  0.00     0.134 A 
ATOM     81  C   UNL     1      16.476   6.872   7.532  1.00  0.00     0.134 A 
ATOM     82  F   UNL     1      14.949   8.820  10.191  1.00  0.00    -0.206 F 
ATOM     83  C   UNL     1      17.148   8.847   9.368  1.00  0.00     0.040 A 
ATOM     84  C   UNL     1      17.777   7.375   7.567  1.00  0.00     0.040 A 
ATOM     85  F   UNL     1      16.189   5.926   6.626  1.00  0.00    -0.206 F 
ATOM     86  C   UNL     1      18.114   8.369   8.484  1.00  0.00     0.006 A 
ENDBRANCH  62  79
ENDBRANCH  36  37
ENDBRANCH  29  31
ENDBRANCH  28  29
ENDBRANCH  27  28
ENDBRANCH   1  27
TORSDOF 15
