REMARK SMILES O=C1C[C@@H](C(=O)OCCOC(=O)c2ccc(-c3c4nc(c(-c5c(F)cccc5F)c5ccc([nH]5)c(-c5c(F)cccc5F)c5nc(c(-c6c(F)cccc6F)c6ccc3[nH]6)C=C5)C=C4)cc2)C2(CC[NH+](Cc3c[nH]nc3-c3ccc(Cl)cc3)CC2)N1
REMARK SMILES IDX 8 1 7 2 5 3 6 4 4 5 1 6 2 7 3 8 86 9 67 10 68 12 85 13 69 14
REMARK SMILES IDX 84 15 70 16 71 18 72 19 73 20 76 21 74 22 75 23 77 25 78 26
REMARK SMILES IDX 83 27 79 28 82 29 80 30 81 31 9 32 10 33 11 34 12 35 13 36
REMARK SMILES IDX 14 37 66 38 15 39 65 40 16 41 17 42 18 43 59 44 19 45 64 46
REMARK SMILES IDX 58 47 60 48 20 49 63 50 57 51 56 52 21 54 47 55 30 56 46 57
REMARK SMILES IDX 31 58 34 59 45 60 61 61 32 62 33 63 44 65 62 66 35 67 22 68
REMARK SMILES IDX 23 69 28 70 24 71 25 72 27 73 29 74 26 75 48 76 49 77 54 78
REMARK SMILES IDX 50 79 51 80 53 81 55 82 52 83 36 84 37 85 42 86 38 87 39 88
REMARK SMILES IDX 41 89 43 90 40 91
REMARK H PARENT 86 11 70 17 74 24 60 53 34 64
REMARK Flexibility Score: inf
ROOT
ATOM      1  C   UNL     1       2.671   2.544  -3.728  1.00  0.00     0.274 C 
ENDROOT
BRANCH   1   2
ATOM      2  O   UNL     1       3.010   1.869  -2.498  1.00  0.00    -0.462 OA
BRANCH   2   3
ATOM      3  C   UNL     1       3.554   0.640  -2.641  1.00  0.00     0.311 C 
ATOM      4  O   UNL     1       3.671   0.060  -3.718  1.00  0.00    -0.252 OA
BRANCH   3   5
ATOM      5  C   UNL     1       3.978  -0.040  -1.352  1.00  0.00     0.134 C 
ATOM      6  O   UNL     1       0.993  -0.577   0.513  1.00  0.00    -0.275 OA
ATOM      7  C   UNL     1       2.090  -0.294   0.079  1.00  0.00     0.221 C 
ATOM      8  C   UNL     1       2.838  -1.019  -1.007  1.00  0.00     0.117 C 
ATOM      9  N   UNL     1       2.891   0.722   0.542  1.00  0.00    -0.349 N 
ATOM     10  C   UNL     1       4.229   0.729  -0.033  1.00  0.00     0.064 C 
ATOM     11  H   UNL     1       2.588   1.386   1.203  1.00  0.00     0.164 HD
ATOM     12  C   UNL     1       4.738   2.176  -0.104  1.00  0.00     0.091 C 
ATOM     13  C   UNL     1       5.141  -0.132   0.902  1.00  0.00     0.091 C 
ATOM     14  C   UNL     1       6.250   2.322  -0.182  1.00  0.00     0.264 C 
ATOM     15  C   UNL     1       6.636   0.213   0.904  1.00  0.00     0.264 C 
ATOM     16  N   UNL     1       6.953   1.629   0.876  1.00  0.00    -0.331 N 
ATOM     17  H   UNL     1       7.941   1.637   0.622  1.00  0.00     0.348 HD
BRANCH  16  18
ATOM     18  C   UNL     1       7.126   2.351   2.143  1.00  0.00     0.303 C 
BRANCH  18  19
ATOM     19  C   UNL     1       5.899   2.469   2.987  1.00  0.00     0.052 A 
ATOM     20  C   UNL     1       5.365   1.479   3.794  1.00  0.00     0.115 A 
ATOM     21  C   UNL     1       5.085   3.618   3.278  1.00  0.00     0.101 A 
ATOM     22  N   UNL     1       4.240   1.992   4.352  1.00  0.00    -0.285 N 
ATOM     23  N   UNL     1       4.055   3.284   4.074  1.00  0.00    -0.175 NA
ATOM     24  H   UNL     1       3.622   1.463   4.906  1.00  0.00     0.189 HD
BRANCH  21  25
ATOM     25  C   UNL     1       5.250   5.023   2.898  1.00  0.00     0.003 A 
ATOM     26  C   UNL     1       5.327   5.990   3.912  1.00  0.00     0.012 A 
ATOM     27  C   UNL     1       5.274   5.448   1.566  1.00  0.00     0.012 A 
ATOM     28  C   UNL     1       5.441   7.348   3.600  1.00  0.00     0.021 A 
ATOM     29  C   UNL     1       5.392   6.806   1.249  1.00  0.00     0.021 A 
ATOM     30  C   UNL     1       5.476   7.750   2.268  1.00  0.00     0.041 A 
ATOM     31  Cl  UNL     1       5.606   9.420   1.879  1.00  0.00    -0.084 Cl
ENDBRANCH  21  25
ENDBRANCH  18  19
ENDBRANCH  16  18
ENDBRANCH   3   5
ENDBRANCH   2   3
ENDBRANCH   1   2
BRANCH   1  32
ATOM     32  C   UNL     1       3.835   3.399  -4.234  1.00  0.00     0.275 C 
BRANCH  32  33
ATOM     33  O   UNL     1       5.025   2.599  -4.387  1.00  0.00    -0.458 OA
BRANCH  33  34
ATOM     34  C   UNL     1       6.117   3.042  -3.725  1.00  0.00     0.338 C 
ATOM     35  O   UNL     1       6.214   4.062  -3.063  1.00  0.00    -0.246 OA
BRANCH  34  36
ATOM     36  C   UNL     1       7.233   2.082  -3.843  1.00  0.00     0.060 A 
ATOM     37  C   UNL     1       7.064   0.746  -3.474  1.00  0.00     0.016 A 
ATOM     38  C   UNL     1       8.507   2.559  -4.149  1.00  0.00     0.016 A 
ATOM     39  C   UNL     1       8.168  -0.090  -3.330  1.00  0.00     0.010 A 
ATOM     40  C   UNL     1       9.601   1.690  -4.110  1.00  0.00     0.010 A 
ATOM     41  C   UNL     1       9.447   0.361  -3.681  1.00  0.00    -0.014 A 
BRANCH  41  42
ATOM     42  C   UNL     1      10.613  -0.564  -3.667  1.00  0.00     0.031 A 
ATOM     43  C   UNL     1      11.830  -0.266  -2.836  1.00  0.00     0.074 A 
ATOM     44  C   UNL     1      10.601  -1.648  -4.466  1.00  0.00     0.049 A 
ATOM     45  N   UNL     1      13.008  -0.838  -2.863  1.00  0.00    -0.248 NA
ATOM     46  C   UNL     1      11.713   0.825  -1.857  1.00  0.00     0.031 C 
ATOM     47  C   UNL     1       9.482  -2.061  -5.315  1.00  0.00     0.029 A 
ATOM     48  N   UNL     1      11.571  -2.587  -4.716  1.00  0.00    -0.354 N 
ATOM     49  C   UNL     1      13.789  -0.145  -1.946  1.00  0.00     0.074 A 
ATOM     50  C   UNL     1      12.948   0.888  -1.377  1.00  0.00     0.031 C 
ATOM     51  C   UNL     1       9.824  -3.168  -5.988  1.00  0.00     0.029 A 
ATOM     52  C   UNL     1      11.212  -3.493  -5.683  1.00  0.00     0.049 A 
ATOM     53  H   UNL     1      12.437  -2.608  -4.248  1.00  0.00     0.167 HD
ATOM     54  C   UNL     1      15.088  -0.351  -1.618  1.00  0.00     0.037 A 
ATOM     55  C   UNL     1      11.928  -4.446  -6.307  1.00  0.00     0.037 A 
ATOM     56  C   UNL     1      15.909  -1.404  -2.163  1.00  0.00     0.049 A 
ATOM     57  C   UNL     1      13.369  -4.638  -5.949  1.00  0.00     0.074 A 
ATOM     58  C   UNL     1      17.218  -1.729  -1.847  1.00  0.00     0.029 A 
ATOM     59  N   UNL     1      15.505  -2.299  -3.142  1.00  0.00    -0.354 N 
ATOM     60  N   UNL     1      14.097  -3.979  -5.082  1.00  0.00    -0.248 NA
ATOM     61  C   UNL     1      14.092  -5.698  -6.663  1.00  0.00     0.031 C 
ATOM     62  C   UNL     1      17.620  -2.789  -2.668  1.00  0.00     0.029 A 
ATOM     63  C   UNL     1      16.546  -3.157  -3.462  1.00  0.00     0.049 A 
ATOM     64  H   UNL     1      14.609  -2.322  -3.550  1.00  0.00     0.167 HD
ATOM     65  C   UNL     1      15.361  -4.548  -5.138  1.00  0.00     0.074 A 
ATOM     66  C   UNL     1      15.295  -5.619  -6.112  1.00  0.00     0.031 C 
ATOM     67  C   UNL     1      16.475  -4.210  -4.444  1.00  0.00     0.037 A 
BRANCH  54  68
ATOM     68  C   UNL     1      15.721   0.606  -0.648  1.00  0.00     0.057 A 
ATOM     69  C   UNL     1      15.407   0.609   0.716  1.00  0.00     0.134 A 
ATOM     70  C   UNL     1      16.692   1.517  -1.088  1.00  0.00     0.134 A 
ATOM     71  F   UNL     1      14.481  -0.232   1.203  1.00  0.00    -0.206 F 
ATOM     72  C   UNL     1      16.016   1.500   1.604  1.00  0.00     0.040 A 
ATOM     73  C   UNL     1      17.325   2.395  -0.206  1.00  0.00     0.040 A 
ATOM     74  F   UNL     1      17.047   1.563  -2.381  1.00  0.00    -0.206 F 
ATOM     75  C   UNL     1      16.982   2.392   1.144  1.00  0.00     0.006 A 
ENDBRANCH  54  68
BRANCH  55  76
ATOM     76  C   UNL     1      11.280  -5.257  -7.365  1.00  0.00     0.057 A 
ATOM     77  C   UNL     1      10.937  -6.593  -7.142  1.00  0.00     0.134 A 
ATOM     78  C   UNL     1      10.931  -4.694  -8.600  1.00  0.00     0.134 A 
ATOM     79  F   UNL     1      11.261  -7.188  -5.984  1.00  0.00    -0.206 F 
ATOM     80  C   UNL     1      10.266  -7.344  -8.108  1.00  0.00     0.040 A 
ATOM     81  C   UNL     1      10.238  -5.425  -9.565  1.00  0.00     0.040 A 
ATOM     82  F   UNL     1      11.224  -3.413  -8.867  1.00  0.00    -0.206 F 
ATOM     83  C   UNL     1       9.905  -6.755  -9.319  1.00  0.00     0.006 A 
ENDBRANCH  55  76
BRANCH  67  84
ATOM     84  C   UNL     1      17.708  -5.024  -4.704  1.00  0.00     0.057 A 
ATOM     85  C   UNL     1      18.444  -4.889  -5.888  1.00  0.00     0.134 A 
ATOM     86  C   UNL     1      18.173  -5.941  -3.753  1.00  0.00     0.134 A 
ATOM     87  F   UNL     1      18.041  -4.040  -6.846  1.00  0.00    -0.206 F 
ATOM     88  C   UNL     1      19.586  -5.656  -6.128  1.00  0.00     0.040 A 
ATOM     89  C   UNL     1      19.326  -6.696  -3.971  1.00  0.00     0.040 A 
ATOM     90  F   UNL     1      17.516  -6.115  -2.596  1.00  0.00    -0.206 F 
ATOM     91  C   UNL     1      20.033  -6.558  -5.164  1.00  0.00     0.006 A 
ENDBRANCH  67  84
ENDBRANCH  41  42
ENDBRANCH  34  36
ENDBRANCH  33  34
ENDBRANCH  32  33
ENDBRANCH   1  32
TORSDOF 14
