REMARK SMILES O=C(Cc1cccc(-c2ccn(C(F)F)c(=O)c2)c1)OCCOC(=O)c1ccc(-c2c3nc(c(-c4c(F)cccc4F)c4ccc([nH]4)c(-c4c(F)cccc4F)c4nc(c(-c5c(F)cccc5F)c5ccc2[nH]5)C=C4)C=C3)cc1
REMARK SMILES IDX 21 1 20 2 2 3 1 4 3 5 4 6 5 7 19 8 6 9 8 10 7 11 9 12 10 13
REMARK SMILES IDX 18 14 11 15 16 16 12 17 17 18 13 19 14 20 15 21 22 22 23 23
REMARK SMILES IDX 24 24 25 25 26 26 27 27 79 28 28 29 78 30 29 31 30 32 31 33
REMARK SMILES IDX 72 34 32 35 77 36 71 37 73 38 33 39 76 40 70 41 69 42 34 44
REMARK SMILES IDX 60 45 43 46 59 47 44 48 47 49 58 50 74 51 45 52 46 53 57 55
REMARK SMILES IDX 75 56 48 57 35 58 36 59 41 60 37 61 38 62 40 63 42 64 39 65
REMARK SMILES IDX 61 66 62 67 67 68 63 69 64 70 66 71 68 72 65 73 49 74 50 75
REMARK SMILES IDX 55 76 51 77 52 78 54 79 56 80 53 81
REMARK H PARENT 73 43 47 54
REMARK Flexibility Score: inf
ROOT
ATOM      1  C   UNL     1       3.761   1.400  -0.157  1.00  0.00     0.274 C 
ENDROOT
BRANCH   1   2
ATOM      2  O   UNL     1       2.480   0.743  -0.175  1.00  0.00    -0.462 OA
BRANCH   2   3
ATOM      3  C   UNL     1       2.410  -0.516  -0.693  1.00  0.00     0.310 C 
ATOM      4  O   UNL     1       1.674  -0.772  -1.639  1.00  0.00    -0.252 OA
BRANCH   3   5
ATOM      5  C   UNL     1       3.138  -1.587   0.101  1.00  0.00     0.158 C 
BRANCH   5   6
ATOM      6  C   UNL     1       4.068  -2.451  -0.710  1.00  0.00    -0.036 A 
ATOM      7  C   UNL     1       3.788  -3.792  -0.980  1.00  0.00     0.004 A 
ATOM      8  C   UNL     1       5.259  -1.908  -1.200  1.00  0.00     0.013 A 
ATOM      9  C   UNL     1       4.683  -4.560  -1.733  1.00  0.00     0.001 A 
ATOM     10  C   UNL     1       6.136  -2.648  -1.998  1.00  0.00    -0.018 A 
ATOM     11  C   UNL     1       5.850  -3.988  -2.252  1.00  0.00     0.009 A 
BRANCH  10  12
ATOM     12  C   UNL     1       7.258  -1.915  -2.612  1.00  0.00    -0.011 A 
ATOM     13  C   UNL     1       8.285  -1.241  -1.840  1.00  0.00     0.027 A 
ATOM     14  C   UNL     1       7.185  -1.697  -3.937  1.00  0.00     0.080 A 
ATOM     15  C   UNL     1       9.110  -0.366  -2.428  1.00  0.00     0.095 A 
ATOM     16  C   UNL     1       8.121  -0.758  -4.610  1.00  0.00     0.255 A 
ATOM     17  N   UNL     1       9.028  -0.113  -3.784  1.00  0.00    -0.258 N 
ATOM     18  O   UNL     1       8.010  -0.590  -5.820  1.00  0.00    -0.269 OA
BRANCH  17  19
ATOM     19  C   UNL     1       9.880   0.871  -4.401  1.00  0.00     0.451 C 
ATOM     20  F   UNL     1      10.622   0.326  -5.394  1.00  0.00    -0.185 F 
ATOM     21  F   UNL     1       9.146   1.882  -4.929  1.00  0.00    -0.185 F 
ENDBRANCH  17  19
ENDBRANCH  10  12
ENDBRANCH   5   6
ENDBRANCH   3   5
ENDBRANCH   2   3
ENDBRANCH   1   2
BRANCH   1  22
ATOM     22  C   UNL     1       4.209   1.818   1.248  1.00  0.00     0.275 C 
BRANCH  22  23
ATOM     23  O   UNL     1       3.942   0.786   2.207  1.00  0.00    -0.458 OA
BRANCH  23  24
ATOM     24  C   UNL     1       2.703   0.873   2.759  1.00  0.00     0.338 C 
ATOM     25  O   UNL     1       1.931   1.810   2.672  1.00  0.00    -0.246 OA
BRANCH  24  26
ATOM     26  C   UNL     1       2.323  -0.429   3.347  1.00  0.00     0.060 A 
ATOM     27  C   UNL     1       1.003  -0.854   3.158  1.00  0.00     0.016 A 
ATOM     28  C   UNL     1       3.216  -1.204   4.093  1.00  0.00     0.016 A 
ATOM     29  C   UNL     1       0.548  -2.013   3.782  1.00  0.00     0.010 A 
ATOM     30  C   UNL     1       2.759  -2.368   4.721  1.00  0.00     0.010 A 
ATOM     31  C   UNL     1       1.409  -2.745   4.610  1.00  0.00    -0.014 A 
BRANCH  31  32
ATOM     32  C   UNL     1       0.824  -3.756   5.524  1.00  0.00     0.031 A 
ATOM     33  C   UNL     1       0.442  -3.322   6.914  1.00  0.00     0.074 A 
ATOM     34  C   UNL     1       0.573  -5.012   5.118  1.00  0.00     0.049 A 
ATOM     35  N   UNL     1      -0.190  -3.987   7.848  1.00  0.00    -0.248 NA
ATOM     36  C   UNL     1       0.823  -1.954   7.301  1.00  0.00     0.031 C 
ATOM     37  C   UNL     1       0.884  -5.557   3.799  1.00  0.00     0.029 A 
ATOM     38  N   UNL     1      -0.017  -6.055   5.786  1.00  0.00    -0.354 N 
ATOM     39  C   UNL     1      -0.297  -3.113   8.922  1.00  0.00     0.074 A 
ATOM     40  C   UNL     1       0.377  -1.890   8.546  1.00  0.00     0.031 C 
ATOM     41  C   UNL     1       0.477  -6.839   3.752  1.00  0.00     0.029 A 
ATOM     42  C   UNL     1      -0.122  -7.200   5.037  1.00  0.00     0.049 A 
ATOM     43  H   UNL     1      -0.335  -5.989   6.716  1.00  0.00     0.167 HD
ATOM     44  C   UNL     1      -0.918  -3.300  10.110  1.00  0.00     0.037 A 
ATOM     45  C   UNL     1      -0.653  -8.397   5.352  1.00  0.00     0.037 A 
ATOM     46  C   UNL     1      -1.584  -4.514  10.496  1.00  0.00     0.049 A 
ATOM     47  C   UNL     1      -1.298  -8.598   6.699  1.00  0.00     0.074 A 
ATOM     48  C   UNL     1      -2.259  -4.792  11.672  1.00  0.00     0.029 A 
ATOM     49  N   UNL     1      -1.649  -5.656   9.715  1.00  0.00    -0.354 N 
ATOM     50  N   UNL     1      -1.457  -7.742   7.679  1.00  0.00    -0.248 NA
ATOM     51  C   UNL     1      -1.856  -9.931   6.973  1.00  0.00     0.031 C 
ATOM     52  C   UNL     1      -2.703  -6.118  11.617  1.00  0.00     0.029 A 
ATOM     53  C   UNL     1      -2.337  -6.650  10.391  1.00  0.00     0.049 A 
ATOM     54  H   UNL     1      -1.264  -5.748   8.814  1.00  0.00     0.167 HD
ATOM     55  C   UNL     1      -2.169  -8.417   8.664  1.00  0.00     0.074 A 
ATOM     56  C   UNL     1      -2.411  -9.754   8.164  1.00  0.00     0.031 C 
ATOM     57  C   UNL     1      -2.591  -7.968   9.871  1.00  0.00     0.037 A 
BRANCH  44  58
ATOM     58  C   UNL     1      -0.894  -2.158  11.078  1.00  0.00     0.057 A 
ATOM     59  C   UNL     1      -1.680  -1.014  10.883  1.00  0.00     0.134 A 
ATOM     60  C   UNL     1      -0.084  -2.202  12.218  1.00  0.00     0.134 A 
ATOM     61  F   UNL     1      -2.463  -0.904   9.799  1.00  0.00    -0.206 F 
ATOM     62  C   UNL     1      -1.644   0.055  11.779  1.00  0.00     0.040 A 
ATOM     63  C   UNL     1      -0.055  -1.148  13.132  1.00  0.00     0.040 A 
ATOM     64  F   UNL     1       0.693  -3.269  12.460  1.00  0.00    -0.206 F 
ATOM     65  C   UNL     1      -0.832  -0.013  12.910  1.00  0.00     0.006 A 
ENDBRANCH  44  58
BRANCH  45  66
ATOM     66  C   UNL     1      -0.635  -9.504   4.365  1.00  0.00     0.057 A 
ATOM     67  C   UNL     1      -1.811  -9.935   3.740  1.00  0.00     0.134 A 
ATOM     68  C   UNL     1       0.548 -10.186   4.059  1.00  0.00     0.134 A 
ATOM     69  F   UNL     1      -2.979  -9.335   4.013  1.00  0.00    -0.206 F 
ATOM     70  C   UNL     1      -1.816 -11.020   2.862  1.00  0.00     0.040 A 
ATOM     71  C   UNL     1       0.561 -11.261   3.168  1.00  0.00     0.040 A 
ATOM     72  F   UNL     1       1.706  -9.821   4.627  1.00  0.00    -0.206 F 
ATOM     73  C   UNL     1      -0.626 -11.685   2.574  1.00  0.00     0.006 A 
ENDBRANCH  45  66
BRANCH  57  74
ATOM     74  C   UNL     1      -3.404  -8.907  10.713  1.00  0.00     0.057 A 
ATOM     75  C   UNL     1      -2.828  -9.997  11.376  1.00  0.00     0.134 A 
ATOM     76  C   UNL     1      -4.776  -8.690  10.893  1.00  0.00     0.134 A 
ATOM     77  F   UNL     1      -1.521 -10.265  11.236  1.00  0.00    -0.206 F 
ATOM     78  C   UNL     1      -3.593 -10.851  12.172  1.00  0.00     0.040 A 
ATOM     79  C   UNL     1      -5.547  -9.523  11.704  1.00  0.00     0.040 A 
ATOM     80  F   UNL     1      -5.387  -7.657  10.292  1.00  0.00    -0.206 F 
ATOM     81  C   UNL     1      -4.956 -10.612  12.342  1.00  0.00     0.006 A 
ENDBRANCH  57  74
ENDBRANCH  31  32
ENDBRANCH  24  26
ENDBRANCH  23  24
ENDBRANCH  22  23
ENDBRANCH   1  22
TORSDOF 14
