REMARK SMILES C/C(=N/OCc1ccccc1Nc1c(Cl)cccc1Cl)C(=O)OCCOC(=O)c1ccc(-c2c3nc(c(-c4c(F)cccc4F)c4ccc([nH]4)c(-c4c(F)cccc4F)c4nc(c(-c5c(F)cccc5F)c5ccc2[nH]5)C=C4)C=C3)cc1
REMARK SMILES IDX 23 1 21 2 22 3 2 4 1 5 3 6 4 7 5 8 6 9 7 10 11 11 8 12 10 13
REMARK SMILES IDX 9 14 12 15 13 17 14 18 19 19 15 20 16 21 18 22 20 23 17 24
REMARK SMILES IDX 24 25 25 26 26 27 27 28 28 29 29 30 30 31 82 32 31 33 81 34
REMARK SMILES IDX 32 35 33 36 34 37 75 38 35 39 80 40 74 41 76 42 36 43 79 44
REMARK SMILES IDX 73 45 72 46 37 48 63 49 46 50 62 51 47 52 50 53 61 54 77 55
REMARK SMILES IDX 48 56 49 57 60 59 78 60 51 61 38 62 39 63 44 64 40 65 41 66
REMARK SMILES IDX 43 67 45 68 42 69 64 70 65 71 70 72 66 73 67 74 69 75 71 76
REMARK SMILES IDX 68 77 52 78 53 79 58 80 54 81 55 82 57 83 59 84 56 85
REMARK H PARENT 12 16 76 47 50 58
REMARK Flexibility Score: inf
ROOT
ATOM      1  O   UNL     1       0.346   1.537  -3.288  1.00  0.00    -0.458 OA
ENDROOT
BRANCH   1   2
ATOM      2  C   UNL     1       1.124   0.726  -2.548  1.00  0.00     0.355 C 
ATOM      3  O   UNL     1       2.342   0.729  -2.480  1.00  0.00    -0.245 OA
BRANCH   2   4
ATOM      4  C   UNL     1       0.281  -0.176  -1.644  1.00  0.00     0.161 C 
ATOM      5  C   UNL     1       0.744  -0.375  -0.229  1.00  0.00     0.079 C 
ATOM      6  N   UNL     1      -0.766  -0.841  -2.025  1.00  0.00    -0.084 NA
BRANCH   6   7
ATOM      7  O   UNL     1      -0.909  -0.788  -3.412  1.00  0.00    -0.390 OA
BRANCH   7   8
ATOM      8  C   UNL     1      -1.581  -1.970  -3.847  1.00  0.00     0.302 C 
BRANCH   8   9
ATOM      9  C   UNL     1      -0.663  -3.170  -4.029  1.00  0.00     0.016 A 
ATOM     10  C   UNL     1       0.532  -3.301  -3.290  1.00  0.00     0.009 A 
ATOM     11  C   UNL     1      -1.042  -4.226  -4.883  1.00  0.00     0.045 A 
ATOM     12  C   UNL     1       1.339  -4.432  -3.384  1.00  0.00     0.001 A 
ATOM     13  C   UNL     1      -0.210  -5.358  -4.968  1.00  0.00     0.026 A 
ATOM     14  C   UNL     1       0.968  -5.463  -4.228  1.00  0.00     0.002 A 
BRANCH  11  15
ATOM     15  N   UNL     1      -2.261  -4.156  -5.592  1.00  0.00    -0.353 N 
ATOM     16  H   UNL     1      -2.703  -3.277  -5.576  1.00  0.00     0.167 HD
BRANCH  15  17
ATOM     17  C   UNL     1      -2.942  -5.157  -6.322  1.00  0.00     0.076 A 
ATOM     18  C   UNL     1      -3.208  -4.931  -7.689  1.00  0.00     0.066 A 
ATOM     19  C   UNL     1      -3.299  -6.407  -5.784  1.00  0.00     0.066 A 
ATOM     20  Cl  UNL     1      -2.837  -3.402  -8.419  1.00  0.00    -0.082 Cl
ATOM     21  C   UNL     1      -3.766  -5.922  -8.497  1.00  0.00     0.023 A 
ATOM     22  C   UNL     1      -3.855  -7.402  -6.596  1.00  0.00     0.023 A 
ATOM     23  Cl  UNL     1      -3.166  -6.760  -4.093  1.00  0.00    -0.082 Cl
ATOM     24  C   UNL     1      -4.077  -7.164  -7.952  1.00  0.00     0.003 A 
ENDBRANCH  15  17
ENDBRANCH  11  15
ENDBRANCH   8   9
ENDBRANCH   7   8
ENDBRANCH   6   7
ENDBRANCH   2   4
ENDBRANCH   1   2
BRANCH   1  25
ATOM     25  C   UNL     1       0.985   2.567  -4.064  1.00  0.00     0.275 C 
BRANCH  25  26
ATOM     26  C   UNL     1       0.538   3.936  -3.549  1.00  0.00     0.275 C 
BRANCH  26  27
ATOM     27  O   UNL     1       1.142   4.207  -2.269  1.00  0.00    -0.458 OA
BRANCH  27  28
ATOM     28  C   UNL     1       0.423   3.784  -1.207  1.00  0.00     0.338 C 
ATOM     29  O   UNL     1      -0.683   3.273  -1.204  1.00  0.00    -0.246 OA
BRANCH  28  30
ATOM     30  C   UNL     1       1.239   3.865   0.005  1.00  0.00     0.060 A 
ATOM     31  C   UNL     1       1.891   2.706   0.414  1.00  0.00     0.016 A 
ATOM     32  C   UNL     1       1.218   4.988   0.823  1.00  0.00     0.016 A 
ATOM     33  C   UNL     1       2.410   2.608   1.695  1.00  0.00     0.010 A 
ATOM     34  C   UNL     1       1.851   4.929   2.069  1.00  0.00     0.010 A 
ATOM     35  C   UNL     1       2.417   3.726   2.534  1.00  0.00    -0.014 A 
BRANCH  35  36
ATOM     36  C   UNL     1       3.006   3.622   3.894  1.00  0.00     0.031 A 
ATOM     37  C   UNL     1       2.165   3.910   5.108  1.00  0.00     0.074 A 
ATOM     38  C   UNL     1       4.294   3.252   4.040  1.00  0.00     0.049 A 
ATOM     39  N   UNL     1       2.532   4.030   6.358  1.00  0.00    -0.248 NA
ATOM     40  C   UNL     1       0.724   4.101   4.884  1.00  0.00     0.031 C 
ATOM     41  C   UNL     1       5.203   2.892   2.949  1.00  0.00     0.029 A 
ATOM     42  N   UNL     1       5.064   3.115   5.167  1.00  0.00    -0.354 N 
ATOM     43  C   UNL     1       1.379   4.358   7.062  1.00  0.00     0.074 A 
ATOM     44  C   UNL     1       0.303   4.433   6.097  1.00  0.00     0.031 C 
ATOM     45  C   UNL     1       6.393   2.546   3.460  1.00  0.00     0.029 A 
ATOM     46  C   UNL     1       6.362   2.752   4.902  1.00  0.00     0.049 A 
ATOM     47  H   UNL     1       4.720   3.262   6.078  1.00  0.00     0.167 HD
ATOM     48  C   UNL     1       1.235   4.575   8.391  1.00  0.00     0.037 A 
ATOM     49  C   UNL     1       7.426   2.645   5.719  1.00  0.00     0.037 A 
ATOM     50  C   UNL     1       2.308   4.462   9.347  1.00  0.00     0.049 A 
ATOM     51  C   UNL     1       7.255   2.952   7.178  1.00  0.00     0.074 A 
ATOM     52  C   UNL     1       2.265   4.648  10.718  1.00  0.00     0.029 A 
ATOM     53  N   UNL     1       3.617   4.127   9.030  1.00  0.00    -0.354 N 
ATOM     54  N   UNL     1       6.169   3.296   7.827  1.00  0.00    -0.248 NA
ATOM     55  C   UNL     1       8.458   2.871   8.014  1.00  0.00     0.031 C 
ATOM     56  C   UNL     1       3.558   4.475  11.223  1.00  0.00     0.029 A 
ATOM     57  C   UNL     1       4.395   4.124  10.177  1.00  0.00     0.049 A 
ATOM     58  H   UNL     1       3.944   3.922   8.125  1.00  0.00     0.167 HD
ATOM     59  C   UNL     1       6.553   3.449   9.152  1.00  0.00     0.074 A 
ATOM     60  C   UNL     1       7.968   3.143   9.215  1.00  0.00     0.031 C 
ATOM     61  C   UNL     1       5.801   3.811  10.221  1.00  0.00     0.037 A 
BRANCH  48  62
ATOM     62  C   UNL     1      -0.121   4.994   8.886  1.00  0.00     0.057 A 
ATOM     63  C   UNL     1      -1.213   4.117   8.912  1.00  0.00     0.134 A 
ATOM     64  C   UNL     1      -0.328   6.294   9.368  1.00  0.00     0.134 A 
ATOM     65  F   UNL     1      -1.089   2.863   8.454  1.00  0.00    -0.206 F 
ATOM     66  C   UNL     1      -2.467   4.526   9.373  1.00  0.00     0.040 A 
ATOM     67  C   UNL     1      -1.568   6.705   9.859  1.00  0.00     0.040 A 
ATOM     68  F   UNL     1       0.676   7.184   9.379  1.00  0.00    -0.206 F 
ATOM     69  C   UNL     1      -2.645   5.821   9.855  1.00  0.00     0.006 A 
ENDBRANCH  48  62
BRANCH  49  70
ATOM     70  C   UNL     1       8.752   2.268   5.165  1.00  0.00     0.057 A 
ATOM     71  C   UNL     1       9.353   1.048   5.492  1.00  0.00     0.134 A 
ATOM     72  C   UNL     1       9.450   3.117   4.295  1.00  0.00     0.134 A 
ATOM     73  F   UNL     1       8.745   0.201   6.335  1.00  0.00    -0.206 F 
ATOM     74  C   UNL     1      10.604   0.691   4.987  1.00  0.00     0.040 A 
ATOM     75  C   UNL     1      10.686   2.760   3.757  1.00  0.00     0.040 A 
ATOM     76  F   UNL     1       8.927   4.299   3.937  1.00  0.00    -0.206 F 
ATOM     77  C   UNL     1      11.271   1.546   4.110  1.00  0.00     0.006 A 
ENDBRANCH  49  70
BRANCH  61  78
ATOM     78  C   UNL     1       6.489   3.851  11.554  1.00  0.00     0.057 A 
ATOM     79  C   UNL     1       7.419   4.846  11.880  1.00  0.00     0.134 A 
ATOM     80  C   UNL     1       6.195   2.894  12.534  1.00  0.00     0.134 A 
ATOM     81  F   UNL     1       7.757   5.783  10.981  1.00  0.00    -0.206 F 
ATOM     82  C   UNL     1       8.051   4.872  13.124  1.00  0.00     0.040 A 
ATOM     83  C   UNL     1       6.798   2.927  13.791  1.00  0.00     0.040 A 
ATOM     84  F   UNL     1       5.308   1.918  12.288  1.00  0.00    -0.206 F 
ATOM     85  C   UNL     1       7.735   3.915  14.086  1.00  0.00     0.006 A 
ENDBRANCH  61  78
ENDBRANCH  35  36
ENDBRANCH  28  30
ENDBRANCH  27  28
ENDBRANCH  26  27
ENDBRANCH  25  26
ENDBRANCH   1  25
TORSDOF 16
