REMARK SMILES O=C(CCN1C(=O)/C(=C\c2ccc(-c3cccc(Cl)c3)o2)SC1=S)OCCOC(=O)c1ccc(-c2c3nc(c(-c4c(F)cccc4F)c4ccc([nH]4)c(-c4c(F)cccc4F)c4nc(c(-c5c(F)cccc5F)c5ccc2[nH]5)C=C4)C=C3)cc1
REMARK SMILES IDX 26 1 25 2 2 3 1 4 3 5 4 6 5 7 6 8 23 9 7 10 8 11 22 12 24 13
REMARK SMILES IDX 9 14 10 15 11 16 21 17 12 18 13 19 14 20 15 21 20 22 16 23
REMARK SMILES IDX 18 24 17 25 19 26 27 27 28 28 29 29 30 30 31 31 32 32 84 33
REMARK SMILES IDX 33 34 83 35 34 36 35 37 36 38 77 39 37 40 82 41 76 42 78 43
REMARK SMILES IDX 38 44 81 45 75 46 74 47 39 49 65 50 48 51 64 52 49 53 52 54
REMARK SMILES IDX 63 55 79 56 50 57 51 58 62 60 80 61 53 62 40 63 41 64 46 65
REMARK SMILES IDX 42 66 43 67 45 68 47 69 44 70 66 71 67 72 72 73 68 74 69 75
REMARK SMILES IDX 71 76 73 77 70 78 54 79 55 80 60 81 56 82 57 83 59 84 61 85
REMARK SMILES IDX 58 86
REMARK H PARENT 78 48 52 59
REMARK Flexibility Score: inf
ROOT
ATOM      1  C   UNL     1       4.253  -0.955  -0.875  1.00  0.00     0.274 C 
ENDROOT
BRANCH   1   2
ATOM      2  O   UNL     1       2.937  -0.953  -0.278  1.00  0.00    -0.462 OA
BRANCH   2   3
ATOM      3  C   UNL     1       2.470  -0.094   0.655  1.00  0.00     0.307 C 
ATOM      4  O   UNL     1       1.333  -0.221   1.105  1.00  0.00    -0.252 OA
BRANCH   3   5
ATOM      5  C   UNL     1       3.355   1.011   1.165  1.00  0.00     0.144 C 
BRANCH   5   6
ATOM      6  C   UNL     1       3.961   0.665   2.525  1.00  0.00     0.139 C 
BRANCH   6   7
ATOM      7  N   UNL     1       5.110  -0.239   2.405  1.00  0.00    -0.292 N 
ATOM      8  C   UNL     1       6.306   0.294   1.945  1.00  0.00     0.266 C 
ATOM      9  C   UNL     1       5.085  -1.597   2.638  1.00  0.00     0.148 C 
ATOM     10  O   UNL     1       6.468   1.471   1.658  1.00  0.00    -0.268 OA
ATOM     11  C   UNL     1       7.313  -0.785   1.732  1.00  0.00     0.084 C 
ATOM     12  S   UNL     1       6.597  -2.314   2.090  1.00  0.00    -0.054 SA
ATOM     13  S   UNL     1       3.861  -2.510   3.300  1.00  0.00    -0.052 S 
ATOM     14  C   UNL     1       8.578  -0.659   1.307  1.00  0.00     0.068 C 
BRANCH  14  15
ATOM     15  C   UNL     1       9.248   0.589   1.196  1.00  0.00     0.128 A 
ATOM     16  C   UNL     1       9.387   1.579   2.164  1.00  0.00     0.051 A 
ATOM     17  O   UNL     1       9.971   0.982   0.088  1.00  0.00    -0.457 OA
ATOM     18  C   UNL     1      10.202   2.596   1.633  1.00  0.00     0.051 A 
ATOM     19  C   UNL     1      10.536   2.192   0.363  1.00  0.00     0.134 A 
BRANCH  19  20
ATOM     20  C   UNL     1      11.372   2.794  -0.658  1.00  0.00     0.019 A 
ATOM     21  C   UNL     1      12.681   3.180  -0.334  1.00  0.00     0.012 A 
ATOM     22  C   UNL     1      10.866   3.090  -1.928  1.00  0.00     0.032 A 
ATOM     23  C   UNL     1      13.472   3.867  -1.257  1.00  0.00     0.002 A 
ATOM     24  C   UNL     1      11.655   3.790  -2.842  1.00  0.00     0.041 A 
ATOM     25  C   UNL     1      12.953   4.181  -2.511  1.00  0.00     0.020 A 
ATOM     26  Cl  UNL     1      11.013   4.206  -4.384  1.00  0.00    -0.084 Cl
ENDBRANCH  19  20
ENDBRANCH  14  15
ENDBRANCH   6   7
ENDBRANCH   5   6
ENDBRANCH   3   5
ENDBRANCH   2   3
ENDBRANCH   1   2
BRANCH   1  27
ATOM     27  C   UNL     1       4.263  -0.318  -2.261  1.00  0.00     0.275 C 
BRANCH  27  28
ATOM     28  O   UNL     1       3.918   1.071  -2.151  1.00  0.00    -0.458 OA
BRANCH  28  29
ATOM     29  C   UNL     1       2.609   1.347  -2.382  1.00  0.00     0.338 C 
ATOM     30  O   UNL     1       1.762   0.583  -2.792  1.00  0.00    -0.246 OA
BRANCH  29  31
ATOM     31  C   UNL     1       2.311   2.710  -1.893  1.00  0.00     0.060 A 
ATOM     32  C   UNL     1       1.072   2.918  -1.276  1.00  0.00     0.016 A 
ATOM     33  C   UNL     1       3.215   3.766  -2.045  1.00  0.00     0.016 A 
ATOM     34  C   UNL     1       0.711   4.196  -0.856  1.00  0.00     0.010 A 
ATOM     35  C   UNL     1       2.851   5.047  -1.625  1.00  0.00     0.010 A 
ATOM     36  C   UNL     1       1.584   5.272  -1.062  1.00  0.00    -0.014 A 
BRANCH  36  37
ATOM     37  C   UNL     1       1.110   6.656  -0.834  1.00  0.00     0.031 A 
ATOM     38  C   UNL     1       0.596   7.445  -2.004  1.00  0.00     0.074 A 
ATOM     39  C   UNL     1       1.125   7.196   0.397  1.00  0.00     0.049 A 
ATOM     40  N   UNL     1       0.134   8.668  -2.042  1.00  0.00    -0.248 NA
ATOM     41  C   UNL     1       0.606   6.763  -3.309  1.00  0.00     0.031 C 
ATOM     42  C   UNL     1       1.583   6.524   1.611  1.00  0.00     0.029 A 
ATOM     43  N   UNL     1       0.747   8.444   0.822  1.00  0.00    -0.354 N 
ATOM     44  C   UNL     1      -0.206   8.900  -3.368  1.00  0.00     0.074 A 
ATOM     45  C   UNL     1       0.137   7.707  -4.111  1.00  0.00     0.031 C 
ATOM     46  C   UNL     1       1.469   7.373   2.647  1.00  0.00     0.029 A 
ATOM     47  C   UNL     1       0.948   8.651   2.164  1.00  0.00     0.049 A 
ATOM     48  H   UNL     1       0.368   9.126   0.222  1.00  0.00     0.167 HD
ATOM     49  C   UNL     1      -0.768  10.003  -3.915  1.00  0.00     0.037 A 
ATOM     50  C   UNL     1       0.744   9.753   2.910  1.00  0.00     0.037 A 
ATOM     51  C   UNL     1      -1.102  11.192  -3.180  1.00  0.00     0.049 A 
ATOM     52  C   UNL     1       0.180  10.991   2.265  1.00  0.00     0.074 A 
ATOM     53  C   UNL     1      -1.693  12.355  -3.641  1.00  0.00     0.029 A 
ATOM     54  N   UNL     1      -0.862  11.373  -1.826  1.00  0.00    -0.354 N 
ATOM     55  N   UNL     1      -0.183  11.184   1.020  1.00  0.00    -0.248 NA
ATOM     56  C   UNL     1      -0.008  12.164   3.132  1.00  0.00     0.031 C 
ATOM     57  C   UNL     1      -1.772  13.257  -2.574  1.00  0.00     0.029 A 
ATOM     58  C   UNL     1      -1.270  12.638  -1.440  1.00  0.00     0.049 A 
ATOM     59  H   UNL     1      -0.461  10.701  -1.229  1.00  0.00     0.167 HD
ATOM     60  C   UNL     1      -0.670  12.484   0.961  1.00  0.00     0.074 A 
ATOM     61  C   UNL     1      -0.562  13.032   2.297  1.00  0.00     0.031 C 
ATOM     62  C   UNL     1      -1.165  13.163  -0.103  1.00  0.00     0.037 A 
BRANCH  49  63
ATOM     63  C   UNL     1      -1.042   9.973  -5.389  1.00  0.00     0.057 A 
ATOM     64  C   UNL     1      -2.084   9.208  -5.928  1.00  0.00     0.134 A 
ATOM     65  C   UNL     1      -0.269  10.732  -6.275  1.00  0.00     0.134 A 
ATOM     66  F   UNL     1      -2.850   8.446  -5.132  1.00  0.00    -0.206 F 
ATOM     67  C   UNL     1      -2.335   9.183  -7.301  1.00  0.00     0.040 A 
ATOM     68  C   UNL     1      -0.524  10.733  -7.647  1.00  0.00     0.040 A 
ATOM     69  F   UNL     1       0.743  11.487  -5.822  1.00  0.00    -0.206 F 
ATOM     70  C   UNL     1      -1.557   9.952  -8.164  1.00  0.00     0.006 A 
ENDBRANCH  49  63
BRANCH  50  71
ATOM     71  C   UNL     1       1.073   9.743   4.357  1.00  0.00     0.057 A 
ATOM     72  C   UNL     1       0.067   9.777   5.329  1.00  0.00     0.134 A 
ATOM     73  C   UNL     1       2.400   9.726   4.801  1.00  0.00     0.134 A 
ATOM     74  F   UNL     1      -1.223   9.818   4.963  1.00  0.00    -0.206 F 
ATOM     75  C   UNL     1       0.368   9.813   6.691  1.00  0.00     0.040 A 
ATOM     76  C   UNL     1       2.716   9.741   6.160  1.00  0.00     0.040 A 
ATOM     77  F   UNL     1       3.410   9.693   3.918  1.00  0.00    -0.206 F 
ATOM     78  C   UNL     1       1.698   9.792   7.109  1.00  0.00     0.006 A 
ENDBRANCH  50  71
BRANCH  62  79
ATOM     79  C   UNL     1      -1.660  14.558   0.139  1.00  0.00     0.057 A 
ATOM     80  C   UNL     1      -0.782  15.628   0.346  1.00  0.00     0.134 A 
ATOM     81  C   UNL     1      -3.032  14.840   0.115  1.00  0.00     0.134 A 
ATOM     82  F   UNL     1       0.543  15.422   0.392  1.00  0.00    -0.206 F 
ATOM     83  C   UNL     1      -1.251  16.929   0.538  1.00  0.00     0.040 A 
ATOM     84  C   UNL     1      -3.512  16.140   0.282  1.00  0.00     0.040 A 
ATOM     85  F   UNL     1      -3.926  13.861  -0.088  1.00  0.00    -0.206 F 
ATOM     86  C   UNL     1      -2.620  17.188   0.499  1.00  0.00     0.006 A 
ENDBRANCH  62  79
ENDBRANCH  36  37
ENDBRANCH  29  31
ENDBRANCH  28  29
ENDBRANCH  27  28
ENDBRANCH   1  27
TORSDOF 15
