REMARK SMILES CC[C@H](C)[C@@H](NC(=O)[C@@H]1CCCN1C(=O)C1CC1)C(=O)OCCOC(=O)c1ccc(-c2c3nc(c(-c4c(F)cccc4F)c4ccc([nH]4)c(-c4c(F)cccc4F)c4nc(c(-c5c(F)cccc5F)c5ccc2[nH]5)C=C4)C=C3)cc1
REMARK SMILES IDX 22 1 21 2 19 3 20 4 5 5 3 6 4 7 2 8 1 9 6 10 7 11 8 13 9 14
REMARK SMILES IDX 10 15 13 16 11 17 12 18 14 19 15 20 16 21 17 22 18 23 23 24
REMARK SMILES IDX 24 25 25 26 26 27 27 28 28 29 80 30 29 31 79 32 30 33 31 34
REMARK SMILES IDX 32 35 73 36 33 37 78 38 72 39 74 40 34 41 77 42 71 43 70 44
REMARK SMILES IDX 35 46 61 47 44 48 60 49 45 50 48 51 59 52 75 53 46 54 47 55
REMARK SMILES IDX 58 57 76 58 49 59 36 60 37 61 42 62 38 63 39 64 41 65 43 66
REMARK SMILES IDX 40 67 62 68 63 69 68 70 64 71 65 72 67 73 69 74 66 75 50 76
REMARK SMILES IDX 51 77 56 78 52 79 53 80 55 81 57 82 54 83
REMARK H PARENT 6 12 74 45 48 56
REMARK Flexibility Score: inf
ROOT
ATOM      1  C   UNL     1       2.687   5.658  -2.812  1.00  0.00     0.274 C 
ENDROOT
BRANCH   1   2
ATOM      2  O   UNL     1       2.527   4.521  -1.934  1.00  0.00    -0.461 OA
BRANCH   2   3
ATOM      3  C   UNL     1       1.395   4.526  -1.188  1.00  0.00     0.329 C 
ATOM      4  O   UNL     1       0.484   5.337  -1.318  1.00  0.00    -0.250 OA
BRANCH   3   5
ATOM      5  C   UNL     1       1.415   3.550  -0.006  1.00  0.00     0.195 C 
BRANCH   5   6
ATOM      6  C   UNL     1       1.605   2.051  -0.403  1.00  0.00     0.019 C 
ATOM      7  C   UNL     1       0.961   1.159   0.676  1.00  0.00     0.010 C 
BRANCH   6   8
ATOM      8  C   UNL     1       1.017   1.701  -1.787  1.00  0.00     0.002 C 
ATOM      9  C   UNL     1       1.166   0.242  -2.200  1.00  0.00     0.004 C 
ENDBRANCH   6   8
ENDBRANCH   5   6
BRANCH   5  10
ATOM     10  N   UNL     1       2.353   3.937   1.085  1.00  0.00    -0.341 N 
ATOM     11  C   UNL     1       2.465   5.112   1.801  1.00  0.00     0.243 C 
ATOM     12  H   UNL     1       3.000   3.239   1.337  1.00  0.00     0.164 HD
ATOM     13  O   UNL     1       2.877   5.021   2.960  1.00  0.00    -0.273 OA
BRANCH  11  14
ATOM     14  C   UNL     1       2.344   6.471   1.072  1.00  0.00     0.174 C 
ATOM     15  C   UNL     1       3.816   6.783   0.710  1.00  0.00     0.037 C 
ATOM     16  N   UNL     1       1.877   7.757   1.616  1.00  0.00    -0.330 N 
ATOM     17  C   UNL     1       3.783   8.214   0.232  1.00  0.00     0.024 C 
ATOM     18  C   UNL     1       2.715   8.844   1.106  1.00  0.00     0.120 C 
BRANCH  16  19
ATOM     19  C   UNL     1       0.641   8.163   2.116  1.00  0.00     0.226 C 
ATOM     20  O   UNL     1       0.374   9.364   2.196  1.00  0.00    -0.275 OA
BRANCH  19  21
ATOM     21  C   UNL     1      -0.425   7.254   2.618  1.00  0.00     0.079 C 
ATOM     22  C   UNL     1      -0.689   5.833   2.244  1.00  0.00     0.014 C 
ATOM     23  C   UNL     1      -0.127   6.156   3.602  1.00  0.00     0.014 C 
ENDBRANCH  19  21
ENDBRANCH  16  19
ENDBRANCH  11  14
ENDBRANCH   5  10
ENDBRANCH   3   5
ENDBRANCH   2   3
ENDBRANCH   1   2
BRANCH   1  24
ATOM     24  C   UNL     1       1.994   5.515  -4.172  1.00  0.00     0.275 C 
BRANCH  24  25
ATOM     25  O   UNL     1       0.566   5.668  -4.064  1.00  0.00    -0.458 OA
BRANCH  25  26
ATOM     26  C   UNL     1      -0.151   4.526  -4.148  1.00  0.00     0.338 C 
ATOM     27  O   UNL     1       0.269   3.404  -4.390  1.00  0.00    -0.246 OA
BRANCH  26  28
ATOM     28  C   UNL     1      -1.555   4.776  -3.792  1.00  0.00     0.060 A 
ATOM     29  C   UNL     1      -2.042   4.257  -2.586  1.00  0.00     0.016 A 
ATOM     30  C   UNL     1      -2.415   5.402  -4.693  1.00  0.00     0.016 A 
ATOM     31  C   UNL     1      -3.394   4.346  -2.277  1.00  0.00     0.010 A 
ATOM     32  C   UNL     1      -3.777   5.478  -4.391  1.00  0.00     0.010 A 
ATOM     33  C   UNL     1      -4.272   4.929  -3.194  1.00  0.00    -0.014 A 
BRANCH  33  34
ATOM     34  C   UNL     1      -5.729   4.854  -2.961  1.00  0.00     0.031 A 
ATOM     35  C   UNL     1      -6.517   3.777  -3.645  1.00  0.00     0.074 A 
ATOM     36  C   UNL     1      -6.332   5.732  -2.143  1.00  0.00     0.049 A 
ATOM     37  N   UNL     1      -7.812   3.605  -3.700  1.00  0.00    -0.248 NA
ATOM     38  C   UNL     1      -5.740   2.754  -4.365  1.00  0.00     0.031 C 
ATOM     39  C   UNL     1      -5.654   6.772  -1.372  1.00  0.00     0.029 A 
ATOM     40  N   UNL     1      -7.659   5.896  -1.841  1.00  0.00    -0.354 N 
ATOM     41  C   UNL     1      -8.007   2.474  -4.480  1.00  0.00     0.074 A 
ATOM     42  C   UNL     1      -6.700   1.997  -4.876  1.00  0.00     0.031 C 
ATOM     43  C   UNL     1      -6.574   7.484  -0.700  1.00  0.00     0.029 A 
ATOM     44  C   UNL     1      -7.904   6.976  -1.031  1.00  0.00     0.049 A 
ATOM     45  H   UNL     1      -8.367   5.297  -2.173  1.00  0.00     0.167 HD
ATOM     46  C   UNL     1      -9.176   1.892  -4.837  1.00  0.00     0.037 A 
ATOM     47  C   UNL     1      -9.073   7.514  -0.638  1.00  0.00     0.037 A 
ATOM     48  C   UNL     1     -10.470   2.371  -4.433  1.00  0.00     0.049 A 
ATOM     49  C   UNL     1     -10.360   6.892  -1.107  1.00  0.00     0.074 A 
ATOM     50  C   UNL     1     -11.717   1.855  -4.739  1.00  0.00     0.029 A 
ATOM     51  N   UNL     1     -10.680   3.484  -3.633  1.00  0.00    -0.354 N 
ATOM     52  N   UNL     1     -10.540   5.837  -1.864  1.00  0.00    -0.248 NA
ATOM     53  C   UNL     1     -11.605   7.544  -0.676  1.00  0.00     0.031 C 
ATOM     54  C   UNL     1     -12.684   2.677  -4.149  1.00  0.00     0.029 A 
ATOM     55  C   UNL     1     -12.037   3.683  -3.448  1.00  0.00     0.049 A 
ATOM     56  H   UNL     1      -9.969   4.049  -3.253  1.00  0.00     0.167 HD
ATOM     57  C   UNL     1     -11.915   5.686  -1.986  1.00  0.00     0.074 A 
ATOM     58  C   UNL     1     -12.522   6.753  -1.216  1.00  0.00     0.031 C 
ATOM     59  C   UNL     1     -12.614   4.750  -2.672  1.00  0.00     0.037 A 
BRANCH  46  60
ATOM     60  C   UNL     1      -9.101   0.700  -5.741  1.00  0.00     0.057 A 
ATOM     61  C   UNL     1      -8.701  -0.559  -5.277  1.00  0.00     0.134 A 
ATOM     62  C   UNL     1      -9.447   0.813  -7.094  1.00  0.00     0.134 A 
ATOM     63  F   UNL     1      -8.338  -0.727  -3.997  1.00  0.00    -0.206 F 
ATOM     64  C   UNL     1      -8.634  -1.661  -6.130  1.00  0.00     0.040 A 
ATOM     65  C   UNL     1      -9.402  -0.286  -7.952  1.00  0.00     0.040 A 
ATOM     66  F   UNL     1      -9.835   1.993  -7.601  1.00  0.00    -0.206 F 
ATOM     67  C   UNL     1      -8.990  -1.527  -7.471  1.00  0.00     0.006 A 
ENDBRANCH  46  60
BRANCH  47  68
ATOM     68  C   UNL     1      -9.081   8.726   0.215  1.00  0.00     0.057 A 
ATOM     69  C   UNL     1      -9.473   8.664   1.556  1.00  0.00     0.134 A 
ATOM     70  C   UNL     1      -8.700   9.975  -0.291  1.00  0.00     0.134 A 
ATOM     71  F   UNL     1      -9.872   7.500   2.089  1.00  0.00    -0.206 F 
ATOM     72  C   UNL     1      -9.496   9.803   2.363  1.00  0.00     0.040 A 
ATOM     73  C   UNL     1      -8.697  11.117   0.509  1.00  0.00     0.040 A 
ATOM     74  F   UNL     1      -8.316  10.098  -1.571  1.00  0.00    -0.206 F 
ATOM     75  C   UNL     1      -9.101  11.034   1.840  1.00  0.00     0.006 A 
ENDBRANCH  47  68
BRANCH  59  76
ATOM     76  C   UNL     1     -14.108   4.823  -2.594  1.00  0.00     0.057 A 
ATOM     77  C   UNL     1     -14.837   5.772  -3.321  1.00  0.00     0.134 A 
ATOM     78  C   UNL     1     -14.826   3.910  -1.811  1.00  0.00     0.134 A 
ATOM     79  F   UNL     1     -14.204   6.681  -4.078  1.00  0.00    -0.206 F 
ATOM     80  C   UNL     1     -16.230   5.820  -3.260  1.00  0.00     0.040 A 
ATOM     81  C   UNL     1     -16.219   3.937  -1.757  1.00  0.00     0.040 A 
ATOM     82  F   UNL     1     -14.184   2.973  -1.097  1.00  0.00    -0.206 F 
ATOM     83  C   UNL     1     -16.925   4.897  -2.480  1.00  0.00     0.006 A 
ENDBRANCH  59  76
ENDBRANCH  33  34
ENDBRANCH  26  28
ENDBRANCH  25  26
ENDBRANCH  24  25
ENDBRANCH   1  24
TORSDOF 17
