REMARK SMILES C[NH2+][C@@]1(C(=O)OCCOC(=O)c2ccc(-c3c4nc(c(-c5c(F)cccc5F)c5ccc([nH]5)c(-c5c(F)cccc5F)c5nc(c(-c6c(F)cccc6F)c6ccc3[nH]6)C=C5)C=C4)cc2)CCC[C@H](Oc2cccc(OC)c2)C1
REMARK SMILES IDX 7 1 6 2 4 3 5 4 3 5 66 6 79 7 67 8 69 9 68 10 2 11 1 12
REMARK SMILES IDX 70 15 71 16 72 17 78 18 73 19 75 20 74 21 76 22 77 23 8 24
REMARK SMILES IDX 9 25 10 26 11 27 12 28 13 29 65 30 14 31 64 32 15 33 16 34
REMARK SMILES IDX 17 35 58 36 18 37 63 38 57 39 59 40 19 41 62 42 56 43 55 44
REMARK SMILES IDX 20 46 46 47 29 48 45 49 30 50 33 51 44 52 60 53 31 54 32 55
REMARK SMILES IDX 43 57 61 58 34 59 21 60 22 61 27 62 23 63 24 64 26 65 28 66
REMARK SMILES IDX 25 67 47 68 48 69 53 70 49 71 50 72 52 73 54 74 51 75 35 76
REMARK SMILES IDX 36 77 41 78 37 79 38 80 40 81 42 82 39 83
REMARK H PARENT 2 13 2 14 59 45 33 56
REMARK Flexibility Score: inf
ROOT
ATOM      1  C   UNL     1      -2.623  -1.252  -3.825  1.00  0.00     0.274 C 
ENDROOT
BRANCH   1   2
ATOM      2  O   UNL     1      -2.212  -0.787  -2.523  1.00  0.00    -0.457 OA
BRANCH   2   3
ATOM      3  C   UNL     1      -1.502  -1.656  -1.764  1.00  0.00     0.368 C 
ATOM      4  O   UNL     1      -1.073  -2.726  -2.191  1.00  0.00    -0.245 OA
BRANCH   3   5
ATOM      5  C   UNL     1      -1.219  -1.134  -0.303  1.00  0.00     0.197 C 
ATOM      6  C   UNL     1      -1.588  -2.319   0.620  1.00  0.00     0.081 C 
ATOM      7  C   UNL     1      -2.008   0.140   0.116  1.00  0.00     0.126 C 
ATOM      8  C   UNL     1      -3.098  -2.540   0.664  1.00  0.00     0.011 C 
ATOM      9  C   UNL     1      -3.523  -0.047   0.361  1.00  0.00     0.180 C 
ATOM     10  C   UNL     1      -3.798  -1.301   1.203  1.00  0.00     0.046 C 
BRANCH   5  11
ATOM     11  N   UNL     1       0.261  -0.900  -0.255  1.00  0.00    -0.334 N 
ATOM     12  C   UNL     1       0.804  -0.280   0.943  1.00  0.00     0.331 C 
ATOM     13  H   UNL     1       0.717  -1.806  -0.364  1.00  0.00     0.347 HD
ATOM     14  H   UNL     1       0.442  -0.228  -1.001  1.00  0.00     0.347 HD
ENDBRANCH   5  11
BRANCH   9  15
ATOM     15  O   UNL     1      -4.148  -0.105  -0.916  1.00  0.00    -0.490 OA
BRANCH  15  16
ATOM     16  C   UNL     1      -5.475   0.158  -1.069  1.00  0.00     0.123 A 
ATOM     17  C   UNL     1      -6.425   0.278  -0.061  1.00  0.00     0.047 A 
ATOM     18  C   UNL     1      -5.877   0.240  -2.407  1.00  0.00     0.092 A 
ATOM     19  C   UNL     1      -7.777   0.389  -0.395  1.00  0.00     0.008 A 
ATOM     20  C   UNL     1      -7.221   0.352  -2.751  1.00  0.00     0.122 A 
ATOM     21  C   UNL     1      -8.172   0.408  -1.734  1.00  0.00     0.046 A 
BRANCH  20  22
ATOM     22  O   UNL     1      -7.718   0.394  -4.024  1.00  0.00    -0.497 OA
ATOM     23  C   UNL     1      -6.766   0.368  -5.082  1.00  0.00     0.278 C 
ENDBRANCH  20  22
ENDBRANCH  15  16
ENDBRANCH   9  15
ENDBRANCH   3   5
ENDBRANCH   2   3
ENDBRANCH   1   2
BRANCH   1  24
ATOM     24  C   UNL     1      -2.364  -0.153  -4.847  1.00  0.00     0.275 C 
BRANCH  24  25
ATOM     25  O   UNL     1      -0.941  -0.019  -4.993  1.00  0.00    -0.458 OA
BRANCH  25  26
ATOM     26  C   UNL     1      -0.386   1.014  -4.331  1.00  0.00     0.338 C 
ATOM     27  O   UNL     1      -0.943   1.962  -3.797  1.00  0.00    -0.246 OA
BRANCH  26  28
ATOM     28  C   UNL     1       1.060   0.790  -4.252  1.00  0.00     0.060 A 
ATOM     29  C   UNL     1       1.538  -0.248  -3.453  1.00  0.00     0.016 A 
ATOM     30  C   UNL     1       1.939   1.675  -4.870  1.00  0.00     0.016 A 
ATOM     31  C   UNL     1       2.899  -0.341  -3.183  1.00  0.00     0.010 A 
ATOM     32  C   UNL     1       3.313   1.504  -4.691  1.00  0.00     0.010 A 
ATOM     33  C   UNL     1       3.809   0.517  -3.818  1.00  0.00    -0.014 A 
BRANCH  33  34
ATOM     34  C   UNL     1       5.273   0.404  -3.564  1.00  0.00     0.031 A 
ATOM     35  C   UNL     1       6.050   1.595  -3.070  1.00  0.00     0.074 A 
ATOM     36  C   UNL     1       5.917  -0.760  -3.785  1.00  0.00     0.049 A 
ATOM     37  N   UNL     1       7.345   1.778  -3.023  1.00  0.00    -0.248 NA
ATOM     38  C   UNL     1       5.265   2.742  -2.586  1.00  0.00     0.031 C 
ATOM     39  C   UNL     1       5.293  -2.009  -4.224  1.00  0.00     0.029 A 
ATOM     40  N   UNL     1       7.247  -1.081  -3.666  1.00  0.00    -0.354 N 
ATOM     41  C   UNL     1       7.528   3.081  -2.578  1.00  0.00     0.074 A 
ATOM     42  C   UNL     1       6.212   3.641  -2.355  1.00  0.00     0.031 C 
ATOM     43  C   UNL     1       6.226  -2.969  -4.292  1.00  0.00     0.029 A 
ATOM     44  C   UNL     1       7.528  -2.384  -3.997  1.00  0.00     0.049 A 
ATOM     45  H   UNL     1       7.933  -0.438  -3.372  1.00  0.00     0.167 HD
ATOM     46  C   UNL     1       8.690   3.751  -2.385  1.00  0.00     0.037 A 
ATOM     47  C   UNL     1       8.705  -3.029  -4.099  1.00  0.00     0.037 A 
ATOM     48  C   UNL     1       9.997   3.168  -2.540  1.00  0.00     0.049 A 
ATOM     49  C   UNL     1       9.978  -2.274  -3.863  1.00  0.00     0.074 A 
ATOM     50  C   UNL     1      11.236   3.762  -2.367  1.00  0.00     0.029 A 
ATOM     51  N   UNL     1      10.232   1.844  -2.878  1.00  0.00    -0.354 N 
ATOM     52  N   UNL     1      10.141  -1.015  -3.538  1.00  0.00    -0.248 NA
ATOM     53  C   UNL     1      11.232  -3.020  -4.037  1.00  0.00     0.031 C 
ATOM     54  C   UNL     1      12.221   2.799  -2.615  1.00  0.00     0.029 A 
ATOM     55  C   UNL     1      11.595   1.601  -2.915  1.00  0.00     0.049 A 
ATOM     56  H   UNL     1       9.534   1.176  -3.065  1.00  0.00     0.167 HD
ATOM     57  C   UNL     1      11.512  -0.815  -3.475  1.00  0.00     0.074 A 
ATOM     58  C   UNL     1      12.137  -2.089  -3.768  1.00  0.00     0.031 C 
ATOM     59  C   UNL     1      12.194   0.326  -3.212  1.00  0.00     0.037 A 
BRANCH  46  60
ATOM     60  C   UNL     1       8.599   5.202  -2.018  1.00  0.00     0.057 A 
ATOM     61  C   UNL     1       8.235   5.627  -0.735  1.00  0.00     0.134 A 
ATOM     62  C   UNL     1       8.909   6.189  -2.963  1.00  0.00     0.134 A 
ATOM     63  F   UNL     1       7.910   4.733   0.210  1.00  0.00    -0.206 F 
ATOM     64  C   UNL     1       8.165   6.984  -0.409  1.00  0.00     0.040 A 
ATOM     65  C   UNL     1       8.863   7.547  -2.644  1.00  0.00     0.040 A 
ATOM     66  F   UNL     1       9.268   5.849  -4.210  1.00  0.00    -0.206 F 
ATOM     67  C   UNL     1       8.486   7.948  -1.364  1.00  0.00     0.006 A 
ENDBRANCH  46  60
BRANCH  47  68
ATOM     68  C   UNL     1       8.725  -4.461  -4.487  1.00  0.00     0.057 A 
ATOM     69  C   UNL     1       9.050  -5.455  -3.559  1.00  0.00     0.134 A 
ATOM     70  C   UNL     1       8.390  -4.870  -5.784  1.00  0.00     0.134 A 
ATOM     71  F   UNL     1       9.402  -5.121  -2.308  1.00  0.00    -0.206 F 
ATOM     72  C   UNL     1       9.041  -6.807  -3.905  1.00  0.00     0.040 A 
ATOM     73  C   UNL     1       8.354  -6.219  -6.137  1.00  0.00     0.040 A 
ATOM     74  F   UNL     1       8.066  -3.964  -6.718  1.00  0.00    -0.206 F 
ATOM     75  C   UNL     1       8.683  -7.192  -5.196  1.00  0.00     0.006 A 
ENDBRANCH  47  68
BRANCH  59  76
ATOM     76  C   UNL     1      13.688   0.236  -3.220  1.00  0.00     0.057 A 
ATOM     77  C   UNL     1      14.411   0.194  -4.418  1.00  0.00     0.134 A 
ATOM     78  C   UNL     1      14.409   0.210  -2.021  1.00  0.00     0.134 A 
ATOM     79  F   UNL     1      13.772   0.201  -5.598  1.00  0.00    -0.206 F 
ATOM     80  C   UNL     1      15.804   0.113  -4.423  1.00  0.00     0.040 A 
ATOM     81  C   UNL     1      15.803   0.145  -2.013  1.00  0.00     0.040 A 
ATOM     82  F   UNL     1      13.772   0.250  -0.841  1.00  0.00    -0.206 F 
ATOM     83  C   UNL     1      16.503   0.092  -3.217  1.00  0.00     0.006 A 
ENDBRANCH  59  76
ENDBRANCH  33  34
ENDBRANCH  26  28
ENDBRANCH  25  26
ENDBRANCH  24  25
ENDBRANCH   1  24
TORSDOF 15
