REMARK SMILES CCOc1cc2c(cc1/C=C1/C(=O)N(c3cccc(C(=O)OCCOC(=O)c4ccc(-c5c6nc(c(-c7c(F)cccc7F)c7ccc([nH]7)c(-c7c(F)cccc7F)c7nc(c(-c8c(F)cccc8F)c8ccc5[nH]8)C=C7)C=C6)cc4)c3)C(=S)N=C1O)OCO2
REMARK SMILES IDX 23 1 22 2 20 3 21 4 19 5 15 6 16 7 82 8 17 9 18 10 14 11
REMARK SMILES IDX 10 12 11 13 12 14 86 15 13 16 85 17 83 18 84 19 9 20 4 21
REMARK SMILES IDX 5 22 6 23 8 24 7 25 90 26 88 27 89 28 3 29 2 30 1 31 87 32
REMARK SMILES IDX 24 34 25 35 26 36 27 37 28 38 29 39 81 40 30 41 80 42 31 43
REMARK SMILES IDX 32 44 33 45 74 46 34 47 79 48 73 49 75 50 35 51 78 52 72 53
REMARK SMILES IDX 71 54 36 56 62 57 45 58 61 59 46 60 49 61 60 62 76 63 47 64
REMARK SMILES IDX 48 65 59 67 77 68 50 69 37 70 38 71 43 72 39 73 40 74 42 75
REMARK SMILES IDX 44 76 41 77 63 78 64 79 69 80 65 81 66 82 68 83 70 84 67 85
REMARK SMILES IDX 51 86 52 87 57 88 53 89 54 90 56 91 58 92 55 93
REMARK H PARENT 87 33 75 55 49 66
REMARK Flexibility Score: inf
ROOT
ATOM      1  C   UNL     1      -1.958  10.572   2.036  1.00  0.00     0.275 C 
ENDROOT
BRANCH   1   2
ATOM      2  O   UNL     1      -1.203  10.194   0.868  1.00  0.00    -0.458 OA
BRANCH   2   3
ATOM      3  C   UNL     1      -1.871  10.191  -0.315  1.00  0.00     0.338 C 
ATOM      4  O   UNL     1      -3.048  10.437  -0.490  1.00  0.00    -0.246 OA
BRANCH   3   5
ATOM      5  C   UNL     1      -0.905   9.986  -1.425  1.00  0.00     0.062 A 
ATOM      6  C   UNL     1       1.143   9.042  -2.301  1.00  0.00     0.052 A 
ATOM      7  C   UNL     1       0.940   9.733  -3.507  1.00  0.00     0.027 A 
ATOM      8  C   UNL     1       0.234   9.204  -1.249  1.00  0.00     0.042 A 
ATOM      9  C   UNL     1      -0.208  10.499  -3.691  1.00  0.00     0.003 A 
ATOM     10  C   UNL     1      -1.150  10.585  -2.668  1.00  0.00     0.016 A 
BRANCH   6  11
ATOM     11  N   UNL     1       2.176   8.053  -2.210  1.00  0.00    -0.251 N 
ATOM     12  C   UNL     1       2.502   4.537  -1.315  1.00  0.00     0.031 C 
ATOM     13  C   UNL     1       2.803   5.715  -1.907  1.00  0.00     0.103 C 
ATOM     14  C   UNL     1       1.740   6.756  -1.888  1.00  0.00     0.270 C 
ATOM     15  C   UNL     1       4.016   6.138  -2.600  1.00  0.00     0.226 C 
ATOM     16  O   UNL     1       0.575   6.446  -1.632  1.00  0.00    -0.268 OA
ATOM     17  N   UNL     1       4.355   7.336  -2.885  1.00  0.00    -0.184 NA
ATOM     18  C   UNL     1       3.514   8.363  -2.524  1.00  0.00     0.210 C 
ATOM     19  S   UNL     1       4.167   9.930  -2.457  1.00  0.00    -0.038 S 
BRANCH  12  20
ATOM     20  C   UNL     1       3.312   3.311  -1.177  1.00  0.00     0.021 A 
ATOM     21  C   UNL     1       2.718   2.026  -1.299  1.00  0.00     0.130 A 
ATOM     22  C   UNL     1       3.499   0.869  -1.383  1.00  0.00     0.097 A 
ATOM     23  C   UNL     1       4.857   1.007  -1.237  1.00  0.00     0.169 A 
ATOM     24  C   UNL     1       4.686   3.384  -0.910  1.00  0.00     0.062 A 
ATOM     25  C   UNL     1       5.431   2.227  -0.983  1.00  0.00     0.166 A 
ATOM     26  O   UNL     1       5.774   0.008  -1.316  1.00  0.00    -0.453 OA
ATOM     27  O   UNL     1       6.784   2.150  -0.865  1.00  0.00    -0.454 OA
ATOM     28  C   UNL     1       6.998   0.757  -1.174  1.00  0.00     0.468 C 
BRANCH  21  29
ATOM     29  O   UNL     1       1.355   1.881  -1.415  1.00  0.00    -0.493 OA
BRANCH  29  30
ATOM     30  C   UNL     1       0.751   1.540  -0.152  1.00  0.00     0.226 C 
ATOM     31  C   UNL     1       0.711   0.036   0.085  1.00  0.00     0.049 C 
ENDBRANCH  29  30
ENDBRANCH  21  29
ENDBRANCH  12  20
BRANCH  15  32
ATOM     32  O   UNL     1       4.831   5.181  -3.040  1.00  0.00    -0.493 OA
ATOM     33  H   UNL     1       4.636   4.281  -2.863  1.00  0.00     0.295 HD
ENDBRANCH  15  32
ENDBRANCH   6  11
ENDBRANCH   3   5
ENDBRANCH   2   3
ENDBRANCH   1   2
BRANCH   1  34
ATOM     34  C   UNL     1      -1.564  11.976   2.492  1.00  0.00     0.275 C 
BRANCH  34  35
ATOM     35  O   UNL     1      -1.965  12.934   1.497  1.00  0.00    -0.458 OA
BRANCH  35  36
ATOM     36  C   UNL     1      -0.970  13.629   0.898  1.00  0.00     0.338 C 
ATOM     37  O   UNL     1       0.220  13.611   1.157  1.00  0.00    -0.246 OA
BRANCH  36  38
ATOM     38  C   UNL     1      -1.544  14.405  -0.211  1.00  0.00     0.060 A 
ATOM     39  C   UNL     1      -2.021  13.713  -1.319  1.00  0.00     0.016 A 
ATOM     40  C   UNL     1      -1.540  15.795  -0.207  1.00  0.00     0.016 A 
ATOM     41  C   UNL     1      -2.446  14.392  -2.454  1.00  0.00     0.010 A 
ATOM     42  C   UNL     1      -2.066  16.483  -1.309  1.00  0.00     0.010 A 
ATOM     43  C   UNL     1      -2.518  15.789  -2.449  1.00  0.00    -0.014 A 
BRANCH  43  44
ATOM     44  C   UNL     1      -3.083  16.514  -3.620  1.00  0.00     0.031 A 
ATOM     45  C   UNL     1      -2.262  17.542  -4.347  1.00  0.00     0.074 A 
ATOM     46  C   UNL     1      -4.342  16.256  -4.032  1.00  0.00     0.049 A 
ATOM     47  N   UNL     1      -2.639  18.423  -5.238  1.00  0.00    -0.248 NA
ATOM     48  C   UNL     1      -0.828  17.591  -4.023  1.00  0.00     0.031 C 
ATOM     49  C   UNL     1      -5.233  15.242  -3.461  1.00  0.00     0.029 A 
ATOM     50  N   UNL     1      -5.096  16.830  -5.027  1.00  0.00    -0.354 N 
ATOM     51  C   UNL     1      -1.504  19.164  -5.543  1.00  0.00     0.074 A 
ATOM     52  C   UNL     1      -0.423  18.629  -4.741  1.00  0.00     0.031 C 
ATOM     53  C   UNL     1      -6.396  15.249  -4.126  1.00  0.00     0.029 A 
ATOM     54  C   UNL     1      -6.377  16.334  -5.098  1.00  0.00     0.049 A 
ATOM     55  H   UNL     1      -4.753  17.529  -5.630  1.00  0.00     0.167 HD
ATOM     56  C   UNL     1      -1.382  20.200  -6.408  1.00  0.00     0.037 A 
ATOM     57  C   UNL     1      -7.441  16.744  -5.814  1.00  0.00     0.037 A 
ATOM     58  C   UNL     1      -2.454  20.698  -7.231  1.00  0.00     0.049 A 
ATOM     59  C   UNL     1      -7.303  17.946  -6.702  1.00  0.00     0.074 A 
ATOM     60  C   UNL     1      -2.424  21.724  -8.159  1.00  0.00     0.029 A 
ATOM     61  N   UNL     1      -3.749  20.201  -7.227  1.00  0.00    -0.354 N 
ATOM     62  N   UNL     1      -6.239  18.670  -6.950  1.00  0.00    -0.248 NA
ATOM     63  C   UNL     1      -8.520  18.409  -7.383  1.00  0.00     0.031 C 
ATOM     64  C   UNL     1      -3.712  21.880  -8.682  1.00  0.00     0.029 A 
ATOM     65  C   UNL     1      -4.535  20.922  -8.112  1.00  0.00     0.049 A 
ATOM     66  H   UNL     1      -4.064  19.448  -6.676  1.00  0.00     0.167 HD
ATOM     67  C   UNL     1      -6.655  19.671  -7.817  1.00  0.00     0.074 A 
ATOM     68  C   UNL     1      -8.064  19.446  -8.072  1.00  0.00     0.031 C 
ATOM     69  C   UNL     1      -5.937  20.690  -8.347  1.00  0.00     0.037 A 
BRANCH  56  70
ATOM     70  C   UNL     1      -0.053  20.895  -6.481  1.00  0.00     0.057 A 
ATOM     71  C   UNL     1       1.064  20.312  -7.091  1.00  0.00     0.134 A 
ATOM     72  C   UNL     1       0.095  22.190  -5.966  1.00  0.00     0.134 A 
ATOM     73  F   UNL     1       0.994  19.070  -7.594  1.00  0.00    -0.206 F 
ATOM     74  C   UNL     1       2.286  20.984  -7.168  1.00  0.00     0.040 A 
ATOM     75  C   UNL     1       1.304  22.881  -6.059  1.00  0.00     0.040 A 
ATOM     76  F   UNL     1      -0.938  22.810  -5.375  1.00  0.00    -0.206 F 
ATOM     77  C   UNL     1       2.406  22.275  -6.657  1.00  0.00     0.006 A 
ENDBRANCH  56  70
BRANCH  57  78
ATOM     78  C   UNL     1      -8.749  16.057  -5.656  1.00  0.00     0.057 A 
ATOM     79  C   UNL     1      -9.307  15.312  -6.700  1.00  0.00     0.134 A 
ATOM     80  C   UNL     1      -9.469  16.123  -4.456  1.00  0.00     0.134 A 
ATOM     81  F   UNL     1      -8.680  15.233  -7.883  1.00  0.00    -0.206 F 
ATOM     82  C   UNL     1     -10.533  14.660  -6.558  1.00  0.00     0.040 A 
ATOM     83  C   UNL     1     -10.680  15.452  -4.289  1.00  0.00     0.040 A 
ATOM     84  F   UNL     1      -8.990  16.823  -3.416  1.00  0.00    -0.206 F 
ATOM     85  C   UNL     1     -11.219  14.722  -5.346  1.00  0.00     0.006 A 
ENDBRANCH  57  78
BRANCH  69  86
ATOM     86  C   UNL     1      -6.662  21.631  -9.261  1.00  0.00     0.057 A 
ATOM     87  C   UNL     1      -7.562  22.584  -8.768  1.00  0.00     0.134 A 
ATOM     88  C   UNL     1      -6.429  21.611 -10.642  1.00  0.00     0.134 A 
ATOM     89  F   UNL     1      -7.840  22.642  -7.456  1.00  0.00    -0.206 F 
ATOM     90  C   UNL     1      -8.217  23.475  -9.618  1.00  0.00     0.040 A 
ATOM     91  C   UNL     1      -7.060  22.512 -11.499  1.00  0.00     0.040 A 
ATOM     92  F   UNL     1      -5.575  20.725 -11.176  1.00  0.00    -0.206 F 
ATOM     93  C   UNL     1      -7.960  23.445 -10.988  1.00  0.00     0.006 A 
ENDBRANCH  69  86
ENDBRANCH  43  44
ENDBRANCH  36  38
ENDBRANCH  35  36
ENDBRANCH  34  35
ENDBRANCH   1  34
TORSDOF 16
