REMARK SMILES [NH3+]Cc1c(-c2ccccc2)c(C(=O)OCCOC(=O)c2ccc(-c3c4nc(c(-c5c(F)cccc5F)c5ccc([nH]5)c(-c5c(F)cccc5F)c5nc(c(-c6c(F)cccc6F)c6ccc3[nH]6)C=C5)C=C4)cc2)c2ccccn12
REMARK SMILES IDX 15 1 14 2 12 3 13 4 11 5 3 6 4 7 79 8 74 9 78 10 75 11 77 12
REMARK SMILES IDX 76 13 2 14 1 15 5 19 6 20 10 21 7 22 9 23 8 24 16 25 17 26
REMARK SMILES IDX 18 27 19 28 20 29 21 30 73 31 22 32 72 33 23 34 24 35 25 36
REMARK SMILES IDX 66 37 26 38 71 39 65 40 67 41 27 42 70 43 64 44 63 45 28 47
REMARK SMILES IDX 54 48 37 49 53 50 38 51 41 52 52 53 68 54 39 55 40 56 51 58
REMARK SMILES IDX 69 59 42 60 29 61 30 62 35 63 31 64 32 65 34 66 36 67 33 68
REMARK SMILES IDX 55 69 56 70 61 71 57 72 58 73 60 74 62 75 59 76 43 77 44 78
REMARK SMILES IDX 49 79 45 80 46 81 48 82 50 83 47 84
REMARK H PARENT 1 16 1 17 1 18 67 46 41 57
REMARK Flexibility Score: inf
ROOT
ATOM      1  C   UNL     1       1.839  -6.660   4.552  1.00  0.00     0.275 C 
ENDROOT
BRANCH   1   2
ATOM      2  O   UNL     1       1.334  -5.388   4.090  1.00  0.00    -0.458 OA
BRANCH   2   3
ATOM      3  C   UNL     1       1.741  -4.998   2.843  1.00  0.00     0.341 C 
ATOM      4  O   UNL     1       2.576  -5.604   2.182  1.00  0.00    -0.246 OA
BRANCH   3   5
ATOM      5  C   UNL     1       1.198  -3.705   2.436  1.00  0.00     0.093 A 
ATOM      6  C   UNL     1       0.601  -1.885   1.175  1.00  0.00     0.086 A 
ATOM      7  C   UNL     1       0.476  -3.285   1.250  1.00  0.00     0.024 A 
ATOM      8  N   UNL     1       1.244  -1.447   2.349  1.00  0.00    -0.314 N 
ATOM      9  C   UNL     1       1.553  -2.563   3.123  1.00  0.00     0.061 A 
ATOM     10  C   UNL     1       1.677  -0.172   2.761  1.00  0.00     0.092 A 
ATOM     11  C   UNL     1       2.296  -2.385   4.334  1.00  0.00     0.027 A 
ATOM     12  C   UNL     1       2.411  -0.013   3.878  1.00  0.00     0.018 A 
ATOM     13  C   UNL     1       2.724  -1.165   4.689  1.00  0.00     0.004 A 
BRANCH   6  14
ATOM     14  C   UNL     1       0.169  -1.041   0.006  1.00  0.00     0.315 C 
BRANCH  14  15
ATOM     15  N   UNL     1       0.818   0.245  -0.167  1.00  0.00    -0.353 N 
ATOM     16  H   UNL     1       0.435   0.710  -0.990  1.00  0.00     0.344 HD
ATOM     17  H   UNL     1       1.821   0.105  -0.291  1.00  0.00     0.344 HD
ATOM     18  H   UNL     1       0.654   0.822   0.657  1.00  0.00     0.344 HD
ENDBRANCH  14  15
ENDBRANCH   6  14
BRANCH   7  19
ATOM     19  C   UNL     1       0.145  -4.138   0.068  1.00  0.00    -0.015 A 
ATOM     20  C   UNL     1      -1.253  -5.297   0.034  1.00  0.00     0.009 A 
ATOM     21  C   UNL     1       1.610  -4.592  -0.798  1.00  0.00     0.009 A 
ATOM     22  C   UNL     1      -0.971  -7.087  -0.885  1.00  0.00     0.001 A 
ATOM     23  C   UNL     1       1.843  -6.138  -1.614  1.00  0.00     0.001 A 
ATOM     24  C   UNL     1       0.634  -7.399  -1.653  1.00  0.00     0.000 A 
ENDBRANCH   7  19
ENDBRANCH   3   5
ENDBRANCH   2   3
ENDBRANCH   1   2
BRANCH   1  25
ATOM     25  C   UNL     1       0.778  -7.743   4.389  1.00  0.00     0.275 C 
BRANCH  25  26
ATOM     26  O   UNL     1       0.436  -7.850   2.998  1.00  0.00    -0.458 OA
BRANCH  26  27
ATOM     27  C   UNL     1      -0.633  -7.101   2.677  1.00  0.00     0.338 C 
ATOM     28  O   UNL     1      -1.389  -6.511   3.435  1.00  0.00    -0.246 OA
BRANCH  27  29
ATOM     29  C   UNL     1      -0.830  -7.011   1.243  1.00  0.00     0.060 A 
ATOM     30  C   UNL     1       0.369  -6.255   0.126  1.00  0.00     0.016 A 
ATOM     31  C   UNL     1      -2.517  -7.050   0.763  1.00  0.00     0.016 A 
ATOM     32  C   UNL     1      -0.335  -5.466  -1.608  1.00  0.00     0.010 A 
ATOM     33  C   UNL     1      -3.113  -6.402  -0.763  1.00  0.00     0.010 A 
ATOM     34  C   UNL     1      -2.105  -5.621  -1.971  1.00  0.00    -0.014 A 
BRANCH  34  35
ATOM     35  C   UNL     1      -2.686  -5.451  -3.357  1.00  0.00     0.031 A 
ATOM     36  C   UNL     1      -4.027  -4.812  -3.621  1.00  0.00     0.074 A 
ATOM     37  C   UNL     1      -2.115  -6.094  -4.397  1.00  0.00     0.049 A 
ATOM     38  N   UNL     1      -4.687  -4.733  -4.754  1.00  0.00    -0.248 NA
ATOM     39  C   UNL     1      -4.771  -4.288  -2.469  1.00  0.00     0.031 C 
ATOM     40  C   UNL     1      -1.058  -7.073  -4.263  1.00  0.00     0.029 A 
ATOM     41  N   UNL     1      -2.317  -6.067  -5.756  1.00  0.00    -0.354 N 
ATOM     42  C   UNL     1      -5.941  -4.222  -4.442  1.00  0.00     0.074 A 
ATOM     43  C   UNL     1      -5.956  -4.025  -3.006  1.00  0.00     0.031 C 
ATOM     44  C   UNL     1      -0.528  -7.376  -5.447  1.00  0.00     0.029 A 
ATOM     45  C   UNL     1      -1.339  -6.739  -6.464  1.00  0.00     0.049 A 
ATOM     46  H   UNL     1      -3.082  -5.616  -6.181  1.00  0.00     0.167 HD
ATOM     47  C   UNL     1      -6.980  -3.954  -5.276  1.00  0.00     0.037 A 
ATOM     48  C   UNL     1      -1.125  -6.874  -7.785  1.00  0.00     0.037 A 
ATOM     49  C   UNL     1      -6.936  -4.134  -6.710  1.00  0.00     0.049 A 
ATOM     50  C   UNL     1      -2.181  -6.362  -8.706  1.00  0.00     0.074 A 
ATOM     51  C   UNL     1      -7.901  -3.820  -7.653  1.00  0.00     0.029 A 
ATOM     52  N   UNL     1      -5.862  -4.670  -7.411  1.00  0.00    -0.354 N 
ATOM     53  N   UNL     1      -3.325  -5.805  -8.396  1.00  0.00    -0.248 NA
ATOM     54  C   UNL     1      -1.960  -6.549 -10.143  1.00  0.00     0.031 C 
ATOM     55  C   UNL     1      -7.420  -4.182  -8.918  1.00  0.00     0.029 A 
ATOM     56  C   UNL     1      -6.138  -4.685  -8.771  1.00  0.00     0.049 A 
ATOM     57  H   UNL     1      -5.027  -4.994  -7.002  1.00  0.00     0.167 HD
ATOM     58  C   UNL     1      -3.981  -5.606  -9.595  1.00  0.00     0.074 A 
ATOM     59  C   UNL     1      -3.080  -6.046 -10.644  1.00  0.00     0.031 C 
ATOM     60  C   UNL     1      -5.233  -5.134  -9.801  1.00  0.00     0.037 A 
BRANCH  47  61
ATOM     61  C   UNL     1      -8.252  -3.434  -4.658  1.00  0.00     0.057 A 
ATOM     62  C   UNL     1      -8.323  -2.166  -4.063  1.00  0.00     0.134 A 
ATOM     63  C   UNL     1      -9.430  -4.195  -4.675  1.00  0.00     0.134 A 
ATOM     64  F   UNL     1      -7.237  -1.379  -4.012  1.00  0.00    -0.206 F 
ATOM     65  C   UNL     1      -9.496  -1.696  -3.468  1.00  0.00     0.040 A 
ATOM     66  C   UNL     1     -10.619  -3.723  -4.110  1.00  0.00     0.040 A 
ATOM     67  F   UNL     1      -9.451  -5.410  -5.243  1.00  0.00    -0.206 F 
ATOM     68  C   UNL     1     -10.651  -2.475  -3.493  1.00  0.00     0.006 A 
ENDBRANCH  47  61
BRANCH  48  69
ATOM     69  C   UNL     1       0.130  -7.491  -8.292  1.00  0.00     0.057 A 
ATOM     70  C   UNL     1       1.089  -6.698  -8.936  1.00  0.00     0.134 A 
ATOM     71  C   UNL     1       0.442  -8.843  -8.107  1.00  0.00     0.134 A 
ATOM     72  F   UNL     1       0.846  -5.398  -9.162  1.00  0.00    -0.206 F 
ATOM     73  C   UNL     1       2.305  -7.223  -9.375  1.00  0.00     0.040 A 
ATOM     74  C   UNL     1       1.670  -9.375  -8.509  1.00  0.00     0.040 A 
ATOM     75  F   UNL     1      -0.424  -9.661  -7.490  1.00  0.00    -0.206 F 
ATOM     76  C   UNL     1       2.604  -8.564  -9.149  1.00  0.00     0.006 A 
ENDBRANCH  48  69
BRANCH  60  77
ATOM     77  C   UNL     1      -5.682  -5.067 -11.226  1.00  0.00     0.057 A 
ATOM     78  C   UNL     1      -6.031  -6.220 -11.941  1.00  0.00     0.134 A 
ATOM     79  C   UNL     1      -5.753  -3.839 -11.892  1.00  0.00     0.134 A 
ATOM     80  F   UNL     1      -5.958  -7.429 -11.363  1.00  0.00    -0.206 F 
ATOM     81  C   UNL     1      -6.416  -6.155 -13.280  1.00  0.00     0.040 A 
ATOM     82  C   UNL     1      -6.156  -3.759 -13.224  1.00  0.00     0.040 A 
ATOM     83  F   UNL     1      -5.425  -2.702 -11.261  1.00  0.00    -0.206 F 
ATOM     84  C   UNL     1      -6.483  -4.920 -13.924  1.00  0.00     0.006 A 
ENDBRANCH  60  77
ENDBRANCH  34  35
ENDBRANCH  27  29
ENDBRANCH  26  27
ENDBRANCH  25  26
ENDBRANCH   1  25
TORSDOF 14
