REMARK SMILES C[C@H]1[C@H](C(=O)OCCOC(=O)c2ccc(-c3c4nc(c(-c5c(F)cccc5F)c5ccc([nH]5)c(-c5c(F)cccc5F)c5nc(c(-c6c(F)cccc6F)c6ccc3[nH]6)C=C5)C=C4)cc2)CCN1S(=O)(=O)[C@@H](C)C#N
REMARK SMILES IDX 7 1 6 2 4 3 5 4 3 5 1 6 2 7 68 8 66 9 67 10 69 11 70 12
REMARK SMILES IDX 71 13 72 14 73 15 74 16 75 17 8 18 9 19 10 20 11 21 12 22
REMARK SMILES IDX 13 23 65 24 14 25 64 26 15 27 16 28 17 29 58 30 18 31 63 32
REMARK SMILES IDX 57 33 59 34 19 35 62 36 56 37 55 38 20 40 46 41 29 42 45 43
REMARK SMILES IDX 30 44 33 45 44 46 60 47 31 48 32 49 43 51 61 52 34 53 21 54
REMARK SMILES IDX 22 55 27 56 23 57 24 58 26 59 28 60 25 61 47 62 48 63 53 64
REMARK SMILES IDX 49 65 50 66 52 67 54 68 51 69 35 70 36 71 41 72 37 73 38 74
REMARK SMILES IDX 40 75 42 76 39 77
REMARK H PARENT 59 39 33 50
REMARK Flexibility Score: inf
ROOT
ATOM      1  C   UNL     1      -0.572   3.093   3.209  1.00  0.00     0.274 C 
ENDROOT
BRANCH   1   2
ATOM      2  O   UNL     1      -0.567   2.026   2.241  1.00  0.00    -0.462 OA
BRANCH   2   3
ATOM      3  C   UNL     1      -0.921   2.311   0.967  1.00  0.00     0.310 C 
ATOM      4  O   UNL     1      -1.336   3.399   0.582  1.00  0.00    -0.252 OA
BRANCH   3   5
ATOM      5  C   UNL     1      -0.775   1.126   0.028  1.00  0.00     0.118 C 
ATOM      6  C   UNL     1       1.445   0.060  -0.653  1.00  0.00     0.027 C 
ATOM      7  C   UNL     1       0.349   0.149   0.412  1.00  0.00     0.084 C 
ATOM      8  N   UNL     1      -0.288  -1.212   0.523  1.00  0.00    -0.197 NA
ATOM      9  C   UNL     1      -2.049   0.296  -0.008  1.00  0.00     0.034 C 
ATOM     10  C   UNL     1      -1.553  -1.114  -0.260  1.00  0.00     0.103 C 
BRANCH   8  11
ATOM     11  S   UNL     1      -0.487  -1.837   2.097  1.00  0.00     0.230 S 
ATOM     12  O   UNL     1      -1.005  -0.786   2.945  1.00  0.00    -0.211 OA
ATOM     13  O   UNL     1      -1.249  -3.065   1.952  1.00  0.00    -0.211 OA
BRANCH  11  14
ATOM     14  C   UNL     1       1.136  -2.322   2.654  1.00  0.00     0.223 C 
ATOM     15  C   UNL     1       1.804  -3.328   1.729  1.00  0.00     0.043 C 
BRANCH  14  16
ATOM     16  C   UNL     1       2.017  -1.098   2.842  1.00  0.00     0.083 C 
ATOM     17  N   UNL     1       2.748  -0.082   2.998  1.00  0.00    -0.197 NA
ENDBRANCH  14  16
ENDBRANCH  11  14
ENDBRANCH   8  11
ENDBRANCH   3   5
ENDBRANCH   2   3
ENDBRANCH   1   2
BRANCH   1  18
ATOM     18  C   UNL     1       0.851   3.579   3.507  1.00  0.00     0.275 C 
BRANCH  18  19
ATOM     19  O   UNL     1       1.391   4.336   2.407  1.00  0.00    -0.458 OA
BRANCH  19  20
ATOM     20  C   UNL     1       2.033   3.594   1.481  1.00  0.00     0.338 C 
ATOM     21  O   UNL     1       2.231   2.394   1.487  1.00  0.00    -0.246 OA
BRANCH  20  22
ATOM     22  C   UNL     1       2.346   4.390   0.298  1.00  0.00     0.060 A 
ATOM     23  C   UNL     1       1.762   3.990  -0.909  1.00  0.00     0.016 A 
ATOM     24  C   UNL     1       3.292   5.410   0.341  1.00  0.00     0.016 A 
ATOM     25  C   UNL     1       2.134   4.598  -2.095  1.00  0.00     0.010 A 
ATOM     26  C   UNL     1       3.654   6.035  -0.851  1.00  0.00     0.010 A 
ATOM     27  C   UNL     1       3.082   5.624  -2.069  1.00  0.00    -0.014 A 
BRANCH  27  28
ATOM     28  C   UNL     1       3.490   6.269  -3.329  1.00  0.00     0.031 A 
ATOM     29  C   UNL     1       4.836   5.975  -3.908  1.00  0.00     0.074 A 
ATOM     30  C   UNL     1       2.643   7.126  -3.925  1.00  0.00     0.049 A 
ATOM     31  N   UNL     1       5.462   6.579  -4.882  1.00  0.00    -0.248 NA
ATOM     32  C   UNL     1       5.578   4.854  -3.311  1.00  0.00     0.031 C 
ATOM     33  C   UNL     1       1.282   7.420  -3.473  1.00  0.00     0.029 A 
ATOM     34  N   UNL     1       2.813   7.921  -5.026  1.00  0.00    -0.354 N 
ATOM     35  C   UNL     1       6.686   5.937  -4.994  1.00  0.00     0.074 A 
ATOM     36  C   UNL     1       6.714   4.891  -3.993  1.00  0.00     0.031 C 
ATOM     37  C   UNL     1       0.747   8.349  -4.280  1.00  0.00     0.029 A 
ATOM     38  C   UNL     1       1.749   8.756  -5.258  1.00  0.00     0.049 A 
ATOM     39  H   UNL     1       3.617   7.896  -5.594  1.00  0.00     0.167 HD
ATOM     40  C   UNL     1       7.695   6.213  -5.852  1.00  0.00     0.037 A 
ATOM     41  C   UNL     1       1.625   9.773  -6.129  1.00  0.00     0.037 A 
ATOM     42  C   UNL     1       7.638   7.252  -6.845  1.00  0.00     0.049 A 
ATOM     43  C   UNL     1       2.783  10.104  -7.024  1.00  0.00     0.074 A 
ATOM     44  C   UNL     1       8.603   7.625  -7.763  1.00  0.00     0.029 A 
ATOM     45  N   UNL     1       6.547   8.086  -7.046  1.00  0.00    -0.354 N 
ATOM     46  N   UNL     1       3.956   9.522  -7.102  1.00  0.00    -0.248 NA
ATOM     47  C   UNL     1       2.610  11.239  -7.939  1.00  0.00     0.031 C 
ATOM     48  C   UNL     1       8.106   8.704  -8.502  1.00  0.00     0.029 A 
ATOM     49  C   UNL     1       6.819   8.980  -8.066  1.00  0.00     0.049 A 
ATOM     50  H   UNL     1       5.705   8.047  -6.539  1.00  0.00     0.167 HD
ATOM     51  C   UNL     1       4.654  10.204  -8.088  1.00  0.00     0.074 A 
ATOM     52  C   UNL     1       3.771  11.242  -8.581  1.00  0.00     0.031 C 
ATOM     53  C   UNL     1       5.911   9.991  -8.545  1.00  0.00     0.037 A 
BRANCH  40  54
ATOM     54  C   UNL     1       8.952   5.409  -5.722  1.00  0.00     0.057 A 
ATOM     55  C   UNL     1       9.035   4.084  -6.166  1.00  0.00     0.134 A 
ATOM     56  C   UNL     1      10.104   5.979  -5.165  1.00  0.00     0.134 A 
ATOM     57  F   UNL     1       7.961   3.475  -6.692  1.00  0.00    -0.206 F 
ATOM     58  C   UNL     1      10.216   3.349  -6.048  1.00  0.00     0.040 A 
ATOM     59  C   UNL     1      11.296   5.261  -5.059  1.00  0.00     0.040 A 
ATOM     60  F   UNL     1      10.089   7.245  -4.720  1.00  0.00    -0.206 F 
ATOM     61  C   UNL     1      11.353   3.941  -5.498  1.00  0.00     0.006 A 
ENDBRANCH  40  54
BRANCH  41  62
ATOM     62  C   UNL     1       0.375  10.568  -6.154  1.00  0.00     0.057 A 
ATOM     63  C   UNL     1      -0.525  10.466  -7.219  1.00  0.00     0.134 A 
ATOM     64  C   UNL     1       0.038  11.428  -5.101  1.00  0.00     0.134 A 
ATOM     65  F   UNL     1      -0.247   9.671  -8.262  1.00  0.00    -0.206 F 
ATOM     66  C   UNL     1      -1.714  11.195  -7.241  1.00  0.00     0.040 A 
ATOM     67  C   UNL     1      -1.158  12.147  -5.099  1.00  0.00     0.040 A 
ATOM     68  F   UNL     1       0.858  11.564  -4.048  1.00  0.00    -0.206 F 
ATOM     69  C   UNL     1      -2.037  12.034  -6.174  1.00  0.00     0.006 A 
ENDBRANCH  41  62
BRANCH  53  70
ATOM     70  C   UNL     1       6.386  10.868  -9.661  1.00  0.00     0.057 A 
ATOM     71  C   UNL     1       6.821  12.178  -9.432  1.00  0.00     0.134 A 
ATOM     72  C   UNL     1       6.464  10.371 -10.967  1.00  0.00     0.134 A 
ATOM     73  F   UNL     1       6.756  12.711  -8.203  1.00  0.00    -0.206 F 
ATOM     74  C   UNL     1       7.312  12.969 -10.471  1.00  0.00     0.040 A 
ATOM     75  C   UNL     1       6.970  11.146 -12.010  1.00  0.00     0.040 A 
ATOM     76  F   UNL     1       6.066   9.120 -11.245  1.00  0.00    -0.206 F 
ATOM     77  C   UNL     1       7.394  12.450 -11.762  1.00  0.00     0.006 A 
ENDBRANCH  53  70
ENDBRANCH  27  28
ENDBRANCH  20  22
ENDBRANCH  19  20
ENDBRANCH  18  19
ENDBRANCH   1  18
TORSDOF 14
