REMARK SMILES CC(C)Oc1ccc(-c2ccc(/C(=C\c3ccc(S(C)(=O)=O)cc3)C(=O)OCCOC(=O)c3ccc(-c4c5nc(c(-c6c(F)cccc6F)c6ccc([nH]6)c(-c6c(F)cccc6F)c6nc(c(-c7c(F)cccc7F)c7ccc4[nH]7)C=C6)C=C5)cc3)cc2)cc1
REMARK SMILES IDX 28 1 27 2 25 3 26 4 13 5 14 6 12 7 9 8 10 9 88 10 11 11
REMARK SMILES IDX 87 12 8 13 5 14 6 15 90 16 7 17 89 18 4 19 2 20 1 21 3 22
REMARK SMILES IDX 15 23 16 24 24 25 17 26 23 27 18 28 19 29 20 30 21 31 22 32
REMARK SMILES IDX 29 33 30 34 31 35 32 36 33 37 34 38 86 39 35 40 85 41 36 42
REMARK SMILES IDX 37 43 38 44 79 45 39 46 84 47 78 48 80 49 40 50 83 51 77 52
REMARK SMILES IDX 76 53 41 55 67 56 50 57 66 58 51 59 54 60 65 61 81 62 52 63
REMARK SMILES IDX 53 64 64 66 82 67 55 68 42 69 43 70 48 71 44 72 45 73 47 74
REMARK SMILES IDX 49 75 46 76 68 77 69 78 74 79 70 80 71 81 73 82 75 83 72 84
REMARK SMILES IDX 56 85 57 86 62 87 58 88 59 89 61 90 63 91 60 92
REMARK H PARENT 80 54 54 65
REMARK Flexibility Score: inf
ROOT
ATOM      1  C   UNL     1      -8.035   4.149   8.461  1.00  0.00     0.275 C 
ENDROOT
BRANCH   1   2
ATOM      2  O   UNL     1      -7.383   2.872   8.304  1.00  0.00    -0.458 OA
BRANCH   2   3
ATOM      3  C   UNL     1      -7.668   2.155   7.179  1.00  0.00     0.338 C 
ATOM      4  O   UNL     1      -8.417   2.522   6.286  1.00  0.00    -0.246 OA
BRANCH   3   5
ATOM      5  C   UNL     1      -6.922   0.836   7.168  1.00  0.00     0.067 C 
ATOM      6  C   UNL     1      -6.916   0.242   8.392  1.00  0.00     0.024 C 
BRANCH   5   7
ATOM      7  C   UNL     1      -6.293   0.330   5.883  1.00  0.00    -0.011 A 
ATOM      8  C   UNL     1      -4.676  -0.406   3.602  1.00  0.00    -0.018 A 
ATOM      9  C   UNL     1      -4.876  -1.286   4.659  1.00  0.00     0.009 A 
ATOM     10  C   UNL     1      -5.414   0.780   3.625  1.00  0.00     0.009 A 
ATOM     11  C   UNL     1      -5.693  -0.933   5.747  1.00  0.00     0.009 A 
ATOM     12  C   UNL     1      -6.193   1.146   4.744  1.00  0.00     0.009 A 
BRANCH   8  13
ATOM     13  C   UNL     1      -3.682  -0.690   2.555  1.00  0.00    -0.018 A 
ATOM     14  C   UNL     1      -1.699  -1.214   0.597  1.00  0.00     0.119 A 
ATOM     15  C   UNL     1      -2.848  -2.004   0.685  1.00  0.00     0.047 A 
ATOM     16  C   UNL     1      -1.549  -0.149   1.470  1.00  0.00     0.047 A 
ATOM     17  C   UNL     1      -3.826  -1.754   1.659  1.00  0.00     0.012 A 
ATOM     18  C   UNL     1      -2.523   0.094   2.444  1.00  0.00     0.012 A 
BRANCH  14  19
ATOM     19  O   UNL     1      -0.851  -1.502  -0.430  1.00  0.00    -0.491 OA
BRANCH  19  20
ATOM     20  C   UNL     1       0.569  -1.548  -0.211  1.00  0.00     0.167 C 
ATOM     21  C   UNL     1       1.244  -0.182  -0.161  1.00  0.00     0.052 C 
ATOM     22  C   UNL     1       0.985  -2.461   0.939  1.00  0.00     0.052 C 
ENDBRANCH  19  20
ENDBRANCH  14  19
ENDBRANCH   8  13
ENDBRANCH   5   7
BRANCH   6  23
ATOM     23  C   UNL     1      -6.346  -1.056   8.767  1.00  0.00    -0.025 A 
ATOM     24  C   UNL     1      -7.198  -2.169   8.798  1.00  0.00     0.009 A 
ATOM     25  C   UNL     1      -4.963  -1.225   8.918  1.00  0.00     0.009 A 
ATOM     26  C   UNL     1      -6.662  -3.455   8.839  1.00  0.00     0.021 A 
ATOM     27  C   UNL     1      -4.421  -2.514   8.951  1.00  0.00     0.021 A 
ATOM     28  C   UNL     1      -5.274  -3.620   8.872  1.00  0.00     0.067 A 
BRANCH  28  29
ATOM     29  S   UNL     1      -4.600  -5.241   8.576  1.00  0.00     0.175 S 
ATOM     30  C   UNL     1      -4.652  -6.028  10.158  1.00  0.00     0.163 C 
ATOM     31  O   UNL     1      -5.526  -5.931   7.698  1.00  0.00    -0.224 OA
ATOM     32  O   UNL     1      -3.209  -5.075   8.200  1.00  0.00    -0.224 OA
ENDBRANCH  28  29
ENDBRANCH   6  23
ENDBRANCH   3   5
ENDBRANCH   2   3
ENDBRANCH   1   2
BRANCH   1  33
ATOM     33  C   UNL     1      -7.014   5.223   8.843  1.00  0.00     0.275 C 
BRANCH  33  34
ATOM     34  O   UNL     1      -6.084   5.416   7.762  1.00  0.00    -0.458 OA
BRANCH  34  35
ATOM     35  C   UNL     1      -4.939   4.702   7.870  1.00  0.00     0.338 C 
ATOM     36  O   UNL     1      -4.552   4.065   8.837  1.00  0.00    -0.246 OA
BRANCH  35  37
ATOM     37  C   UNL     1      -4.299   4.619   6.546  1.00  0.00     0.060 A 
ATOM     38  C   UNL     1      -3.930   3.348   6.115  1.00  0.00     0.016 A 
ATOM     39  C   UNL     1      -4.063   5.735   5.737  1.00  0.00     0.016 A 
ATOM     40  C   UNL     1      -3.349   3.187   4.863  1.00  0.00     0.010 A 
ATOM     41  C   UNL     1      -3.462   5.567   4.479  1.00  0.00     0.010 A 
ATOM     42  C   UNL     1      -3.110   4.285   4.029  1.00  0.00    -0.014 A 
BRANCH  42  43
ATOM     43  C   UNL     1      -2.425   4.067   2.729  1.00  0.00     0.031 A 
ATOM     44  C   UNL     1      -0.929   3.946   2.695  1.00  0.00     0.074 A 
ATOM     45  C   UNL     1      -3.130   3.878   1.598  1.00  0.00     0.049 A 
ATOM     46  N   UNL     1      -0.138   3.729   1.675  1.00  0.00    -0.248 NA
ATOM     47  C   UNL     1      -0.236   4.069   3.985  1.00  0.00     0.031 C 
ATOM     48  C   UNL     1      -4.588   3.876   1.500  1.00  0.00     0.029 A 
ATOM     49  N   UNL     1      -2.707   3.622   0.315  1.00  0.00    -0.354 N 
ATOM     50  C   UNL     1       1.146   3.683   2.200  1.00  0.00     0.074 A 
ATOM     51  C   UNL     1       1.028   3.897   3.627  1.00  0.00     0.031 C 
ATOM     52  C   UNL     1      -4.939   3.613   0.228  1.00  0.00     0.029 A 
ATOM     53  C   UNL     1      -3.733   3.476  -0.587  1.00  0.00     0.049 A 
ATOM     54  H   UNL     1      -1.757   3.551   0.066  1.00  0.00     0.167 HD
ATOM     55  C   UNL     1       2.319   3.489   1.553  1.00  0.00     0.037 A 
ATOM     56  C   UNL     1      -3.702   3.279  -1.920  1.00  0.00     0.037 A 
ATOM     57  C   UNL     1       2.456   3.320   0.132  1.00  0.00     0.049 A 
ATOM     58  C   UNL     1      -2.375   3.186  -2.631  1.00  0.00     0.074 A 
ATOM     59  C   UNL     1       3.613   3.142  -0.608  1.00  0.00     0.029 A 
ATOM     60  N   UNL     1       1.402   3.317  -0.767  1.00  0.00    -0.354 N 
ATOM     61  N   UNL     1      -1.163   3.201  -2.131  1.00  0.00    -0.248 NA
ATOM     62  C   UNL     1      -2.414   3.073  -4.098  1.00  0.00     0.031 C 
ATOM     63  C   UNL     1       3.260   3.051  -1.959  1.00  0.00     0.029 A 
ATOM     64  C   UNL     1       1.881   3.130  -2.054  1.00  0.00     0.049 A 
ATOM     65  H   UNL     1       0.454   3.431  -0.527  1.00  0.00     0.167 HD
ATOM     66  C   UNL     1      -0.302   3.074  -3.216  1.00  0.00     0.074 A 
ATOM     67  C   UNL     1      -1.127   2.977  -4.400  1.00  0.00     0.031 C 
ATOM     68  C   UNL     1       1.052   3.040  -3.227  1.00  0.00     0.037 A 
BRANCH  55  69
ATOM     69  C   UNL     1       3.561   3.485   2.389  1.00  0.00     0.057 A 
ATOM     70  C   UNL     1       3.903   2.387   3.188  1.00  0.00     0.134 A 
ATOM     71  C   UNL     1       4.429   4.582   2.380  1.00  0.00     0.134 A 
ATOM     72  F   UNL     1       3.102   1.313   3.246  1.00  0.00    -0.206 F 
ATOM     73  C   UNL     1       5.060   2.391   3.968  1.00  0.00     0.040 A 
ATOM     74  C   UNL     1       5.598   4.589   3.140  1.00  0.00     0.040 A 
ATOM     75  F   UNL     1       4.155   5.661   1.632  1.00  0.00    -0.206 F 
ATOM     76  C   UNL     1       5.914   3.493   3.941  1.00  0.00     0.006 A 
ENDBRANCH  55  69
BRANCH  56  77
ATOM     77  C   UNL     1      -4.965   3.209  -2.700  1.00  0.00     0.057 A 
ATOM     78  C   UNL     1      -5.365   2.030  -3.339  1.00  0.00     0.134 A 
ATOM     79  C   UNL     1      -5.771   4.341  -2.877  1.00  0.00     0.134 A 
ATOM     80  F   UNL     1      -4.617   0.921  -3.240  1.00  0.00    -0.206 F 
ATOM     81  C   UNL     1      -6.509   1.982  -4.139  1.00  0.00     0.040 A 
ATOM     82  C   UNL     1      -6.930   4.302  -3.653  1.00  0.00     0.040 A 
ATOM     83  F   UNL     1      -5.438   5.506  -2.302  1.00  0.00    -0.206 F 
ATOM     84  C   UNL     1      -7.297   3.121  -4.294  1.00  0.00     0.006 A 
ENDBRANCH  56  77
BRANCH  68  85
ATOM     85  C   UNL     1       1.730   2.867  -4.554  1.00  0.00     0.057 A 
ATOM     86  C   UNL     1       1.815   3.914  -5.480  1.00  0.00     0.134 A 
ATOM     87  C   UNL     1       2.343   1.653  -4.891  1.00  0.00     0.134 A 
ATOM     88  F   UNL     1       1.238   5.097  -5.223  1.00  0.00    -0.206 F 
ATOM     89  C   UNL     1       2.476   3.756  -6.700  1.00  0.00     0.040 A 
ATOM     90  C   UNL     1       3.023   1.489  -6.098  1.00  0.00     0.040 A 
ATOM     91  F   UNL     1       2.305   0.613  -4.044  1.00  0.00    -0.206 F 
ATOM     92  C   UNL     1       3.089   2.543  -7.008  1.00  0.00     0.006 A 
ENDBRANCH  68  85
ENDBRANCH  42  43
ENDBRANCH  35  37
ENDBRANCH  34  35
ENDBRANCH  33  34
ENDBRANCH   1  33
TORSDOF 17
