REMARK SMILES C[C@]([NH2+]Cc1nc(-c2ccsc2)no1)(C(=O)OCCOC(=O)c1ccc(-c2c3nc(c(-c4c(F)cccc4F)c4ccc([nH]4)c(-c4c(F)cccc4F)c4nc(c(-c5c(F)cccc5F)c5ccc2[nH]5)C=C4)C=C3)cc1)C(F)(F)F
REMARK SMILES IDX 18 1 17 2 15 3 16 4 2 5 1 6 77 7 78 8 79 9 80 10 3 11 4 14
REMARK SMILES IDX 5 15 6 16 14 17 7 18 13 19 8 20 9 21 12 22 10 23 11 24 19 25
REMARK SMILES IDX 20 26 21 27 22 28 23 29 24 30 76 31 25 32 75 33 26 34 27 35
REMARK SMILES IDX 28 36 69 37 29 38 74 39 68 40 70 41 30 42 73 43 67 44 66 45
REMARK SMILES IDX 31 47 57 48 40 49 56 50 41 51 44 52 55 53 71 54 42 55 43 56
REMARK SMILES IDX 54 58 72 59 45 60 32 61 33 62 38 63 34 64 35 65 37 66 39 67
REMARK SMILES IDX 36 68 58 69 59 70 64 71 60 72 61 73 63 74 65 75 62 76 46 77
REMARK SMILES IDX 47 78 52 79 48 80 49 81 51 82 53 83 50 84
REMARK H PARENT 3 12 3 13 70 46 44 57
REMARK Flexibility Score: inf
ROOT
ATOM      1  C   UNL     1      -2.621  -0.540  -1.189  1.00  0.00     0.274 C 
ENDROOT
BRANCH   1   2
ATOM      2  O   UNL     1      -1.184  -0.571  -1.044  1.00  0.00    -0.457 OA
BRANCH   2   3
ATOM      3  C   UNL     1      -0.463   0.297  -1.823  1.00  0.00     0.377 C 
ATOM      4  O   UNL     1      -0.972   1.032  -2.659  1.00  0.00    -0.244 OA
BRANCH   3   5
ATOM      5  C   UNL     1       1.056   0.135  -1.607  1.00  0.00     0.287 C 
ATOM      6  C   UNL     1       1.519  -0.902  -2.644  1.00  0.00     0.103 C 
BRANCH   5   7
ATOM      7  C   UNL     1       1.703   1.502  -1.941  1.00  0.00     0.455 C 
ATOM      8  F   UNL     1       1.429   2.433  -1.001  1.00  0.00    -0.164 F 
ATOM      9  F   UNL     1       3.060   1.380  -1.960  1.00  0.00    -0.164 F 
ATOM     10  F   UNL     1       1.357   2.002  -3.143  1.00  0.00    -0.164 F 
ENDBRANCH   5   7
BRANCH   5  11
ATOM     11  N   UNL     1       1.298  -0.393  -0.216  1.00  0.00    -0.317 N 
ATOM     12  H   UNL     1       1.105  -1.394  -0.221  1.00  0.00     0.347 HD
ATOM     13  H   UNL     1       0.682   0.139   0.399  1.00  0.00     0.347 HD
BRANCH  11  14
ATOM     14  C   UNL     1       2.657  -0.195   0.302  1.00  0.00     0.363 C 
BRANCH  14  15
ATOM     15  C   UNL     1       2.832  -0.898   1.604  1.00  0.00     0.282 A 
ATOM     16  N   UNL     1       3.047  -2.175   1.834  1.00  0.00    -0.186 NA
ATOM     17  O   UNL     1       2.684  -0.154   2.738  1.00  0.00    -0.333 OA
ATOM     18  C   UNL     1       3.002  -2.221   3.205  1.00  0.00     0.203 A 
ATOM     19  N   UNL     1       2.794  -1.044   3.809  1.00  0.00    -0.057 NA
BRANCH  18  20
ATOM     20  C   UNL     1       3.136  -3.497   3.905  1.00  0.00     0.033 A 
ATOM     21  C   UNL     1       3.778  -4.633   3.325  1.00  0.00     0.024 A 
ATOM     22  C   UNL     1       2.665  -3.764   5.173  1.00  0.00     0.077 A 
ATOM     23  C   UNL     1       3.774  -5.719   4.173  1.00  0.00     0.065 A 
ATOM     24  S   UNL     1       2.987  -5.375   5.654  1.00  0.00    -0.152 S 
ENDBRANCH  18  20
ENDBRANCH  14  15
ENDBRANCH  11  14
ENDBRANCH   5  11
ENDBRANCH   3   5
ENDBRANCH   2   3
ENDBRANCH   1   2
BRANCH   1  25
ATOM     25  C   UNL     1      -3.255   0.282  -0.070  1.00  0.00     0.275 C 
BRANCH  25  26
ATOM     26  O   UNL     1      -2.819   1.644  -0.200  1.00  0.00    -0.458 OA
BRANCH  26  27
ATOM     27  C   UNL     1      -2.556   2.297   0.953  1.00  0.00     0.338 C 
ATOM     28  O   UNL     1      -2.739   1.887   2.092  1.00  0.00    -0.246 OA
BRANCH  27  29
ATOM     29  C   UNL     1      -1.997   3.627   0.646  1.00  0.00     0.060 A 
ATOM     30  C   UNL     1      -1.058   3.779  -0.373  1.00  0.00     0.016 A 
ATOM     31  C   UNL     1      -2.344   4.723   1.435  1.00  0.00     0.016 A 
ATOM     32  C   UNL     1      -0.397   4.993  -0.550  1.00  0.00     0.010 A 
ATOM     33  C   UNL     1      -1.753   5.967   1.191  1.00  0.00     0.010 A 
ATOM     34  C   UNL     1      -0.744   6.109   0.220  1.00  0.00    -0.014 A 
BRANCH  34  35
ATOM     35  C   UNL     1      -0.023   7.402   0.057  1.00  0.00     0.031 A 
ATOM     36  C   UNL     1       0.686   8.021   1.233  1.00  0.00     0.074 A 
ATOM     37  C   UNL     1       0.017   8.028  -1.137  1.00  0.00     0.049 A 
ATOM     38  N   UNL     1       1.179   9.227   1.365  1.00  0.00    -0.248 NA
ATOM     39  C   UNL     1       0.846   7.175   2.427  1.00  0.00     0.031 C 
ATOM     40  C   UNL     1      -0.571   7.529  -2.381  1.00  0.00     0.029 A 
ATOM     41  N   UNL     1       0.586   9.225  -1.499  1.00  0.00    -0.354 N 
ATOM     42  C   UNL     1       1.641   9.306   2.673  1.00  0.00     0.074 A 
ATOM     43  C   UNL     1       1.379   8.025   3.293  1.00  0.00     0.031 C 
ATOM     44  C   UNL     1      -0.297   8.389  -3.374  1.00  0.00     0.029 A 
ATOM     45  C   UNL     1       0.406   9.542  -2.823  1.00  0.00     0.049 A 
ATOM     46  H   UNL     1       1.077   9.801  -0.869  1.00  0.00     0.167 HD
ATOM     47  C   UNL     1       2.225  10.355   3.300  1.00  0.00     0.037 A 
ATOM     48  C   UNL     1       0.729  10.653  -3.512  1.00  0.00     0.037 A 
ATOM     49  C   UNL     1       2.553  11.604   2.664  1.00  0.00     0.049 A 
ATOM     50  C   UNL     1       1.369  11.806  -2.795  1.00  0.00     0.074 A 
ATOM     51  C   UNL     1       3.156  12.722   3.215  1.00  0.00     0.029 A 
ATOM     52  N   UNL     1       2.329  11.888   1.327  1.00  0.00    -0.354 N 
ATOM     53  N   UNL     1       1.720  11.903  -1.536  1.00  0.00    -0.248 NA
ATOM     54  C   UNL     1       1.631  13.015  -3.588  1.00  0.00     0.031 C 
ATOM     55  C   UNL     1       3.279  13.692   2.214  1.00  0.00     0.029 A 
ATOM     56  C   UNL     1       2.779  13.165   1.034  1.00  0.00     0.049 A 
ATOM     57  H   UNL     1       1.913  11.274   0.680  1.00  0.00     0.167 HD
ATOM     58  C   UNL     1       2.241  13.181  -1.385  1.00  0.00     0.074 A 
ATOM     59  C   UNL     1       2.185  13.814  -2.687  1.00  0.00     0.031 C 
ATOM     60  C   UNL     1       2.713  13.780  -0.266  1.00  0.00     0.037 A 
BRANCH  47  61
ATOM     61  C   UNL     1       2.518  10.209   4.764  1.00  0.00     0.057 A 
ATOM     62  C   UNL     1       3.586   9.439   5.238  1.00  0.00     0.134 A 
ATOM     63  C   UNL     1       1.731  10.879   5.710  1.00  0.00     0.134 A 
ATOM     64  F   UNL     1       4.367   8.760   4.384  1.00  0.00    -0.206 F 
ATOM     65  C   UNL     1       3.851   9.326   6.604  1.00  0.00     0.040 A 
ATOM     66  C   UNL     1       1.999  10.791   7.077  1.00  0.00     0.040 A 
ATOM     67  F   UNL     1       0.695  11.636   5.320  1.00  0.00    -0.206 F 
ATOM     68  C   UNL     1       3.060  10.008   7.527  1.00  0.00     0.006 A 
ENDBRANCH  47  61
BRANCH  48  69
ATOM     69  C   UNL     1       0.406  10.745  -4.957  1.00  0.00     0.057 A 
ATOM     70  C   UNL     1       1.415  10.714  -5.925  1.00  0.00     0.134 A 
ATOM     71  C   UNL     1      -0.917  10.857  -5.404  1.00  0.00     0.134 A 
ATOM     72  F   UNL     1       2.702  10.636  -5.557  1.00  0.00    -0.206 F 
ATOM     73  C   UNL     1       1.121  10.794  -7.288  1.00  0.00     0.040 A 
ATOM     74  C   UNL     1      -1.226  10.912  -6.763  1.00  0.00     0.040 A 
ATOM     75  F   UNL     1      -1.928  10.893  -4.524  1.00  0.00    -0.206 F 
ATOM     76  C   UNL     1      -0.204  10.884  -7.709  1.00  0.00     0.006 A 
ENDBRANCH  48  69
BRANCH  60  77
ATOM     77  C   UNL     1       3.215  15.183  -0.407  1.00  0.00     0.057 A 
ATOM     78  C   UNL     1       2.335  16.267  -0.512  1.00  0.00     0.134 A 
ATOM     79  C   UNL     1       4.588  15.455  -0.413  1.00  0.00     0.134 A 
ATOM     80  F   UNL     1       1.009  16.068  -0.527  1.00  0.00    -0.206 F 
ATOM     81  C   UNL     1       2.806  17.575  -0.637  1.00  0.00     0.040 A 
ATOM     82  C   UNL     1       5.070  16.760  -0.519  1.00  0.00     0.040 A 
ATOM     83  F   UNL     1       5.480  14.459  -0.312  1.00  0.00    -0.206 F 
ATOM     84  C   UNL     1       4.177  17.824  -0.636  1.00  0.00     0.006 A 
ENDBRANCH  60  77
ENDBRANCH  34  35
ENDBRANCH  27  29
ENDBRANCH  26  27
ENDBRANCH  25  26
ENDBRANCH   1  25
TORSDOF 16
