REMARK SMILES O=C(CC1CCN(S(=O)(=O)c2cc[nH]c2)CC1)OCCOC(=O)c1ccc(-c2c3nc(c(-c4c(F)cccc4F)c4ccc([nH]4)c(-c4c(F)cccc4F)c4nc(c(-c5c(F)cccc5F)c5ccc2[nH]5)C=C4)C=C3)cc1
REMARK SMILES IDX 19 1 18 2 2 3 1 4 3 5 4 6 5 7 17 8 6 9 16 10 7 11 8 12 9 13
REMARK SMILES IDX 10 14 11 15 12 16 15 17 13 18 14 19 20 21 21 22 22 23 23 24
REMARK SMILES IDX 24 25 25 26 77 27 26 28 76 29 27 30 28 31 29 32 70 33 30 34
REMARK SMILES IDX 75 35 69 36 71 37 31 38 74 39 68 40 67 41 32 43 58 44 41 45
REMARK SMILES IDX 57 46 42 47 45 48 56 49 72 50 43 51 44 52 55 54 73 55 46 56
REMARK SMILES IDX 33 57 34 58 39 59 35 60 36 61 38 62 40 63 37 64 59 65 60 66
REMARK SMILES IDX 65 67 61 68 62 69 64 70 66 71 63 72 47 73 48 74 53 75 49 76
REMARK SMILES IDX 50 77 52 78 54 79 51 80
REMARK H PARENT 14 20 71 42 45 53
REMARK Flexibility Score: inf
ROOT
ATOM      1  C   UNL     1       3.688  -1.690  -0.557  1.00  0.00     0.274 C 
ENDROOT
BRANCH   1   2
ATOM      2  O   UNL     1       2.479  -1.142   0.013  1.00  0.00    -0.462 OA
BRANCH   2   3
ATOM      3  C   UNL     1       2.358  -0.114   0.888  1.00  0.00     0.306 C 
ATOM      4  O   UNL     1       1.444  -0.118   1.710  1.00  0.00    -0.252 OA
BRANCH   3   5
ATOM      5  C   UNL     1       3.265   1.102   0.777  1.00  0.00     0.126 C 
BRANCH   5   6
ATOM      6  C   UNL     1       4.217   1.358   1.955  1.00  0.00     0.003 C 
ATOM      7  C   UNL     1       4.993   2.682   1.790  1.00  0.00     0.021 C 
ATOM      8  C   UNL     1       5.255   0.253   2.121  1.00  0.00     0.021 C 
ATOM      9  C   UNL     1       6.031   2.660   0.660  1.00  0.00     0.103 C 
ATOM     10  C   UNL     1       6.232   0.206   0.954  1.00  0.00     0.103 C 
ATOM     11  N   UNL     1       6.954   1.479   0.750  1.00  0.00    -0.198 NA
BRANCH  11  12
ATOM     12  S   UNL     1       7.998   1.420  -0.641  1.00  0.00     0.244 S 
ATOM     13  O   UNL     1       7.151   1.253  -1.810  1.00  0.00    -0.207 OA
ATOM     14  O   UNL     1       8.944   2.505  -0.547  1.00  0.00    -0.207 OA
BRANCH  12  15
ATOM     15  C   UNL     1       8.941  -0.037  -0.630  1.00  0.00     0.100 A 
ATOM     16  C   UNL     1       8.451  -1.342  -0.922  1.00  0.00     0.041 A 
ATOM     17  C   UNL     1      10.295  -0.160  -0.391  1.00  0.00     0.104 A 
ATOM     18  C   UNL     1       9.506  -2.218  -0.796  1.00  0.00     0.083 A 
ATOM     19  N   UNL     1      10.627  -1.487  -0.493  1.00  0.00    -0.366 N 
ATOM     20  H   UNL     1      11.530  -1.858  -0.369  1.00  0.00     0.165 HD
ENDBRANCH  12  15
ENDBRANCH  11  12
ENDBRANCH   5   6
ENDBRANCH   3   5
ENDBRANCH   2   3
ENDBRANCH   1   2
BRANCH   1  21
ATOM     21  C   UNL     1       4.029  -1.236  -1.974  1.00  0.00     0.275 C 
BRANCH  21  22
ATOM     22  O   UNL     1       3.984   0.171  -2.123  1.00  0.00    -0.458 OA
BRANCH  22  23
ATOM     23  C   UNL     1       2.743   0.660  -2.351  1.00  0.00     0.338 C 
ATOM     24  O   UNL     1       1.692   0.055  -2.310  1.00  0.00    -0.246 OA
BRANCH  23  25
ATOM     25  C   UNL     1       2.864   2.051  -2.794  1.00  0.00     0.060 A 
ATOM     26  C   UNL     1       1.666   2.692  -3.109  1.00  0.00     0.016 A 
ATOM     27  C   UNL     1       4.113   2.549  -3.192  1.00  0.00     0.016 A 
ATOM     28  C   UNL     1       1.704   3.686  -4.052  1.00  0.00     0.010 A 
ATOM     29  C   UNL     1       4.152   3.526  -4.153  1.00  0.00     0.010 A 
ATOM     30  C   UNL     1       2.938   4.017  -4.629  1.00  0.00    -0.014 A 
BRANCH  30  31
ATOM     31  C   UNL     1       2.923   4.998  -5.705  1.00  0.00     0.031 A 
ATOM     32  C   UNL     1       2.888   6.405  -5.065  1.00  0.00     0.074 A 
ATOM     33  C   UNL     1       2.834   4.446  -6.964  1.00  0.00     0.049 A 
ATOM     34  N   UNL     1       2.312   7.484  -5.477  1.00  0.00    -0.248 NA
ATOM     35  C   UNL     1       3.503   6.633  -3.718  1.00  0.00     0.031 C 
ATOM     36  C   UNL     1       2.963   2.996  -7.297  1.00  0.00     0.029 A 
ATOM     37  N   UNL     1       2.609   4.957  -8.223  1.00  0.00    -0.354 N 
ATOM     38  C   UNL     1       2.692   8.540  -4.617  1.00  0.00     0.074 A 
ATOM     39  C   UNL     1       3.308   7.934  -3.481  1.00  0.00     0.031 C 
ATOM     40  C   UNL     1       2.704   2.757  -8.607  1.00  0.00     0.029 A 
ATOM     41  C   UNL     1       2.388   4.006  -9.270  1.00  0.00     0.049 A 
ATOM     42  H   UNL     1       2.601   5.927  -8.394  1.00  0.00     0.167 HD
ATOM     43  C   UNL     1       2.602   9.850  -4.998  1.00  0.00     0.037 A 
ATOM     44  C   UNL     1       1.930   4.235 -10.549  1.00  0.00     0.037 A 
ATOM     45  C   UNL     1       2.026   9.911  -6.300  1.00  0.00     0.049 A 
ATOM     46  C   UNL     1       1.881   5.696 -10.623  1.00  0.00     0.074 A 
ATOM     47  C   UNL     1       0.748   9.655  -6.723  1.00  0.00     0.029 A 
ATOM     48  N   UNL     1       2.900   9.788  -7.355  1.00  0.00    -0.354 N 
ATOM     49  N   UNL     1       2.930   6.455 -10.699  1.00  0.00    -0.248 NA
ATOM     50  C   UNL     1       0.584   6.362 -10.476  1.00  0.00     0.031 C 
ATOM     51  C   UNL     1       0.968   8.857  -7.861  1.00  0.00     0.029 A 
ATOM     52  C   UNL     1       2.302   8.968  -8.276  1.00  0.00     0.049 A 
ATOM     53  H   UNL     1       3.786  10.209  -7.434  1.00  0.00     0.167 HD
ATOM     54  C   UNL     1       2.446   7.650 -10.236  1.00  0.00     0.074 A 
ATOM     55  C   UNL     1       1.009   7.622 -10.436  1.00  0.00     0.031 C 
ATOM     56  C   UNL     1       3.124   8.306  -9.256  1.00  0.00     0.037 A 
BRANCH  43  57
ATOM     57  C   UNL     1       3.189  11.124  -4.470  1.00  0.00     0.057 A 
ATOM     58  C   UNL     1       2.643  12.345  -4.937  1.00  0.00     0.134 A 
ATOM     59  C   UNL     1       4.445  11.208  -3.867  1.00  0.00     0.134 A 
ATOM     60  F   UNL     1       1.416  12.391  -5.482  1.00  0.00    -0.206 F 
ATOM     61  C   UNL     1       3.366  13.538  -4.949  1.00  0.00     0.040 A 
ATOM     62  C   UNL     1       5.162  12.414  -3.830  1.00  0.00     0.040 A 
ATOM     63  F   UNL     1       5.061  10.121  -3.384  1.00  0.00    -0.206 F 
ATOM     64  C   UNL     1       4.644  13.569  -4.414  1.00  0.00     0.006 A 
ENDBRANCH  43  57
BRANCH  44  65
ATOM     65  C   UNL     1       1.403   3.534 -11.792  1.00  0.00     0.057 A 
ATOM     66  C   UNL     1       1.301   2.159 -12.002  1.00  0.00     0.134 A 
ATOM     67  C   UNL     1       0.831   4.310 -12.851  1.00  0.00     0.134 A 
ATOM     68  F   UNL     1       1.888   1.290 -11.171  1.00  0.00    -0.206 F 
ATOM     69  C   UNL     1       0.582   1.614 -13.097  1.00  0.00     0.040 A 
ATOM     70  C   UNL     1       0.066   3.790 -13.899  1.00  0.00     0.040 A 
ATOM     71  F   UNL     1       0.979   5.641 -12.915  1.00  0.00    -0.206 F 
ATOM     72  C   UNL     1      -0.081   2.426 -14.017  1.00  0.00     0.006 A 
ENDBRANCH  44  65
BRANCH  56  73
ATOM     73  C   UNL     1       4.600   7.931  -9.130  1.00  0.00     0.057 A 
ATOM     74  C   UNL     1       5.444   8.025 -10.247  1.00  0.00     0.134 A 
ATOM     75  C   UNL     1       5.196   7.362  -7.992  1.00  0.00     0.134 A 
ATOM     76  F   UNL     1       4.998   8.588 -11.380  1.00  0.00    -0.206 F 
ATOM     77  C   UNL     1       6.763   7.545 -10.245  1.00  0.00     0.040 A 
ATOM     78  C   UNL     1       6.513   6.873  -7.970  1.00  0.00     0.040 A 
ATOM     79  F   UNL     1       4.528   7.261  -6.848  1.00  0.00    -0.206 F 
ATOM     80  C   UNL     1       7.301   6.955  -9.106  1.00  0.00     0.006 A 
ENDBRANCH  56  73
ENDBRANCH  30  31
ENDBRANCH  23  25
ENDBRANCH  22  23
ENDBRANCH  21  22
ENDBRANCH   1  21
TORSDOF 14
