REMARK SMILES C[N@H+]1CCO[C@](C)(C(=O)OCCOC(=O)c2ccc(-c3c4nc(c(-c5c(F)cccc5F)c5ccc([nH]5)c(-c5c(F)cccc5F)c5nc(c(-c6c(F)cccc6F)c6ccc3[nH]6)C=C5)C=C4)cc2)C1
REMARK SMILES IDX 12 1 11 2 10 3 8 4 9 5 6 6 1 7 2 8 3 9 70 10 4 12 5 13 7 14
REMARK SMILES IDX 13 15 14 16 15 17 16 18 17 19 69 20 18 21 68 22 19 23 20 24
REMARK SMILES IDX 21 25 62 26 22 27 67 28 61 29 63 30 23 31 66 32 60 33 59 34
REMARK SMILES IDX 24 36 50 37 33 38 49 39 34 40 37 41 48 42 64 43 35 44 36 45
REMARK SMILES IDX 47 47 65 48 38 49 25 50 26 51 31 52 27 53 28 54 30 55 32 56
REMARK SMILES IDX 29 57 51 58 52 59 57 60 53 61 54 62 56 63 58 64 55 65 39 66
REMARK SMILES IDX 40 67 45 68 41 69 42 70 44 71 46 72 43 73
REMARK H PARENT 2 11 63 35 37 46
REMARK Flexibility Score: inf
ROOT
ATOM      1  C   UNL     1       4.514  -1.605  -5.526  1.00  0.00     0.275 C 
ENDROOT
BRANCH   1   2
ATOM      2  C   UNL     1       5.068  -1.812  -4.115  1.00  0.00     0.274 C 
BRANCH   2   3
ATOM      3  O   UNL     1       4.106  -1.427  -3.112  1.00  0.00    -0.460 OA
BRANCH   3   4
ATOM      4  C   UNL     1       4.221  -0.152  -2.636  1.00  0.00     0.344 C 
ATOM      5  O   UNL     1       5.117   0.619  -2.966  1.00  0.00    -0.249 OA
BRANCH   4   6
ATOM      6  C   UNL     1       3.124   0.191  -1.595  1.00  0.00     0.211 C 
ATOM      7  C   UNL     1       0.348  -0.486   0.065  1.00  0.00     0.332 C 
ATOM      8  N   UNL     1       0.557  -0.079  -1.319  1.00  0.00    -0.333 N 
ATOM      9  C   UNL     1       0.489   1.374  -1.523  1.00  0.00     0.290 C 
ATOM     10  C   UNL     1       1.811  -0.593  -1.911  1.00  0.00     0.310 C 
ATOM     11  H   UNL     1      -0.227  -0.511  -1.807  1.00  0.00     0.348 HD
ATOM     12  C   UNL     1       1.744   2.103  -1.042  1.00  0.00     0.223 C 
ATOM     13  O   UNL     1       2.920   1.622  -1.695  1.00  0.00    -0.353 OA
ATOM     14  C   UNL     1       3.734  -0.118  -0.225  1.00  0.00     0.061 C 
ENDBRANCH   4   6
ENDBRANCH   3   4
ENDBRANCH   2   3
ENDBRANCH   1   2
BRANCH   1  15
ATOM     15  O   UNL     1       4.294  -0.205  -5.772  1.00  0.00    -0.458 OA
BRANCH  15  16
ATOM     16  C   UNL     1       3.032   0.151  -6.101  1.00  0.00     0.338 C 
ATOM     17  O   UNL     1       2.069  -0.575  -6.272  1.00  0.00    -0.246 OA
BRANCH  16  18
ATOM     18  C   UNL     1       2.958   1.616  -6.187  1.00  0.00     0.060 A 
ATOM     19  C   UNL     1       2.830   2.352  -5.011  1.00  0.00     0.016 A 
ATOM     20  C   UNL     1       2.922   2.253  -7.427  1.00  0.00     0.016 A 
ATOM     21  C   UNL     1       2.649   3.731  -5.061  1.00  0.00     0.010 A 
ATOM     22  C   UNL     1       2.774   3.643  -7.479  1.00  0.00     0.010 A 
ATOM     23  C   UNL     1       2.620   4.391  -6.296  1.00  0.00    -0.014 A 
BRANCH  23  24
ATOM     24  C   UNL     1       2.384   5.856  -6.350  1.00  0.00     0.031 A 
ATOM     25  C   UNL     1       1.090   6.388  -6.895  1.00  0.00     0.074 A 
ATOM     26  C   UNL     1       3.317   6.709  -5.888  1.00  0.00     0.049 A 
ATOM     27  N   UNL     1       0.741   7.626  -7.138  1.00  0.00    -0.248 NA
ATOM     28  C   UNL     1       0.051   5.396  -7.210  1.00  0.00     0.031 C 
ATOM     29  C   UNL     1       4.593   6.323  -5.283  1.00  0.00     0.029 A 
ATOM     30  N   UNL     1       3.333   8.081  -5.854  1.00  0.00    -0.354 N 
ATOM     31  C   UNL     1      -0.541   7.561  -7.667  1.00  0.00     0.074 A 
ATOM     32  C   UNL     1      -0.910   6.161  -7.710  1.00  0.00     0.031 C 
ATOM     33  C   UNL     1       5.261   7.431  -4.926  1.00  0.00     0.029 A 
ATOM     34  C   UNL     1       4.487   8.604  -5.325  1.00  0.00     0.049 A 
ATOM     35  H   UNL     1       2.587   8.637  -6.177  1.00  0.00     0.167 HD
ATOM     36  C   UNL     1      -1.337   8.575  -8.080  1.00  0.00     0.037 A 
ATOM     37  C   UNL     1       4.892   9.882  -5.205  1.00  0.00     0.037 A 
ATOM     38  C   UNL     1      -0.986   9.969  -8.008  1.00  0.00     0.049 A 
ATOM     39  C   UNL     1       4.009  10.988  -5.710  1.00  0.00     0.074 A 
ATOM     40  C   UNL     1      -1.730  11.069  -8.398  1.00  0.00     0.029 A 
ATOM     41  N   UNL     1       0.210  10.454  -7.501  1.00  0.00    -0.354 N 
ATOM     42  N   UNL     1       2.818  10.911  -6.251  1.00  0.00    -0.248 NA
ATOM     43  C   UNL     1       4.535  12.356  -5.605  1.00  0.00     0.031 C 
ATOM     44  C   UNL     1      -0.974  12.220  -8.150  1.00  0.00     0.029 A 
ATOM     45  C   UNL     1       0.229  11.837  -7.580  1.00  0.00     0.049 A 
ATOM     46  H   UNL     1       0.937   9.898  -7.139  1.00  0.00     0.167 HD
ATOM     47  C   UNL     1       2.452  12.216  -6.550  1.00  0.00     0.074 A 
ATOM     48  C   UNL     1       3.537  13.068  -6.109  1.00  0.00     0.031 C 
ATOM     49  C   UNL     1       1.320  12.668  -7.143  1.00  0.00     0.037 A 
BRANCH  36  50
ATOM     50  C   UNL     1      -2.660   8.209  -8.680  1.00  0.00     0.057 A 
ATOM     51  C   UNL     1      -3.746   7.813  -7.891  1.00  0.00     0.134 A 
ATOM     52  C   UNL     1      -2.855   8.283 -10.065  1.00  0.00     0.134 A 
ATOM     53  F   UNL     1      -3.618   7.708  -6.560  1.00  0.00    -0.206 F 
ATOM     54  C   UNL     1      -4.978   7.487  -8.462  1.00  0.00     0.040 A 
ATOM     55  C   UNL     1      -4.086   7.977 -10.645  1.00  0.00     0.040 A 
ATOM     56  F   UNL     1      -1.853   8.658 -10.874  1.00  0.00    -0.206 F 
ATOM     57  C   UNL     1      -5.152   7.574  -9.842  1.00  0.00     0.006 A 
ENDBRANCH  36  50
BRANCH  37  58
ATOM     58  C   UNL     1       6.217  10.184  -4.613  1.00  0.00     0.057 A 
ATOM     59  C   UNL     1       6.327  10.764  -3.345  1.00  0.00     0.134 A 
ATOM     60  C   UNL     1       7.403   9.900  -5.301  1.00  0.00     0.134 A 
ATOM     61  F   UNL     1       5.226  11.083  -2.650  1.00  0.00    -0.206 F 
ATOM     62  C   UNL     1       7.571  11.056  -2.783  1.00  0.00     0.040 A 
ATOM     63  C   UNL     1       8.653  10.167  -4.743  1.00  0.00     0.040 A 
ATOM     64  F   UNL     1       7.361   9.347  -6.523  1.00  0.00    -0.206 F 
ATOM     65  C   UNL     1       8.739  10.750  -3.481  1.00  0.00     0.006 A 
ENDBRANCH  37  58
BRANCH  49  66
ATOM     66  C   UNL     1       1.201  14.147  -7.340  1.00  0.00     0.057 A 
ATOM     67  C   UNL     1       1.889  14.804  -8.368  1.00  0.00     0.134 A 
ATOM     68  C   UNL     1       0.372  14.916  -6.516  1.00  0.00     0.134 A 
ATOM     69  F   UNL     1       2.709  14.122  -9.181  1.00  0.00    -0.206 F 
ATOM     70  C   UNL     1       1.767  16.181  -8.559  1.00  0.00     0.040 A 
ATOM     71  C   UNL     1       0.229  16.291  -6.708  1.00  0.00     0.040 A 
ATOM     72  F   UNL     1      -0.316  14.343  -5.517  1.00  0.00    -0.206 F 
ATOM     73  C   UNL     1       0.932  16.927  -7.730  1.00  0.00     0.006 A 
ENDBRANCH  49  66
ENDBRANCH  23  24
ENDBRANCH  16  18
ENDBRANCH  15  16
ENDBRANCH   1  15
TORSDOF 11
