REMARK SMILES Cc1cscc1-c1nc(C)c(C(=O)OCCOC(=O)c2ccc(-c3c4nc(c(-c5c(F)cccc5F)c5ccc([nH]5)c(-c5c(F)cccc5F)c5nc(c(-c6c(F)cccc6F)c6ccc3[nH]6)C=C5)C=C4)cc2)c(C)n1
REMARK SMILES IDX 16 1 15 2 14 3 12 4 13 5 11 6 7 7 8 8 76 9 9 10 74 11 10 12
REMARK SMILES IDX 75 13 6 14 1 15 2 16 3 17 4 18 5 19 17 20 18 21 19 22 20 23
REMARK SMILES IDX 21 24 73 25 22 26 72 27 23 28 24 29 25 30 66 31 26 32 71 33
REMARK SMILES IDX 65 34 67 35 27 36 70 37 64 38 63 39 28 41 54 42 37 43 53 44
REMARK SMILES IDX 38 45 41 46 52 47 68 48 39 49 40 50 51 52 69 53 42 54 29 55
REMARK SMILES IDX 30 56 35 57 31 58 32 59 34 60 36 61 33 62 55 63 56 64 61 65
REMARK SMILES IDX 57 66 58 67 60 68 62 69 59 70 43 71 44 72 49 73 45 74 46 75
REMARK SMILES IDX 48 76 50 77 47 78
REMARK H PARENT 67 40 41 51
REMARK Flexibility Score: inf
ROOT
ATOM      1  C   UNL     1       4.376   8.558  -0.912  1.00  0.00     0.275 C 
ENDROOT
BRANCH   1   2
ATOM      2  C   UNL     1       5.048   7.188  -0.853  1.00  0.00     0.275 C 
BRANCH   2   3
ATOM      3  O   UNL     1       4.069   6.130  -0.974  1.00  0.00    -0.458 OA
BRANCH   3   4
ATOM      4  C   UNL     1       3.938   5.293   0.085  1.00  0.00     0.341 C 
ATOM      5  O   UNL     1       4.515   5.398   1.151  1.00  0.00    -0.246 OA
BRANCH   4   6
ATOM      6  C   UNL     1       2.978   4.204  -0.204  1.00  0.00     0.102 A 
ATOM      7  C   UNL     1       1.330   2.086  -0.599  1.00  0.00     0.160 A 
ATOM      8  N   UNL     1       2.218   2.358  -1.567  1.00  0.00    -0.232 NA
ATOM      9  N   UNL     1       1.202   2.769   0.537  1.00  0.00    -0.232 NA
ATOM     10  C   UNL     1       3.025   3.438  -1.368  1.00  0.00     0.056 A 
ATOM     11  C   UNL     1       2.046   3.795   0.744  1.00  0.00     0.056 A 
ATOM     12  C   UNL     1       3.997   3.714  -2.480  1.00  0.00     0.068 C 
ATOM     13  C   UNL     1       1.796   4.449   2.054  1.00  0.00     0.068 C 
BRANCH   7  14
ATOM     14  C   UNL     1       0.607   0.832  -0.603  1.00  0.00     0.033 A 
ATOM     15  C   UNL     1       2.632  -0.731  -0.202  1.00  0.00     0.046 C 
ATOM     16  C   UNL     1       1.170  -0.471  -0.357  1.00  0.00    -0.029 A 
ATOM     17  C   UNL     1       0.176  -1.419  -0.215  1.00  0.00     0.069 A 
ATOM     18  S   UNL     1      -1.397  -0.759  -0.338  1.00  0.00    -0.151 S 
ATOM     19  C   UNL     1      -0.774   0.817  -0.557  1.00  0.00     0.077 A 
ENDBRANCH   7  14
ENDBRANCH   4   6
ENDBRANCH   3   4
ENDBRANCH   2   3
ENDBRANCH   1   2
BRANCH   1  20
ATOM     20  O   UNL     1       3.665   8.800   0.316  1.00  0.00    -0.458 OA
BRANCH  20  21
ATOM     21  C   UNL     1       2.327   8.636   0.250  1.00  0.00     0.338 C 
ATOM     22  O   UNL     1       1.653   8.383  -0.737  1.00  0.00    -0.246 OA
BRANCH  21  23
ATOM     23  C   UNL     1       1.754   8.669   1.603  1.00  0.00     0.060 A 
ATOM     24  C   UNL     1       2.090   7.638   2.464  1.00  0.00     0.016 A 
ATOM     25  C   UNL     1       0.720   9.540   1.935  1.00  0.00     0.016 A 
ATOM     26  C   UNL     1       1.263   7.356   3.550  1.00  0.00     0.010 A 
ATOM     27  C   UNL     1       0.001   9.345   3.127  1.00  0.00     0.010 A 
ATOM     28  C   UNL     1       0.210   8.203   3.923  1.00  0.00    -0.014 A 
BRANCH  28  29
ATOM     29  C   UNL     1      -0.684   7.851   5.082  1.00  0.00     0.031 A 
ATOM     30  C   UNL     1      -2.192   7.948   4.956  1.00  0.00     0.074 A 
ATOM     31  C   UNL     1      -0.177   7.388   6.248  1.00  0.00     0.049 A 
ATOM     32  N   UNL     1      -3.106   7.946   5.897  1.00  0.00    -0.248 NA
ATOM     33  C   UNL     1      -2.745   8.081   3.599  1.00  0.00     0.031 C 
ATOM     34  C   UNL     1       1.240   7.148   6.534  1.00  0.00     0.029 A 
ATOM     35  N   UNL     1      -0.803   7.017   7.418  1.00  0.00    -0.354 N 
ATOM     36  C   UNL     1      -4.322   8.164   5.256  1.00  0.00     0.074 A 
ATOM     37  C   UNL     1      -4.032   8.287   3.844  1.00  0.00     0.031 C 
ATOM     38  C   UNL     1       1.366   6.595   7.745  1.00  0.00     0.029 A 
ATOM     39  C   UNL     1       0.068   6.604   8.400  1.00  0.00     0.049 A 
ATOM     40  H   UNL     1      -1.780   7.045   7.540  1.00  0.00     0.167 HD
ATOM     41  C   UNL     1      -5.563   8.258   5.796  1.00  0.00     0.037 A 
ATOM     42  C   UNL     1      -0.119   6.343   9.708  1.00  0.00     0.037 A 
ATOM     43  C   UNL     1      -5.861   8.049   7.192  1.00  0.00     0.049 A 
ATOM     44  C   UNL     1      -1.484   6.526  10.301  1.00  0.00     0.074 A 
ATOM     45  C   UNL     1      -7.086   8.120   7.834  1.00  0.00     0.029 A 
ATOM     46  N   UNL     1      -4.928   7.699   8.156  1.00  0.00    -0.354 N 
ATOM     47  N   UNL     1      -2.605   6.853   9.707  1.00  0.00    -0.248 NA
ATOM     48  C   UNL     1      -1.602   6.341  11.754  1.00  0.00     0.031 C 
ATOM     49  C   UNL     1      -6.887   7.863   9.194  1.00  0.00     0.029 A 
ATOM     50  C   UNL     1      -5.547   7.571   9.390  1.00  0.00     0.049 A 
ATOM     51  H   UNL     1      -3.967   7.562   7.990  1.00  0.00     0.167 HD
ATOM     52  C   UNL     1      -3.565   6.894  10.709  1.00  0.00     0.074 A 
ATOM     53  C   UNL     1      -2.898   6.538  11.944  1.00  0.00     0.031 C 
ATOM     54  C   UNL     1      -4.880   7.206  10.613  1.00  0.00     0.037 A 
BRANCH  41  55
ATOM     55  C   UNL     1      -6.700   8.654   4.891  1.00  0.00     0.057 A 
ATOM     56  C   UNL     1      -7.228   7.798   3.918  1.00  0.00     0.134 A 
ATOM     57  C   UNL     1      -7.311   9.909   5.041  1.00  0.00     0.134 A 
ATOM     58  F   UNL     1      -6.690   6.587   3.714  1.00  0.00    -0.206 F 
ATOM     59  C   UNL     1      -8.304   8.182   3.112  1.00  0.00     0.040 A 
ATOM     60  C   UNL     1      -8.405  10.292   4.263  1.00  0.00     0.040 A 
ATOM     61  F   UNL     1      -6.866  10.777   5.962  1.00  0.00    -0.206 F 
ATOM     62  C   UNL     1      -8.901   9.429   3.289  1.00  0.00     0.006 A 
ENDBRANCH  41  55
BRANCH  42  63
ATOM     63  C   UNL     1       1.040   5.981  10.569  1.00  0.00     0.057 A 
ATOM     64  C   UNL     1       1.129   4.725  11.180  1.00  0.00     0.134 A 
ATOM     65  C   UNL     1       2.086   6.885  10.806  1.00  0.00     0.134 A 
ATOM     66  F   UNL     1       0.147   3.825  11.020  1.00  0.00    -0.206 F 
ATOM     67  C   UNL     1       2.207   4.386  12.001  1.00  0.00     0.040 A 
ATOM     68  C   UNL     1       3.188   6.544  11.590  1.00  0.00     0.040 A 
ATOM     69  F   UNL     1       2.065   8.107  10.253  1.00  0.00    -0.206 F 
ATOM     70  C   UNL     1       3.246   5.293  12.198  1.00  0.00     0.006 A 
ENDBRANCH  42  63
BRANCH  54  71
ATOM     71  C   UNL     1      -5.694   7.121  11.870  1.00  0.00     0.057 A 
ATOM     72  C   UNL     1      -5.557   8.050  12.909  1.00  0.00     0.134 A 
ATOM     73  C   UNL     1      -6.640   6.101  12.034  1.00  0.00     0.134 A 
ATOM     74  F   UNL     1      -4.656   9.040  12.822  1.00  0.00    -0.206 F 
ATOM     75  C   UNL     1      -6.312   7.951  14.079  1.00  0.00     0.040 A 
ATOM     76  C   UNL     1      -7.422   6.010  13.186  1.00  0.00     0.040 A 
ATOM     77  F   UNL     1      -6.826   5.182  11.075  1.00  0.00    -0.206 F 
ATOM     78  C   UNL     1      -7.252   6.932  14.216  1.00  0.00     0.006 A 
ENDBRANCH  54  71
ENDBRANCH  28  29
ENDBRANCH  21  23
ENDBRANCH  20  21
ENDBRANCH   1  20
TORSDOF 12
