REMARK SMILES CCn1c(CC2CC[NH+](Cc3cn[nH]c3C(=O)OCCOC(=O)c3ccc(-c4c5nc(c(-c6c(F)cccc6F)c6ccc([nH]6)c(-c6c(F)cccc6F)c6nc(c(-c7c(F)cccc7F)c7ccc4[nH]7)C=C6)C=C5)cc3)CC2)nn(C)c1=O
REMARK SMILES IDX 18 1 16 2 17 3 15 4 11 5 12 6 13 7 14 8 10 10 9 11 6 12 7 13
REMARK SMILES IDX 79 14 8 15 78 16 5 18 4 19 3 20 83 21 80 22 81 23 84 24
REMARK SMILES IDX 82 25 2 26 1 27 19 28 20 29 21 30 22 31 23 32 24 33 25 34
REMARK SMILES IDX 77 35 26 36 76 37 27 38 28 39 29 40 70 41 30 42 75 43 69 44
REMARK SMILES IDX 71 45 31 46 74 47 68 48 67 49 32 51 58 52 41 53 57 54 42 55
REMARK SMILES IDX 45 56 56 57 72 58 43 59 44 60 55 62 73 63 46 64 33 65 34 66
REMARK SMILES IDX 39 67 35 68 36 69 38 70 40 71 37 72 59 73 60 74 65 75 61 76
REMARK SMILES IDX 62 77 64 78 66 79 63 80 47 81 48 82 53 83 49 84 50 85 52 86
REMARK SMILES IDX 54 87 51 88
REMARK H PARENT 14 9 9 17 71 50 45 61
REMARK Flexibility Score: inf
ROOT
ATOM      1  O   UNL     1       5.203   2.916   1.224  1.00  0.00    -0.457 OA
ENDROOT
BRANCH   1   2
ATOM      2  C   UNL     1       4.833   2.541  -0.029  1.00  0.00     0.356 C 
ATOM      3  O   UNL     1       5.355   1.659  -0.696  1.00  0.00    -0.244 OA
BRANCH   2   4
ATOM      4  C   UNL     1       3.780   3.397  -0.502  1.00  0.00     0.152 A 
ATOM      5  C   UNL     1       3.227   5.003   0.067  1.00  0.00     0.059 A 
ATOM      6  C   UNL     1       1.996   5.682  -1.321  1.00  0.00     0.145 A 
ATOM      7  N   UNL     1       1.740   4.452  -2.526  1.00  0.00    -0.183 NA
ATOM      8  N   UNL     1       2.896   3.043  -2.111  1.00  0.00    -0.271 N 
ATOM      9  H   UNL     1       3.020   2.234  -2.658  1.00  0.00     0.190 HD
BRANCH   5  10
ATOM     10  C   UNL     1       3.655   5.699   1.340  1.00  0.00     0.303 C 
BRANCH  10  11
ATOM     11  N   UNL     1       2.623   5.753   2.397  1.00  0.00    -0.331 N 
ATOM     12  C   UNL     1      -0.199   5.073   3.052  1.00  0.00     0.008 C 
ATOM     13  C   UNL     1       0.218   6.518   2.775  1.00  0.00     0.065 C 
ATOM     14  C   UNL     1       0.977   4.360   3.724  1.00  0.00     0.065 C 
ATOM     15  C   UNL     1       1.544   6.672   2.039  1.00  0.00     0.262 C 
ATOM     16  C   UNL     1       2.276   4.427   2.915  1.00  0.00     0.262 C 
ATOM     17  H   UNL     1       3.008   6.188   3.236  1.00  0.00     0.348 HD
BRANCH  12  18
ATOM     18  C   UNL     1      -0.838   4.324   1.859  1.00  0.00     0.081 C 
BRANCH  18  19
ATOM     19  C   UNL     1       0.116   3.830   0.794  1.00  0.00     0.133 A 
ATOM     20  N   UNL     1       0.337   2.546   0.523  1.00  0.00    -0.279 N 
ATOM     21  C   UNL     1       1.350   2.420  -0.432  1.00  0.00     0.345 A 
ATOM     22  N   UNL     1       0.820   4.662   0.121  1.00  0.00    -0.155 NA
ATOM     23  N   UNL     1       1.907   3.849  -0.744  1.00  0.00    -0.216 N 
ATOM     24  O   UNL     1       1.732   1.367  -0.944  1.00  0.00    -0.246 OA
ATOM     25  C   UNL     1       3.527   4.766  -1.863  1.00  0.00     0.179 C 
BRANCH  20  26
ATOM     26  C   UNL     1      -0.328   1.467   1.237  1.00  0.00     0.125 C 
ATOM     27  C   UNL     1      -0.296   0.126   0.580  1.00  0.00     0.028 C 
ENDBRANCH  20  26
ENDBRANCH  18  19
ENDBRANCH  12  18
ENDBRANCH  10  11
ENDBRANCH   5  10
ENDBRANCH   2   4
ENDBRANCH   1   2
BRANCH   1  28
ATOM     28  C   UNL     1       6.222   2.130   1.863  1.00  0.00     0.275 C 
BRANCH  28  29
ATOM     29  C   UNL     1       5.636   0.911   2.554  1.00  0.00     0.275 C 
BRANCH  29  30
ATOM     30  O   UNL     1       5.216  -0.067   1.605  1.00  0.00    -0.458 OA
BRANCH  30  31
ATOM     31  C   UNL     1       3.897   0.002   1.324  1.00  0.00     0.338 C 
ATOM     32  O   UNL     1       3.134   0.930   1.535  1.00  0.00    -0.246 OA
BRANCH  31  33
ATOM     33  C   UNL     1       3.428  -1.357   1.111  1.00  0.00     0.060 A 
ATOM     34  C   UNL     1       2.414  -1.611   0.210  1.00  0.00     0.016 A 
ATOM     35  C   UNL     1       3.737  -2.263   2.124  1.00  0.00     0.016 A 
ATOM     36  C   UNL     1       1.456  -2.526   0.617  1.00  0.00     0.010 A 
ATOM     37  C   UNL     1       2.938  -3.359   2.304  1.00  0.00     0.010 A 
ATOM     38  C   UNL     1       1.673  -3.339   1.753  1.00  0.00    -0.014 A 
BRANCH  38  39
ATOM     39  C   UNL     1       0.775  -4.467   2.042  1.00  0.00     0.031 A 
ATOM     40  C   UNL     1       0.577  -5.151   0.726  1.00  0.00     0.074 A 
ATOM     41  C   UNL     1       0.341  -4.851   3.285  1.00  0.00     0.049 A 
ATOM     42  N   UNL     1      -0.524  -5.191   0.054  1.00  0.00    -0.248 NA
ATOM     43  C   UNL     1       1.760  -5.460  -0.125  1.00  0.00     0.031 C 
ATOM     44  C   UNL     1       0.615  -4.221   4.592  1.00  0.00     0.029 A 
ATOM     45  N   UNL     1      -0.393  -5.965   3.683  1.00  0.00    -0.354 N 
ATOM     46  C   UNL     1      -0.216  -5.900  -1.107  1.00  0.00     0.074 A 
ATOM     47  C   UNL     1       1.195  -5.774  -1.293  1.00  0.00     0.031 C 
ATOM     48  C   UNL     1       0.351  -5.083   5.609  1.00  0.00     0.029 A 
ATOM     49  C   UNL     1      -0.248  -6.287   5.071  1.00  0.00     0.049 A 
ATOM     50  H   UNL     1      -0.960  -6.484   3.068  1.00  0.00     0.167 HD
ATOM     51  C   UNL     1      -1.060  -6.904  -1.465  1.00  0.00     0.037 A 
ATOM     52  C   UNL     1      -0.635  -7.445   5.705  1.00  0.00     0.037 A 
ATOM     53  C   UNL     1      -2.363  -6.640  -0.895  1.00  0.00     0.049 A 
ATOM     54  C   UNL     1      -1.629  -8.078   4.815  1.00  0.00     0.074 A 
ATOM     55  C   UNL     1      -3.352  -5.694  -1.076  1.00  0.00     0.029 A 
ATOM     56  N   UNL     1      -2.436  -7.044   0.411  1.00  0.00    -0.354 N 
ATOM     57  N   UNL     1      -2.797  -7.554   4.578  1.00  0.00    -0.248 NA
ATOM     58  C   UNL     1      -1.091  -8.964   3.798  1.00  0.00     0.031 C 
ATOM     59  C   UNL     1      -3.951  -5.490   0.205  1.00  0.00     0.029 A 
ATOM     60  C   UNL     1      -3.426  -6.416   1.100  1.00  0.00     0.049 A 
ATOM     61  H   UNL     1      -1.836  -7.715   0.809  1.00  0.00     0.167 HD
ATOM     62  C   UNL     1      -2.903  -7.627   3.201  1.00  0.00     0.074 A 
ATOM     63  C   UNL     1      -1.871  -8.588   2.783  1.00  0.00     0.031 C 
ATOM     64  C   UNL     1      -3.580  -6.661   2.510  1.00  0.00     0.037 A 
BRANCH  51  65
ATOM     65  C   UNL     1      -0.570  -8.333  -1.674  1.00  0.00     0.057 A 
ATOM     66  C   UNL     1      -1.505  -9.312  -2.044  1.00  0.00     0.134 A 
ATOM     67  C   UNL     1       0.678  -8.847  -1.248  1.00  0.00     0.134 A 
ATOM     68  F   UNL     1      -2.743  -8.966  -2.427  1.00  0.00    -0.206 F 
ATOM     69  C   UNL     1      -1.233 -10.687  -1.962  1.00  0.00     0.040 A 
ATOM     70  C   UNL     1       0.976 -10.212  -1.206  1.00  0.00     0.040 A 
ATOM     71  F   UNL     1       1.655  -8.084  -0.752  1.00  0.00    -0.206 F 
ATOM     72  C   UNL     1       0.012 -11.141  -1.544  1.00  0.00     0.006 A 
ENDBRANCH  51  65
BRANCH  52  73
ATOM     73  C   UNL     1       0.021  -8.274   6.774  1.00  0.00     0.057 A 
ATOM     74  C   UNL     1      -0.613  -9.370   7.411  1.00  0.00     0.134 A 
ATOM     75  C   UNL     1       1.413  -8.227   6.932  1.00  0.00     0.134 A 
ATOM     76  F   UNL     1      -1.935  -9.564   7.289  1.00  0.00    -0.206 F 
ATOM     77  C   UNL     1       0.100 -10.351   8.134  1.00  0.00     0.040 A 
ATOM     78  C   UNL     1       2.135  -9.204   7.639  1.00  0.00     0.040 A 
ATOM     79  F   UNL     1       2.132  -7.283   6.313  1.00  0.00    -0.206 F 
ATOM     80  C   UNL     1       1.484 -10.277   8.235  1.00  0.00     0.006 A 
ENDBRANCH  52  73
BRANCH  64  81
ATOM     81  C   UNL     1      -4.525  -5.776   3.261  1.00  0.00     0.057 A 
ATOM     82  C   UNL     1      -4.171  -4.773   4.176  1.00  0.00     0.134 A 
ATOM     83  C   UNL     1      -5.878  -5.890   2.929  1.00  0.00     0.134 A 
ATOM     84  F   UNL     1      -2.887  -4.536   4.485  1.00  0.00    -0.206 F 
ATOM     85  C   UNL     1      -5.142  -3.946   4.758  1.00  0.00     0.040 A 
ATOM     86  C   UNL     1      -6.847  -5.055   3.475  1.00  0.00     0.040 A 
ATOM     87  F   UNL     1      -6.272  -6.793   2.017  1.00  0.00    -0.206 F 
ATOM     88  C   UNL     1      -6.484  -4.087   4.405  1.00  0.00     0.006 A 
ENDBRANCH  64  81
ENDBRANCH  38  39
ENDBRANCH  31  33
ENDBRANCH  30  31
ENDBRANCH  29  30
ENDBRANCH  28  29
ENDBRANCH   1  28
TORSDOF 16
