REMARK SMILES Cc1cc(C)cc(CSc2cc(C(=O)OCCOC(=O)c3ccc(-c4c5nc(c(-c6c(F)cccc6F)c6ccc([nH]6)c(-c6c(F)cccc6F)c6nc(c(-c7c(F)cccc7F)c7ccc4[nH]7)C=C6)C=C5)cc3)cc(Cl)n2)c1
REMARK SMILES IDX 16 1 15 2 13 3 14 4 12 5 10 6 11 7 78 8 76 9 75 10 77 11
REMARK SMILES IDX 9 12 8 13 7 14 1 15 2 16 3 17 79 18 4 19 5 20 6 21 17 22
REMARK SMILES IDX 18 23 19 24 20 25 21 26 22 27 74 28 23 29 73 30 24 31 25 32
REMARK SMILES IDX 26 33 67 34 27 35 72 36 66 37 68 38 28 39 71 40 65 41 64 42
REMARK SMILES IDX 29 44 55 45 38 46 54 47 39 48 42 49 53 50 69 51 40 52 41 53
REMARK SMILES IDX 52 55 70 56 43 57 30 58 31 59 36 60 32 61 33 62 35 63 37 64
REMARK SMILES IDX 34 65 56 66 57 67 62 68 58 69 59 70 61 71 63 72 60 73 44 74
REMARK SMILES IDX 45 75 50 76 46 77 47 78 49 79 51 80 48 81
REMARK H PARENT 68 43 42 54
REMARK Flexibility Score: inf
ROOT
ATOM      1  C   UNL     1       3.119  -4.721   7.672  1.00  0.00     0.275 C 
ENDROOT
BRANCH   1   2
ATOM      2  O   UNL     1       2.387  -3.793   6.845  1.00  0.00    -0.458 OA
BRANCH   2   3
ATOM      3  C   UNL     1       2.535  -3.934   5.507  1.00  0.00     0.338 C 
ATOM      4  O   UNL     1       3.255  -4.729   4.926  1.00  0.00    -0.246 OA
BRANCH   3   5
ATOM      5  C   UNL     1       1.564  -3.072   4.800  1.00  0.00     0.065 A 
ATOM      6  C   UNL     1      -0.051  -2.858   3.055  1.00  0.00     0.099 A 
ATOM      7  C   UNL     1       0.978  -3.572   3.636  1.00  0.00     0.051 A 
ATOM      8  N   UNL     1      -0.442  -1.652   3.505  1.00  0.00    -0.230 NA
ATOM      9  C   UNL     1       0.211  -1.156   4.575  1.00  0.00     0.131 A 
ATOM     10  C   UNL     1       1.193  -1.824   5.279  1.00  0.00     0.056 A 
ATOM     11  Cl  UNL     1      -0.279   0.420   5.040  1.00  0.00    -0.062 Cl
BRANCH   6  12
ATOM     12  S   UNL     1      -1.018  -3.627   1.773  1.00  0.00    -0.102 SA
BRANCH  12  13
ATOM     13  C   UNL     1      -0.078  -3.101   0.306  1.00  0.00     0.112 C 
BRANCH  13  14
ATOM     14  C   UNL     1      -0.040  -1.607   0.118  1.00  0.00    -0.037 A 
ATOM     15  C   UNL     1       2.536   1.198  -0.033  1.00  0.00     0.044 C 
ATOM     16  C   UNL     1       1.227   0.465  -0.038  1.00  0.00    -0.051 A 
ATOM     17  C   UNL     1       0.026   1.181  -0.127  1.00  0.00     0.006 A 
ATOM     18  C   UNL     1       1.185  -0.928   0.088  1.00  0.00     0.008 A 
ATOM     19  C   UNL     1      -1.207   0.520  -0.113  1.00  0.00    -0.051 A 
ATOM     20  C   UNL     1      -2.485   1.302  -0.161  1.00  0.00     0.044 C 
ATOM     21  C   UNL     1      -1.230  -0.873  -0.007  1.00  0.00     0.008 A 
ENDBRANCH  13  14
ENDBRANCH  12  13
ENDBRANCH   6  12
ENDBRANCH   3   5
ENDBRANCH   2   3
ENDBRANCH   1   2
BRANCH   1  22
ATOM     22  C   UNL     1       2.197  -5.811   8.221  1.00  0.00     0.275 C 
BRANCH  22  23
ATOM     23  O   UNL     1       1.783  -6.699   7.166  1.00  0.00    -0.458 OA
BRANCH  23  24
ATOM     24  C   UNL     1       0.492  -6.588   6.784  1.00  0.00     0.338 C 
ATOM     25  O   UNL     1      -0.360  -5.841   7.231  1.00  0.00    -0.246 OA
BRANCH  24  26
ATOM     26  C   UNL     1       0.238  -7.497   5.657  1.00  0.00     0.060 A 
ATOM     27  C   UNL     1       0.682  -7.126   4.391  1.00  0.00     0.016 A 
ATOM     28  C   UNL     1      -0.548  -8.634   5.821  1.00  0.00     0.016 A 
ATOM     29  C   UNL     1       0.262  -7.828   3.264  1.00  0.00     0.010 A 
ATOM     30  C   UNL     1      -0.882  -9.400   4.698  1.00  0.00     0.010 A 
ATOM     31  C   UNL     1      -0.509  -8.988   3.403  1.00  0.00    -0.014 A 
BRANCH  31  32
ATOM     32  C   UNL     1      -0.952  -9.765   2.212  1.00  0.00     0.031 A 
ATOM     33  C   UNL     1      -2.420 -10.005   1.978  1.00  0.00     0.074 A 
ATOM     34  C   UNL     1      -0.053 -10.280   1.350  1.00  0.00     0.049 A 
ATOM     35  N   UNL     1      -3.003 -10.870   1.188  1.00  0.00    -0.248 NA
ATOM     36  C   UNL     1      -3.353  -9.169   2.749  1.00  0.00     0.031 C 
ATOM     37  C   UNL     1       1.395 -10.077   1.405  1.00  0.00     0.029 A 
ATOM     38  N   UNL     1      -0.229 -11.098   0.259  1.00  0.00    -0.354 N 
ATOM     39  C   UNL     1      -4.367 -10.731   1.417  1.00  0.00     0.074 A 
ATOM     40  C   UNL     1      -4.525  -9.690   2.410  1.00  0.00     0.031 C 
ATOM     41  C   UNL     1       1.972 -10.734   0.388  1.00  0.00     0.029 A 
ATOM     42  C   UNL     1       0.950 -11.484  -0.332  1.00  0.00     0.049 A 
ATOM     43  H   UNL     1      -1.115 -11.379  -0.068  1.00  0.00     0.167 HD
ATOM     44  C   UNL     1      -5.389 -11.419   0.855  1.00  0.00     0.037 A 
ATOM     45  C   UNL     1       1.193 -12.387  -1.301  1.00  0.00     0.037 A 
ATOM     46  C   UNL     1      -5.228 -12.409  -0.177  1.00  0.00     0.049 A 
ATOM     47  C   UNL     1       0.050 -13.165  -1.886  1.00  0.00     0.074 A 
ATOM     48  C   UNL     1      -6.201 -13.159  -0.815  1.00  0.00     0.029 A 
ATOM     49  N   UNL     1      -4.013 -12.771  -0.738  1.00  0.00    -0.354 N 
ATOM     50  N   UNL     1      -1.228 -13.088  -1.605  1.00  0.00    -0.248 NA
ATOM     51  C   UNL     1       0.384 -14.172  -2.903  1.00  0.00     0.031 C 
ATOM     52  C   UNL     1      -5.572 -13.993  -1.744  1.00  0.00     0.029 A 
ATOM     53  C   UNL     1      -4.211 -13.736  -1.711  1.00  0.00     0.049 A 
ATOM     54  H   UNL     1      -3.139 -12.397  -0.482  1.00  0.00     0.167 HD
ATOM     55  C   UNL     1      -1.852 -14.020  -2.422  1.00  0.00     0.074 A 
ATOM     56  C   UNL     1      -0.815 -14.647  -3.215  1.00  0.00     0.031 C 
ATOM     57  C   UNL     1      -3.168 -14.330  -2.505  1.00  0.00     0.037 A 
BRANCH  44  58
ATOM     58  C   UNL     1      -6.773 -11.154   1.370  1.00  0.00     0.057 A 
ATOM     59  C   UNL     1      -7.477  -9.986   1.055  1.00  0.00     0.134 A 
ATOM     60  C   UNL     1      -7.424 -12.108   2.165  1.00  0.00     0.134 A 
ATOM     61  F   UNL     1      -6.906  -9.029   0.309  1.00  0.00    -0.206 F 
ATOM     62  C   UNL     1      -8.773  -9.767   1.528  1.00  0.00     0.040 A 
ATOM     63  C   UNL     1      -8.727 -11.911   2.623  1.00  0.00     0.040 A 
ATOM     64  F   UNL     1      -6.808 -13.252   2.497  1.00  0.00    -0.206 F 
ATOM     65  C   UNL     1      -9.404 -10.735   2.309  1.00  0.00     0.006 A 
ENDBRANCH  44  58
BRANCH  45  66
ATOM     66  C   UNL     1       2.589 -12.640  -1.737  1.00  0.00     0.057 A 
ATOM     67  C   UNL     1       3.036 -12.238  -3.000  1.00  0.00     0.134 A 
ATOM     68  C   UNL     1       3.513 -13.275  -0.897  1.00  0.00     0.134 A 
ATOM     69  F   UNL     1       2.192 -11.646  -3.857  1.00  0.00    -0.206 F 
ATOM     70  C   UNL     1       4.351 -12.460  -3.414  1.00  0.00     0.040 A 
ATOM     71  C   UNL     1       4.837 -13.481  -1.288  1.00  0.00     0.040 A 
ATOM     72  F   UNL     1       3.147 -13.683   0.327  1.00  0.00    -0.206 F 
ATOM     73  C   UNL     1       5.257 -13.076  -2.553  1.00  0.00     0.006 A 
ENDBRANCH  45  66
BRANCH  57  74
ATOM     74  C   UNL     1      -3.570 -15.354  -3.522  1.00  0.00     0.057 A 
ATOM     75  C   UNL     1      -3.382 -16.723  -3.304  1.00  0.00     0.134 A 
ATOM     76  C   UNL     1      -4.208 -14.963  -4.706  1.00  0.00     0.134 A 
ATOM     77  F   UNL     1      -2.765 -17.157  -2.194  1.00  0.00    -0.206 F 
ATOM     78  C   UNL     1      -3.810 -17.671  -4.234  1.00  0.00     0.040 A 
ATOM     79  C   UNL     1      -4.656 -15.902  -5.635  1.00  0.00     0.040 A 
ATOM     80  F   UNL     1      -4.420 -13.665  -4.968  1.00  0.00    -0.206 F 
ATOM     81  C   UNL     1      -4.456 -17.261  -5.400  1.00  0.00     0.006 A 
ENDBRANCH  57  74
ENDBRANCH  31  32
ENDBRANCH  24  26
ENDBRANCH  23  24
ENDBRANCH  22  23
ENDBRANCH   1  22
TORSDOF 14
