REMARK SMILES O=C(OCCOC(=O)c1cccc(S(=O)(=O)NC[C@@H]2COc3ccccc3O2)c1)c1ccc(-c2c3nc(c(-c4c(F)cccc4F)c4ccc([nH]4)c(-c4c(F)cccc4F)c4nc(c(-c5c(F)cccc5F)c5ccc2[nH]5)C=C4)C=C3)cc1
REMARK SMILES IDX 5 1 4 2 3 3 2 4 1 5 30 6 31 7 83 8 32 9 82 10 33 11 34 12
REMARK SMILES IDX 35 13 76 14 36 15 81 16 75 17 77 18 37 19 80 20 74 21 73 22
REMARK SMILES IDX 38 24 64 25 47 26 63 27 48 28 51 29 62 30 78 31 49 32 50 33
REMARK SMILES IDX 61 35 79 36 52 37 39 38 40 39 45 40 41 41 42 42 44 43 46 44
REMARK SMILES IDX 43 45 65 46 66 47 71 48 67 49 68 50 70 51 72 52 69 53 53 54
REMARK SMILES IDX 54 55 59 56 55 57 56 58 58 59 60 60 57 61 6 62 7 63 8 64
REMARK SMILES IDX 9 65 10 66 29 67 11 68 13 69 12 70 14 71 15 72 16 73 17 74
REMARK SMILES IDX 18 76 19 77 20 78 28 79 21 80 27 81 22 82 26 83 23 84 25 85
REMARK SMILES IDX 24 86
REMARK H PARENT 77 23 51 34 17 75
REMARK Flexibility Score: inf
ROOT
ATOM      1  C   UNL     1       3.944   1.785  -1.151  1.00  0.00     0.275 C 
ENDROOT
BRANCH   1   2
ATOM      2  C   UNL     1       4.136   0.282  -1.372  1.00  0.00     0.275 C 
BRANCH   2   3
ATOM      3  O   UNL     1       3.108  -0.569  -0.831  1.00  0.00    -0.458 OA
BRANCH   3   4
ATOM      4  C   UNL     1       2.985  -1.071   0.421  1.00  0.00     0.338 C 
ATOM      5  O   UNL     1       2.135  -1.926   0.659  1.00  0.00    -0.246 OA
BRANCH   4   6
ATOM      6  C   UNL     1       3.743  -0.511   1.572  1.00  0.00     0.060 A 
ATOM      7  C   UNL     1       5.110  -0.230   1.557  1.00  0.00     0.016 A 
ATOM      8  C   UNL     1       3.027  -0.312   2.765  1.00  0.00     0.016 A 
ATOM      9  C   UNL     1       5.734   0.321   2.679  1.00  0.00     0.010 A 
ATOM     10  C   UNL     1       3.647   0.232   3.893  1.00  0.00     0.010 A 
ATOM     11  C   UNL     1       5.011   0.547   3.854  1.00  0.00    -0.014 A 
BRANCH  11  12
ATOM     12  C   UNL     1       5.731   0.951   5.081  1.00  0.00     0.031 A 
ATOM     13  C   UNL     1       6.124  -0.105   6.067  1.00  0.00     0.074 A 
ATOM     14  C   UNL     1       6.111   2.224   5.282  1.00  0.00     0.049 A 
ATOM     15  N   UNL     1       6.837   0.016   7.154  1.00  0.00    -0.248 NA
ATOM     16  C   UNL     1       5.713  -1.484   5.758  1.00  0.00     0.031 C 
ATOM     17  C   UNL     1       5.903   3.324   4.346  1.00  0.00     0.029 A 
ATOM     18  N   UNL     1       6.724   2.813   6.359  1.00  0.00    -0.354 N 
ATOM     19  C   UNL     1       7.046  -1.277   7.604  1.00  0.00     0.074 A 
ATOM     20  C   UNL     1       6.296  -2.160   6.736  1.00  0.00     0.031 C 
ATOM     21  C   UNL     1       6.283   4.473   4.934  1.00  0.00     0.029 A 
ATOM     22  C   UNL     1       6.749   4.184   6.282  1.00  0.00     0.049 A 
ATOM     23  H   UNL     1       7.106   2.304   7.111  1.00  0.00     0.167 HD
ATOM     24  C   UNL     1       7.846  -1.691   8.612  1.00  0.00     0.037 A 
ATOM     25  C   UNL     1       7.076   5.102   7.209  1.00  0.00     0.037 A 
ATOM     26  C   UNL     1       8.538  -0.805   9.508  1.00  0.00     0.049 A 
ATOM     27  C   UNL     1       7.707   4.635   8.485  1.00  0.00     0.074 A 
ATOM     28  C   UNL     1       9.376  -1.117  10.562  1.00  0.00     0.029 A 
ATOM     29  N   UNL     1       8.437   0.579   9.472  1.00  0.00    -0.354 N 
ATOM     30  N   UNL     1       7.969   3.410   8.868  1.00  0.00    -0.248 NA
ATOM     31  C   UNL     1       8.159   5.673   9.420  1.00  0.00     0.031 C 
ATOM     32  C   UNL     1       9.744   0.078  11.194  1.00  0.00     0.029 A 
ATOM     33  C   UNL     1       9.166   1.135  10.510  1.00  0.00     0.049 A 
ATOM     34  H   UNL     1       7.923   1.091   8.806  1.00  0.00     0.167 HD
ATOM     35  C   UNL     1       8.688   3.528  10.046  1.00  0.00     0.074 A 
ATOM     36  C   UNL     1       8.783   4.946  10.337  1.00  0.00     0.031 C 
ATOM     37  C   UNL     1       9.258   2.547  10.788  1.00  0.00     0.037 A 
BRANCH  24  38
ATOM     38  C   UNL     1       8.005  -3.170   8.764  1.00  0.00     0.057 A 
ATOM     39  C   UNL     1       8.765  -3.914   7.849  1.00  0.00     0.134 A 
ATOM     40  C   UNL     1       7.365  -3.865   9.794  1.00  0.00     0.134 A 
ATOM     41  F   UNL     1       9.383  -3.307   6.824  1.00  0.00    -0.206 F 
ATOM     42  C   UNL     1       8.859  -5.303   7.939  1.00  0.00     0.040 A 
ATOM     43  C   UNL     1       7.466  -5.252   9.904  1.00  0.00     0.040 A 
ATOM     44  F   UNL     1       6.617  -3.210  10.694  1.00  0.00    -0.206 F 
ATOM     45  C   UNL     1       8.207  -5.976   8.970  1.00  0.00     0.006 A 
ENDBRANCH  24  38
BRANCH  25  46
ATOM     46  C   UNL     1       6.843   6.543   6.955  1.00  0.00     0.057 A 
ATOM     47  C   UNL     1       7.878   7.391   6.550  1.00  0.00     0.134 A 
ATOM     48  C   UNL     1       5.574   7.109   7.131  1.00  0.00     0.134 A 
ATOM     49  F   UNL     1       9.119   6.910   6.391  1.00  0.00    -0.206 F 
ATOM     50  C   UNL     1       7.662   8.754   6.332  1.00  0.00     0.040 A 
ATOM     51  C   UNL     1       5.341   8.468   6.904  1.00  0.00     0.040 A 
ATOM     52  F   UNL     1       4.546   6.357   7.548  1.00  0.00    -0.206 F 
ATOM     53  C   UNL     1       6.388   9.295   6.506  1.00  0.00     0.006 A 
ENDBRANCH  25  46
BRANCH  37  54
ATOM     54  C   UNL     1      10.097   2.983  11.948  1.00  0.00     0.057 A 
ATOM     55  C   UNL     1       9.533   3.470  13.132  1.00  0.00     0.134 A 
ATOM     56  C   UNL     1      11.493   2.902  11.876  1.00  0.00     0.134 A 
ATOM     57  F   UNL     1       8.202   3.592  13.252  1.00  0.00    -0.206 F 
ATOM     58  C   UNL     1      10.332   3.880  14.200  1.00  0.00     0.040 A 
ATOM     59  C   UNL     1      12.301   3.286  12.946  1.00  0.00     0.040 A 
ATOM     60  F   UNL     1      12.094   2.443  10.767  1.00  0.00    -0.206 F 
ATOM     61  C   UNL     1      11.720   3.782  14.111  1.00  0.00     0.006 A 
ENDBRANCH  37  54
ENDBRANCH  11  12
ENDBRANCH   4   6
ENDBRANCH   3   4
ENDBRANCH   2   3
ENDBRANCH   1   2
BRANCH   1  62
ATOM     62  O   UNL     1       3.431   2.129   0.147  1.00  0.00    -0.458 OA
BRANCH  62  63
ATOM     63  C   UNL     1       2.076   2.206   0.198  1.00  0.00     0.338 C 
ATOM     64  O   UNL     1       1.311   2.046  -0.739  1.00  0.00    -0.246 OA
BRANCH  63  65
ATOM     65  C   UNL     1       1.594   2.490   1.570  1.00  0.00     0.061 A 
ATOM     66  C   UNL     1       0.404   1.883   1.979  1.00  0.00     0.016 A 
ATOM     67  C   UNL     1       2.240   3.395   2.418  1.00  0.00     0.037 A 
ATOM     68  C   UNL     1      -0.144   2.191   3.223  1.00  0.00     0.002 A 
ATOM     69  C   UNL     1       1.621   3.804   3.603  1.00  0.00     0.083 A 
ATOM     70  C   UNL     1       0.445   3.173   4.020  1.00  0.00     0.022 A 
BRANCH  69  71
ATOM     71  S   UNL     1       2.281   5.120   4.607  1.00  0.00     0.240 S 
ATOM     72  O   UNL     1       1.158   5.702   5.325  1.00  0.00    -0.207 OA
ATOM     73  O   UNL     1       3.416   4.604   5.304  1.00  0.00    -0.207 OA
BRANCH  71  74
ATOM     74  N   UNL     1       2.771   6.351   3.575  1.00  0.00    -0.207 NA
ATOM     75  H   UNL     1       2.960   7.152   4.177  1.00  0.00     0.141 HD
BRANCH  74  76
ATOM     76  C   UNL     1       3.920   6.268   2.655  1.00  0.00     0.147 C 
BRANCH  76  77
ATOM     77  C   UNL     1       3.399   6.303   1.201  1.00  0.00     0.226 C 
ATOM     78  C   UNL     1       4.287   5.511   0.235  1.00  0.00     0.276 C 
ATOM     79  O   UNL     1       3.166   7.660   0.787  1.00  0.00    -0.482 OA
ATOM     80  O   UNL     1       5.496   6.204  -0.055  1.00  0.00    -0.486 OA
ATOM     81  C   UNL     1       4.016   8.109  -0.187  1.00  0.00     0.161 A 
ATOM     82  C   UNL     1       5.158   7.416  -0.594  1.00  0.00     0.161 A 
ATOM     83  C   UNL     1       3.688   9.314  -0.799  1.00  0.00     0.050 A 
ATOM     84  C   UNL     1       5.982   7.924  -1.593  1.00  0.00     0.050 A 
ATOM     85  C   UNL     1       4.492   9.812  -1.827  1.00  0.00     0.004 A 
ATOM     86  C   UNL     1       5.638   9.119  -2.222  1.00  0.00     0.004 A 
ENDBRANCH  76  77
ENDBRANCH  74  76
ENDBRANCH  71  74
ENDBRANCH  69  71
ENDBRANCH  63  65
ENDBRANCH  62  63
ENDBRANCH   1  62
TORSDOF 15
