REMARK SMILES O=C(OCCOC(=O)c1cc([C@@H]2C=NN=C2c2ccc(F)cc2)c2c(ccc3ccccc32)n1)c1ccc(-c2c3nc(c(-c4c(F)cccc4F)c4ccc([nH]4)c(-c4c(F)cccc4F)c4nc(c(-c5c(F)cccc5F)c5ccc2[nH]5)C=C4)C=C3)cc1
REMARK SMILES IDX 4 1 3 2 2 3 1 4 35 5 36 6 88 7 37 8 87 9 38 10 39 11 40 12
REMARK SMILES IDX 81 13 41 14 86 15 80 16 82 17 42 18 85 19 79 20 78 21 43 23
REMARK SMILES IDX 69 24 52 25 68 26 53 27 56 28 67 29 83 30 54 31 55 32 66 34
REMARK SMILES IDX 84 35 57 36 44 37 45 38 50 39 46 40 47 41 49 42 51 43 48 44
REMARK SMILES IDX 70 45 71 46 76 47 72 48 73 49 75 50 77 51 74 52 58 53 59 54
REMARK SMILES IDX 64 55 60 56 61 57 63 58 65 59 62 60 5 61 6 62 7 63 8 64 9 65
REMARK SMILES IDX 10 66 34 67 11 68 25 69 24 70 26 71 33 72 27 73 28 74 32 75
REMARK SMILES IDX 29 76 31 77 30 78 12 79 13 80 16 81 14 82 15 83 17 84 18 85
REMARK SMILES IDX 23 86 19 87 22 88 20 89 21 90
REMARK H PARENT 82 22 56 33
REMARK Flexibility Score: inf
ROOT
ATOM      1  C   UNL     1       4.872  -0.351  -1.329  1.00  0.00     0.275 C 
ENDROOT
BRANCH   1   2
ATOM      2  O   UNL     1       3.799  -1.309  -1.223  1.00  0.00    -0.458 OA
BRANCH   2   3
ATOM      3  C   UNL     1       2.606  -0.893  -0.750  1.00  0.00     0.338 C 
ATOM      4  O   UNL     1       1.734  -0.381  -1.438  1.00  0.00    -0.246 OA
BRANCH   3   5
ATOM      5  C   UNL     1       2.441  -1.255   0.680  1.00  0.00     0.060 A 
ATOM      6  C   UNL     1       3.527  -1.671   1.465  1.00  0.00     0.016 A 
ATOM      7  C   UNL     1       1.168  -1.157   1.248  1.00  0.00     0.016 A 
ATOM      8  C   UNL     1       3.334  -2.053   2.786  1.00  0.00     0.010 A 
ATOM      9  C   UNL     1       0.977  -1.536   2.572  1.00  0.00     0.010 A 
ATOM     10  C   UNL     1       2.050  -2.033   3.326  1.00  0.00    -0.014 A 
BRANCH  10  11
ATOM     11  C   UNL     1       1.853  -2.625   4.652  1.00  0.00     0.031 A 
ATOM     12  C   UNL     1       2.483  -1.982   5.851  1.00  0.00     0.074 A 
ATOM     13  C   UNL     1       0.991  -3.646   4.823  1.00  0.00     0.049 A 
ATOM     14  N   UNL     1       3.196  -2.505   6.802  1.00  0.00    -0.248 NA
ATOM     15  C   UNL     1       2.255  -0.547   6.024  1.00  0.00     0.031 C 
ATOM     16  C   UNL     1       0.064  -4.229   3.845  1.00  0.00     0.029 A 
ATOM     17  N   UNL     1       0.688  -4.309   5.971  1.00  0.00    -0.354 N 
ATOM     18  C   UNL     1       3.372  -1.500   7.762  1.00  0.00     0.074 A 
ATOM     19  C   UNL     1       2.813  -0.297   7.205  1.00  0.00     0.031 C 
ATOM     20  C   UNL     1      -0.841  -4.991   4.493  1.00  0.00     0.029 A 
ATOM     21  C   UNL     1      -0.466  -5.066   5.893  1.00  0.00     0.049 A 
ATOM     22  H   UNL     1       1.240  -4.254   6.785  1.00  0.00     0.167 HD
ATOM     23  C   UNL     1       3.848  -1.727   9.018  1.00  0.00     0.037 A 
ATOM     24  C   UNL     1      -1.110  -5.658   6.921  1.00  0.00     0.037 A 
ATOM     25  C   UNL     1       4.574  -2.957   9.117  1.00  0.00     0.049 A 
ATOM     26  C   UNL     1      -0.151  -5.799   8.041  1.00  0.00     0.074 A 
ATOM     27  C   UNL     1       5.719  -3.463   8.535  1.00  0.00     0.029 A 
ATOM     28  N   UNL     1       3.977  -4.029   9.729  1.00  0.00    -0.354 N 
ATOM     29  N   UNL     1       0.900  -6.571   8.020  1.00  0.00    -0.248 NA
ATOM     30  C   UNL     1      -0.156  -4.781   9.079  1.00  0.00     0.031 C 
ATOM     31  C   UNL     1       5.471  -4.859   8.389  1.00  0.00     0.029 A 
ATOM     32  C   UNL     1       4.195  -5.100   8.902  1.00  0.00     0.049 A 
ATOM     33  H   UNL     1       3.492  -4.030  10.585  1.00  0.00     0.167 HD
ATOM     34  C   UNL     1       1.851  -5.907   8.780  1.00  0.00     0.074 A 
ATOM     35  C   UNL     1       1.108  -4.876   9.497  1.00  0.00     0.031 C 
ATOM     36  C   UNL     1       3.188  -6.078   8.562  1.00  0.00     0.037 A 
BRANCH  23  37
ATOM     37  C   UNL     1       3.459  -0.924  10.231  1.00  0.00     0.057 A 
ATOM     38  C   UNL     1       2.208  -0.288  10.360  1.00  0.00     0.134 A 
ATOM     39  C   UNL     1       4.223  -0.994  11.410  1.00  0.00     0.134 A 
ATOM     40  F   UNL     1       1.330  -0.252   9.348  1.00  0.00    -0.206 F 
ATOM     41  C   UNL     1       1.759   0.261  11.565  1.00  0.00     0.040 A 
ATOM     42  C   UNL     1       3.763  -0.489  12.633  1.00  0.00     0.040 A 
ATOM     43  F   UNL     1       5.413  -1.613  11.423  1.00  0.00    -0.206 F 
ATOM     44  C   UNL     1       2.528   0.142  12.714  1.00  0.00     0.006 A 
ENDBRANCH  23  37
BRANCH  24  45
ATOM     45  C   UNL     1      -2.570  -5.817   7.071  1.00  0.00     0.057 A 
ATOM     46  C   UNL     1      -3.471  -4.887   6.517  1.00  0.00     0.134 A 
ATOM     47  C   UNL     1      -3.114  -6.752   7.958  1.00  0.00     0.134 A 
ATOM     48  F   UNL     1      -3.044  -3.890   5.729  1.00  0.00    -0.206 F 
ATOM     49  C   UNL     1      -4.835  -4.894   6.819  1.00  0.00     0.040 A 
ATOM     50  C   UNL     1      -4.477  -6.762   8.279  1.00  0.00     0.040 A 
ATOM     51  F   UNL     1      -2.324  -7.643   8.574  1.00  0.00    -0.206 F 
ATOM     52  C   UNL     1      -5.341  -5.828   7.712  1.00  0.00     0.006 A 
ENDBRANCH  24  45
BRANCH  36  53
ATOM     53  C   UNL     1       3.619  -7.174   7.627  1.00  0.00     0.057 A 
ATOM     54  C   UNL     1       4.497  -8.163   8.082  1.00  0.00     0.134 A 
ATOM     55  C   UNL     1       3.347  -7.154   6.251  1.00  0.00     0.134 A 
ATOM     56  F   UNL     1       4.864  -8.200   9.373  1.00  0.00    -0.206 F 
ATOM     57  C   UNL     1       5.070  -9.095   7.212  1.00  0.00     0.040 A 
ATOM     58  C   UNL     1       3.886  -8.100   5.375  1.00  0.00     0.040 A 
ATOM     59  F   UNL     1       2.615  -6.175   5.707  1.00  0.00    -0.206 F 
ATOM     60  C   UNL     1       4.759  -9.071   5.854  1.00  0.00     0.006 A 
ENDBRANCH  36  53
ENDBRANCH  10  11
ENDBRANCH   3   5
ENDBRANCH   2   3
ENDBRANCH   1   2
BRANCH   1  61
ATOM     61  C   UNL     1       4.534   1.124  -1.103  1.00  0.00     0.275 C 
BRANCH  61  62
ATOM     62  O   UNL     1       4.179   1.353   0.277  1.00  0.00    -0.457 OA
BRANCH  62  63
ATOM     63  C   UNL     1       3.080   2.124   0.467  1.00  0.00     0.357 C 
ATOM     64  O   UNL     1       2.406   2.677  -0.391  1.00  0.00    -0.244 OA
BRANCH  63  65
ATOM     65  C   UNL     1       2.866   2.352   1.912  1.00  0.00     0.149 A 
ATOM     66  C   UNL     1       3.577   3.375   2.488  1.00  0.00     0.041 A 
ATOM     67  N   UNL     1       1.756   1.836   2.466  1.00  0.00    -0.241 NA
ATOM     68  C   UNL     1       3.095   3.944   3.688  1.00  0.00    -0.021 A 
ATOM     69  C   UNL     1       1.375   2.270   3.673  1.00  0.00     0.072 A 
ATOM     70  C   UNL     1       2.032   3.285   4.427  1.00  0.00     0.012 A 
ATOM     71  C   UNL     1       0.198   1.709   4.125  1.00  0.00     0.029 A 
ATOM     72  C   UNL     1       1.493   3.559   5.768  1.00  0.00    -0.009 A 
ATOM     73  C   UNL     1      -0.347   2.022   5.362  1.00  0.00     0.011 A 
ATOM     74  C   UNL     1       0.298   2.918   6.200  1.00  0.00    -0.018 A 
ATOM     75  C   UNL     1       2.087   4.394   6.741  1.00  0.00     0.009 A 
ATOM     76  C   UNL     1      -0.259   3.156   7.468  1.00  0.00     0.009 A 
ATOM     77  C   UNL     1       1.523   4.647   7.999  1.00  0.00     0.001 A 
ATOM     78  C   UNL     1       0.342   4.030   8.362  1.00  0.00     0.001 A 
BRANCH  68  79
ATOM     79  C   UNL     1       3.523   5.398   3.815  1.00  0.00     0.115 C 
ATOM     80  C   UNL     1       4.426   5.780   4.923  1.00  0.00     0.123 C 
ATOM     81  C   UNL     1       2.483   6.466   3.990  1.00  0.00     0.083 C 
ATOM     82  N   UNL     1       4.042   6.852   5.537  1.00  0.00    -0.162 NA
ATOM     83  N   UNL     1       2.809   7.291   4.946  1.00  0.00    -0.154 NA
BRANCH  81  84
ATOM     84  C   UNL     1       1.333   6.689   3.070  1.00  0.00    -0.001 A 
ATOM     85  C   UNL     1       0.953   8.010   2.801  1.00  0.00     0.013 A 
ATOM     86  C   UNL     1       0.635   5.654   2.437  1.00  0.00     0.013 A 
ATOM     87  C   UNL     1      -0.097   8.280   1.914  1.00  0.00     0.040 A 
ATOM     88  C   UNL     1      -0.426   5.919   1.568  1.00  0.00     0.040 A 
ATOM     89  C   UNL     1      -0.780   7.231   1.309  1.00  0.00     0.123 A 
ATOM     90  F   UNL     1      -1.789   7.488   0.468  1.00  0.00    -0.207 F 
ENDBRANCH  81  84
ENDBRANCH  68  79
ENDBRANCH  63  65
ENDBRANCH  62  63
ENDBRANCH  61  62
ENDBRANCH   1  61
TORSDOF 13
