REMARK SMILES CCc1nnc(/[NH+]=C2/S/C(=C/c3ccccc3OCCC(=O)OCCOC(=O)c3ccc(-c4c5nc(c(-c6c(F)cccc6F)c6ccc([nH]6)c(-c6c(F)cccc6F)c6nc(c(-c7c(F)cccc7F)c7ccc4[nH]7)C=C6)C=C5)cc3)C(=O)N2C)s1
REMARK SMILES IDX 21 1 22 2 20 3 19 4 18 5 17 6 12 7 13 8 14 9 16 10 15 11
REMARK SMILES IDX 11 12 7 13 8 14 9 16 85 17 10 18 83 19 86 20 84 21 6 22 3 23
REMARK SMILES IDX 4 24 87 25 5 26 2 27 1 28 23 29 24 30 25 31 26 32 27 33
REMARK SMILES IDX 28 34 29 35 30 36 82 37 31 38 81 39 32 40 33 41 34 42 75 43
REMARK SMILES IDX 35 44 80 45 74 46 76 47 36 48 79 49 73 50 72 51 37 53 63 54
REMARK SMILES IDX 46 55 62 56 47 57 50 58 61 59 77 60 48 61 49 62 60 64 78 65
REMARK SMILES IDX 51 66 38 67 39 68 44 69 40 70 41 71 43 72 45 73 42 74 64 75
REMARK SMILES IDX 65 76 70 77 66 78 67 79 69 80 71 81 68 82 52 83 53 84 58 85
REMARK SMILES IDX 54 86 55 87 57 88 59 89 56 90
REMARK H PARENT 7 15 76 52 50 63
REMARK Flexibility Score: inf
ROOT
ATOM      1  C   UNL     1       0.493  -9.367   3.257  1.00  0.00     0.309 C 
ATOM      2  O   UNL     1      -0.717  -9.263   3.056  1.00  0.00    -0.252 OA
ENDROOT
BRANCH   1   3
ATOM      3  C   UNL     1       1.483  -9.014   2.142  1.00  0.00     0.164 C 
BRANCH   3   4
ATOM      4  C   UNL     1       2.706  -8.105   2.300  1.00  0.00     0.241 C 
BRANCH   4   5
ATOM      5  O   UNL     1       3.969  -8.627   2.710  1.00  0.00    -0.492 OA
BRANCH   5   6
ATOM      6  C   UNL     1       3.880  -9.581   3.676  1.00  0.00     0.126 A 
ATOM      7  C   UNL     1       3.772  -9.279   5.045  1.00  0.00     0.018 A 
ATOM      8  C   UNL     1       3.760 -10.377   5.923  1.00  0.00     0.012 A 
ATOM      9  C   UNL     1       3.794 -11.704   5.448  1.00  0.00     0.001 A 
ATOM     10  C   UNL     1       4.006 -10.899   3.207  1.00  0.00     0.047 A 
ATOM     11  C   UNL     1       3.931 -11.966   4.090  1.00  0.00     0.004 A 
BRANCH   7  12
ATOM     12  C   UNL     1       3.901  -7.902   5.593  1.00  0.00     0.035 C 
ATOM     13  N   UNL     1       3.029  -3.170   4.427  1.00  0.00    -0.226 N 
ATOM     14  C   UNL     1       2.733  -4.386   4.742  1.00  0.00     0.271 C 
ATOM     15  H   UNL     1       3.847  -2.755   4.787  1.00  0.00     0.268 HD
ATOM     16  S   UNL     1       3.829  -5.221   5.858  1.00  0.00    -0.012 SA
ATOM     17  N   UNL     1       1.729  -5.243   4.365  1.00  0.00    -0.222 N 
ATOM     18  C   UNL     1       3.166  -6.779   5.476  1.00  0.00     0.100 C 
ATOM     19  C   UNL     1       1.821  -6.528   4.880  1.00  0.00     0.321 C 
ATOM     20  C   UNL     1       0.625  -4.962   3.453  1.00  0.00     0.252 C 
ATOM     21  O   UNL     1       0.923  -7.336   4.851  1.00  0.00    -0.250 OA
BRANCH  13  22
ATOM     22  C   UNL     1       2.222  -2.464   3.607  1.00  0.00     0.345 A 
ATOM     23  C   UNL     1       1.117  -1.478   1.723  1.00  0.00     0.138 A 
ATOM     24  N   UNL     1       0.462  -1.281   2.846  1.00  0.00    -0.067 NA
ATOM     25  S   UNL     1       2.620  -2.287   1.928  1.00  0.00    -0.044 S 
ATOM     26  N   UNL     1       1.113  -1.830   3.932  1.00  0.00     0.023 NA
BRANCH  23  27
ATOM     27  C   UNL     1       0.593  -1.126   0.369  1.00  0.00     0.068 C 
ATOM     28  C   UNL     1       1.012   0.259  -0.088  1.00  0.00     0.012 C 
ENDBRANCH  23  27
ENDBRANCH  13  22
ENDBRANCH   7  12
ENDBRANCH   5   6
ENDBRANCH   4   5
ENDBRANCH   3   4
ENDBRANCH   1   3
BRANCH   1  29
ATOM     29  O   UNL     1       1.022  -9.937   4.375  1.00  0.00    -0.462 OA
BRANCH  29  30
ATOM     30  C   UNL     1       0.071 -10.458   5.340  1.00  0.00     0.274 C 
BRANCH  30  31
ATOM     31  C   UNL     1       0.484 -10.303   6.818  1.00  0.00     0.275 C 
BRANCH  31  32
ATOM     32  O   UNL     1       0.494  -8.930   7.253  1.00  0.00    -0.458 OA
BRANCH  32  33
ATOM     33  C   UNL     1       1.136  -8.700   8.431  1.00  0.00     0.338 C 
ATOM     34  O   UNL     1       1.708  -9.541   9.109  1.00  0.00    -0.246 OA
BRANCH  33  35
ATOM     35  C   UNL     1       1.084  -7.259   8.817  1.00  0.00     0.060 A 
ATOM     36  C   UNL     1       0.691  -6.274   7.915  1.00  0.00     0.016 A 
ATOM     37  C   UNL     1       1.479  -6.867  10.101  1.00  0.00     0.016 A 
ATOM     38  C   UNL     1       0.818  -4.920   8.233  1.00  0.00     0.010 A 
ATOM     39  C   UNL     1       1.459  -5.511  10.470  1.00  0.00     0.010 A 
ATOM     40  C   UNL     1       1.146  -4.513   9.533  1.00  0.00    -0.014 A 
BRANCH  40  41
ATOM     41  C   UNL     1       1.081  -3.068   9.922  1.00  0.00     0.031 A 
ATOM     42  C   UNL     1       2.240  -2.389  10.613  1.00  0.00     0.074 A 
ATOM     43  C   UNL     1      -0.051  -2.366   9.690  1.00  0.00     0.049 A 
ATOM     44  N   UNL     1       2.283  -1.222  11.210  1.00  0.00    -0.248 NA
ATOM     45  C   UNL     1       3.510  -3.128  10.662  1.00  0.00     0.031 C 
ATOM     46  C   UNL     1      -1.250  -2.885   9.025  1.00  0.00     0.029 A 
ATOM     47  N   UNL     1      -0.385  -1.065   9.982  1.00  0.00    -0.354 N 
ATOM     48  C   UNL     1       3.558  -1.117  11.759  1.00  0.00     0.074 A 
ATOM     49  C   UNL     1       4.257  -2.340  11.425  1.00  0.00     0.031 C 
ATOM     50  C   UNL     1      -2.155  -1.906   8.903  1.00  0.00     0.029 A 
ATOM     51  C   UNL     1      -1.659  -0.724   9.590  1.00  0.00     0.049 A 
ATOM     52  H   UNL     1       0.228  -0.438  10.429  1.00  0.00     0.167 HD
ATOM     53  C   UNL     1       4.088  -0.096  12.480  1.00  0.00     0.037 A 
ATOM     54  C   UNL     1      -2.383   0.391   9.803  1.00  0.00     0.037 A 
ATOM     55  C   UNL     1       3.396   1.140  12.758  1.00  0.00     0.049 A 
ATOM     56  C   UNL     1      -1.778   1.497  10.613  1.00  0.00     0.074 A 
ATOM     57  C   UNL     1       3.853   2.251  13.449  1.00  0.00     0.029 A 
ATOM     58  N   UNL     1       2.103   1.434  12.348  1.00  0.00    -0.354 N 
ATOM     59  N   UNL     1      -0.590   1.564  11.162  1.00  0.00    -0.248 NA
ATOM     60  C   UNL     1      -2.622   2.674  10.852  1.00  0.00     0.031 C 
ATOM     61  C   UNL     1       2.820   3.194  13.499  1.00  0.00     0.029 A 
ATOM     62  C   UNL     1       1.739   2.698  12.788  1.00  0.00     0.049 A 
ATOM     63  H   UNL     1       1.527   0.833  11.822  1.00  0.00     0.167 HD
ATOM     64  C   UNL     1      -0.534   2.796  11.795  1.00  0.00     0.074 A 
ATOM     65  C   UNL     1      -1.800   3.453  11.541  1.00  0.00     0.031 C 
ATOM     66  C   UNL     1       0.473   3.334  12.527  1.00  0.00     0.037 A 
BRANCH  53  67
ATOM     67  C   UNL     1       5.467  -0.279  13.059  1.00  0.00     0.057 A 
ATOM     68  C   UNL     1       6.621  -0.309  12.267  1.00  0.00     0.134 A 
ATOM     69  C   UNL     1       5.644  -0.378  14.448  1.00  0.00     0.134 A 
ATOM     70  F   UNL     1       6.532  -0.226  10.931  1.00  0.00    -0.206 F 
ATOM     71  C   UNL     1       7.893  -0.459  12.828  1.00  0.00     0.040 A 
ATOM     72  C   UNL     1       6.911  -0.497  15.023  1.00  0.00     0.040 A 
ATOM     73  F   UNL     1       4.587  -0.343  15.274  1.00  0.00    -0.206 F 
ATOM     74  C   UNL     1       8.041  -0.546  14.211  1.00  0.00     0.006 A 
ENDBRANCH  53  67
BRANCH  54  75
ATOM     75  C   UNL     1      -3.771   0.491   9.278  1.00  0.00     0.057 A 
ATOM     76  C   UNL     1      -4.101   1.408   8.273  1.00  0.00     0.134 A 
ATOM     77  C   UNL     1      -4.798  -0.337   9.752  1.00  0.00     0.134 A 
ATOM     78  F   UNL     1      -3.171   2.247   7.794  1.00  0.00    -0.206 F 
ATOM     79  C   UNL     1      -5.398   1.504   7.766  1.00  0.00     0.040 A 
ATOM     80  C   UNL     1      -6.091  -0.276   9.229  1.00  0.00     0.040 A 
ATOM     81  F   UNL     1      -4.552  -1.242  10.711  1.00  0.00    -0.206 F 
ATOM     82  C   UNL     1      -6.395   0.652   8.237  1.00  0.00     0.006 A 
ENDBRANCH  54  75
BRANCH  66  83
ATOM     83  C   UNL     1       0.246   4.718  13.061  1.00  0.00     0.057 A 
ATOM     84  C   UNL     1      -0.665   4.976  14.092  1.00  0.00     0.134 A 
ATOM     85  C   UNL     1       0.942   5.808  12.523  1.00  0.00     0.134 A 
ATOM     86  F   UNL     1      -1.377   3.978  14.638  1.00  0.00    -0.206 F 
ATOM     87  C   UNL     1      -0.907   6.275  14.543  1.00  0.00     0.040 A 
ATOM     88  C   UNL     1       0.732   7.107  12.986  1.00  0.00     0.040 A 
ATOM     89  F   UNL     1       1.835   5.629  11.537  1.00  0.00    -0.206 F 
ATOM     90  C   UNL     1      -0.203   7.345  13.991  1.00  0.00     0.006 A 
ENDBRANCH  66  83
ENDBRANCH  40  41
ENDBRANCH  33  35
ENDBRANCH  32  33
ENDBRANCH  31  32
ENDBRANCH  30  31
ENDBRANCH  29  30
ENDBRANCH   1  29
TORSDOF 17
