REMARK SMILES CC1(C)[C@H]2CC[C@]1(C)[C@H](NC(=O)CCC(=O)OCCOC(=O)c1ccc(-c3c4nc(c(-c5c(F)cccc5F)c5ccc([nH]5)c(-c5c(F)cccc5F)c5nc(c(-c6c(F)cccc6F)c6ccc3[nH]6)C=C5)C=C4)cc1)C2
REMARK SMILES IDX 18 1 17 2 15 3 16 4 14 5 13 6 11 7 10 8 12 10 9 11 1 12 2 13
REMARK SMILES IDX 3 14 4 15 7 16 5 17 77 18 6 19 8 20 19 21 20 22 21 23 22 24
REMARK SMILES IDX 23 25 24 26 76 27 25 28 75 29 26 30 27 31 28 32 69 33 29 34
REMARK SMILES IDX 74 35 68 36 70 37 30 38 73 39 67 40 66 41 31 43 57 44 40 45
REMARK SMILES IDX 56 46 41 47 44 48 55 49 71 50 42 51 43 52 54 54 72 55 45 56
REMARK SMILES IDX 32 57 33 58 38 59 34 60 35 61 37 62 39 63 36 64 58 65 59 66
REMARK SMILES IDX 64 67 60 68 61 69 63 70 65 71 62 72 46 73 47 74 52 75 48 76
REMARK SMILES IDX 49 77 51 78 53 79 50 80
REMARK H PARENT 10 9 70 42 44 53
REMARK Flexibility Score: inf
ROOT
ATOM      1  C   UNL     1       0.201   0.544   3.656  1.00  0.00     0.274 C 
ENDROOT
BRANCH   1   2
ATOM      2  O   UNL     1      -1.103   0.178   3.058  1.00  0.00    -0.462 OA
BRANCH   2   3
ATOM      3  C   UNL     1      -1.960   1.166   2.622  1.00  0.00     0.306 C 
ATOM      4  O   UNL     1      -1.620   2.342   2.536  1.00  0.00    -0.252 OA
BRANCH   3   5
ATOM      5  C   UNL     1      -3.439   0.676   2.288  1.00  0.00     0.132 C 
BRANCH   5   6
ATOM      6  C   UNL     1      -3.955  -0.088   0.992  1.00  0.00     0.111 C 
BRANCH   6   7
ATOM      7  C   UNL     1      -3.806  -1.654   0.742  1.00  0.00     0.220 C 
ATOM      8  N   UNL     1      -2.751  -2.267   0.049  1.00  0.00    -0.353 N 
ATOM      9  H   UNL     1      -3.012  -3.037  -0.506  1.00  0.00     0.163 HD
ATOM     10  O   UNL     1      -4.752  -2.388   1.055  1.00  0.00    -0.275 OA
BRANCH   8  11
ATOM     11  C   UNL     1      -1.297  -1.936   0.021  1.00  0.00     0.088 C 
ATOM     12  C   UNL     1       0.707   0.218  -2.771  1.00  0.00     0.012 C 
ATOM     13  C   UNL     1       0.093  -0.205  -1.423  1.00  0.00    -0.025 C 
ATOM     14  C   UNL     1       0.963   0.585  -0.459  1.00  0.00     0.012 C 
ATOM     15  C   UNL     1      -1.307   0.204  -1.085  1.00  0.00    -0.003 C 
ATOM     16  C   UNL     1      -0.364  -1.770  -1.281  1.00  0.00    -0.007 C 
ATOM     17  C   UNL     1      -2.100  -0.508  -2.225  1.00  0.00     0.005 C 
ATOM     18  C   UNL     1      -1.261  -0.512   0.299  1.00  0.00     0.029 C 
ATOM     19  C   UNL     1      -1.344  -1.849  -2.447  1.00  0.00     0.010 C 
ATOM     20  C   UNL     1       0.850  -2.674  -1.242  1.00  0.00     0.014 C 
ENDBRANCH   8  11
ENDBRANCH   6   7
ENDBRANCH   5   6
ENDBRANCH   3   5
ENDBRANCH   2   3
ENDBRANCH   1   2
BRANCH   1  21
ATOM     21  C   UNL     1       1.523   0.158   2.898  1.00  0.00     0.275 C 
BRANCH  21  22
ATOM     22  O   UNL     1       2.120   1.310   2.226  1.00  0.00    -0.458 OA
BRANCH  22  23
ATOM     23  C   UNL     1       3.267   1.139   1.493  1.00  0.00     0.338 C 
ATOM     24  O   UNL     1       4.006   0.149   1.554  1.00  0.00    -0.246 OA
BRANCH  23  25
ATOM     25  C   UNL     1       3.369   2.185   0.401  1.00  0.00     0.060 A 
ATOM     26  C   UNL     1       2.363   3.145   0.308  1.00  0.00     0.016 A 
ATOM     27  C   UNL     1       4.242   2.054  -0.701  1.00  0.00     0.016 A 
ATOM     28  C   UNL     1       2.143   3.824  -0.897  1.00  0.00     0.010 A 
ATOM     29  C   UNL     1       4.123   2.900  -1.842  1.00  0.00     0.010 A 
ATOM     30  C   UNL     1       3.072   3.824  -1.950  1.00  0.00    -0.014 A 
BRANCH  30  31
ATOM     31  C   UNL     1       2.988   4.900  -3.008  1.00  0.00     0.031 A 
ATOM     32  C   UNL     1       3.132   4.647  -4.497  1.00  0.00     0.074 A 
ATOM     33  C   UNL     1       2.794   6.184  -2.615  1.00  0.00     0.049 A 
ATOM     34  N   UNL     1       3.420   5.499  -5.457  1.00  0.00    -0.248 NA
ATOM     35  C   UNL     1       2.887   3.281  -4.981  1.00  0.00     0.031 C 
ATOM     36  C   UNL     1       2.519   6.633  -1.244  1.00  0.00     0.029 A 
ATOM     37  N   UNL     1       2.815   7.365  -3.327  1.00  0.00    -0.354 N 
ATOM     38  C   UNL     1       3.438   4.772  -6.646  1.00  0.00     0.074 A 
ATOM     39  C   UNL     1       3.099   3.407  -6.289  1.00  0.00     0.031 C 
ATOM     40  C   UNL     1       2.361   7.956  -1.218  1.00  0.00     0.029 A 
ATOM     41  C   UNL     1       2.721   8.477  -2.520  1.00  0.00     0.049 A 
ATOM     42  H   UNL     1       2.889   7.409  -4.308  1.00  0.00     0.167 HD
ATOM     43  C   UNL     1       3.727   5.203  -7.904  1.00  0.00     0.037 A 
ATOM     44  C   UNL     1       3.017   9.773  -2.724  1.00  0.00     0.037 A 
ATOM     45  C   UNL     1       4.038   6.575  -8.250  1.00  0.00     0.049 A 
ATOM     46  C   UNL     1       3.518  10.201  -4.060  1.00  0.00     0.074 A 
ATOM     47  C   UNL     1       4.392   7.101  -9.485  1.00  0.00     0.029 A 
ATOM     48  N   UNL     1       4.021   7.641  -7.364  1.00  0.00    -0.354 N 
ATOM     49  N   UNL     1       3.677   9.486  -5.144  1.00  0.00    -0.248 NA
ATOM     50  C   UNL     1       3.902  11.610  -4.197  1.00  0.00     0.031 C 
ATOM     51  C   UNL     1       4.641   8.470  -9.331  1.00  0.00     0.029 A 
ATOM     52  C   UNL     1       4.383   8.812  -8.016  1.00  0.00     0.049 A 
ATOM     53  H   UNL     1       3.786   7.577  -6.410  1.00  0.00     0.167 HD
ATOM     54  C   UNL     1       4.150  10.365  -6.104  1.00  0.00     0.074 A 
ATOM     55  C   UNL     1       4.248  11.665  -5.474  1.00  0.00     0.031 C 
ATOM     56  C   UNL     1       4.469  10.109  -7.395  1.00  0.00     0.037 A 
BRANCH  43  57
ATOM     57  C   UNL     1       3.800   4.185  -9.016  1.00  0.00     0.057 A 
ATOM     58  C   UNL     1       2.662   3.603  -9.587  1.00  0.00     0.134 A 
ATOM     59  C   UNL     1       5.040   3.855  -9.588  1.00  0.00     0.134 A 
ATOM     60  F   UNL     1       1.442   3.877  -9.102  1.00  0.00    -0.206 F 
ATOM     61  C   UNL     1       2.755   2.716 -10.667  1.00  0.00     0.040 A 
ATOM     62  C   UNL     1       5.143   2.990 -10.681  1.00  0.00     0.040 A 
ATOM     63  F   UNL     1       6.172   4.395  -9.114  1.00  0.00    -0.206 F 
ATOM     64  C   UNL     1       3.998   2.412 -11.220  1.00  0.00     0.006 A 
ENDBRANCH  43  57
BRANCH  44  65
ATOM     65  C   UNL     1       2.961  10.723  -1.581  1.00  0.00     0.057 A 
ATOM     66  C   UNL     1       2.010  11.745  -1.535  1.00  0.00     0.134 A 
ATOM     67  C   UNL     1       3.838  10.605  -0.491  1.00  0.00     0.134 A 
ATOM     68  F   UNL     1       1.159  11.920  -2.555  1.00  0.00    -0.206 F 
ATOM     69  C   UNL     1       1.934  12.618  -0.449  1.00  0.00     0.040 A 
ATOM     70  C   UNL     1       3.748  11.446   0.617  1.00  0.00     0.040 A 
ATOM     71  F   UNL     1       4.767   9.637  -0.468  1.00  0.00    -0.206 F 
ATOM     72  C   UNL     1       2.797  12.463   0.636  1.00  0.00     0.006 A 
ENDBRANCH  44  65
BRANCH  56  73
ATOM     73  C   UNL     1       4.885  11.281  -8.230  1.00  0.00     0.057 A 
ATOM     74  C   UNL     1       6.129  11.904  -8.070  1.00  0.00     0.134 A 
ATOM     75  C   UNL     1       4.021  11.798  -9.204  1.00  0.00     0.134 A 
ATOM     76  F   UNL     1       6.990  11.475  -7.135  1.00  0.00    -0.206 F 
ATOM     77  C   UNL     1       6.491  13.014  -8.836  1.00  0.00     0.040 A 
ATOM     78  C   UNL     1       4.382  12.890  -9.993  1.00  0.00     0.040 A 
ATOM     79  F   UNL     1       2.813  11.250  -9.403  1.00  0.00    -0.206 F 
ATOM     80  C   UNL     1       5.618  13.505  -9.806  1.00  0.00     0.006 A 
ENDBRANCH  56  73
ENDBRANCH  30  31
ENDBRANCH  23  25
ENDBRANCH  22  23
ENDBRANCH  21  22
ENDBRANCH   1  21
TORSDOF 14
