REMARK SMILES O=C(OCCOC(=O)C1(n2cnc3ccccc32)CC[NH+](Cc2cccc3nonc23)CC1)c1ccc(-c2c3nc(c(-c4c(F)cccc4F)c4ccc([nH]4)c(-c4c(F)cccc4F)c4nc(c(-c5c(F)cccc5F)c5ccc2[nH]5)C=C4)C=C3)cc1
REMARK SMILES IDX 4 1 3 2 2 3 1 4 34 5 35 6 87 7 36 8 86 9 37 10 38 11 39 12
REMARK SMILES IDX 80 13 40 14 85 15 79 16 81 17 41 18 84 19 78 20 77 21 42 23
REMARK SMILES IDX 68 24 51 25 67 26 52 27 55 28 66 29 82 30 53 31 54 32 65 34
REMARK SMILES IDX 83 35 56 36 43 37 44 38 49 39 45 40 46 41 48 42 50 43 47 44
REMARK SMILES IDX 69 45 70 46 75 47 71 48 72 49 74 50 76 51 73 52 57 53 58 54
REMARK SMILES IDX 63 55 59 56 60 57 62 58 64 59 61 60 5 61 6 62 7 63 8 64 9 65
REMARK SMILES IDX 19 66 33 67 20 68 32 69 21 70 10 72 11 73 18 74 12 75 13 76
REMARK SMILES IDX 17 77 14 78 16 79 15 80 22 81 23 82 24 83 31 84 25 85 27 86
REMARK SMILES IDX 30 87 26 88 28 89 29 90
REMARK H PARENT 81 22 55 33 21 71
REMARK Flexibility Score: inf
ROOT
ATOM      1  C   UNL     1       3.381  -1.737   1.234  1.00  0.00     0.275 C 
ENDROOT
BRANCH   1   2
ATOM      2  O   UNL     1       3.373  -0.327   1.538  1.00  0.00    -0.458 OA
BRANCH   2   3
ATOM      3  C   UNL     1       4.431   0.496   1.304  1.00  0.00     0.338 C 
ATOM      4  O   UNL     1       4.463   1.665   1.662  1.00  0.00    -0.246 OA
BRANCH   3   5
ATOM      5  C   UNL     1       5.413  -0.030   0.348  1.00  0.00     0.060 A 
ATOM      6  C   UNL     1       5.043   0.150  -0.964  1.00  0.00     0.016 A 
ATOM      7  C   UNL     1       6.458  -0.892   0.676  1.00  0.00     0.016 A 
ATOM      8  C   UNL     1       5.497  -0.732  -1.914  1.00  0.00     0.010 A 
ATOM      9  C   UNL     1       6.969  -1.739  -0.318  1.00  0.00     0.010 A 
ATOM     10  C   UNL     1       6.397  -1.737  -1.594  1.00  0.00    -0.014 A 
BRANCH  10  11
ATOM     11  C   UNL     1       6.611  -2.709  -2.684  1.00  0.00     0.031 A 
ATOM     12  C   UNL     1       6.812  -2.122  -4.057  1.00  0.00     0.074 A 
ATOM     13  C   UNL     1       6.570  -4.043  -2.490  1.00  0.00     0.049 A 
ATOM     14  N   UNL     1       6.247  -2.451  -5.181  1.00  0.00    -0.248 NA
ATOM     15  C   UNL     1       7.642  -0.903  -4.144  1.00  0.00     0.031 C 
ATOM     16  C   UNL     1       6.468  -4.744  -1.208  1.00  0.00     0.029 A 
ATOM     17  N   UNL     1       6.747  -5.061  -3.388  1.00  0.00    -0.354 N 
ATOM     18  C   UNL     1       6.788  -1.589  -6.138  1.00  0.00     0.074 A 
ATOM     19  C   UNL     1       7.503  -0.567  -5.424  1.00  0.00     0.031 C 
ATOM     20  C   UNL     1       6.882  -6.015  -1.372  1.00  0.00     0.029 A 
ATOM     21  C   UNL     1       7.179  -6.231  -2.777  1.00  0.00     0.049 A 
ATOM     22  H   UNL     1       6.586  -4.974  -4.355  1.00  0.00     0.167 HD
ATOM     23  C   UNL     1       6.852  -1.891  -7.462  1.00  0.00     0.037 A 
ATOM     24  C   UNL     1       7.872  -7.245  -3.346  1.00  0.00     0.037 A 
ATOM     25  C   UNL     1       5.852  -2.830  -7.876  1.00  0.00     0.049 A 
ATOM     26  C   UNL     1       7.702  -7.184  -4.812  1.00  0.00     0.074 A 
ATOM     27  C   UNL     1       4.489  -2.826  -8.074  1.00  0.00     0.029 A 
ATOM     28  N   UNL     1       6.253  -4.129  -8.019  1.00  0.00    -0.354 N 
ATOM     29  N   UNL     1       6.616  -7.513  -5.448  1.00  0.00    -0.248 NA
ATOM     30  C   UNL     1       8.682  -6.446  -5.596  1.00  0.00     0.031 C 
ATOM     31  C   UNL     1       4.079  -4.189  -7.972  1.00  0.00     0.029 A 
ATOM     32  C   UNL     1       5.212  -4.954  -7.697  1.00  0.00     0.049 A 
ATOM     33  H   UNL     1       7.148  -4.423  -8.306  1.00  0.00     0.167 HD
ATOM     34  C   UNL     1       6.584  -6.670  -6.545  1.00  0.00     0.074 A 
ATOM     35  C   UNL     1       7.945  -6.169  -6.674  1.00  0.00     0.031 C 
ATOM     36  C   UNL     1       5.395  -6.238  -7.057  1.00  0.00     0.037 A 
BRANCH  23  37
ATOM     37  C   UNL     1       8.119  -1.670  -8.269  1.00  0.00     0.057 A 
ATOM     38  C   UNL     1       9.405  -1.572  -7.692  1.00  0.00     0.134 A 
ATOM     39  C   UNL     1       8.107  -1.887  -9.658  1.00  0.00     0.134 A 
ATOM     40  F   UNL     1       9.595  -1.459  -6.372  1.00  0.00    -0.206 F 
ATOM     41  C   UNL     1      10.583  -1.694  -8.431  1.00  0.00     0.040 A 
ATOM     42  C   UNL     1       9.284  -2.066 -10.399  1.00  0.00     0.040 A 
ATOM     43  F   UNL     1       6.950  -2.022 -10.324  1.00  0.00    -0.206 F 
ATOM     44  C   UNL     1      10.527  -1.978  -9.784  1.00  0.00     0.006 A 
ENDBRANCH  23  37
BRANCH  24  45
ATOM     45  C   UNL     1       8.925  -8.070  -2.712  1.00  0.00     0.057 A 
ATOM     46  C   UNL     1       9.743  -7.564  -1.685  1.00  0.00     0.134 A 
ATOM     47  C   UNL     1       9.322  -9.293  -3.269  1.00  0.00     0.134 A 
ATOM     48  F   UNL     1       9.522  -6.355  -1.149  1.00  0.00    -0.206 F 
ATOM     49  C   UNL     1      10.878  -8.237  -1.228  1.00  0.00     0.040 A 
ATOM     50  C   UNL     1      10.469  -9.969  -2.833  1.00  0.00     0.040 A 
ATOM     51  F   UNL     1       8.640  -9.830  -4.290  1.00  0.00    -0.206 F 
ATOM     52  C   UNL     1      11.252  -9.439  -1.811  1.00  0.00     0.006 A 
ENDBRANCH  24  45
BRANCH  36  53
ATOM     53  C   UNL     1       4.163  -7.019  -6.696  1.00  0.00     0.057 A 
ATOM     54  C   UNL     1       3.362  -7.530  -7.725  1.00  0.00     0.134 A 
ATOM     55  C   UNL     1       3.701  -7.201  -5.384  1.00  0.00     0.134 A 
ATOM     56  F   UNL     1       3.712  -7.353  -9.009  1.00  0.00    -0.206 F 
ATOM     57  C   UNL     1       2.166  -8.203  -7.464  1.00  0.00     0.040 A 
ATOM     58  C   UNL     1       2.526  -7.905  -5.108  1.00  0.00     0.040 A 
ATOM     59  F   UNL     1       4.337  -6.648  -4.341  1.00  0.00    -0.206 F 
ATOM     60  C   UNL     1       1.752  -8.405  -6.150  1.00  0.00     0.006 A 
ENDBRANCH  36  53
ENDBRANCH  10  11
ENDBRANCH   3   5
ENDBRANCH   2   3
ENDBRANCH   1   2
BRANCH   1  61
ATOM     61  C   UNL     1       2.666  -2.164  -0.067  1.00  0.00     0.274 C 
BRANCH  61  62
ATOM     62  O   UNL     1       2.789  -1.310  -1.233  1.00  0.00    -0.460 OA
BRANCH  62  63
ATOM     63  C   UNL     1       1.830  -0.359  -1.378  1.00  0.00     0.332 C 
ATOM     64  O   UNL     1       1.009  -0.136  -0.489  1.00  0.00    -0.249 OA
BRANCH  63  65
ATOM     65  C   UNL     1       1.712   0.304  -2.799  1.00  0.00     0.154 C 
ATOM     66  C   UNL     1       2.849   0.533  -3.835  1.00  0.00     0.102 C 
ATOM     67  C   UNL     1       1.178   1.746  -2.523  1.00  0.00     0.102 C 
ATOM     68  C   UNL     1       3.811   1.720  -3.703  1.00  0.00     0.265 C 
ATOM     69  C   UNL     1       2.280   2.684  -1.982  1.00  0.00     0.265 C 
ATOM     70  N   UNL     1       3.376   2.845  -2.917  1.00  0.00    -0.331 N 
ATOM     71  H   UNL     1       2.812   3.318  -3.623  1.00  0.00     0.348 HD
BRANCH  65  72
ATOM     72  N   UNL     1       0.755  -0.598  -3.500  1.00  0.00    -0.313 N 
ATOM     73  C   UNL     1      -0.553  -0.339  -3.804  1.00  0.00     0.201 A 
ATOM     74  C   UNL     1       1.049  -1.865  -3.997  1.00  0.00     0.069 A 
ATOM     75  N   UNL     1      -1.106  -1.316  -4.487  1.00  0.00    -0.237 NA
ATOM     76  C   UNL     1      -0.129  -2.269  -4.622  1.00  0.00     0.088 A 
ATOM     77  C   UNL     1       2.193  -2.681  -3.992  1.00  0.00     0.028 A 
ATOM     78  C   UNL     1      -0.178  -3.514  -5.273  1.00  0.00     0.030 A 
ATOM     79  C   UNL     1       2.133  -3.905  -4.660  1.00  0.00     0.002 A 
ATOM     80  C   UNL     1       0.965  -4.322  -5.291  1.00  0.00     0.002 A 
ENDBRANCH  65  72
BRANCH  70  81
ATOM     81  C   UNL     1       4.399   3.864  -2.621  1.00  0.00     0.301 C 
BRANCH  81  82
ATOM     82  C   UNL     1       5.341   3.635  -1.459  1.00  0.00     0.038 A 
ATOM     83  C   UNL     1       6.522   2.844  -1.555  1.00  0.00     0.012 A 
ATOM     84  C   UNL     1       5.215   4.255  -0.190  1.00  0.00     0.144 A 
ATOM     85  C   UNL     1       7.432   2.614  -0.479  1.00  0.00     0.003 A 
ATOM     86  C   UNL     1       6.163   4.039   0.904  1.00  0.00     0.135 A 
ATOM     87  N   UNL     1       4.289   5.123   0.239  1.00  0.00    -0.049 NA
ATOM     88  C   UNL     1       7.277   3.188   0.792  1.00  0.00     0.034 A 
ATOM     89  N   UNL     1       5.778   4.777   1.952  1.00  0.00    -0.050 NA
ATOM     90  O   UNL     1       4.618   5.416   1.552  1.00  0.00    -0.243 OA
ENDBRANCH  81  82
ENDBRANCH  70  81
ENDBRANCH  63  65
ENDBRANCH  62  63
ENDBRANCH  61  62
ENDBRANCH   1  61
TORSDOF 14
