REMARK SMILES CCCC[C@H](C(=O)OCCOC(=O)c1ccc(-c2c3nc(c(-c4c(F)cccc4F)c4ccc([nH]4)c(-c4c(F)cccc4F)c4nc(c(-c5c(F)cccc5F)c5ccc2[nH]5)C=C4)C=C3)cc1)[C@H](O)c1ccc(C(F)(F)F)cc1
REMARK SMILES IDX 9 1 8 2 6 3 7 4 5 5 4 6 3 7 2 8 1 9 68 10 70 11 71 12 79 13
REMARK SMILES IDX 72 14 78 15 73 16 74 17 75 18 76 19 77 20 69 21 10 23 11 24
REMARK SMILES IDX 12 25 13 26 14 27 15 28 67 29 16 30 66 31 17 32 18 33 19 34
REMARK SMILES IDX 60 35 20 36 65 37 59 38 61 39 21 40 64 41 58 42 57 43 22 45
REMARK SMILES IDX 48 46 31 47 47 48 32 49 35 50 46 51 62 52 33 53 34 54 45 56
REMARK SMILES IDX 63 57 36 58 23 59 24 60 29 61 25 62 26 63 28 64 30 65 27 66
REMARK SMILES IDX 49 67 50 68 55 69 51 70 52 71 54 72 56 73 53 74 37 75 38 76
REMARK SMILES IDX 43 77 39 78 40 79 42 80 44 81 41 82
REMARK H PARENT 69 22 61 44 35 55
REMARK Flexibility Score: inf
ROOT
ATOM      1  C   UNL     1      -1.446  -6.896   1.885  1.00  0.00     0.274 C 
ENDROOT
BRANCH   1   2
ATOM      2  O   UNL     1      -1.797  -5.552   1.492  1.00  0.00    -0.462 OA
BRANCH   2   3
ATOM      3  C   UNL     1      -0.871  -4.921   0.721  1.00  0.00     0.312 C 
ATOM      4  O   UNL     1       0.114  -5.462   0.234  1.00  0.00    -0.252 OA
BRANCH   3   5
ATOM      5  C   UNL     1      -1.157  -3.440   0.570  1.00  0.00     0.132 C 
BRANCH   5   6
ATOM      6  C   UNL     1       0.170  -2.673   0.816  1.00  0.00     0.018 C 
BRANCH   6   7
ATOM      7  C   UNL     1       0.515  -2.420   2.294  1.00  0.00     0.001 C 
BRANCH   7   8
ATOM      8  C   UNL     1       0.601  -3.624   3.232  1.00  0.00    -0.003 C 
ATOM      9  C   UNL     1       1.783  -4.542   2.963  1.00  0.00     0.004 C 
ENDBRANCH   7   8
ENDBRANCH   6   7
ENDBRANCH   5   6
BRANCH   5  10
ATOM     10  C   UNL     1      -1.749  -3.238  -0.848  1.00  0.00     0.158 C 
BRANCH  10  11
ATOM     11  C   UNL     1      -3.267  -3.265  -0.866  1.00  0.00    -0.019 A 
ATOM     12  C   UNL     1      -4.009  -2.180  -0.375  1.00  0.00     0.007 A 
ATOM     13  C   UNL     1      -3.962  -4.359  -1.397  1.00  0.00     0.007 A 
ATOM     14  C   UNL     1      -5.406  -2.190  -0.412  1.00  0.00     0.013 A 
ATOM     15  C   UNL     1      -5.360  -4.373  -1.434  1.00  0.00     0.013 A 
ATOM     16  C   UNL     1      -6.098  -3.292  -0.934  1.00  0.00     0.056 A 
BRANCH  16  17
ATOM     17  C   UNL     1      -7.605  -3.288  -0.996  1.00  0.00     0.416 C 
ATOM     18  F   UNL     1      -8.180  -2.651   0.063  1.00  0.00    -0.166 F 
ATOM     19  F   UNL     1      -8.079  -2.663  -2.109  1.00  0.00    -0.166 F 
ATOM     20  F   UNL     1      -8.147  -4.538  -1.012  1.00  0.00    -0.166 F 
ENDBRANCH  16  17
ENDBRANCH  10  11
BRANCH  10  21
ATOM     21  O   UNL     1      -1.360  -1.991  -1.429  1.00  0.00    -0.388 OA
ATOM     22  H   UNL     1      -1.725  -1.262  -0.903  1.00  0.00     0.211 HD
ENDBRANCH  10  21
ENDBRANCH   5  10
ENDBRANCH   3   5
ENDBRANCH   2   3
ENDBRANCH   1   2
BRANCH   1  23
ATOM     23  C   UNL     1      -2.015  -7.941   0.928  1.00  0.00     0.275 C 
BRANCH  23  24
ATOM     24  O   UNL     1      -1.509  -7.716  -0.398  1.00  0.00    -0.458 OA
BRANCH  24  25
ATOM     25  C   UNL     1      -2.356  -8.008  -1.408  1.00  0.00     0.338 C 
ATOM     26  O   UNL     1      -3.454  -8.539  -1.302  1.00  0.00    -0.246 OA
BRANCH  25  27
ATOM     27  C   UNL     1      -1.823  -7.522  -2.705  1.00  0.00     0.060 A 
ATOM     28  C   UNL     1      -0.905  -6.472  -2.777  1.00  0.00     0.016 A 
ATOM     29  C   UNL     1      -2.353  -8.041  -3.888  1.00  0.00     0.016 A 
ATOM     30  C   UNL     1      -0.608  -5.868  -3.999  1.00  0.00     0.010 A 
ATOM     31  C   UNL     1      -1.977  -7.501  -5.122  1.00  0.00     0.010 A 
ATOM     32  C   UNL     1      -1.133  -6.380  -5.191  1.00  0.00    -0.014 A 
BRANCH  32  33
ATOM     33  C   UNL     1      -0.850  -5.733  -6.503  1.00  0.00     0.031 A 
ATOM     34  C   UNL     1      -1.991  -5.266  -7.369  1.00  0.00     0.074 A 
ATOM     35  C   UNL     1       0.414  -5.570  -6.940  1.00  0.00     0.049 A 
ATOM     36  N   UNL     1      -1.991  -4.938  -8.636  1.00  0.00    -0.248 NA
ATOM     37  C   UNL     1      -3.312  -5.175  -6.726  1.00  0.00     0.031 C 
ATOM     38  C   UNL     1       1.627  -5.917  -6.198  1.00  0.00     0.029 A 
ATOM     39  N   UNL     1       0.887  -5.069  -8.129  1.00  0.00    -0.354 N 
ATOM     40  C   UNL     1      -3.317  -4.678  -8.961  1.00  0.00     0.074 A 
ATOM     41  C   UNL     1      -4.093  -4.871  -7.753  1.00  0.00     0.031 C 
ATOM     42  C   UNL     1       2.701  -5.592  -6.932  1.00  0.00     0.029 A 
ATOM     43  C   UNL     1       2.256  -5.101  -8.231  1.00  0.00     0.049 A 
ATOM     44  H   UNL     1       0.301  -4.722  -8.839  1.00  0.00     0.167 HD
ATOM     45  C   UNL     1      -3.839  -4.323 -10.159  1.00  0.00     0.037 A 
ATOM     46  C   UNL     1       3.066  -4.816  -9.269  1.00  0.00     0.037 A 
ATOM     47  C   UNL     1      -3.059  -4.061 -11.340  1.00  0.00     0.049 A 
ATOM     48  C   UNL     1       2.467  -4.419 -10.586  1.00  0.00     0.074 A 
ATOM     49  C   UNL     1      -3.496  -3.697 -12.603  1.00  0.00     0.029 A 
ATOM     50  N   UNL     1      -1.675  -4.104 -11.394  1.00  0.00    -0.354 N 
ATOM     51  N   UNL     1       1.206  -4.280 -10.912  1.00  0.00    -0.248 NA
ATOM     52  C   UNL     1       3.406  -4.165 -11.688  1.00  0.00     0.031 C 
ATOM     53  C   UNL     1      -2.375  -3.534 -13.425  1.00  0.00     0.029 A 
ATOM     54  C   UNL     1      -1.240  -3.768 -12.666  1.00  0.00     0.049 A 
ATOM     55  H   UNL     1      -1.087  -4.340 -10.640  1.00  0.00     0.167 HD
ATOM     56  C   UNL     1       1.198  -3.920 -12.252  1.00  0.00     0.074 A 
ATOM     57  C   UNL     1       2.582  -3.839 -12.673  1.00  0.00     0.031 C 
ATOM     58  C   UNL     1       0.139  -3.688 -13.065  1.00  0.00     0.037 A 
BRANCH  45  59
ATOM     59  C   UNL     1      -5.332  -4.230 -10.263  1.00  0.00     0.057 A 
ATOM     60  C   UNL     1      -6.053  -3.158  -9.726  1.00  0.00     0.134 A 
ATOM     61  C   UNL     1      -6.054  -5.219 -10.946  1.00  0.00     0.134 A 
ATOM     62  F   UNL     1      -5.423  -2.188  -9.048  1.00  0.00    -0.206 F 
ATOM     63  C   UNL     1      -7.442  -3.080  -9.850  1.00  0.00     0.040 A 
ATOM     64  C   UNL     1      -7.439  -5.141 -11.095  1.00  0.00     0.040 A 
ATOM     65  F   UNL     1      -5.422  -6.271 -11.488  1.00  0.00    -0.206 F 
ATOM     66  C   UNL     1      -8.138  -4.071 -10.541  1.00  0.00     0.006 A 
ENDBRANCH  45  59
BRANCH  46  67
ATOM     67  C   UNL     1       4.536  -4.944  -9.113  1.00  0.00     0.057 A 
ATOM     68  C   UNL     1       5.356  -3.812  -9.074  1.00  0.00     0.134 A 
ATOM     69  C   UNL     1       5.152  -6.196  -8.993  1.00  0.00     0.134 A 
ATOM     70  F   UNL     1       4.824  -2.588  -9.209  1.00  0.00    -0.206 F 
ATOM     71  C   UNL     1       6.739  -3.919  -8.925  1.00  0.00     0.040 A 
ATOM     72  C   UNL     1       6.531  -6.316  -8.819  1.00  0.00     0.040 A 
ATOM     73  F   UNL     1       4.418  -7.317  -9.022  1.00  0.00    -0.206 F 
ATOM     74  C   UNL     1       7.329  -5.174  -8.789  1.00  0.00     0.006 A 
ENDBRANCH  46  67
BRANCH  58  75
ATOM     75  C   UNL     1       0.446  -3.298 -14.479  1.00  0.00     0.057 A 
ATOM     76  C   UNL     1       0.869  -4.239 -15.425  1.00  0.00     0.134 A 
ATOM     77  C   UNL     1       0.307  -1.970 -14.898  1.00  0.00     0.134 A 
ATOM     78  F   UNL     1       1.035  -5.524 -15.079  1.00  0.00    -0.206 F 
ATOM     79  C   UNL     1       1.169  -3.866 -16.736  1.00  0.00     0.040 A 
ATOM     80  C   UNL     1       0.586  -1.589 -16.210  1.00  0.00     0.040 A 
ATOM     81  F   UNL     1      -0.099  -1.023 -14.038  1.00  0.00    -0.206 F 
ATOM     82  C   UNL     1       1.024  -2.538 -17.132  1.00  0.00     0.006 A 
ENDBRANCH  58  75
ENDBRANCH  32  33
ENDBRANCH  25  27
ENDBRANCH  24  25
ENDBRANCH  23  24
ENDBRANCH   1  23
TORSDOF 18
