REMARK SMILES Cc1cc(C(=O)OCCOC(=O)c2ccc(-c3c4nc(c(-c5c(F)cccc5F)c5ccc([nH]5)c(-c5c(F)cccc5F)c5nc(c(-c6c(F)cccc6F)c6ccc3[nH]6)C=C5)C=C4)cc2)ccc1NS(=O)(=O)c1ccc2c(c1)CCC2
REMARK SMILES IDX 8 1 7 2 5 3 6 4 4 5 1 6 2 7 3 8 69 9 68 10 67 11 70 12 71 14
REMARK SMILES IDX 72 15 73 16 74 17 75 18 79 19 76 20 78 21 77 22 80 23 82 24
REMARK SMILES IDX 81 25 9 26 10 27 11 28 12 29 13 30 14 31 66 32 15 33 65 34
REMARK SMILES IDX 16 35 17 36 18 37 59 38 19 39 64 40 58 41 60 42 20 43 63 44
REMARK SMILES IDX 57 45 56 46 21 48 47 49 30 50 46 51 31 52 34 53 45 54 61 55
REMARK SMILES IDX 32 56 33 57 44 59 62 60 35 61 22 62 23 63 28 64 24 65 25 66
REMARK SMILES IDX 27 67 29 68 26 69 48 70 49 71 54 72 50 73 51 74 53 75 55 76
REMARK SMILES IDX 52 77 36 78 37 79 42 80 38 81 39 82 41 83 43 84 40 85
REMARK H PARENT 70 13 60 47 34 58
REMARK Flexibility Score: inf
ROOT
ATOM      1  C   UNL     1      -3.780  -2.822  -2.177  1.00  0.00     0.275 C 
ENDROOT
BRANCH   1   2
ATOM      2  O   UNL     1      -2.582  -2.061  -1.915  1.00  0.00    -0.458 OA
BRANCH   2   3
ATOM      3  C   UNL     1      -2.793  -1.151  -0.920  1.00  0.00     0.338 C 
ATOM      4  O   UNL     1      -3.895  -0.939  -0.419  1.00  0.00    -0.246 OA
BRANCH   3   5
ATOM      5  C   UNL     1      -1.611  -0.367  -0.449  1.00  0.00     0.060 A 
ATOM      6  C   UNL     1       2.101   0.335  -0.802  1.00  0.00     0.046 C 
ATOM      7  C   UNL     1       0.630   0.591  -0.578  1.00  0.00    -0.026 A 
ATOM      8  C   UNL     1      -0.313  -0.396  -0.972  1.00  0.00     0.021 A 
ATOM      9  C   UNL     1       0.197   1.656   0.236  1.00  0.00     0.052 A 
ATOM     10  C   UNL     1      -0.969   1.508   0.966  1.00  0.00     0.028 A 
ATOM     11  C   UNL     1      -1.866   0.505   0.621  1.00  0.00     0.018 A 
BRANCH   9  12
ATOM     12  N   UNL     1       0.820   2.951   0.281  1.00  0.00    -0.279 N 
ATOM     13  H   UNL     1       1.636   3.089   0.814  1.00  0.00     0.180 HD
BRANCH  12  14
ATOM     14  S   UNL     1       0.121   4.273  -0.611  1.00  0.00     0.261 S 
ATOM     15  O   UNL     1       0.559   5.459   0.102  1.00  0.00    -0.201 OA
ATOM     16  O   UNL     1       0.500   4.080  -1.995  1.00  0.00    -0.201 OA
BRANCH  14  17
ATOM     17  C   UNL     1      -1.669   4.263  -0.554  1.00  0.00     0.088 A 
ATOM     18  C   UNL     1      -2.393   3.148  -1.001  1.00  0.00     0.022 A 
ATOM     19  C   UNL     1      -2.367   5.396  -0.108  1.00  0.00     0.026 A 
ATOM     20  C   UNL     1      -3.748   3.003  -0.677  1.00  0.00     0.005 A 
ATOM     21  C   UNL     1      -3.739   5.289   0.079  1.00  0.00    -0.043 A 
ATOM     22  C   UNL     1      -4.391   4.063  -0.072  1.00  0.00    -0.045 A 
ATOM     23  C   UNL     1      -4.746   6.350   0.399  1.00  0.00     0.036 C 
ATOM     24  C   UNL     1      -5.791   4.126   0.460  1.00  0.00     0.036 C 
ATOM     25  C   UNL     1      -5.806   5.516   1.125  1.00  0.00     0.010 C 
ENDBRANCH  14  17
ENDBRANCH  12  14
ENDBRANCH   9  12
ENDBRANCH   3   5
ENDBRANCH   2   3
ENDBRANCH   1   2
BRANCH   1  26
ATOM     26  C   UNL     1      -3.604  -4.187  -2.870  1.00  0.00     0.275 C 
BRANCH  26  27
ATOM     27  O   UNL     1      -2.324  -4.872  -2.861  1.00  0.00    -0.458 OA
BRANCH  27  28
ATOM     28  C   UNL     1      -1.321  -4.758  -1.966  1.00  0.00     0.338 C 
ATOM     29  O   UNL     1      -0.142  -4.911  -2.277  1.00  0.00    -0.246 OA
BRANCH  28  30
ATOM     30  C   UNL     1      -1.686  -4.428  -0.586  1.00  0.00     0.060 A 
ATOM     31  C   UNL     1      -0.828  -3.597   0.155  1.00  0.00     0.016 A 
ATOM     32  C   UNL     1      -2.914  -4.846  -0.080  1.00  0.00     0.016 A 
ATOM     33  C   UNL     1      -1.219  -3.142   1.402  1.00  0.00     0.010 A 
ATOM     34  C   UNL     1      -3.378  -4.262   1.067  1.00  0.00     0.010 A 
ATOM     35  C   UNL     1      -2.495  -3.489   1.836  1.00  0.00    -0.014 A 
BRANCH  35  36
ATOM     36  C   UNL     1      -2.856  -3.494   3.238  1.00  0.00     0.031 A 
ATOM     37  C   UNL     1      -3.458  -2.315   3.862  1.00  0.00     0.074 A 
ATOM     38  C   UNL     1      -2.721  -4.742   3.740  1.00  0.00     0.049 A 
ATOM     39  N   UNL     1      -3.410  -2.052   5.117  1.00  0.00    -0.248 NA
ATOM     40  C   UNL     1      -4.114  -1.258   3.095  1.00  0.00     0.031 C 
ATOM     41  C   UNL     1      -3.229  -5.383   4.932  1.00  0.00     0.029 A 
ATOM     42  N   UNL     1      -1.883  -5.722   3.171  1.00  0.00    -0.354 N 
ATOM     43  C   UNL     1      -4.342  -1.057   5.353  1.00  0.00     0.074 A 
ATOM     44  C   UNL     1      -4.570  -0.457   4.066  1.00  0.00     0.031 C 
ATOM     45  C   UNL     1      -2.468  -6.471   5.182  1.00  0.00     0.029 A 
ATOM     46  C   UNL     1      -1.368  -6.476   4.218  1.00  0.00     0.049 A 
ATOM     47  H   UNL     1      -1.697  -5.848   2.212  1.00  0.00     0.167 HD
ATOM     48  C   UNL     1      -4.973  -1.044   6.566  1.00  0.00     0.037 A 
ATOM     49  C   UNL     1      -0.044  -6.300   4.505  1.00  0.00     0.037 A 
ATOM     50  C   UNL     1      -4.432  -2.138   7.378  1.00  0.00     0.049 A 
ATOM     51  C   UNL     1       0.079  -5.586   5.829  1.00  0.00     0.074 A 
ATOM     52  C   UNL     1      -4.873  -3.438   7.565  1.00  0.00     0.029 A 
ATOM     53  N   UNL     1      -3.095  -2.112   7.756  1.00  0.00    -0.354 N 
ATOM     54  N   UNL     1      -0.748  -4.664   6.254  1.00  0.00    -0.248 NA
ATOM     55  C   UNL     1       1.060  -5.986   6.828  1.00  0.00     0.031 C 
ATOM     56  C   UNL     1      -3.751  -4.219   7.952  1.00  0.00     0.029 A 
ATOM     57  C   UNL     1      -2.637  -3.395   7.996  1.00  0.00     0.049 A 
ATOM     58  H   UNL     1      -2.551  -1.296   7.841  1.00  0.00     0.167 HD
ATOM     59  C   UNL     1      -0.493  -4.425   7.579  1.00  0.00     0.074 A 
ATOM     60  C   UNL     1       0.661  -5.257   7.882  1.00  0.00     0.031 C 
ATOM     61  C   UNL     1      -1.254  -3.621   8.381  1.00  0.00     0.037 A 
BRANCH  48  62
ATOM     62  C   UNL     1      -6.264  -0.326   6.930  1.00  0.00     0.057 A 
ATOM     63  C   UNL     1      -6.987  -0.718   8.081  1.00  0.00     0.134 A 
ATOM     64  C   UNL     1      -6.876   0.714   6.207  1.00  0.00     0.134 A 
ATOM     65  F   UNL     1      -6.517  -1.646   8.925  1.00  0.00    -0.206 F 
ATOM     66  C   UNL     1      -8.231  -0.176   8.437  1.00  0.00     0.040 A 
ATOM     67  C   UNL     1      -8.129   1.257   6.546  1.00  0.00     0.040 A 
ATOM     68  F   UNL     1      -6.291   1.295   5.158  1.00  0.00    -0.206 F 
ATOM     69  C   UNL     1      -8.817   0.806   7.660  1.00  0.00     0.006 A 
ENDBRANCH  48  62
BRANCH  49  70
ATOM     70  C   UNL     1       0.834  -6.109   3.297  1.00  0.00     0.057 A 
ATOM     71  C   UNL     1       0.761  -7.062   2.253  1.00  0.00     0.134 A 
ATOM     72  C   UNL     1       1.532  -4.935   3.000  1.00  0.00     0.134 A 
ATOM     73  F   UNL     1       0.127  -8.230   2.451  1.00  0.00    -0.206 F 
ATOM     74  C   UNL     1       1.248  -6.816   0.963  1.00  0.00     0.040 A 
ATOM     75  C   UNL     1       2.053  -4.688   1.714  1.00  0.00     0.040 A 
ATOM     76  F   UNL     1       1.663  -3.964   3.914  1.00  0.00    -0.206 F 
ATOM     77  C   UNL     1       1.881  -5.614   0.684  1.00  0.00     0.006 A 
ENDBRANCH  49  70
BRANCH  61  78
ATOM     78  C   UNL     1      -0.770  -3.040   9.683  1.00  0.00     0.057 A 
ATOM     79  C   UNL     1       0.584  -2.806   9.963  1.00  0.00     0.134 A 
ATOM     80  C   UNL     1      -1.680  -2.520  10.630  1.00  0.00     0.134 A 
ATOM     81  F   UNL     1       1.549  -3.115   9.086  1.00  0.00    -0.206 F 
ATOM     82  C   UNL     1       1.008  -2.183  11.139  1.00  0.00     0.040 A 
ATOM     83  C   UNL     1      -1.270  -1.826  11.768  1.00  0.00     0.040 A 
ATOM     84  F   UNL     1      -3.008  -2.627  10.477  1.00  0.00    -0.206 F 
ATOM     85  C   UNL     1       0.081  -1.678  12.039  1.00  0.00     0.006 A 
ENDBRANCH  61  78
ENDBRANCH  35  36
ENDBRANCH  28  30
ENDBRANCH  27  28
ENDBRANCH  26  27
ENDBRANCH   1  26
TORSDOF 14
