REMARK SMILES CC(C)CSc1cc2c(cc1Cl)C=C(C(=O)OCCOC(=O)c1ccc(-c3c4nc(c(-c5c(F)cccc5F)c5ccc([nH]5)c(-c5c(F)cccc5F)c5nc(c(-c6c(F)cccc6F)c6ccc3[nH]6)C=C5)C=C4)cc1)[C@@H](C(F)(F)F)O2
REMARK SMILES IDX 18 1 17 2 15 3 16 4 14 5 6 6 7 7 11 8 8 9 10 10 12 11 9 12
REMARK SMILES IDX 82 13 13 14 77 15 5 16 4 17 2 18 1 19 3 20 78 21 79 22 80 23
REMARK SMILES IDX 81 24 19 25 20 26 21 27 22 28 23 29 24 30 76 31 25 32 75 33
REMARK SMILES IDX 26 34 27 35 28 36 69 37 29 38 74 39 68 40 70 41 30 42 73 43
REMARK SMILES IDX 67 44 66 45 31 47 57 48 40 49 56 50 41 51 44 52 55 53 71 54
REMARK SMILES IDX 42 55 43 56 54 58 72 59 45 60 32 61 33 62 38 63 34 64 35 65
REMARK SMILES IDX 37 66 39 67 36 68 58 69 59 70 64 71 60 72 61 73 63 74 65 75
REMARK SMILES IDX 62 76 46 77 47 78 52 79 48 80 49 81 51 82 53 83 50 84
REMARK H PARENT 70 46 44 57
REMARK Flexibility Score: inf
ROOT
ATOM      1  C   UNL     1       2.849  -7.376   5.338  1.00  0.00     0.275 C 
ENDROOT
BRANCH   1   2
ATOM      2  O   UNL     1       2.356  -6.051   5.042  1.00  0.00    -0.459 OA
BRANCH   2   3
ATOM      3  C   UNL     1       2.076  -5.800   3.742  1.00  0.00     0.338 C 
ATOM      4  O   UNL     1       2.200  -6.573   2.805  1.00  0.00    -0.246 OA
BRANCH   3   5
ATOM      5  C   UNL     1       1.514  -4.441   3.597  1.00  0.00     0.087 C 
ATOM      6  C   UNL     1      -0.989  -0.388   2.023  1.00  0.00     0.030 A 
ATOM      7  C   UNL     1       0.050  -0.595   2.948  1.00  0.00     0.063 A 
ATOM      8  C   UNL     1      -1.662  -1.499   1.495  1.00  0.00     0.055 A 
ATOM      9  C   UNL     1       0.506  -1.882   3.227  1.00  0.00     0.129 A 
ATOM     10  C   UNL     1      -1.206  -2.786   1.778  1.00  0.00     0.033 A 
ATOM     11  Cl  UNL     1      -3.062  -1.367   0.488  1.00  0.00    -0.083 Cl
ATOM     12  C   UNL     1      -0.095  -2.970   2.606  1.00  0.00     0.019 A 
ATOM     13  O   UNL     1       1.550  -1.992   4.101  1.00  0.00    -0.475 OA
ATOM     14  C   UNL     1       0.451  -4.294   2.799  1.00  0.00     0.027 C 
ATOM     15  C   UNL     1       2.215  -3.281   4.248  1.00  0.00     0.316 C 
BRANCH   6  16
ATOM     16  S   UNL     1      -1.306   1.306   1.548  1.00  0.00    -0.124 SA
BRANCH  16  17
ATOM     17  C   UNL     1      -0.829   1.265  -0.228  1.00  0.00     0.078 C 
BRANCH  17  18
ATOM     18  C   UNL     1       0.687   1.334  -0.502  1.00  0.00    -0.007 C 
ATOM     19  C   UNL     1       1.403  -0.006  -0.310  1.00  0.00     0.008 C 
ATOM     20  C   UNL     1       0.917   1.800  -1.945  1.00  0.00     0.008 C 
ENDBRANCH  17  18
ENDBRANCH  16  17
ENDBRANCH   6  16
BRANCH  15  21
ATOM     21  C   UNL     1       3.653  -3.154   3.717  1.00  0.00     0.430 C 
ATOM     22  F   UNL     1       4.292  -2.092   4.261  1.00  0.00    -0.167 F 
ATOM     23  F   UNL     1       4.394  -4.249   4.016  1.00  0.00    -0.167 F 
ATOM     24  F   UNL     1       3.684  -3.002   2.372  1.00  0.00    -0.167 F 
ENDBRANCH  15  21
ENDBRANCH   3   5
ENDBRANCH   2   3
ENDBRANCH   1   2
BRANCH   1  25
ATOM     25  C   UNL     1       1.772  -8.231   6.008  1.00  0.00     0.275 C 
BRANCH  25  26
ATOM     26  O   UNL     1       0.725  -8.543   5.070  1.00  0.00    -0.458 OA
BRANCH  26  27
ATOM     27  C   UNL     1      -0.448  -7.903   5.271  1.00  0.00     0.338 C 
ATOM     28  O   UNL     1      -0.732  -7.125   6.164  1.00  0.00    -0.246 OA
BRANCH  27  29
ATOM     29  C   UNL     1      -1.353  -8.189   4.148  1.00  0.00     0.060 A 
ATOM     30  C   UNL     1      -2.476  -8.993   4.292  1.00  0.00     0.016 A 
ATOM     31  C   UNL     1      -1.135  -7.509   2.957  1.00  0.00     0.016 A 
ATOM     32  C   UNL     1      -3.365  -9.117   3.215  1.00  0.00     0.010 A 
ATOM     33  C   UNL     1      -2.087  -7.518   1.945  1.00  0.00     0.010 A 
ATOM     34  C   UNL     1      -3.202  -8.355   2.039  1.00  0.00    -0.014 A 
BRANCH  34  35
ATOM     35  C   UNL     1      -4.177  -8.432   0.911  1.00  0.00     0.031 A 
ATOM     36  C   UNL     1      -3.724  -8.777  -0.491  1.00  0.00     0.074 A 
ATOM     37  C   UNL     1      -5.477  -8.144   1.131  1.00  0.00     0.049 A 
ATOM     38  N   UNL     1      -4.436  -8.895  -1.586  1.00  0.00    -0.248 NA
ATOM     39  C   UNL     1      -2.281  -8.971  -0.705  1.00  0.00     0.031 C 
ATOM     40  C   UNL     1      -6.042  -7.686   2.402  1.00  0.00     0.029 A 
ATOM     41  N   UNL     1      -6.563  -8.207   0.292  1.00  0.00    -0.354 N 
ATOM     42  C   UNL     1      -3.527  -9.146  -2.608  1.00  0.00     0.074 A 
ATOM     43  C   UNL     1      -2.209  -9.086  -2.022  1.00  0.00     0.031 C 
ATOM     44  C   UNL     1      -7.375  -7.586   2.282  1.00  0.00     0.029 A 
ATOM     45  C   UNL     1      -7.756  -7.934   0.917  1.00  0.00     0.049 A 
ATOM     46  H   UNL     1      -6.493  -8.427  -0.664  1.00  0.00     0.167 HD
ATOM     47  C   UNL     1      -3.762  -9.447  -3.909  1.00  0.00     0.037 A 
ATOM     48  C   UNL     1      -9.018  -7.978   0.450  1.00  0.00     0.037 A 
ATOM     49  C   UNL     1      -5.074  -9.571  -4.486  1.00  0.00     0.049 A 
ATOM     50  C   UNL     1      -9.261  -8.374  -0.979  1.00  0.00     0.074 A 
ATOM     51  C   UNL     1      -5.423  -9.959  -5.768  1.00  0.00     0.029 A 
ATOM     52  N   UNL     1      -6.257  -9.319  -3.808  1.00  0.00    -0.354 N 
ATOM     53  N   UNL     1      -8.394  -8.702  -1.905  1.00  0.00    -0.248 NA
ATOM     54  C   UNL     1     -10.661  -8.412  -1.425  1.00  0.00     0.031 C 
ATOM     55  C   UNL     1      -6.817  -9.915  -5.874  1.00  0.00     0.029 A 
ATOM     56  C   UNL     1      -7.337  -9.534  -4.648  1.00  0.00     0.049 A 
ATOM     57  H   UNL     1      -6.319  -9.029  -2.869  1.00  0.00     0.167 HD
ATOM     58  C   UNL     1      -9.142  -9.004  -3.035  1.00  0.00     0.074 A 
ATOM     59  C   UNL     1     -10.535  -8.844  -2.671  1.00  0.00     0.031 C 
ATOM     60  C   UNL     1      -8.716  -9.376  -4.267  1.00  0.00     0.037 A 
BRANCH  47  61
ATOM     61  C   UNL     1      -2.568  -9.699  -4.788  1.00  0.00     0.057 A 
ATOM     62  C   UNL     1      -2.231  -8.812  -5.819  1.00  0.00     0.134 A 
ATOM     63  C   UNL     1      -1.760 -10.834  -4.626  1.00  0.00     0.134 A 
ATOM     64  F   UNL     1      -2.965  -7.712  -6.040  1.00  0.00    -0.206 F 
ATOM     65  C   UNL     1      -1.129  -9.040  -6.647  1.00  0.00     0.040 A 
ATOM     66  C   UNL     1      -0.640 -11.057  -5.428  1.00  0.00     0.040 A 
ATOM     67  F   UNL     1      -2.022 -11.720  -3.652  1.00  0.00    -0.206 F 
ATOM     68  C   UNL     1      -0.324 -10.160  -6.446  1.00  0.00     0.006 A 
ENDBRANCH  47  61
BRANCH  48  69
ATOM     69  C   UNL     1     -10.160  -7.696   1.357  1.00  0.00     0.057 A 
ATOM     70  C   UNL     1     -10.433  -6.404   1.818  1.00  0.00     0.134 A 
ATOM     71  C   UNL     1     -11.018  -8.723   1.770  1.00  0.00     0.134 A 
ATOM     72  F   UNL     1      -9.645  -5.378   1.465  1.00  0.00    -0.206 F 
ATOM     73  C   UNL     1     -11.517  -6.143   2.658  1.00  0.00     0.040 A 
ATOM     74  C   UNL     1     -12.119  -8.473   2.589  1.00  0.00     0.040 A 
ATOM     75  F   UNL     1     -10.817  -9.980   1.347  1.00  0.00    -0.206 F 
ATOM     76  C   UNL     1     -12.369  -7.178   3.039  1.00  0.00     0.006 A 
ENDBRANCH  48  69
BRANCH  60  77
ATOM     77  C   UNL     1      -9.768  -9.658  -5.296  1.00  0.00     0.057 A 
ATOM     78  C   UNL     1     -10.030 -10.970  -5.708  1.00  0.00     0.134 A 
ATOM     79  C   UNL     1     -10.505  -8.629  -5.895  1.00  0.00     0.134 A 
ATOM     80  F   UNL     1      -9.352 -12.000  -5.178  1.00  0.00    -0.206 F 
ATOM     81  C   UNL     1     -10.990 -11.250  -6.681  1.00  0.00     0.040 A 
ATOM     82  C   UNL     1     -11.485  -8.899  -6.852  1.00  0.00     0.040 A 
ATOM     83  F   UNL     1     -10.311  -7.353  -5.532  1.00  0.00    -0.206 F 
ATOM     84  C   UNL     1     -11.725 -10.212  -7.251  1.00  0.00     0.006 A 
ENDBRANCH  60  77
ENDBRANCH  34  35
ENDBRANCH  27  29
ENDBRANCH  26  27
ENDBRANCH  25  26
ENDBRANCH   1  25
TORSDOF 15
