REMARK SMILES O=C(Cc1csc(Sc2ncnc3c2CCCC3)n1)OCCOC(=O)c1ccc(-c2c3nc(c(-c4c(F)cccc4F)c4ccc([nH]4)c(-c4c(F)cccc4F)c4nc(c(-c5c(F)cccc5F)c5ccc2[nH]5)C=C4)C=C3)cc1
REMARK SMILES IDX 21 1 20 2 2 3 1 4 3 5 4 6 5 7 19 8 6 9 7 10 8 11 9 12 10 13
REMARK SMILES IDX 14 14 11 15 13 16 15 17 12 18 18 19 16 20 17 21 22 22 23 23
REMARK SMILES IDX 24 24 25 25 26 26 27 27 79 28 28 29 78 30 29 31 30 32 31 33
REMARK SMILES IDX 72 34 32 35 77 36 71 37 73 38 33 39 76 40 70 41 69 42 34 44
REMARK SMILES IDX 60 45 43 46 59 47 44 48 47 49 58 50 74 51 45 52 46 53 57 55
REMARK SMILES IDX 75 56 48 57 35 58 36 59 41 60 37 61 38 62 40 63 42 64 39 65
REMARK SMILES IDX 61 66 62 67 67 68 63 69 64 70 66 71 68 72 65 73 49 74 50 75
REMARK SMILES IDX 55 76 51 77 52 78 54 79 56 80 53 81
REMARK H PARENT 73 43 47 54
REMARK Flexibility Score: inf
ROOT
ATOM      1  C   UNL     1       4.600  -0.823  -0.274  1.00  0.00     0.274 C 
ENDROOT
BRANCH   1   2
ATOM      2  O   UNL     1       3.281  -0.903   0.311  1.00  0.00    -0.462 OA
BRANCH   2   3
ATOM      3  C   UNL     1       2.621   0.114   0.914  1.00  0.00     0.312 C 
ATOM      4  O   UNL     1       1.505  -0.079   1.394  1.00  0.00    -0.252 OA
BRANCH   3   5
ATOM      5  C   UNL     1       3.289   1.460   1.025  1.00  0.00     0.179 C 
BRANCH   5   6
ATOM      6  C   UNL     1       4.191   1.605   2.203  1.00  0.00     0.064 A 
ATOM      7  C   UNL     1       4.470   0.687   3.198  1.00  0.00     0.092 A 
ATOM      8  N   UNL     1       4.864   2.814   2.337  1.00  0.00    -0.234 NA
ATOM      9  S   UNL     1       5.540   1.368   4.349  1.00  0.00    -0.116 S 
ATOM     10  C   UNL     1       5.546   2.838   3.462  1.00  0.00     0.156 A 
BRANCH  10  11
ATOM     11  S   UNL     1       6.482   4.219   3.997  1.00  0.00    -0.039 SA
BRANCH  11  12
ATOM     12  C   UNL     1       5.547   5.532   3.223  1.00  0.00     0.110 A 
ATOM     13  N   UNL     1       4.259   5.627   3.614  1.00  0.00    -0.229 NA
ATOM     14  C   UNL     1       6.147   6.440   2.351  1.00  0.00     0.006 A 
ATOM     15  C   UNL     1       3.558   6.627   3.083  1.00  0.00     0.223 A 
ATOM     16  C   UNL     1       5.316   7.447   1.874  1.00  0.00     0.048 A 
ATOM     17  C   UNL     1       7.617   6.419   2.029  1.00  0.00     0.040 C 
ATOM     18  N   UNL     1       4.020   7.548   2.231  1.00  0.00    -0.241 NA
ATOM     19  C   UNL     1       5.812   8.473   0.888  1.00  0.00     0.056 C 
ATOM     20  C   UNL     1       8.037   7.355   0.894  1.00  0.00     0.005 C 
ATOM     21  C   UNL     1       7.317   8.693   0.988  1.00  0.00     0.007 C 
ENDBRANCH  11  12
ENDBRANCH  10  11
ENDBRANCH   5   6
ENDBRANCH   3   5
ENDBRANCH   2   3
ENDBRANCH   1   2
BRANCH   1  22
ATOM     22  C   UNL     1       4.520  -0.678  -1.794  1.00  0.00     0.275 C 
BRANCH  22  23
ATOM     23  O   UNL     1       4.064   0.642  -2.137  1.00  0.00    -0.458 OA
BRANCH  23  24
ATOM     24  C   UNL     1       2.740   0.753  -2.418  1.00  0.00     0.338 C 
ATOM     25  O   UNL     1       1.938  -0.154  -2.510  1.00  0.00    -0.246 OA
BRANCH  24  26
ATOM     26  C   UNL     1       2.362   2.186  -2.423  1.00  0.00     0.060 A 
ATOM     27  C   UNL     1       1.106   2.532  -1.908  1.00  0.00     0.016 A 
ATOM     28  C   UNL     1       3.220   3.179  -2.908  1.00  0.00     0.016 A 
ATOM     29  C   UNL     1       0.694   3.866  -1.907  1.00  0.00     0.010 A 
ATOM     30  C   UNL     1       2.804   4.515  -2.904  1.00  0.00     0.010 A 
ATOM     31  C   UNL     1       1.530   4.863  -2.427  1.00  0.00    -0.014 A 
BRANCH  31  32
ATOM     32  C   UNL     1       1.030   6.250  -2.582  1.00  0.00     0.031 A 
ATOM     33  C   UNL     1       0.534   6.712  -3.921  1.00  0.00     0.074 A 
ATOM     34  C   UNL     1       0.975   7.095  -1.538  1.00  0.00     0.049 A 
ATOM     35  N   UNL     1       0.074   7.886  -4.271  1.00  0.00    -0.248 NA
ATOM     36  C   UNL     1       0.540   5.715  -5.003  1.00  0.00     0.031 C 
ATOM     37  C   UNL     1       1.353   6.771  -0.167  1.00  0.00     0.029 A 
ATOM     38  N   UNL     1       0.587   8.412  -1.484  1.00  0.00    -0.354 N 
ATOM     39  C   UNL     1      -0.319   7.755  -5.594  1.00  0.00     0.074 A 
ATOM     40  C   UNL     1       0.032   6.412  -6.009  1.00  0.00     0.031 C 
ATOM     41  C   UNL     1       1.202   7.872   0.588  1.00  0.00     0.029 A 
ATOM     42  C   UNL     1       0.766   8.982  -0.250  1.00  0.00     0.049 A 
ATOM     43  H   UNL     1       0.217   8.899  -2.256  1.00  0.00     0.167 HD
ATOM     44  C   UNL     1      -0.953   8.655  -6.381  1.00  0.00     0.037 A 
ATOM     45  C   UNL     1       0.633  10.256   0.162  1.00  0.00     0.037 A 
ATOM     46  C   UNL     1      -1.280  10.001  -5.992  1.00  0.00     0.049 A 
ATOM     47  C   UNL     1       0.143  11.304  -0.787  1.00  0.00     0.074 A 
ATOM     48  C   UNL     1      -1.940  10.973  -6.725  1.00  0.00     0.029 A 
ATOM     49  N   UNL     1      -0.959  10.573  -4.772  1.00  0.00    -0.354 N 
ATOM     50  N   UNL     1      -0.228  11.171  -2.035  1.00  0.00    -0.248 NA
ATOM     51  C   UNL     1       0.037  12.674  -0.266  1.00  0.00     0.031 C 
ATOM     52  C   UNL     1      -1.975  12.148  -5.966  1.00  0.00     0.029 A 
ATOM     53  C   UNL     1      -1.377  11.895  -4.743  1.00  0.00     0.049 A 
ATOM     54  H   UNL     1      -0.501  10.109  -4.034  1.00  0.00     0.167 HD
ATOM     55  C   UNL     1      -0.658  12.427  -2.437  1.00  0.00     0.074 A 
ATOM     56  C   UNL     1      -0.476  13.316  -1.308  1.00  0.00     0.031 C 
ATOM     57  C   UNL     1      -1.187  12.790  -3.630  1.00  0.00     0.037 A 
BRANCH  44  58
ATOM     58  C   UNL     1      -1.351   8.193  -7.748  1.00  0.00     0.057 A 
ATOM     59  C   UNL     1      -2.422   7.307  -7.931  1.00  0.00     0.134 A 
ATOM     60  C   UNL     1      -0.681   8.649  -8.887  1.00  0.00     0.134 A 
ATOM     61  F   UNL     1      -3.092   6.823  -6.875  1.00  0.00    -0.206 F 
ATOM     62  C   UNL     1      -2.801   6.878  -9.202  1.00  0.00     0.040 A 
ATOM     63  C   UNL     1      -1.065   8.242 -10.166  1.00  0.00     0.040 A 
ATOM     64  F   UNL     1       0.352   9.497  -8.777  1.00  0.00    -0.206 F 
ATOM     65  C   UNL     1      -2.125   7.351 -10.325  1.00  0.00     0.006 A 
ENDBRANCH  44  58
BRANCH  45  66
ATOM     66  C   UNL     1       1.020  10.612   1.545  1.00  0.00     0.057 A 
ATOM     67  C   UNL     1       0.072  10.751   2.561  1.00  0.00     0.134 A 
ATOM     68  C   UNL     1       2.367  10.793   1.878  1.00  0.00     0.134 A 
ATOM     69  F   UNL     1      -1.234  10.621   2.288  1.00  0.00    -0.206 F 
ATOM     70  C   UNL     1       0.453  11.042   3.872  1.00  0.00     0.040 A 
ATOM     71  C   UNL     1       2.764  11.062   3.188  1.00  0.00     0.040 A 
ATOM     72  F   UNL     1       3.310  10.719   0.928  1.00  0.00    -0.206 F 
ATOM     73  C   UNL     1       1.804  11.186   4.190  1.00  0.00     0.006 A 
ENDBRANCH  45  66
BRANCH  57  74
ATOM     74  C   UNL     1      -1.658  14.205  -3.770  1.00  0.00     0.057 A 
ATOM     75  C   UNL     1      -0.767  15.272  -3.930  1.00  0.00     0.134 A 
ATOM     76  C   UNL     1      -3.029  14.498  -3.777  1.00  0.00     0.134 A 
ATOM     77  F   UNL     1       0.558  15.059  -3.914  1.00  0.00    -0.206 F 
ATOM     78  C   UNL     1      -1.222  16.583  -4.081  1.00  0.00     0.040 A 
ATOM     79  C   UNL     1      -3.496  15.801  -3.948  1.00  0.00     0.040 A 
ATOM     80  F   UNL     1      -3.935  13.519  -3.629  1.00  0.00    -0.206 F 
ATOM     81  C   UNL     1      -2.591  16.849  -4.098  1.00  0.00     0.006 A 
ENDBRANCH  57  74
ENDBRANCH  31  32
ENDBRANCH  24  26
ENDBRANCH  23  24
ENDBRANCH  22  23
ENDBRANCH   1  22
TORSDOF 14
