REMARK SMILES O=C(NC[C@@H]1CCOC1)NC[C@@H]1CC[C@H](C(=O)OCCOC(=O)c2ccc(-c3c4nc(c(-c5c(F)cccc5F)c5ccc([nH]5)c(-c5c(F)cccc5F)c5nc(c(-c6c(F)cccc6F)c6ccc3[nH]6)C=C5)C=C4)cc2)O1
REMARK SMILES IDX 19 1 18 2 16 3 17 4 15 5 12 6 13 7 78 8 14 9 11 10 10 11
REMARK SMILES IDX 1 12 2 13 3 14 4 17 5 18 6 19 9 20 7 21 8 22 20 23 21 24
REMARK SMILES IDX 22 25 23 26 24 27 25 28 77 29 26 30 76 31 27 32 28 33 29 34
REMARK SMILES IDX 70 35 30 36 75 37 69 38 71 39 31 40 74 41 68 42 67 43 32 45
REMARK SMILES IDX 58 46 41 47 57 48 42 49 45 50 56 51 72 52 43 53 44 54 55 56
REMARK SMILES IDX 73 57 46 58 33 59 34 60 39 61 35 62 36 63 38 64 40 65 37 66
REMARK SMILES IDX 59 67 60 68 65 69 61 70 62 71 64 72 66 73 63 74 47 75 48 76
REMARK SMILES IDX 53 77 49 78 50 79 52 80 54 81 51 82
REMARK H PARENT 3 15 10 16 71 44 45 55
REMARK Flexibility Score: inf
ROOT
ATOM      1  C   UNL     1       4.167   5.666  -3.791  1.00  0.00     0.274 C 
ENDROOT
BRANCH   1   2
ATOM      2  O   UNL     1       3.573   5.406  -2.504  1.00  0.00    -0.460 OA
BRANCH   2   3
ATOM      3  C   UNL     1       4.425   5.020  -1.516  1.00  0.00     0.335 C 
ATOM      4  O   UNL     1       5.629   4.840  -1.670  1.00  0.00    -0.249 OA
BRANCH   3   5
ATOM      5  C   UNL     1       3.720   4.791  -0.174  1.00  0.00     0.228 C 
ATOM      6  C   UNL     1       2.047   3.162   0.010  1.00  0.00     0.138 C 
ATOM      7  C   UNL     1       1.381   4.470  -0.381  1.00  0.00     0.037 C 
ATOM      8  O   UNL     1       3.473   3.395   0.011  1.00  0.00    -0.361 OA
ATOM      9  C   UNL     1       2.397   5.504   0.037  1.00  0.00     0.047 C 
BRANCH   6  10
ATOM     10  C   UNL     1       1.744   2.019  -0.961  1.00  0.00     0.149 C 
BRANCH  10  11
ATOM     11  N   UNL     1       2.558   0.867  -0.626  1.00  0.00    -0.336 N 
ATOM     12  O   UNL     1       0.855  -0.577  -0.210  1.00  0.00    -0.249 OA
ATOM     13  C   UNL     1       2.055  -0.322  -0.223  1.00  0.00     0.314 C 
ATOM     14  N   UNL     1       2.945  -1.256   0.193  1.00  0.00    -0.338 N 
ATOM     15  H   UNL     1       2.548  -2.127   0.424  1.00  0.00     0.165 HD
ATOM     16  H   UNL     1       3.536   0.956  -0.696  1.00  0.00     0.165 HD
BRANCH  14  17
ATOM     17  C   UNL     1       4.387  -1.186   0.356  1.00  0.00     0.123 C 
BRANCH  17  18
ATOM     18  C   UNL     1       4.911  -1.613   1.740  1.00  0.00     0.036 C 
ATOM     19  C   UNL     1       5.095  -3.111   1.882  1.00  0.00     0.036 C 
ATOM     20  C   UNL     1       3.964  -1.315   2.890  1.00  0.00     0.165 C 
ATOM     21  C   UNL     1       3.760  -3.590   2.405  1.00  0.00     0.160 C 
ATOM     22  O   UNL     1       3.143  -2.481   3.067  1.00  0.00    -0.381 OA
ENDBRANCH  17  18
ENDBRANCH  14  17
ENDBRANCH  10  11
ENDBRANCH   6  10
ENDBRANCH   3   5
ENDBRANCH   2   3
ENDBRANCH   1   2
BRANCH   1  23
ATOM     23  C   UNL     1       4.385   7.164  -4.024  1.00  0.00     0.275 C 
BRANCH  23  24
ATOM     24  O   UNL     1       5.398   7.704  -3.153  1.00  0.00    -0.458 OA
BRANCH  24  25
ATOM     25  C   UNL     1       4.934   8.201  -1.983  1.00  0.00     0.338 C 
ATOM     26  O   UNL     1       3.775   8.263  -1.614  1.00  0.00    -0.246 OA
BRANCH  25  27
ATOM     27  C   UNL     1       6.057   8.543  -1.098  1.00  0.00     0.060 A 
ATOM     28  C   UNL     1       6.157   7.853   0.113  1.00  0.00     0.016 A 
ATOM     29  C   UNL     1       6.926   9.594  -1.390  1.00  0.00     0.016 A 
ATOM     30  C   UNL     1       7.117   8.217   1.049  1.00  0.00     0.010 A 
ATOM     31  C   UNL     1       7.891   9.964  -0.446  1.00  0.00     0.010 A 
ATOM     32  C   UNL     1       7.977   9.289   0.784  1.00  0.00    -0.014 A 
BRANCH  32  33
ATOM     33  C   UNL     1       8.907   9.740   1.845  1.00  0.00     0.031 A 
ATOM     34  C   UNL     1       8.579  10.964   2.649  1.00  0.00     0.074 A 
ATOM     35  C   UNL     1      10.005   9.017   2.127  1.00  0.00     0.049 A 
ATOM     36  N   UNL     1       9.273  11.542   3.596  1.00  0.00    -0.248 NA
ATOM     37  C   UNL     1       7.298  11.624   2.350  1.00  0.00     0.031 C 
ATOM     38  C   UNL     1      10.397   7.779   1.453  1.00  0.00     0.029 A 
ATOM     39  N   UNL     1      10.986   9.217   3.063  1.00  0.00    -0.354 N 
ATOM     40  C   UNL     1       8.524  12.642   3.993  1.00  0.00     0.074 A 
ATOM     41  C   UNL     1       7.328  12.658   3.179  1.00  0.00     0.031 C 
ATOM     42  C   UNL     1      11.534   7.324   2.005  1.00  0.00     0.029 A 
ATOM     43  C   UNL     1      11.966   8.256   3.043  1.00  0.00     0.049 A 
ATOM     44  H   UNL     1      10.988   9.976   3.690  1.00  0.00     0.167 HD
ATOM     45  C   UNL     1       8.809  13.554   4.953  1.00  0.00     0.037 A 
ATOM     46  C   UNL     1      13.095   8.152   3.769  1.00  0.00     0.037 A 
ATOM     47  C   UNL     1       9.991  13.528   5.773  1.00  0.00     0.049 A 
ATOM     48  C   UNL     1      13.408   9.199   4.800  1.00  0.00     0.074 A 
ATOM     49  C   UNL     1      10.376  14.416   6.763  1.00  0.00     0.029 A 
ATOM     50  N   UNL     1      10.977  12.556   5.702  1.00  0.00    -0.354 N 
ATOM     51  N   UNL     1      12.708  10.252   5.146  1.00  0.00    -0.248 NA
ATOM     52  C   UNL     1      14.671   9.047   5.536  1.00  0.00     0.031 C 
ATOM     53  C   UNL     1      11.608  13.993   7.275  1.00  0.00     0.029 A 
ATOM     54  C   UNL     1      11.974  12.826   6.625  1.00  0.00     0.049 A 
ATOM     55  H   UNL     1      10.969  11.788   5.087  1.00  0.00     0.167 HD
ATOM     56  C   UNL     1      13.435  10.879   6.149  1.00  0.00     0.074 A 
ATOM     57  C   UNL     1      14.624  10.081   6.365  1.00  0.00     0.031 C 
ATOM     58  C   UNL     1      13.146  12.015   6.828  1.00  0.00     0.037 A 
BRANCH  45  59
ATOM     59  C   UNL     1       7.834  14.675   5.143  1.00  0.00     0.057 A 
ATOM     60  C   UNL     1       6.612  14.487   5.801  1.00  0.00     0.134 A 
ATOM     61  C   UNL     1       8.129  15.961   4.676  1.00  0.00     0.134 A 
ATOM     62  F   UNL     1       6.264  13.273   6.254  1.00  0.00    -0.206 F 
ATOM     63  C   UNL     1       5.710  15.538   5.974  1.00  0.00     0.040 A 
ATOM     64  C   UNL     1       7.243  17.024   4.859  1.00  0.00     0.040 A 
ATOM     65  F   UNL     1       9.283  16.206   4.037  1.00  0.00    -0.206 F 
ATOM     66  C   UNL     1       6.027  16.812   5.506  1.00  0.00     0.006 A 
ENDBRANCH  45  59
BRANCH  46  67
ATOM     67  C   UNL     1      14.019   7.017   3.537  1.00  0.00     0.057 A 
ATOM     68  C   UNL     1      14.148   5.986   4.474  1.00  0.00     0.134 A 
ATOM     69  C   UNL     1      14.797   6.939   2.376  1.00  0.00     0.134 A 
ATOM     70  F   UNL     1      13.445   6.018   5.615  1.00  0.00    -0.206 F 
ATOM     71  C   UNL     1      15.026   4.920   4.268  1.00  0.00     0.040 A 
ATOM     72  C   UNL     1      15.663   5.870   2.148  1.00  0.00     0.040 A 
ATOM     73  F   UNL     1      14.716   7.898   1.442  1.00  0.00    -0.206 F 
ATOM     74  C   UNL     1      15.783   4.858   3.099  1.00  0.00     0.006 A 
ENDBRANCH  46  67
BRANCH  58  75
ATOM     75  C   UNL     1      14.119  12.442   7.883  1.00  0.00     0.057 A 
ATOM     76  C   UNL     1      15.338  13.049   7.556  1.00  0.00     0.134 A 
ATOM     77  C   UNL     1      13.822  12.268   9.240  1.00  0.00     0.134 A 
ATOM     78  F   UNL     1      15.684  13.230   6.272  1.00  0.00    -0.206 F 
ATOM     79  C   UNL     1      16.237  13.453   8.544  1.00  0.00     0.040 A 
ATOM     80  C   UNL     1      14.705  12.684  10.237  1.00  0.00     0.040 A 
ATOM     81  F   UNL     1      12.668  11.698   9.617  1.00  0.00    -0.206 F 
ATOM     82  C   UNL     1      15.919  13.275   9.889  1.00  0.00     0.006 A 
ENDBRANCH  58  75
ENDBRANCH  32  33
ENDBRANCH  25  27
ENDBRANCH  24  25
ENDBRANCH  23  24
ENDBRANCH   1  23
TORSDOF 15
