REMARK SMILES Cc1ccc(S(C)(=O)=O)cc1C(=O)NCCOCC(=O)OCCOC(=O)c1ccc(-c2c3nc(c(-c4c(F)cccc4F)c4ccc([nH]4)c(-c4c(F)cccc4F)c4nc(c(-c5c(F)cccc5F)c5ccc2[nH]5)C=C4)C=C3)cc1
REMARK SMILES IDX 19 1 20 2 18 3 17 4 16 5 15 6 14 7 12 8 13 9 11 11 1 12 2 13
REMARK SMILES IDX 3 14 4 15 10 16 5 17 6 18 7 19 8 20 9 21 21 22 22 23 23 24
REMARK SMILES IDX 24 25 25 26 26 27 27 28 28 29 80 30 29 31 79 32 30 33 31 34
REMARK SMILES IDX 32 35 73 36 33 37 78 38 72 39 74 40 34 41 77 42 71 43 70 44
REMARK SMILES IDX 35 46 61 47 44 48 60 49 45 50 48 51 59 52 75 53 46 54 47 55
REMARK SMILES IDX 58 57 76 58 49 59 36 60 37 61 42 62 38 63 39 64 41 65 43 66
REMARK SMILES IDX 40 67 62 68 63 69 68 70 64 71 65 72 67 73 69 74 66 75 50 76
REMARK SMILES IDX 51 77 56 78 52 79 53 80 55 81 57 82 54 83
REMARK H PARENT 14 10 74 45 48 56
REMARK Flexibility Score: inf
ROOT
ATOM      1  C   UNL     1       5.841   2.428  -2.918  1.00  0.00     0.332 C 
ATOM      2  O   UNL     1       6.450   3.140  -3.710  1.00  0.00    -0.250 OA
ENDROOT
BRANCH   1   3
ATOM      3  C   UNL     1       5.897   2.620  -1.392  1.00  0.00     0.282 C 
BRANCH   3   4
ATOM      4  O   UNL     1       5.761   1.528  -0.500  1.00  0.00    -0.368 OA
BRANCH   4   5
ATOM      5  C   UNL     1       4.456   0.950  -0.444  1.00  0.00     0.182 C 
BRANCH   5   6
ATOM      6  C   UNL     1       3.767   1.163   0.916  1.00  0.00     0.144 C 
BRANCH   6   7
ATOM      7  N   UNL     1       2.557   1.971   0.816  1.00  0.00    -0.350 N 
ATOM      8  C   UNL     1       1.210   1.806   0.626  1.00  0.00     0.251 C 
ATOM      9  O   UNL     1       0.607   2.891   0.651  1.00  0.00    -0.269 OA
ATOM     10  H   UNL     1       2.775   2.926   0.915  1.00  0.00     0.163 HD
BRANCH   8  11
ATOM     11  C   UNL     1       0.382   0.548   0.444  1.00  0.00     0.044 A 
ATOM     12  C   UNL     1       2.126  -1.209  -0.304  1.00  0.00     0.045 C 
ATOM     13  C   UNL     1       0.767  -0.773   0.132  1.00  0.00    -0.038 A 
ATOM     14  C   UNL     1      -0.203  -1.807   0.090  1.00  0.00     0.005 A 
ATOM     15  C   UNL     1      -1.560  -1.542   0.189  1.00  0.00     0.020 A 
ATOM     16  C   UNL     1      -1.019   0.793   0.506  1.00  0.00     0.034 A 
ATOM     17  C   UNL     1      -1.964  -0.226   0.327  1.00  0.00     0.067 A 
BRANCH  17  18
ATOM     18  S   UNL     1      -3.695   0.148   0.189  1.00  0.00     0.175 S 
ATOM     19  C   UNL     1      -4.167  -0.552  -1.378  1.00  0.00     0.163 C 
ATOM     20  O   UNL     1      -4.369  -0.594   1.237  1.00  0.00    -0.224 OA
ATOM     21  O   UNL     1      -3.839   1.586   0.072  1.00  0.00    -0.224 OA
ENDBRANCH  17  18
ENDBRANCH   8  11
ENDBRANCH   6   7
ENDBRANCH   5   6
ENDBRANCH   4   5
ENDBRANCH   3   4
ENDBRANCH   1   3
BRANCH   1  22
ATOM     22  O   UNL     1       4.957   1.458  -3.289  1.00  0.00    -0.460 OA
BRANCH  22  23
ATOM     23  C   UNL     1       4.639   1.447  -4.684  1.00  0.00     0.274 C 
BRANCH  23  24
ATOM     24  C   UNL     1       3.331   0.693  -4.958  1.00  0.00     0.275 C 
BRANCH  24  25
ATOM     25  O   UNL     1       2.358   0.598  -3.876  1.00  0.00    -0.458 OA
BRANCH  25  26
ATOM     26  C   UNL     1       1.704   1.584  -3.207  1.00  0.00     0.338 C 
ATOM     27  O   UNL     1       0.836   1.354  -2.392  1.00  0.00    -0.246 OA
BRANCH  26  28
ATOM     28  C   UNL     1       2.133   2.959  -3.466  1.00  0.00     0.060 A 
ATOM     29  C   UNL     1       2.584   3.781  -2.421  1.00  0.00     0.016 A 
ATOM     30  C   UNL     1       2.133   3.393  -4.780  1.00  0.00     0.016 A 
ATOM     31  C   UNL     1       3.140   5.023  -2.714  1.00  0.00     0.010 A 
ATOM     32  C   UNL     1       2.811   4.544  -5.083  1.00  0.00     0.010 A 
ATOM     33  C   UNL     1       3.269   5.383  -4.054  1.00  0.00    -0.014 A 
BRANCH  33  34
ATOM     34  C   UNL     1       3.600   6.725  -4.501  1.00  0.00     0.031 A 
ATOM     35  C   UNL     1       4.930   7.328  -4.347  1.00  0.00     0.074 A 
ATOM     36  C   UNL     1       2.567   7.371  -5.084  1.00  0.00     0.049 A 
ATOM     37  N   UNL     1       5.118   8.582  -4.113  1.00  0.00    -0.248 NA
ATOM     38  C   UNL     1       6.172   6.563  -4.429  1.00  0.00     0.031 C 
ATOM     39  C   UNL     1       2.532   8.611  -5.830  1.00  0.00     0.029 A 
ATOM     40  N   UNL     1       1.226   7.014  -4.962  1.00  0.00    -0.354 N 
ATOM     41  C   UNL     1       6.452   8.835  -4.341  1.00  0.00     0.074 A 
ATOM     42  C   UNL     1       7.090   7.540  -4.396  1.00  0.00     0.031 C 
ATOM     43  C   UNL     1       1.255   9.040  -5.883  1.00  0.00     0.029 A 
ATOM     44  C   UNL     1       0.450   8.158  -5.043  1.00  0.00     0.049 A 
ATOM     45  H   UNL     1       0.886   6.098  -4.838  1.00  0.00     0.167 HD
ATOM     46  C   UNL     1       6.852  10.093  -4.684  1.00  0.00     0.037 A 
ATOM     47  C   UNL     1      -0.267   8.524  -3.939  1.00  0.00     0.037 A 
ATOM     48  C   UNL     1       5.703  10.982  -4.802  1.00  0.00     0.049 A 
ATOM     49  C   UNL     1       0.250   9.820  -3.368  1.00  0.00     0.074 A 
ATOM     50  C   UNL     1       4.928  11.314  -5.902  1.00  0.00     0.029 A 
ATOM     51  N   UNL     1       4.962  11.328  -3.678  1.00  0.00    -0.354 N 
ATOM     52  N   UNL     1       1.479  10.236  -3.507  1.00  0.00    -0.248 NA
ATOM     53  C   UNL     1      -0.590  10.765  -2.643  1.00  0.00     0.031 C 
ATOM     54  C   UNL     1       3.683  11.793  -5.435  1.00  0.00     0.029 A 
ATOM     55  C   UNL     1       3.708  11.775  -4.052  1.00  0.00     0.049 A 
ATOM     56  H   UNL     1       5.282  11.262  -2.749  1.00  0.00     0.167 HD
ATOM     57  C   UNL     1       1.590  11.494  -2.980  1.00  0.00     0.074 A 
ATOM     58  C   UNL     1       0.274  11.774  -2.434  1.00  0.00     0.031 C 
ATOM     59  C   UNL     1       2.740  12.223  -3.066  1.00  0.00     0.037 A 
BRANCH  46  60
ATOM     60  C   UNL     1       8.210  10.379  -5.273  1.00  0.00     0.057 A 
ATOM     61  C   UNL     1       8.368  11.222  -6.391  1.00  0.00     0.134 A 
ATOM     62  C   UNL     1       9.402   9.821  -4.780  1.00  0.00     0.134 A 
ATOM     63  F   UNL     1       7.334  11.867  -6.942  1.00  0.00    -0.206 F 
ATOM     64  C   UNL     1       9.601  11.434  -7.018  1.00  0.00     0.040 A 
ATOM     65  C   UNL     1      10.641  10.004  -5.415  1.00  0.00     0.040 A 
ATOM     66  F   UNL     1       9.404   9.081  -3.661  1.00  0.00    -0.206 F 
ATOM     67  C   UNL     1      10.742  10.806  -6.545  1.00  0.00     0.006 A 
ENDBRANCH  46  60
BRANCH  47  68
ATOM     68  C   UNL     1      -0.771   7.362  -3.135  1.00  0.00     0.057 A 
ATOM     69  C   UNL     1      -1.645   6.441  -3.750  1.00  0.00     0.134 A 
ATOM     70  C   UNL     1      -0.179   6.950  -1.935  1.00  0.00     0.134 A 
ATOM     71  F   UNL     1      -2.243   6.756  -4.912  1.00  0.00    -0.206 F 
ATOM     72  C   UNL     1      -1.843   5.147  -3.256  1.00  0.00     0.040 A 
ATOM     73  C   UNL     1      -0.382   5.660  -1.422  1.00  0.00     0.040 A 
ATOM     74  F   UNL     1       0.673   7.753  -1.283  1.00  0.00    -0.206 F 
ATOM     75  C   UNL     1      -1.188   4.744  -2.098  1.00  0.00     0.006 A 
ENDBRANCH  47  68
BRANCH  59  76
ATOM     76  C   UNL     1       3.022  13.503  -2.331  1.00  0.00     0.057 A 
ATOM     77  C   UNL     1       2.496  13.804  -1.069  1.00  0.00     0.134 A 
ATOM     78  C   UNL     1       3.990  14.411  -2.817  1.00  0.00     0.134 A 
ATOM     79  F   UNL     1       1.649  12.974  -0.446  1.00  0.00    -0.206 F 
ATOM     80  C   UNL     1       2.867  14.953  -0.362  1.00  0.00     0.040 A 
ATOM     81  C   UNL     1       4.412  15.526  -2.094  1.00  0.00     0.040 A 
ATOM     82  F   UNL     1       4.592  14.239  -4.004  1.00  0.00    -0.206 F 
ATOM     83  C   UNL     1       3.839  15.809  -0.866  1.00  0.00     0.006 A 
ENDBRANCH  59  76
ENDBRANCH  33  34
ENDBRANCH  26  28
ENDBRANCH  25  26
ENDBRANCH  24  25
ENDBRANCH  23  24
ENDBRANCH  22  23
ENDBRANCH   1  22
TORSDOF 17
