REMARK SMILES CC(C)C[C@H](NC(=O)[C@H](Cc1ccccc1)NC(=O)CNC(=O)C[NH3+])C(=O)OCCOC(=O)c1ccc(-c2c3nc(c(-c4c(F)cccc4F)c4ccc([nH]4)c(-c4c(F)cccc4F)c4nc(c(-c5c(F)cccc5F)c5ccc2[nH]5)C=C4)C=C3)cc1
REMARK SMILES IDX 26 1 27 2 5 3 4 4 2 5 1 6 3 7 6 8 7 9 8 11 9 12 17 13 18 14
REMARK SMILES IDX 19 16 20 17 21 18 22 19 23 21 24 22 25 23 10 27 11 28 12 29
REMARK SMILES IDX 16 30 13 31 15 32 14 33 28 34 29 35 30 36 31 37 32 38 33 39
REMARK SMILES IDX 34 40 35 41 87 42 36 43 86 44 37 45 38 46 39 47 80 48 40 49
REMARK SMILES IDX 85 50 79 51 81 52 41 53 84 54 78 55 77 56 42 58 68 59 51 60
REMARK SMILES IDX 67 61 52 62 55 63 66 64 82 65 53 66 54 67 65 69 83 70 56 71
REMARK SMILES IDX 43 72 44 73 49 74 45 75 46 76 48 77 50 78 47 79 69 80 70 81
REMARK SMILES IDX 75 82 71 83 72 84 74 85 76 86 73 87 57 88 58 89 63 90 59 91
REMARK SMILES IDX 60 92 62 93 64 94 61 95
REMARK H PARENT 6 10 17 15 21 20 25 24 25 25 25 26 81 57 55 68
REMARK Flexibility Score: inf
ROOT
ATOM      1  C   UNL     1       4.904  -0.063   3.744  1.00  0.00     0.328 C 
ATOM      2  O   UNL     1       5.767  -0.911   3.547  1.00  0.00    -0.250 OA
ENDROOT
BRANCH   1   3
ATOM      3  C   UNL     1       4.104   0.588   2.604  1.00  0.00     0.192 C 
BRANCH   3   4
ATOM      4  C   UNL     1       4.995   1.741   2.097  1.00  0.00     0.040 C 
BRANCH   4   5
ATOM      5  C   UNL     1       6.406   1.339   1.558  1.00  0.00    -0.015 C 
ATOM      6  C   UNL     1       6.492   0.076   0.687  1.00  0.00     0.007 C 
ATOM      7  C   UNL     1       7.046   2.504   0.797  1.00  0.00     0.007 C 
ENDBRANCH   4   5
ENDBRANCH   3   4
BRANCH   3   8
ATOM      8  N   UNL     1       2.767   1.029   3.044  1.00  0.00    -0.341 N 
ATOM      9  C   UNL     1       1.525   0.873   2.477  1.00  0.00     0.243 C 
ATOM     10  H   UNL     1       2.764   1.522   3.896  1.00  0.00     0.164 HD
ATOM     11  O   UNL     1       0.551   0.961   3.232  1.00  0.00    -0.273 OA
BRANCH   9  12
ATOM     12  C   UNL     1       1.329   0.531   0.973  1.00  0.00     0.175 C 
BRANCH  12  13
ATOM     13  N   UNL     1       1.236  -0.920   0.767  1.00  0.00    -0.342 N 
ATOM     14  C   UNL     1       1.843  -1.662  -0.206  1.00  0.00     0.240 C 
ATOM     15  H   UNL     1       0.671  -1.415   1.403  1.00  0.00     0.164 HD
ATOM     16  O   UNL     1       1.321  -2.724  -0.547  1.00  0.00    -0.273 OA
BRANCH  14  17
ATOM     17  C   UNL     1       3.153  -1.180  -0.843  1.00  0.00     0.216 C 
BRANCH  17  18
ATOM     18  N   UNL     1       3.037  -0.396  -2.059  1.00  0.00    -0.342 N 
ATOM     19  C   UNL     1       3.445   0.876  -2.350  1.00  0.00     0.275 C 
ATOM     20  H   UNL     1       2.588  -0.860  -2.802  1.00  0.00     0.164 HD
ATOM     21  O   UNL     1       3.373   1.272  -3.516  1.00  0.00    -0.268 OA
BRANCH  19  22
ATOM     22  C   UNL     1       4.002   1.792  -1.265  1.00  0.00     0.360 C 
BRANCH  22  23
ATOM     23  N   UNL     1       3.033   2.793  -0.818  1.00  0.00    -0.350 N 
ATOM     24  H   UNL     1       2.778   3.393  -1.603  1.00  0.00     0.344 HD
ATOM     25  H   UNL     1       3.446   3.360  -0.077  1.00  0.00     0.344 HD
ATOM     26  H   UNL     1       2.200   2.325  -0.463  1.00  0.00     0.344 HD
ENDBRANCH  22  23
ENDBRANCH  19  22
ENDBRANCH  17  18
ENDBRANCH  14  17
ENDBRANCH  12  13
BRANCH  12  27
ATOM     27  C   UNL     1       0.010   1.203   0.457  1.00  0.00     0.070 C 
BRANCH  27  28
ATOM     28  C   UNL     1      -0.013   1.588  -1.013  1.00  0.00    -0.045 A 
ATOM     29  C   UNL     1       0.006   0.630  -2.033  1.00  0.00     0.004 A 
ATOM     30  C   UNL     1      -0.016   2.945  -1.377  1.00  0.00     0.004 A 
ATOM     31  C   UNL     1       0.159   1.018  -3.369  1.00  0.00     0.000 A 
ATOM     32  C   UNL     1       0.133   3.333  -2.712  1.00  0.00     0.000 A 
ATOM     33  C   UNL     1       0.254   2.366  -3.704  1.00  0.00     0.000 A 
ENDBRANCH  27  28
ENDBRANCH  12  27
ENDBRANCH   9  12
ENDBRANCH   3   8
ENDBRANCH   1   3
BRANCH   1  34
ATOM     34  O   UNL     1       4.691   0.549   4.944  1.00  0.00    -0.461 OA
BRANCH  34  35
ATOM     35  C   UNL     1       5.624   0.171   5.975  1.00  0.00     0.274 C 
BRANCH  35  36
ATOM     36  C   UNL     1       5.142  -1.011   6.823  1.00  0.00     0.275 C 
BRANCH  36  37
ATOM     37  O   UNL     1       4.952  -2.213   6.053  1.00  0.00    -0.458 OA
BRANCH  37  38
ATOM     38  C   UNL     1       3.738  -2.324   5.466  1.00  0.00     0.338 C 
ATOM     39  O   UNL     1       2.798  -1.542   5.579  1.00  0.00    -0.246 OA
BRANCH  38  40
ATOM     40  C   UNL     1       3.738  -3.419   4.482  1.00  0.00     0.060 A 
ATOM     41  C   UNL     1       3.271  -3.135   3.193  1.00  0.00     0.016 A 
ATOM     42  C   UNL     1       4.137  -4.713   4.820  1.00  0.00     0.016 A 
ATOM     43  C   UNL     1       3.209  -4.140   2.234  1.00  0.00     0.010 A 
ATOM     44  C   UNL     1       4.050  -5.729   3.861  1.00  0.00     0.010 A 
ATOM     45  C   UNL     1       3.578  -5.447   2.567  1.00  0.00    -0.014 A 
BRANCH  45  46
ATOM     46  C   UNL     1       3.369  -6.530   1.580  1.00  0.00     0.031 A 
ATOM     47  C   UNL     1       2.149  -7.397   1.692  1.00  0.00     0.074 A 
ATOM     48  C   UNL     1       4.238  -6.707   0.570  1.00  0.00     0.049 A 
ATOM     49  N   UNL     1       1.824  -8.462   1.007  1.00  0.00    -0.248 NA
ATOM     50  C   UNL     1       1.165  -7.012   2.716  1.00  0.00     0.031 C 
ATOM     51  C   UNL     1       5.415  -5.879   0.311  1.00  0.00     0.029 A 
ATOM     52  N   UNL     1       4.263  -7.650  -0.427  1.00  0.00    -0.354 N 
ATOM     53  C   UNL     1       0.607  -8.884   1.524  1.00  0.00     0.074 A 
ATOM     54  C   UNL     1       0.257  -7.969   2.590  1.00  0.00     0.031 C 
ATOM     55  C   UNL     1       6.057  -6.360  -0.768  1.00  0.00     0.029 A 
ATOM     56  C   UNL     1       5.362  -7.554  -1.245  1.00  0.00     0.049 A 
ATOM     57  H   UNL     1       3.562  -8.331  -0.544  1.00  0.00     0.167 HD
ATOM     58  C   UNL     1      -0.148  -9.941   1.143  1.00  0.00     0.037 A 
ATOM     59  C   UNL     1       5.775  -8.361  -2.240  1.00  0.00     0.037 A 
ATOM     60  C   UNL     1       0.197 -10.838   0.072  1.00  0.00     0.049 A 
ATOM     61  C   UNL     1       4.959  -9.577  -2.590  1.00  0.00     0.074 A 
ATOM     62  C   UNL     1      -0.502 -11.940  -0.389  1.00  0.00     0.029 A 
ATOM     63  N   UNL     1       1.337 -10.732  -0.709  1.00  0.00    -0.354 N 
ATOM     64  N   UNL     1       3.824  -9.988  -2.078  1.00  0.00    -0.248 NA
ATOM     65  C   UNL     1       5.488 -10.449  -3.649  1.00  0.00     0.031 C 
ATOM     66  C   UNL     1       0.237 -12.526  -1.422  1.00  0.00     0.029 A 
ATOM     67  C   UNL     1       1.374 -11.762  -1.633  1.00  0.00     0.049 A 
ATOM     68  H   UNL     1       2.020 -10.028  -0.619  1.00  0.00     0.167 HD
ATOM     69  C   UNL     1       3.493 -11.148  -2.765  1.00  0.00     0.074 A 
ATOM     70  C   UNL     1       4.539 -11.370  -3.741  1.00  0.00     0.031 C 
ATOM     71  C   UNL     1       2.420 -11.961  -2.602  1.00  0.00     0.037 A 
BRANCH  58  72
ATOM     72  C   UNL     1      -1.405 -10.209   1.915  1.00  0.00     0.057 A 
ATOM     73  C   UNL     1      -2.552  -9.422   1.763  1.00  0.00     0.134 A 
ATOM     74  C   UNL     1      -1.478 -11.299   2.792  1.00  0.00     0.134 A 
ATOM     75  F   UNL     1      -2.541  -8.354   0.951  1.00  0.00    -0.206 F 
ATOM     76  C   UNL     1      -3.725  -9.701   2.466  1.00  0.00     0.040 A 
ATOM     77  C   UNL     1      -2.651 -11.602   3.484  1.00  0.00     0.040 A 
ATOM     78  F   UNL     1      -0.414 -12.094   2.981  1.00  0.00    -0.206 F 
ATOM     79  C   UNL     1      -3.779 -10.799   3.324  1.00  0.00     0.006 A 
ENDBRANCH  58  72
BRANCH  59  80
ATOM     80  C   UNL     1       7.048  -8.080  -2.951  1.00  0.00     0.057 A 
ATOM     81  C   UNL     1       7.062  -7.708  -4.300  1.00  0.00     0.134 A 
ATOM     82  C   UNL     1       8.285  -8.214  -2.307  1.00  0.00     0.134 A 
ATOM     83  F   UNL     1       5.912  -7.589  -4.979  1.00  0.00    -0.206 F 
ATOM     84  C   UNL     1       8.259  -7.499  -4.989  1.00  0.00     0.040 A 
ATOM     85  C   UNL     1       9.488  -7.983  -2.976  1.00  0.00     0.040 A 
ATOM     86  F   UNL     1       8.341  -8.571  -1.016  1.00  0.00    -0.206 F 
ATOM     87  C   UNL     1       9.476  -7.633  -4.324  1.00  0.00     0.006 A 
ENDBRANCH  59  80
BRANCH  71  88
ATOM     88  C   UNL     1       2.309 -13.143  -3.519  1.00  0.00     0.057 A 
ATOM     89  C   UNL     1       3.130 -14.268  -3.374  1.00  0.00     0.134 A 
ATOM     90  C   UNL     1       1.344 -13.170  -4.534  1.00  0.00     0.134 A 
ATOM     91  F   UNL     1       4.082 -14.299  -2.430  1.00  0.00    -0.206 F 
ATOM     92  C   UNL     1       3.008 -15.372  -4.221  1.00  0.00     0.040 A 
ATOM     93  C   UNL     1       1.196 -14.277  -5.370  1.00  0.00     0.040 A 
ATOM     94  F   UNL     1       0.521 -12.128  -4.720  1.00  0.00    -0.206 F 
ATOM     95  C   UNL     1       2.034 -15.381  -5.218  1.00  0.00     0.006 A 
ENDBRANCH  71  88
ENDBRANCH  45  46
ENDBRANCH  38  40
ENDBRANCH  37  38
ENDBRANCH  36  37
ENDBRANCH  35  36
ENDBRANCH  34  35
ENDBRANCH   1  34
TORSDOF 22
