REMARK SMILES CCCCCCNC(=O)Oc1cccc(-c2ccc([C@@H](C)C(=O)OCCOC(=O)c3ccc(-c4c5nc(c(-c6c(F)cccc6F)c6ccc([nH]6)c(-c6c(F)cccc6F)c6nc(c(-c7c(F)cccc7F)c7ccc4[nH]7)C=C6)C=C5)cc3)cc2C)c1
REMARK SMILES IDX 20 1 21 2 19 3 16 4 17 5 85 6 18 7 84 8 86 9 15 10 11 11
REMARK SMILES IDX 12 12 87 13 13 14 14 15 10 16 8 17 7 18 9 20 6 21 5 22 4 23
REMARK SMILES IDX 3 24 2 25 1 26 22 27 23 28 24 29 25 30 26 31 27 32 28 33
REMARK SMILES IDX 29 34 30 35 31 36 83 37 32 38 82 39 33 40 34 41 35 42 76 43
REMARK SMILES IDX 36 44 81 45 75 46 77 47 37 48 80 49 74 50 73 51 38 53 64 54
REMARK SMILES IDX 47 55 63 56 48 57 51 58 62 59 78 60 49 61 50 62 61 64 79 65
REMARK SMILES IDX 52 66 39 67 40 68 45 69 41 70 42 71 44 72 46 73 43 74 65 75
REMARK SMILES IDX 66 76 71 77 67 78 68 79 70 80 72 81 69 82 53 83 54 84 59 85
REMARK SMILES IDX 55 86 56 87 58 88 60 89 57 90
REMARK H PARENT 7 19 77 52 51 63
REMARK Flexibility Score: inf
ROOT
ATOM      1  C   UNL     1      -5.183 -10.200   9.420  1.00  0.00     0.126 C 
ATOM      2  C   UNL     1      -6.518 -10.886   9.705  1.00  0.00     0.025 C 
ENDROOT
BRANCH   1   3
ATOM      3  C   UNL     1      -5.100  -9.657   8.002  1.00  0.00    -0.034 A 
ATOM      4  C   UNL     1      -5.026  -8.557   5.371  1.00  0.00    -0.015 A 
ATOM      5  C   UNL     1      -5.213  -9.935   5.595  1.00  0.00     0.009 A 
ATOM      6  C   UNL     1      -4.860  -7.722   6.496  1.00  0.00    -0.043 A 
ATOM      7  C   UNL     1      -5.258 -10.476   6.882  1.00  0.00     0.005 A 
ATOM      8  C   UNL     1      -4.888  -8.286   7.789  1.00  0.00     0.008 A 
ATOM      9  C   UNL     1      -4.619  -6.237   6.399  1.00  0.00     0.045 C 
BRANCH   4  10
ATOM     10  C   UNL     1      -5.087  -8.050   3.985  1.00  0.00    -0.014 A 
ATOM     11  C   UNL     1      -4.177  -6.795   2.120  1.00  0.00     0.133 A 
ATOM     12  C   UNL     1      -5.331  -7.014   1.370  1.00  0.00     0.047 A 
ATOM     13  C   UNL     1      -4.040  -7.311   3.411  1.00  0.00     0.056 A 
ATOM     14  C   UNL     1      -6.363  -7.772   1.913  1.00  0.00     0.004 A 
ATOM     15  C   UNL     1      -6.243  -8.276   3.210  1.00  0.00     0.009 A 
BRANCH  11  16
ATOM     16  O   UNL     1      -3.245  -5.895   1.574  1.00  0.00    -0.410 OA
BRANCH  16  17
ATOM     17  C   UNL     1      -1.897  -6.214   1.570  1.00  0.00     0.412 C 
ATOM     18  N   UNL     1      -1.112  -5.198   1.093  1.00  0.00    -0.321 N 
ATOM     19  H   UNL     1      -0.143  -5.369   1.059  1.00  0.00     0.167 HD
ATOM     20  O   UNL     1      -1.405  -7.276   1.928  1.00  0.00    -0.224 OA
BRANCH  18  21
ATOM     21  C   UNL     1      -1.558  -3.897   0.633  1.00  0.00     0.119 C 
BRANCH  21  22
ATOM     22  C   UNL     1      -0.973  -2.759   1.470  1.00  0.00     0.021 C 
BRANCH  22  23
ATOM     23  C   UNL     1       0.555  -2.637   1.416  1.00  0.00     0.002 C 
BRANCH  23  24
ATOM     24  C   UNL     1       1.155  -2.443   0.019  1.00  0.00    -0.000 C 
BRANCH  24  25
ATOM     25  C   UNL     1       0.668  -1.208  -0.742  1.00  0.00    -0.003 C 
ATOM     26  C   UNL     1       1.035   0.102  -0.062  1.00  0.00     0.004 C 
ENDBRANCH  24  25
ENDBRANCH  23  24
ENDBRANCH  22  23
ENDBRANCH  21  22
ENDBRANCH  18  21
ENDBRANCH  16  17
ENDBRANCH  11  16
ENDBRANCH   4  10
ENDBRANCH   1   3
BRANCH   1  27
ATOM     27  C   UNL     1      -4.033 -11.093   9.870  1.00  0.00     0.313 C 
ATOM     28  O   UNL     1      -3.670 -11.142  11.042  1.00  0.00    -0.252 OA
BRANCH  27  29
ATOM     29  O   UNL     1      -3.501 -11.847   8.874  1.00  0.00    -0.462 OA
BRANCH  29  30
ATOM     30  C   UNL     1      -2.393 -12.698   9.224  1.00  0.00     0.274 C 
BRANCH  30  31
ATOM     31  C   UNL     1      -1.056 -12.065   8.834  1.00  0.00     0.275 C 
BRANCH  31  32
ATOM     32  O   UNL     1      -0.771 -10.909   9.644  1.00  0.00    -0.458 OA
BRANCH  32  33
ATOM     33  C   UNL     1      -1.059  -9.724   9.062  1.00  0.00     0.338 C 
ATOM     34  O   UNL     1      -1.465  -9.530   7.930  1.00  0.00    -0.246 OA
BRANCH  33  35
ATOM     35  C   UNL     1      -0.927  -8.638  10.043  1.00  0.00     0.060 A 
ATOM     36  C   UNL     1      -2.093  -7.987  10.449  1.00  0.00     0.016 A 
ATOM     37  C   UNL     1       0.323  -8.176  10.454  1.00  0.00     0.016 A 
ATOM     38  C   UNL     1      -2.019  -6.843  11.236  1.00  0.00     0.010 A 
ATOM     39  C   UNL     1       0.398  -7.032  11.258  1.00  0.00     0.010 A 
ATOM     40  C   UNL     1      -0.772  -6.342  11.627  1.00  0.00    -0.014 A 
BRANCH  40  41
ATOM     41  C   UNL     1      -0.711  -5.046  12.345  1.00  0.00     0.031 A 
ATOM     42  C   UNL     1      -0.261  -3.811  11.616  1.00  0.00     0.074 A 
ATOM     43  C   UNL     1      -1.119  -4.964  13.625  1.00  0.00     0.049 A 
ATOM     44  N   UNL     1      -0.127  -2.588  12.063  1.00  0.00    -0.248 NA
ATOM     45  C   UNL     1       0.086  -3.972  10.194  1.00  0.00     0.031 C 
ATOM     46  C   UNL     1      -1.612  -6.082  14.428  1.00  0.00     0.029 A 
ATOM     47  N   UNL     1      -1.189  -3.886  14.471  1.00  0.00    -0.354 N 
ATOM     48  C   UNL     1       0.339  -1.841  10.989  1.00  0.00     0.074 A 
ATOM     49  C   UNL     1       0.478  -2.748   9.870  1.00  0.00     0.031 C 
ATOM     50  C   UNL     1      -1.940  -5.631  15.650  1.00  0.00     0.029 A 
ATOM     51  C   UNL     1      -1.648  -4.202  15.726  1.00  0.00     0.049 A 
ATOM     52  H   UNL     1      -0.934  -2.973  14.205  1.00  0.00     0.167 HD
ATOM     53  C   UNL     1       0.618  -0.517  10.940  1.00  0.00     0.037 A 
ATOM     54  C   UNL     1      -1.799  -3.429  16.818  1.00  0.00     0.037 A 
ATOM     55  C   UNL     1       0.448   0.393  12.041  1.00  0.00     0.049 A 
ATOM     56  C   UNL     1      -1.456  -1.967  16.741  1.00  0.00     0.074 A 
ATOM     57  C   UNL     1       0.676   1.758  12.076  1.00  0.00     0.029 A 
ATOM     58  N   UNL     1       0.002   0.030  13.302  1.00  0.00    -0.354 N 
ATOM     59  N   UNL     1      -1.028  -1.271  15.715  1.00  0.00    -0.248 NA
ATOM     60  C   UNL     1      -1.615  -1.183  17.974  1.00  0.00     0.031 C 
ATOM     61  C   UNL     1       0.401   2.216  13.368  1.00  0.00     0.029 A 
ATOM     62  C   UNL     1      -0.033   1.142  14.128  1.00  0.00     0.049 A 
ATOM     63  H   UNL     1      -0.251  -0.882  13.571  1.00  0.00     0.167 HD
ATOM     64  C   UNL     1      -0.881   0.031  16.174  1.00  0.00     0.074 A 
ATOM     65  C   UNL     1      -1.287   0.034  17.564  1.00  0.00     0.031 C 
ATOM     66  C   UNL     1      -0.444   1.126  15.507  1.00  0.00     0.037 A 
BRANCH  53  67
ATOM     67  C   UNL     1       1.159   0.030   9.654  1.00  0.00     0.057 A 
ATOM     68  C   UNL     1       0.340   0.253   8.541  1.00  0.00     0.134 A 
ATOM     69  C   UNL     1       2.509   0.389   9.548  1.00  0.00     0.134 A 
ATOM     70  F   UNL     1      -0.959  -0.082   8.575  1.00  0.00    -0.206 F 
ATOM     71  C   UNL     1       0.846   0.804   7.362  1.00  0.00     0.040 A 
ATOM     72  C   UNL     1       3.023   0.959   8.382  1.00  0.00     0.040 A 
ATOM     73  F   UNL     1       3.345   0.205  10.581  1.00  0.00    -0.206 F 
ATOM     74  C   UNL     1       2.190   1.165   7.284  1.00  0.00     0.006 A 
ENDBRANCH  53  67
BRANCH  54  75
ATOM     75  C   UNL     1      -2.276  -4.023  18.092  1.00  0.00     0.057 A 
ATOM     76  C   UNL     1      -3.535  -3.708  18.615  1.00  0.00     0.134 A 
ATOM     77  C   UNL     1      -1.466  -4.892  18.834  1.00  0.00     0.134 A 
ATOM     78  F   UNL     1      -4.344  -2.861  17.962  1.00  0.00    -0.206 F 
ATOM     79  C   UNL     1      -3.965  -4.221  19.840  1.00  0.00     0.040 A 
ATOM     80  C   UNL     1      -1.893  -5.431  20.047  1.00  0.00     0.040 A 
ATOM     81  F   UNL     1      -0.248  -5.230  18.386  1.00  0.00    -0.206 F 
ATOM     82  C   UNL     1      -3.144  -5.088  20.558  1.00  0.00     0.006 A 
ENDBRANCH  54  75
BRANCH  66  83
ATOM     83  C   UNL     1      -0.403   2.417  16.268  1.00  0.00     0.057 A 
ATOM     84  C   UNL     1       0.583   2.672  17.229  1.00  0.00     0.134 A 
ATOM     85  C   UNL     1      -1.340   3.426  16.016  1.00  0.00     0.134 A 
ATOM     86  F   UNL     1       1.502   1.739  17.524  1.00  0.00    -0.206 F 
ATOM     87  C   UNL     1       0.622   3.878  17.930  1.00  0.00     0.040 A 
ATOM     88  C   UNL     1      -1.299   4.645  16.695  1.00  0.00     0.040 A 
ATOM     89  F   UNL     1      -2.305   3.247  15.102  1.00  0.00    -0.206 F 
ATOM     90  C   UNL     1      -0.318   4.870  17.660  1.00  0.00     0.006 A 
ENDBRANCH  66  83
ENDBRANCH  40  41
ENDBRANCH  33  35
ENDBRANCH  32  33
ENDBRANCH  31  32
ENDBRANCH  30  31
ENDBRANCH  29  30
ENDBRANCH  27  29
ENDBRANCH   1  27
TORSDOF 20
