REMARK SMILES O=C(CCC(=O)OCCOC(=O)c1ccc(-c2c3nc(c(-c4c(F)cccc4F)c4ccc([nH]4)c(-c4c(F)cccc4F)c4nc(c(-c5c(F)cccc5F)c5ccc2[nH]5)C=C4)C=C3)cc1)Nc1nncs1
REMARK SMILES IDX 8 1 7 2 5 3 6 4 4 5 3 6 2 7 1 8 67 9 68 11 69 12 72 13 70 14
REMARK SMILES IDX 71 15 9 16 10 17 11 18 12 19 13 20 14 21 66 22 15 23 65 24
REMARK SMILES IDX 16 25 17 26 18 27 59 28 19 29 64 30 58 31 60 32 20 33 63 34
REMARK SMILES IDX 57 35 56 36 21 38 47 39 30 40 46 41 31 42 34 43 45 44 61 45
REMARK SMILES IDX 32 46 33 47 44 49 62 50 35 51 22 52 23 53 28 54 24 55 25 56
REMARK SMILES IDX 27 57 29 58 26 59 48 60 49 61 54 62 50 63 51 64 53 65 55 66
REMARK SMILES IDX 52 67 36 68 37 69 42 70 38 71 39 72 41 73 43 74 40 75
REMARK H PARENT 67 10 60 37 34 48
REMARK Flexibility Score: inf
ROOT
ATOM      1  C   UNL     1       5.755   1.787   1.703  1.00  0.00     0.274 C 
ENDROOT
BRANCH   1   2
ATOM      2  O   UNL     1       4.583   1.536   0.892  1.00  0.00    -0.462 OA
BRANCH   2   3
ATOM      3  C   UNL     1       4.583   2.029  -0.375  1.00  0.00     0.306 C 
ATOM      4  O   UNL     1       5.505   2.665  -0.870  1.00  0.00    -0.252 OA
BRANCH   3   5
ATOM      5  C   UNL     1       3.280   1.764  -1.105  1.00  0.00     0.132 C 
BRANCH   5   6
ATOM      6  C   UNL     1       2.766   0.326  -1.067  1.00  0.00     0.112 C 
BRANCH   6   7
ATOM      7  C   UNL     1       1.800   0.097   0.082  1.00  0.00     0.226 C 
ATOM      8  O   UNL     1       0.595   0.024  -0.124  1.00  0.00    -0.275 OA
ATOM      9  N   UNL     1       2.430   0.052   1.299  1.00  0.00    -0.301 N 
ATOM     10  H   UNL     1       3.413  -0.006   1.321  1.00  0.00     0.172 HD
BRANCH   9  11
ATOM     11  C   UNL     1       1.748   0.085   2.480  1.00  0.00     0.212 A 
ATOM     12  N   UNL     1       0.468  -0.025   2.734  1.00  0.00    -0.120 NA
ATOM     13  S   UNL     1       2.727   0.420   3.844  1.00  0.00    -0.083 S 
ATOM     14  N   UNL     1       0.189   0.194   4.072  1.00  0.00    -0.145 NA
ATOM     15  C   UNL     1       1.275   0.481   4.755  1.00  0.00     0.204 A 
ENDBRANCH   9  11
ENDBRANCH   6   7
ENDBRANCH   5   6
ENDBRANCH   3   5
ENDBRANCH   2   3
ENDBRANCH   1   2
BRANCH   1  16
ATOM     16  C   UNL     1       6.599   0.518   1.857  1.00  0.00     0.275 C 
BRANCH  16  17
ATOM     17  O   UNL     1       7.293   0.222   0.633  1.00  0.00    -0.458 OA
BRANCH  17  18
ATOM     18  C   UNL     1       6.605  -0.555  -0.236  1.00  0.00     0.338 C 
ATOM     19  O   UNL     1       5.529  -1.089  -0.042  1.00  0.00    -0.246 OA
BRANCH  18  20
ATOM     20  C   UNL     1       7.287  -0.528  -1.538  1.00  0.00     0.060 A 
ATOM     21  C   UNL     1       6.638   0.065  -2.626  1.00  0.00     0.016 A 
ATOM     22  C   UNL     1       8.547  -1.106  -1.688  1.00  0.00     0.016 A 
ATOM     23  C   UNL     1       7.253   0.086  -3.875  1.00  0.00     0.010 A 
ATOM     24  C   UNL     1       9.165  -1.077  -2.940  1.00  0.00     0.010 A 
ATOM     25  C   UNL     1       8.520  -0.487  -4.041  1.00  0.00    -0.014 A 
BRANCH  25  26
ATOM     26  C   UNL     1       9.163  -0.502  -5.376  1.00  0.00     0.031 A 
ATOM     27  C   UNL     1       9.288  -1.796  -6.126  1.00  0.00     0.074 A 
ATOM     28  C   UNL     1       9.641   0.639  -5.904  1.00  0.00     0.049 A 
ATOM     29  N   UNL     1       9.904  -2.045  -7.253  1.00  0.00    -0.248 NA
ATOM     30  C   UNL     1       8.638  -2.969  -5.522  1.00  0.00     0.031 C 
ATOM     31  C   UNL     1       9.546   1.961  -5.284  1.00  0.00     0.029 A 
ATOM     32  N   UNL     1      10.313   0.867  -7.078  1.00  0.00    -0.354 N 
ATOM     33  C   UNL     1       9.730  -3.403  -7.486  1.00  0.00     0.074 A 
ATOM     34  C   UNL     1       8.978  -3.931  -6.368  1.00  0.00     0.031 C 
ATOM     35  C   UNL     1      10.138   2.862  -6.085  1.00  0.00     0.029 A 
ATOM     36  C   UNL     1      10.697   2.175  -7.245  1.00  0.00     0.049 A 
ATOM     37  H   UNL     1      10.501   0.161  -7.738  1.00  0.00     0.167 HD
ATOM     38  C   UNL     1      10.154  -4.138  -8.542  1.00  0.00     0.037 A 
ATOM     39  C   UNL     1      11.442   2.747  -8.210  1.00  0.00     0.037 A 
ATOM     40  C   UNL     1      10.902  -3.602  -9.650  1.00  0.00     0.049 A 
ATOM     41  C   UNL     1      11.965   1.893  -9.333  1.00  0.00     0.074 A 
ATOM     42  C   UNL     1      11.369  -4.260 -10.774  1.00  0.00     0.029 A 
ATOM     43  N   UNL     1      11.296  -2.277  -9.770  1.00  0.00    -0.354 N 
ATOM     44  N   UNL     1      11.789   0.612  -9.550  1.00  0.00    -0.248 NA
ATOM     45  C   UNL     1      12.794   2.565 -10.344  1.00  0.00     0.031 C 
ATOM     46  C   UNL     1      12.092  -3.346 -11.547  1.00  0.00     0.029 A 
ATOM     47  C   UNL     1      12.023  -2.104 -10.937  1.00  0.00     0.049 A 
ATOM     48  H   UNL     1      11.090  -1.565  -9.122  1.00  0.00     0.167 HD
ATOM     49  C   UNL     1      12.456   0.331 -10.736  1.00  0.00     0.074 A 
ATOM     50  C   UNL     1      13.030   1.579 -11.197  1.00  0.00     0.031 C 
ATOM     51  C   UNL     1      12.582  -0.852 -11.386  1.00  0.00     0.037 A 
BRANCH  38  52
ATOM     52  C   UNL     1       9.842  -5.607  -8.532  1.00  0.00     0.057 A 
ATOM     53  C   UNL     1       8.538  -6.092  -8.700  1.00  0.00     0.134 A 
ATOM     54  C   UNL     1      10.866  -6.552  -8.381  1.00  0.00     0.134 A 
ATOM     55  F   UNL     1       7.509  -5.242  -8.837  1.00  0.00    -0.206 F 
ATOM     56  C   UNL     1       8.260  -7.460  -8.691  1.00  0.00     0.040 A 
ATOM     57  C   UNL     1      10.604  -7.923  -8.399  1.00  0.00     0.040 A 
ATOM     58  F   UNL     1      12.138  -6.159  -8.220  1.00  0.00    -0.206 F 
ATOM     59  C   UNL     1       9.296  -8.380  -8.547  1.00  0.00     0.006 A 
ENDBRANCH  38  52
BRANCH  39  60
ATOM     60  C   UNL     1      11.748   4.199  -8.152  1.00  0.00     0.057 A 
ATOM     61  C   UNL     1      11.220   5.088  -9.094  1.00  0.00     0.134 A 
ATOM     62  C   UNL     1      12.585   4.731  -7.162  1.00  0.00     0.134 A 
ATOM     63  F   UNL     1      10.430   4.637 -10.079  1.00  0.00    -0.206 F 
ATOM     64  C   UNL     1      11.525   6.450  -9.066  1.00  0.00     0.040 A 
ATOM     65  C   UNL     1      12.876   6.095  -7.105  1.00  0.00     0.040 A 
ATOM     66  F   UNL     1      13.122   3.933  -6.228  1.00  0.00    -0.206 F 
ATOM     67  C   UNL     1      12.351   6.958  -8.065  1.00  0.00     0.006 A 
ENDBRANCH  39  60
BRANCH  51  68
ATOM     68  C   UNL     1      13.330  -0.846 -12.688  1.00  0.00     0.057 A 
ATOM     69  C   UNL     1      14.718  -0.673 -12.748  1.00  0.00     0.134 A 
ATOM     70  C   UNL     1      12.653  -1.055 -13.897  1.00  0.00     0.134 A 
ATOM     71  F   UNL     1      15.425  -0.455 -11.628  1.00  0.00    -0.206 F 
ATOM     72  C   UNL     1      15.403  -0.682 -13.964  1.00  0.00     0.040 A 
ATOM     73  C   UNL     1      13.330  -1.097 -15.116  1.00  0.00     0.040 A 
ATOM     74  F   UNL     1      11.324  -1.238 -13.911  1.00  0.00    -0.206 F 
ATOM     75  C   UNL     1      14.709  -0.903 -15.153  1.00  0.00     0.006 A 
ENDBRANCH  51  68
ENDBRANCH  25  26
ENDBRANCH  18  20
ENDBRANCH  17  18
ENDBRANCH  16  17
ENDBRANCH   1  16
TORSDOF 14
