REMARK SMILES COc1cc(/C=C2/CCc3c2nc2ccccc2c3C(=O)OCCOC(=O)c2ccc(-c3c4nc(c(-c5c(F)cccc5F)c5ccc([nH]5)c(-c5c(F)cccc5F)c5nc(c(-c6c(F)cccc6F)c6ccc3[nH]6)C=C5)C=C4)cc2)cc(Br)c1O
REMARK SMILES IDX 23 1 22 2 20 3 21 4 19 5 6 6 7 7 8 8 11 9 9 10 10 11 12 12
REMARK SMILES IDX 13 13 18 14 14 15 17 16 15 17 16 18 5 19 3 20 4 21 85 22
REMARK SMILES IDX 83 23 82 24 84 25 2 26 1 27 86 28 24 30 25 31 26 32 27 33
REMARK SMILES IDX 28 34 29 35 81 36 30 37 80 38 31 39 32 40 33 41 74 42 34 43
REMARK SMILES IDX 79 44 73 45 75 46 35 47 78 48 72 49 71 50 36 52 62 53 45 54
REMARK SMILES IDX 61 55 46 56 49 57 60 58 76 59 47 60 48 61 59 63 77 64 50 65
REMARK SMILES IDX 37 66 38 67 43 68 39 69 40 70 42 71 44 72 41 73 63 74 64 75
REMARK SMILES IDX 69 76 65 77 66 78 68 79 70 80 67 81 51 82 52 83 57 84 53 85
REMARK SMILES IDX 54 86 56 87 58 88 55 89
REMARK H PARENT 86 29 75 51 49 62
REMARK Flexibility Score: inf
ROOT
ATOM      1  C   UNL     1      -3.278   4.873   5.286  1.00  0.00     0.275 C 
ENDROOT
BRANCH   1   2
ATOM      2  O   UNL     1      -2.040   4.265   4.880  1.00  0.00    -0.458 OA
BRANCH   2   3
ATOM      3  C   UNL     1      -1.808   2.962   5.195  1.00  0.00     0.339 C 
ATOM      4  O   UNL     1      -2.593   2.170   5.653  1.00  0.00    -0.246 OA
BRANCH   3   5
ATOM      5  C   UNL     1      -0.404   2.682   4.788  1.00  0.00     0.074 A 
ATOM      6  C   UNL     1       1.743   5.446   2.401  1.00  0.00     0.014 C 
ATOM      7  C   UNL     1       1.607   5.069   3.689  1.00  0.00    -0.021 C 
ATOM      8  C   UNL     1       0.945   5.922   4.755  1.00  0.00     0.042 C 
ATOM      9  C   UNL     1       1.623   3.671   4.202  1.00  0.00     0.071 A 
ATOM     10  C   UNL     1       0.514   4.925   5.834  1.00  0.00     0.043 C 
ATOM     11  C   UNL     1       0.561   3.641   5.071  1.00  0.00    -0.006 A 
ATOM     12  N   UNL     1       2.040   2.633   3.473  1.00  0.00    -0.248 NA
ATOM     13  C   UNL     1       1.201   1.604   3.344  1.00  0.00     0.072 A 
ATOM     14  C   UNL     1      -0.102   1.611   3.894  1.00  0.00     0.015 A 
ATOM     15  C   UNL     1       1.604   0.567   2.519  1.00  0.00     0.029 A 
ATOM     16  C   UNL     1      -0.999   0.604   3.453  1.00  0.00     0.011 A 
ATOM     17  C   UNL     1       0.715  -0.422   2.108  1.00  0.00     0.002 A 
ATOM     18  C   UNL     1      -0.599  -0.383   2.547  1.00  0.00     0.001 A 
BRANCH   6  19
ATOM     19  C   UNL     1       2.273   4.562   1.356  1.00  0.00    -0.020 A 
ATOM     20  C   UNL     1       2.045   2.734  -0.249  1.00  0.00     0.162 A 
ATOM     21  C   UNL     1       1.467   3.727   0.564  1.00  0.00     0.058 A 
ATOM     22  C   UNL     1       3.442   2.621  -0.288  1.00  0.00     0.172 A 
ATOM     23  C   UNL     1       4.240   3.476   0.480  1.00  0.00     0.064 A 
ATOM     24  C   UNL     1       3.661   4.450   1.286  1.00  0.00     0.028 A 
ATOM     25  Br  UNL     1       6.134   3.357   0.472  1.00  0.00    -0.047 Br
BRANCH  20  26
ATOM     26  O   UNL     1       1.137   1.965  -0.932  1.00  0.00    -0.493 OA
ATOM     27  C   UNL     1       1.502   0.631  -1.274  1.00  0.00     0.278 C 
ENDBRANCH  20  26
BRANCH  22  28
ATOM     28  O   UNL     1       4.074   1.703  -1.083  1.00  0.00    -0.503 OA
ATOM     29  H   UNL     1       3.571   1.115  -1.611  1.00  0.00     0.293 HD
ENDBRANCH  22  28
ENDBRANCH   6  19
ENDBRANCH   3   5
ENDBRANCH   2   3
ENDBRANCH   1   2
BRANCH   1  30
ATOM     30  C   UNL     1      -3.738   5.788   4.155  1.00  0.00     0.275 C 
BRANCH  30  31
ATOM     31  O   UNL     1      -4.138   4.939   3.066  1.00  0.00    -0.458 OA
BRANCH  31  32
ATOM     32  C   UNL     1      -3.492   5.107   1.891  1.00  0.00     0.338 C 
ATOM     33  O   UNL     1      -2.753   6.013   1.557  1.00  0.00    -0.246 OA
BRANCH  32  34
ATOM     34  C   UNL     1      -3.808   3.934   1.063  1.00  0.00     0.060 A 
ATOM     35  C   UNL     1      -4.545   4.066  -0.111  1.00  0.00     0.016 A 
ATOM     36  C   UNL     1      -3.348   2.683   1.473  1.00  0.00     0.016 A 
ATOM     37  C   UNL     1      -4.882   2.918  -0.841  1.00  0.00     0.010 A 
ATOM     38  C   UNL     1      -3.611   1.557   0.694  1.00  0.00     0.010 A 
ATOM     39  C   UNL     1      -4.419   1.646  -0.451  1.00  0.00    -0.014 A 
BRANCH  39  40
ATOM     40  C   UNL     1      -4.803   0.402  -1.190  1.00  0.00     0.031 A 
ATOM     41  C   UNL     1      -5.426  -0.765  -0.455  1.00  0.00     0.074 A 
ATOM     42  C   UNL     1      -4.542   0.268  -2.506  1.00  0.00     0.049 A 
ATOM     43  N   UNL     1      -5.673  -1.982  -0.877  1.00  0.00    -0.248 NA
ATOM     44  C   UNL     1      -5.746  -0.555   0.964  1.00  0.00     0.031 C 
ATOM     45  C   UNL     1      -3.868   1.258  -3.346  1.00  0.00     0.029 A 
ATOM     46  N   UNL     1      -4.817  -0.764  -3.371  1.00  0.00    -0.354 N 
ATOM     47  C   UNL     1      -6.078  -2.699   0.245  1.00  0.00     0.074 A 
ATOM     48  C   UNL     1      -5.997  -1.791   1.369  1.00  0.00     0.031 C 
ATOM     49  C   UNL     1      -3.840   0.815  -4.614  1.00  0.00     0.029 A 
ATOM     50  C   UNL     1      -4.455  -0.508  -4.671  1.00  0.00     0.049 A 
ATOM     51  H   UNL     1      -5.235  -1.609  -3.085  1.00  0.00     0.167 HD
ATOM     52  C   UNL     1      -6.510  -3.982   0.335  1.00  0.00     0.037 A 
ATOM     53  C   UNL     1      -4.611  -1.247  -5.786  1.00  0.00     0.037 A 
ATOM     54  C   UNL     1      -6.734  -4.839  -0.800  1.00  0.00     0.049 A 
ATOM     55  C   UNL     1      -5.262  -2.600  -5.698  1.00  0.00     0.074 A 
ATOM     56  C   UNL     1      -7.282  -6.110  -0.831  1.00  0.00     0.029 A 
ATOM     57  N   UNL     1      -6.462  -4.490  -2.114  1.00  0.00    -0.354 N 
ATOM     58  N   UNL     1      -5.670  -3.252  -4.636  1.00  0.00    -0.248 NA
ATOM     59  C   UNL     1      -5.481  -3.317  -6.963  1.00  0.00     0.031 C 
ATOM     60  C   UNL     1      -7.346  -6.528  -2.165  1.00  0.00     0.029 A 
ATOM     61  C   UNL     1      -6.856  -5.509  -2.965  1.00  0.00     0.049 A 
ATOM     62  H   UNL     1      -6.050  -3.643  -2.399  1.00  0.00     0.167 HD
ATOM     63  C   UNL     1      -6.215  -4.440  -5.106  1.00  0.00     0.074 A 
ATOM     64  C   UNL     1      -6.097  -4.415  -6.548  1.00  0.00     0.031 C 
ATOM     65  C   UNL     1      -6.761  -5.460  -4.401  1.00  0.00     0.037 A 
BRANCH  52  66
ATOM     66  C   UNL     1      -6.790  -4.522   1.712  1.00  0.00     0.057 A 
ATOM     67  C   UNL     1      -5.983  -5.528   2.261  1.00  0.00     0.134 A 
ATOM     68  C   UNL     1      -7.841  -4.041   2.504  1.00  0.00     0.134 A 
ATOM     69  F   UNL     1      -4.973  -6.057   1.554  1.00  0.00    -0.206 F 
ATOM     70  C   UNL     1      -6.191  -6.008   3.557  1.00  0.00     0.040 A 
ATOM     71  C   UNL     1      -8.034  -4.483   3.813  1.00  0.00     0.040 A 
ATOM     72  F   UNL     1      -8.654  -3.079   2.041  1.00  0.00    -0.206 F 
ATOM     73  C   UNL     1      -7.207  -5.470   4.344  1.00  0.00     0.006 A 
ENDBRANCH  52  66
BRANCH  53  74
ATOM     74  C   UNL     1      -4.209  -0.688  -7.100  1.00  0.00     0.057 A 
ATOM     75  C   UNL     1      -2.866  -0.571  -7.475  1.00  0.00     0.134 A 
ATOM     76  C   UNL     1      -5.176  -0.242  -8.009  1.00  0.00     0.134 A 
ATOM     77  F   UNL     1      -1.894  -0.970  -6.643  1.00  0.00    -0.206 F 
ATOM     78  C   UNL     1      -2.499  -0.025  -8.706  1.00  0.00     0.040 A 
ATOM     79  C   UNL     1      -4.825   0.286  -9.252  1.00  0.00     0.040 A 
ATOM     80  F   UNL     1      -6.480  -0.344  -7.710  1.00  0.00    -0.206 F 
ATOM     81  C   UNL     1      -3.481   0.401  -9.601  1.00  0.00     0.006 A 
ENDBRANCH  53  74
BRANCH  65  82
ATOM     82  C   UNL     1      -7.320  -6.615  -5.176  1.00  0.00     0.057 A 
ATOM     83  C   UNL     1      -8.705  -6.791  -5.287  1.00  0.00     0.134 A 
ATOM     84  C   UNL     1      -6.494  -7.580  -5.763  1.00  0.00     0.134 A 
ATOM     85  F   UNL     1      -9.550  -5.903  -4.742  1.00  0.00    -0.206 F 
ATOM     86  C   UNL     1      -9.249  -7.893  -5.948  1.00  0.00     0.040 A 
ATOM     87  C   UNL     1      -7.027  -8.677  -6.443  1.00  0.00     0.040 A 
ATOM     88  F   UNL     1      -5.159  -7.461  -5.702  1.00  0.00    -0.206 F 
ATOM     89  C   UNL     1      -8.409  -8.839  -6.530  1.00  0.00     0.006 A 
ENDBRANCH  65  82
ENDBRANCH  39  40
ENDBRANCH  32  34
ENDBRANCH  31  32
ENDBRANCH  30  31
ENDBRANCH   1  30
TORSDOF 14
