REMARK SMILES CCOc1ncnc(N[C@@H]2C=C[C@H](C(=O)OCCOC(=O)c3ccc(-c4c5nc(c(-c6c(F)cccc6F)c6ccc([nH]6)c(-c6c(F)cccc6F)c6nc(c(-c7c(F)cccc7F)c7ccc4[nH]7)C=C6)C=C5)cc3)C2)c1C
REMARK SMILES IDX 17 1 16 2 14 3 15 4 13 5 10 6 11 7 76 8 12 9 9 10 8 12 4 13
REMARK SMILES IDX 5 14 77 15 6 16 78 17 7 18 3 19 2 20 1 21 18 22 19 23 20 24
REMARK SMILES IDX 21 25 22 26 23 27 75 28 24 29 74 30 25 31 26 32 27 33 68 34
REMARK SMILES IDX 28 35 73 36 67 37 69 38 29 39 72 40 66 41 65 42 30 44 56 45
REMARK SMILES IDX 39 46 55 47 40 48 43 49 54 50 70 51 41 52 42 53 53 55 71 56
REMARK SMILES IDX 44 57 31 58 32 59 37 60 33 61 34 62 36 63 38 64 35 65 57 66
REMARK SMILES IDX 58 67 63 68 59 69 60 70 62 71 64 72 61 73 45 74 46 75 51 76
REMARK SMILES IDX 47 77 48 78 50 79 52 80 49 81
REMARK H PARENT 9 11 69 43 43 54
REMARK Flexibility Score: inf
ROOT
ATOM      1  C   UNL     1      11.857   2.543  -1.684  1.00  0.00     0.274 C 
ENDROOT
BRANCH   1   2
ATOM      2  O   UNL     1      10.422   2.640  -1.824  1.00  0.00    -0.462 OA
BRANCH   2   3
ATOM      3  C   UNL     1       9.913   2.248  -3.033  1.00  0.00     0.312 C 
ATOM      4  O   UNL     1      10.606   1.986  -4.015  1.00  0.00    -0.252 OA
BRANCH   3   5
ATOM      5  C   UNL     1       8.378   2.245  -3.079  1.00  0.00     0.124 C 
ATOM      6  C   UNL     1       6.885   0.823  -1.756  1.00  0.00     0.104 C 
ATOM      7  C   UNL     1       7.056   0.278  -3.131  1.00  0.00    -0.006 C 
ATOM      8  C   UNL     1       7.635   2.146  -1.737  1.00  0.00     0.048 C 
ATOM      9  C   UNL     1       7.861   1.056  -3.860  1.00  0.00    -0.014 C 
BRANCH   6  10
ATOM     10  N   UNL     1       7.347  -0.116  -0.774  1.00  0.00    -0.363 N 
ATOM     11  H   UNL     1       6.693  -0.472  -0.131  1.00  0.00     0.162 HD
BRANCH  10  12
ATOM     12  C   UNL     1       8.675  -0.557  -0.677  1.00  0.00     0.136 A 
ATOM     13  C   UNL     1      10.485  -3.234  -0.307  1.00  0.00     0.221 A 
ATOM     14  N   UNL     1      11.654  -2.558  -1.407  1.00  0.00    -0.201 NA
ATOM     15  C   UNL     1       8.854  -2.137   0.170  1.00  0.00     0.054 A 
ATOM     16  C   UNL     1      11.320  -1.016  -2.027  1.00  0.00     0.228 A 
ATOM     17  C   UNL     1       7.809  -1.914   1.376  1.00  0.00     0.054 C 
ATOM     18  N   UNL     1       9.924  -0.034  -1.711  1.00  0.00    -0.219 NA
BRANCH  13  19
ATOM     19  O   UNL     1      11.246  -4.181   0.449  1.00  0.00    -0.478 OA
BRANCH  19  20
ATOM     20  C   UNL     1      11.393  -5.546   0.048  1.00  0.00     0.228 C 
ATOM     21  C   UNL     1      10.863  -6.485   1.148  1.00  0.00     0.049 C 
ENDBRANCH  19  20
ENDBRANCH  13  19
ENDBRANCH  10  12
ENDBRANCH   6  10
ENDBRANCH   3   5
ENDBRANCH   2   3
ENDBRANCH   1   2
BRANCH   1  22
ATOM     22  C   UNL     1      12.274   1.979  -0.312  1.00  0.00     0.275 C 
BRANCH  22  23
ATOM     23  O   UNL     1      12.121   0.542  -0.293  1.00  0.00    -0.458 OA
BRANCH  23  24
ATOM     24  C   UNL     1      11.118   0.046   0.473  1.00  0.00     0.338 C 
ATOM     25  O   UNL     1      10.624   0.621   1.436  1.00  0.00    -0.246 OA
BRANCH  24  26
ATOM     26  C   UNL     1      10.581  -1.365   0.042  1.00  0.00     0.060 A 
ATOM     27  C   UNL     1       9.626  -2.125  -1.567  1.00  0.00     0.016 A 
ATOM     28  C   UNL     1      10.385  -2.309   1.592  1.00  0.00     0.016 A 
ATOM     29  C   UNL     1       8.627  -3.513  -1.465  1.00  0.00     0.010 A 
ATOM     30  C   UNL     1       9.364  -3.807   1.524  1.00  0.00     0.010 A 
ATOM     31  C   UNL     1       8.553  -4.364   0.018  1.00  0.00    -0.014 A 
BRANCH  31  32
ATOM     32  C   UNL     1       7.793  -5.625  -0.200  1.00  0.00     0.031 A 
ATOM     33  C   UNL     1       6.757  -6.004   0.781  1.00  0.00     0.074 A 
ATOM     34  C   UNL     1       7.960  -6.345  -1.338  1.00  0.00     0.049 A 
ATOM     35  N   UNL     1       6.237  -7.167   1.027  1.00  0.00    -0.248 NA
ATOM     36  C   UNL     1       6.286  -4.940   1.661  1.00  0.00     0.031 C 
ATOM     37  C   UNL     1       8.897  -6.054  -2.441  1.00  0.00     0.029 A 
ATOM     38  N   UNL     1       7.298  -7.450  -1.806  1.00  0.00    -0.354 N 
ATOM     39  C   UNL     1       5.489  -6.982   2.179  1.00  0.00     0.074 A 
ATOM     40  C   UNL     1       5.675  -5.620   2.612  1.00  0.00     0.031 C 
ATOM     41  C   UNL     1       8.648  -6.844  -3.487  1.00  0.00     0.029 A 
ATOM     42  C   UNL     1       7.713  -7.855  -3.056  1.00  0.00     0.049 A 
ATOM     43  H   UNL     1       6.593  -7.911  -1.296  1.00  0.00     0.167 HD
ATOM     44  C   UNL     1       4.674  -7.874   2.777  1.00  0.00     0.037 A 
ATOM     45  C   UNL     1       7.457  -8.981  -3.740  1.00  0.00     0.037 A 
ATOM     46  C   UNL     1       4.393  -9.148   2.183  1.00  0.00     0.049 A 
ATOM     47  C   UNL     1       6.613  -9.991  -3.035  1.00  0.00     0.074 A 
ATOM     48  C   UNL     1       3.599 -10.169   2.656  1.00  0.00     0.029 A 
ATOM     49  N   UNL     1       4.875  -9.544   0.938  1.00  0.00    -0.354 N 
ATOM     50  N   UNL     1       6.029  -9.895  -1.862  1.00  0.00    -0.248 NA
ATOM     51  C   UNL     1       6.427 -11.275  -3.708  1.00  0.00     0.031 C 
ATOM     52  C   UNL     1       3.642 -11.206   1.719  1.00  0.00     0.029 A 
ATOM     53  C   UNL     1       4.404 -10.802   0.629  1.00  0.00     0.049 A 
ATOM     54  H   UNL     1       5.466  -9.005   0.364  1.00  0.00     0.167 HD
ATOM     55  C   UNL     1       5.391 -11.104  -1.657  1.00  0.00     0.074 A 
ATOM     56  C   UNL     1       5.644 -11.904  -2.845  1.00  0.00     0.031 C 
ATOM     57  C   UNL     1       4.672 -11.527  -0.589  1.00  0.00     0.037 A 
BRANCH  44  58
ATOM     58  C   UNL     1       4.113  -7.498   4.114  1.00  0.00     0.057 A 
ATOM     59  C   UNL     1       3.209  -6.442   4.297  1.00  0.00     0.134 A 
ATOM     60  C   UNL     1       4.565  -8.163   5.261  1.00  0.00     0.134 A 
ATOM     61  F   UNL     1       2.763  -5.736   3.246  1.00  0.00    -0.206 F 
ATOM     62  C   UNL     1       2.820  -6.026   5.572  1.00  0.00     0.040 A 
ATOM     63  C   UNL     1       4.150  -7.784   6.537  1.00  0.00     0.040 A 
ATOM     64  F   UNL     1       5.439  -9.175   5.161  1.00  0.00    -0.206 F 
ATOM     65  C   UNL     1       3.288  -6.702   6.697  1.00  0.00     0.006 A 
ENDBRANCH  44  58
BRANCH  45  66
ATOM     66  C   UNL     1       8.098  -9.242  -5.060  1.00  0.00     0.057 A 
ATOM     67  C   UNL     1       7.335  -9.395  -6.222  1.00  0.00     0.134 A 
ATOM     68  C   UNL     1       9.493  -9.322  -5.202  1.00  0.00     0.134 A 
ATOM     69  F   UNL     1       5.996  -9.342  -6.161  1.00  0.00    -0.206 F 
ATOM     70  C   UNL     1       7.928  -9.628  -7.466  1.00  0.00     0.040 A 
ATOM     71  C   UNL     1      10.101  -9.512  -6.444  1.00  0.00     0.040 A 
ATOM     72  F   UNL     1      10.294  -9.179  -4.135  1.00  0.00    -0.206 F 
ATOM     73  C   UNL     1       9.316  -9.677  -7.581  1.00  0.00     0.006 A 
ENDBRANCH  45  66
BRANCH  57  74
ATOM     74  C   UNL     1       4.047 -12.877  -0.715  1.00  0.00     0.057 A 
ATOM     75  C   UNL     1       4.804 -14.052  -0.661  1.00  0.00     0.134 A 
ATOM     76  C   UNL     1       2.658 -12.990  -0.846  1.00  0.00     0.134 A 
ATOM     77  F   UNL     1       6.141 -13.998  -0.557  1.00  0.00    -0.206 F 
ATOM     78  C   UNL     1       4.198 -15.301  -0.761  1.00  0.00     0.040 A 
ATOM     79  C   UNL     1       2.038 -14.233  -0.903  1.00  0.00     0.040 A 
ATOM     80  F   UNL     1       1.886 -11.893  -0.892  1.00  0.00    -0.206 F 
ATOM     81  C   UNL     1       2.810 -15.393  -0.870  1.00  0.00     0.006 A 
ENDBRANCH  57  74
ENDBRANCH  31  32
ENDBRANCH  24  26
ENDBRANCH  23  24
ENDBRANCH  22  23
ENDBRANCH   1  22
TORSDOF 15
