REMARK SMILES Cc1cccc(S(=O)(=O)Nc2cnc(N(C)Cc3ccccc3)c(C(=O)OCCOC(=O)c3ccc(-c4c5nc(c(-c6c(F)cccc6F)c6ccc([nH]6)c(-c6c(F)cccc6F)c6nc(c(-c7c(F)cccc7F)c7ccc4[nH]7)C=C6)C=C5)cc3)c2)c1
REMARK SMILES IDX 28 1 27 2 25 3 26 4 24 5 11 6 12 7 87 8 13 9 14 10 10 11
REMARK SMILES IDX 7 13 8 14 9 15 6 16 1 17 2 18 3 19 88 20 4 21 5 22 15 23
REMARK SMILES IDX 16 24 17 25 18 26 19 27 23 28 20 29 22 30 21 31 29 32 30 33
REMARK SMILES IDX 31 34 32 35 33 36 34 37 86 38 35 39 85 40 36 41 37 42 38 43
REMARK SMILES IDX 79 44 39 45 84 46 78 47 80 48 40 49 83 50 77 51 76 52 41 54
REMARK SMILES IDX 67 55 50 56 66 57 51 58 54 59 65 60 81 61 52 62 53 63 64 65
REMARK SMILES IDX 82 66 55 67 42 68 43 69 48 70 44 71 45 72 47 73 49 74 46 75
REMARK SMILES IDX 68 76 69 77 74 78 70 79 71 80 73 81 75 82 72 83 56 84 57 85
REMARK SMILES IDX 62 86 58 87 59 88 61 89 63 90 60 91
REMARK H PARENT 10 12 80 53 54 64
REMARK Flexibility Score: inf
ROOT
ATOM      1  C   UNL     1       1.835   1.862  -4.827  1.00  0.00     0.275 C 
ENDROOT
BRANCH   1   2
ATOM      2  O   UNL     1       1.718   2.601  -3.547  1.00  0.00    -0.458 OA
BRANCH   2   3
ATOM      3  C   UNL     1       2.366   3.729  -3.079  1.00  0.00     0.342 C 
ATOM      4  O   UNL     1       3.098   4.414  -3.766  1.00  0.00    -0.246 OA
BRANCH   3   5
ATOM      5  C   UNL     1       2.071   3.944  -1.530  1.00  0.00     0.104 A 
ATOM      6  C   UNL     1       0.127   3.931  -0.083  1.00  0.00     0.068 A 
ATOM      7  C   UNL     1       0.922   4.596   0.829  1.00  0.00     0.140 A 
ATOM      8  C   UNL     1       0.666   3.762  -1.329  1.00  0.00     0.048 A 
ATOM      9  N   UNL     1       2.257   4.749   0.710  1.00  0.00    -0.236 NA
ATOM     10  C   UNL     1       2.936   4.197  -0.330  1.00  0.00     0.143 A 
BRANCH   6  11
ATOM     11  N   UNL     1      -1.159   3.533   0.353  1.00  0.00    -0.278 N 
ATOM     12  H   UNL     1      -1.417   3.881   1.237  1.00  0.00     0.180 HD
BRANCH  11  13
ATOM     13  S   UNL     1      -2.308   2.575  -0.376  1.00  0.00     0.261 S 
ATOM     14  O   UNL     1      -2.686   3.243  -1.602  1.00  0.00    -0.201 OA
ATOM     15  O   UNL     1      -3.281   2.457   0.700  1.00  0.00    -0.201 OA
BRANCH  13  16
ATOM     16  C   UNL     1      -1.939   0.875  -0.814  1.00  0.00     0.088 A 
ATOM     17  C   UNL     1       0.462  -2.123  -1.579  1.00  0.00     0.044 C 
ATOM     18  C   UNL     1      -0.695  -1.163  -1.404  1.00  0.00    -0.050 A 
ATOM     19  C   UNL     1      -1.896  -1.838  -1.600  1.00  0.00     0.003 A 
ATOM     20  C   UNL     1      -0.713   0.237  -1.057  1.00  0.00     0.025 A 
ATOM     21  C   UNL     1      -3.096  -1.211  -1.379  1.00  0.00     0.002 A 
ATOM     22  C   UNL     1      -3.115   0.117  -0.976  1.00  0.00     0.022 A 
ENDBRANCH  13  16
ENDBRANCH  11  13
ENDBRANCH   6  11
BRANCH  10  23
ATOM     23  N   UNL     1       4.208   3.714   0.171  1.00  0.00    -0.355 N 
ATOM     24  C   UNL     1       4.810   4.758   1.067  1.00  0.00     0.145 C 
BRANCH  23  25
ATOM     25  C   UNL     1       5.311   2.401   0.164  1.00  0.00     0.153 C 
BRANCH  25  26
ATOM     26  C   UNL     1       5.072   0.732   0.397  1.00  0.00    -0.029 A 
ATOM     27  C   UNL     1       5.044  -0.409  -1.076  1.00  0.00     0.005 A 
ATOM     28  C   UNL     1       4.546   0.066   2.012  1.00  0.00     0.005 A 
ATOM     29  C   UNL     1       4.201  -2.081  -1.026  1.00  0.00     0.000 A 
ATOM     30  C   UNL     1       3.873  -1.647   2.180  1.00  0.00     0.000 A 
ATOM     31  C   UNL     1       3.582  -2.706   0.633  1.00  0.00     0.000 A 
ENDBRANCH  25  26
ENDBRANCH  23  25
ENDBRANCH  10  23
ENDBRANCH   3   5
ENDBRANCH   2   3
ENDBRANCH   1   2
BRANCH   1  32
ATOM     32  C   UNL     1       3.127   1.585  -5.673  1.00  0.00     0.275 C 
BRANCH  32  33
ATOM     33  O   UNL     1       4.456   1.953  -5.274  1.00  0.00    -0.458 OA
BRANCH  33  34
ATOM     34  C   UNL     1       4.948   1.863  -4.034  1.00  0.00     0.338 C 
ATOM     35  O   UNL     1       5.985   2.397  -3.663  1.00  0.00    -0.246 OA
BRANCH  34  36
ATOM     36  C   UNL     1       4.073   1.186  -3.090  1.00  0.00     0.060 A 
ATOM     37  C   UNL     1       3.770   1.897  -1.947  1.00  0.00     0.016 A 
ATOM     38  C   UNL     1       3.466  -0.029  -3.245  1.00  0.00     0.016 A 
ATOM     39  C   UNL     1       2.930   1.428  -0.897  1.00  0.00     0.010 A 
ATOM     40  C   UNL     1       2.570  -0.379  -2.235  1.00  0.00     0.010 A 
ATOM     41  C   UNL     1       2.703   0.116  -0.914  1.00  0.00    -0.014 A 
BRANCH  41  42
ATOM     42  C   UNL     1       3.476  -0.725   0.362  1.00  0.00     0.031 A 
ATOM     43  C   UNL     1       1.843  -1.156   1.147  1.00  0.00     0.074 A 
ATOM     44  C   UNL     1       5.181  -1.489   0.645  1.00  0.00     0.049 A 
ATOM     45  N   UNL     1       1.509  -2.386   1.411  1.00  0.00    -0.248 NA
ATOM     46  C   UNL     1       0.679  -0.336   1.535  1.00  0.00     0.031 C 
ATOM     47  C   UNL     1       5.692  -3.208   0.450  1.00  0.00     0.029 A 
ATOM     48  N   UNL     1       6.618  -1.158   0.577  1.00  0.00    -0.354 N 
ATOM     49  C   UNL     1       0.244  -2.618   1.813  1.00  0.00     0.074 A 
ATOM     50  C   UNL     1      -0.285  -1.272   1.811  1.00  0.00     0.031 C 
ATOM     51  C   UNL     1       6.975  -3.436   0.641  1.00  0.00     0.029 A 
ATOM     52  C   UNL     1       7.446  -2.196   1.078  1.00  0.00     0.049 A 
ATOM     53  H   UNL     1       6.965  -0.307   0.221  1.00  0.00     0.167 HD
ATOM     54  C   UNL     1      -0.020  -3.965   1.925  1.00  0.00     0.037 A 
ATOM     55  C   UNL     1       8.056  -2.038   2.264  1.00  0.00     0.037 A 
ATOM     56  C   UNL     1       1.257  -4.697   2.231  1.00  0.00     0.049 A 
ATOM     57  C   UNL     1       7.137  -2.715   3.337  1.00  0.00     0.074 A 
ATOM     58  C   UNL     1       2.056  -5.652   1.620  1.00  0.00     0.029 A 
ATOM     59  N   UNL     1       2.017  -4.230   3.307  1.00  0.00    -0.354 N 
ATOM     60  N   UNL     1       5.998  -3.372   3.128  1.00  0.00    -0.248 NA
ATOM     61  C   UNL     1       7.543  -2.843   4.727  1.00  0.00     0.031 C 
ATOM     62  C   UNL     1       3.336  -5.667   2.298  1.00  0.00     0.029 A 
ATOM     63  C   UNL     1       3.310  -4.753   3.347  1.00  0.00     0.049 A 
ATOM     64  H   UNL     1       1.673  -3.593   3.973  1.00  0.00     0.167 HD
ATOM     65  C   UNL     1       5.464  -3.866   4.300  1.00  0.00     0.074 A 
ATOM     66  C   UNL     1       6.560  -3.611   5.231  1.00  0.00     0.031 C 
ATOM     67  C   UNL     1       4.189  -4.394   4.490  1.00  0.00     0.037 A 
BRANCH  54  68
ATOM     68  C   UNL     1      -1.318  -4.735   1.688  1.00  0.00     0.057 A 
ATOM     69  C   UNL     1      -1.361  -6.147   1.822  1.00  0.00     0.134 A 
ATOM     70  C   UNL     1      -2.498  -4.187   1.162  1.00  0.00     0.134 A 
ATOM     71  F   UNL     1      -0.335  -6.833   2.344  1.00  0.00    -0.206 F 
ATOM     72  C   UNL     1      -2.451  -6.942   1.423  1.00  0.00     0.040 A 
ATOM     73  C   UNL     1      -3.602  -4.974   0.753  1.00  0.00     0.040 A 
ATOM     74  F   UNL     1      -2.633  -2.864   1.023  1.00  0.00    -0.206 F 
ATOM     75  C   UNL     1      -3.578  -6.359   0.873  1.00  0.00     0.006 A 
ENDBRANCH  54  68
BRANCH  55  76
ATOM     76  C   UNL     1       8.787  -0.723   2.029  1.00  0.00     0.057 A 
ATOM     77  C   UNL     1       9.513  -0.672   0.775  1.00  0.00     0.134 A 
ATOM     78  C   UNL     1       8.281   0.494   2.470  1.00  0.00     0.134 A 
ATOM     79  F   UNL     1      10.031  -1.803   0.256  1.00  0.00    -0.206 F 
ATOM     80  C   UNL     1       9.387   0.403  -0.118  1.00  0.00     0.040 A 
ATOM     81  C   UNL     1       8.298   1.627   1.629  1.00  0.00     0.040 A 
ATOM     82  F   UNL     1       7.603   0.572   3.622  1.00  0.00    -0.206 F 
ATOM     83  C   UNL     1       8.742   1.553   0.302  1.00  0.00     0.006 A 
ENDBRANCH  55  76
BRANCH  67  84
ATOM     84  C   UNL     1       3.594  -4.650   5.891  1.00  0.00     0.057 A 
ATOM     85  C   UNL     1       4.063  -4.048   7.066  1.00  0.00     0.134 A 
ATOM     86  C   UNL     1       2.441  -5.454   6.093  1.00  0.00     0.134 A 
ATOM     87  F   UNL     1       4.926  -3.025   7.042  1.00  0.00    -0.206 F 
ATOM     88  C   UNL     1       3.604  -4.400   8.341  1.00  0.00     0.040 A 
ATOM     89  C   UNL     1       1.883  -5.704   7.352  1.00  0.00     0.040 A 
ATOM     90  F   UNL     1       1.766  -6.019   5.081  1.00  0.00    -0.206 F 
ATOM     91  C   UNL     1       2.510  -5.235   8.490  1.00  0.00     0.006 A 
ENDBRANCH  67  84
ENDBRANCH  41  42
ENDBRANCH  34  36
ENDBRANCH  33  34
ENDBRANCH  32  33
ENDBRANCH   1  32
TORSDOF 17
