REMARK SMILES CCc1ccnc(C(=O)c2[nH]c3ccc(OC(F)(F)F)cc3c2CC(=O)OCCOC(=O)c2ccc(-c3c4nc(c(-c5c(F)cccc5F)c5ccc([nH]5)c(-c5c(F)cccc5F)c5nc(c(-c6c(F)cccc6F)c6ccc3[nH]6)C=C5)C=C4)cc2)c1
REMARK SMILES IDX 28 1 27 2 25 3 26 4 24 5 23 6 10 7 11 8 12 9 22 11 13 12
REMARK SMILES IDX 21 13 14 14 15 15 8 16 9 17 7 18 3 19 4 20 87 21 5 22 6 23
REMARK SMILES IDX 2 24 1 25 16 26 17 27 18 28 19 29 20 30 29 31 30 32 31 33
REMARK SMILES IDX 32 34 33 35 34 36 86 37 35 38 85 39 36 40 37 41 38 42 79 43
REMARK SMILES IDX 39 44 84 45 78 46 80 47 40 48 83 49 77 50 76 51 41 53 67 54
REMARK SMILES IDX 50 55 66 56 51 57 54 58 65 59 81 60 52 61 53 62 64 64 82 65
REMARK SMILES IDX 55 66 42 67 43 68 48 69 44 70 45 71 47 72 49 73 46 74 68 75
REMARK SMILES IDX 69 76 74 77 70 78 71 79 73 80 75 81 72 82 56 83 57 84 62 85
REMARK SMILES IDX 58 86 59 87 61 88 63 89 60 90
REMARK H PARENT 11 10 80 52 54 63
REMARK Flexibility Score: inf
ROOT
ATOM      1  C   UNL     1      -1.985   9.983   1.702  1.00  0.00     0.274 C 
ENDROOT
BRANCH   1   2
ATOM      2  O   UNL     1      -2.213   8.570   1.896  1.00  0.00    -0.462 OA
BRANCH   2   3
ATOM      3  C   UNL     1      -2.784   7.903   0.862  1.00  0.00     0.310 C 
ATOM      4  O   UNL     1      -3.245   8.449  -0.139  1.00  0.00    -0.252 OA
BRANCH   3   5
ATOM      5  C   UNL     1      -2.655   6.396   0.939  1.00  0.00     0.161 C 
BRANCH   5   6
ATOM      6  C   UNL     1      -2.641   5.756   2.290  1.00  0.00     0.000 A 
ATOM      7  C   UNL     1      -1.539   5.348   3.042  1.00  0.00     0.093 A 
ATOM      8  N   UNL     1      -2.026   4.841   4.223  1.00  0.00    -0.352 N 
ATOM      9  C   UNL     1      -3.387   4.718   4.179  1.00  0.00     0.046 A 
ATOM     10  H   UNL     1      -1.469   4.599   4.998  1.00  0.00     0.167 HD
ATOM     11  C   UNL     1      -3.815   5.348   3.016  1.00  0.00     0.008 A 
ATOM     12  C   UNL     1      -4.257   4.113   5.086  1.00  0.00     0.030 A 
ATOM     13  C   UNL     1      -5.205   5.422   2.778  1.00  0.00     0.057 A 
ATOM     14  C   UNL     1      -5.626   4.170   4.809  1.00  0.00     0.049 A 
ATOM     15  C   UNL     1      -6.108   4.831   3.680  1.00  0.00     0.130 A 
BRANCH   7  16
ATOM     16  C   UNL     1      -0.098   5.408   2.849  1.00  0.00     0.227 C 
ATOM     17  O   UNL     1       0.615   5.991   3.666  1.00  0.00    -0.285 OA
BRANCH  16  18
ATOM     18  C   UNL     1       0.558   4.489   1.851  1.00  0.00     0.113 A 
ATOM     19  C   UNL     1       0.854   2.242   1.005  1.00  0.00    -0.044 A 
ATOM     20  C   UNL     1       2.111   2.639   0.546  1.00  0.00     0.024 A 
ATOM     21  C   UNL     1       0.059   3.199   1.658  1.00  0.00     0.036 A 
ATOM     22  C   UNL     1       2.512   3.952   0.742  1.00  0.00     0.112 A 
ATOM     23  N   UNL     1       1.773   4.876   1.383  1.00  0.00    -0.253 NA
BRANCH  19  24
ATOM     24  C   UNL     1       0.390   0.803   0.970  1.00  0.00     0.032 C 
ATOM     25  C   UNL     1       0.951  -0.063  -0.151  1.00  0.00     0.009 C 
ENDBRANCH  19  24
ENDBRANCH  16  18
ENDBRANCH   7  16
BRANCH  15  26
ATOM     26  O   UNL     1      -7.424   4.972   3.334  1.00  0.00    -0.406 OA
BRANCH  26  27
ATOM     27  C   UNL     1      -8.393   4.380   4.184  1.00  0.00     0.573 C 
ATOM     28  F   UNL     1      -8.242   3.038   4.232  1.00  0.00    -0.132 F 
ATOM     29  F   UNL     1      -8.327   4.886   5.435  1.00  0.00    -0.132 F 
ATOM     30  F   UNL     1      -9.623   4.644   3.692  1.00  0.00    -0.132 F 
ENDBRANCH  26  27
ENDBRANCH  15  26
ENDBRANCH   5   6
ENDBRANCH   3   5
ENDBRANCH   2   3
ENDBRANCH   1   2
BRANCH   1  31
ATOM     31  C   UNL     1      -0.504  10.269   1.426  1.00  0.00     0.275 C 
BRANCH  31  32
ATOM     32  O   UNL     1      -0.073   9.684   0.179  1.00  0.00    -0.458 OA
BRANCH  32  33
ATOM     33  C   UNL     1       0.399   8.428   0.312  1.00  0.00     0.338 C 
ATOM     34  O   UNL     1       0.471   7.778   1.345  1.00  0.00    -0.246 OA
BRANCH  33  35
ATOM     35  C   UNL     1       0.760   7.833  -0.970  1.00  0.00     0.060 A 
ATOM     36  C   UNL     1      -0.229   7.199  -1.724  1.00  0.00     0.016 A 
ATOM     37  C   UNL     1       2.107   7.729  -1.319  1.00  0.00     0.016 A 
ATOM     38  C   UNL     1       0.133   6.418  -2.815  1.00  0.00     0.010 A 
ATOM     39  C   UNL     1       2.461   7.008  -2.458  1.00  0.00     0.010 A 
ATOM     40  C   UNL     1       1.477   6.344  -3.209  1.00  0.00    -0.014 A 
BRANCH  40  41
ATOM     41  C   UNL     1       1.842   5.656  -4.466  1.00  0.00     0.031 A 
ATOM     42  C   UNL     1       2.656   4.399  -4.458  1.00  0.00     0.074 A 
ATOM     43  C   UNL     1       1.446   6.207  -5.627  1.00  0.00     0.049 A 
ATOM     44  N   UNL     1       3.207   3.765  -5.460  1.00  0.00    -0.248 NA
ATOM     45  C   UNL     1       2.882   3.772  -3.149  1.00  0.00     0.031 C 
ATOM     46  C   UNL     1       0.612   7.405  -5.749  1.00  0.00     0.029 A 
ATOM     47  N   UNL     1       1.694   5.839  -6.922  1.00  0.00    -0.354 N 
ATOM     48  C   UNL     1       3.869   2.678  -4.903  1.00  0.00     0.074 A 
ATOM     49  C   UNL     1       3.653   2.740  -3.472  1.00  0.00     0.031 C 
ATOM     50  C   UNL     1       0.403   7.663  -7.046  1.00  0.00     0.029 A 
ATOM     51  C   UNL     1       1.151   6.699  -7.842  1.00  0.00     0.049 A 
ATOM     52  H   UNL     1       2.211   5.037  -7.168  1.00  0.00     0.167 HD
ATOM     53  C   UNL     1       4.590   1.724  -5.538  1.00  0.00     0.037 A 
ATOM     54  C   UNL     1       1.283   6.738  -9.179  1.00  0.00     0.037 A 
ATOM     55  C   UNL     1       4.780   1.673  -6.966  1.00  0.00     0.049 A 
ATOM     56  C   UNL     1       2.157   5.725  -9.848  1.00  0.00     0.074 A 
ATOM     57  C   UNL     1       5.478   0.741  -7.715  1.00  0.00     0.029 A 
ATOM     58  N   UNL     1       4.267   2.601  -7.861  1.00  0.00    -0.354 N 
ATOM     59  N   UNL     1       2.815   4.724  -9.314  1.00  0.00    -0.248 NA
ATOM     60  C   UNL     1       2.332   5.861 -11.299  1.00  0.00     0.031 C 
ATOM     61  C   UNL     1       5.414   1.125  -9.060  1.00  0.00     0.029 A 
ATOM     62  C   UNL     1       4.651   2.277  -9.152  1.00  0.00     0.049 A 
ATOM     63  H   UNL     1       3.712   3.376  -7.615  1.00  0.00     0.167 HD
ATOM     64  C   UNL     1       3.481   4.107 -10.361  1.00  0.00     0.074 A 
ATOM     65  C   UNL     1       3.135   4.840 -11.565  1.00  0.00     0.031 C 
ATOM     66  C   UNL     1       4.306   3.033 -10.330  1.00  0.00     0.037 A 
BRANCH  53  67
ATOM     67  C   UNL     1       5.253   0.677  -4.692  1.00  0.00     0.057 A 
ATOM     68  C   UNL     1       4.531  -0.364  -4.097  1.00  0.00     0.134 A 
ATOM     69  C   UNL     1       6.641   0.695  -4.497  1.00  0.00     0.134 A 
ATOM     70  F   UNL     1       3.198  -0.430  -4.231  1.00  0.00    -0.206 F 
ATOM     71  C   UNL     1       5.163  -1.344  -3.327  1.00  0.00     0.040 A 
ATOM     72  C   UNL     1       7.286  -0.288  -3.744  1.00  0.00     0.040 A 
ATOM     73  F   UNL     1       7.392   1.664  -5.040  1.00  0.00    -0.206 F 
ATOM     74  C   UNL     1       6.545  -1.310  -3.154  1.00  0.00     0.006 A 
ENDBRANCH  53  67
BRANCH  54  75
ATOM     75  C   UNL     1       0.594   7.801  -9.944  1.00  0.00     0.057 A 
ATOM     76  C   UNL     1      -0.536   7.512 -10.713  1.00  0.00     0.134 A 
ATOM     77  C   UNL     1       1.006   9.138  -9.869  1.00  0.00     0.134 A 
ATOM     78  F   UNL     1      -0.968   6.247 -10.830  1.00  0.00    -0.206 F 
ATOM     79  C   UNL     1      -1.239   8.517 -11.379  1.00  0.00     0.040 A 
ATOM     80  C   UNL     1       0.301  10.155 -10.512  1.00  0.00     0.040 A 
ATOM     81  F   UNL     1       2.078   9.476  -9.137  1.00  0.00    -0.206 F 
ATOM     82  C   UNL     1      -0.826   9.844 -11.270  1.00  0.00     0.006 A 
ENDBRANCH  54  75
BRANCH  66  83
ATOM     83  C   UNL     1       4.876   2.592 -11.641  1.00  0.00     0.057 A 
ATOM     84  C   UNL     1       5.944   3.273 -12.238  1.00  0.00     0.134 A 
ATOM     85  C   UNL     1       4.360   1.474 -12.306  1.00  0.00     0.134 A 
ATOM     86  F   UNL     1       6.466   4.363 -11.655  1.00  0.00    -0.206 F 
ATOM     87  C   UNL     1       6.470   2.864 -13.463  1.00  0.00     0.040 A 
ATOM     88  C   UNL     1       4.889   1.046 -13.523  1.00  0.00     0.040 A 
ATOM     89  F   UNL     1       3.338   0.782 -11.781  1.00  0.00    -0.206 F 
ATOM     90  C   UNL     1       5.944   1.745 -14.107  1.00  0.00     0.006 A 
ENDBRANCH  66  83
ENDBRANCH  40  41
ENDBRANCH  33  35
ENDBRANCH  32  33
ENDBRANCH  31  32
ENDBRANCH   1  31
TORSDOF 17
