REMARK SMILES O=C(OCCOC(=O)c1ccc(-c2c3nc(c(-c4c(F)cccc4F)c4ccc([nH]4)c(-c4c(F)cccc4F)c4nc(c(-c5c(F)cccc5F)c5ccc2[nH]5)C=C4)C=C3)cc1)C1=Cc2cc(Cl)ccc2O[C@@H]1C(F)(F)F
REMARK SMILES IDX 5 1 4 2 3 3 2 4 1 5 63 6 64 7 73 8 65 9 72 10 66 11 71 12
REMARK SMILES IDX 67 13 70 14 68 15 69 16 74 17 75 18 76 19 77 20 6 21 7 22
REMARK SMILES IDX 8 23 9 24 10 25 62 26 11 27 61 28 12 29 13 30 14 31 55 32
REMARK SMILES IDX 15 33 60 34 54 35 56 36 16 37 59 38 53 39 52 40 17 42 43 43
REMARK SMILES IDX 26 44 42 45 27 46 30 47 41 48 57 49 28 50 29 51 40 53 58 54
REMARK SMILES IDX 31 55 18 56 19 57 24 58 20 59 21 60 23 61 25 62 22 63 44 64
REMARK SMILES IDX 45 65 50 66 46 67 47 68 49 69 51 70 48 71 32 72 33 73 38 74
REMARK SMILES IDX 34 75 35 76 37 77 39 78 36 79
REMARK H PARENT 56 41 30 52
REMARK Flexibility Score: inf
ROOT
ATOM      1  C   UNL     1       4.758  -0.771  -0.027  1.00  0.00     0.275 C 
ENDROOT
BRANCH   1   2
ATOM      2  C   UNL     1       3.821   1.192  -0.264  1.00  0.00     0.275 C 
BRANCH   2   3
ATOM      3  O   UNL     1       2.804   1.596  -1.300  1.00  0.00    -0.459 OA
BRANCH   3   4
ATOM      4  C   UNL     1       3.030   0.999  -2.472  1.00  0.00     0.338 C 
ATOM      5  O   UNL     1       2.299   0.957  -3.432  1.00  0.00    -0.246 OA
BRANCH   4   6
ATOM      6  C   UNL     1       4.057   0.055  -2.027  1.00  0.00     0.087 C 
ATOM      7  C   UNL     1       5.371   0.594  -1.815  1.00  0.00     0.027 C 
ATOM      8  C   UNL     1       2.901  -0.593  -0.652  1.00  0.00     0.316 C 
ATOM      9  C   UNL     1       6.063   0.959  -0.231  1.00  0.00     0.019 A 
ATOM     10  O   UNL     1       3.537  -0.046   1.118  1.00  0.00    -0.475 OA
ATOM     11  C   UNL     1       7.320   1.481  -0.211  1.00  0.00     0.032 A 
ATOM     12  C   UNL     1       5.165   0.817   1.242  1.00  0.00     0.128 A 
ATOM     13  C   UNL     1       7.731   1.924   1.048  1.00  0.00     0.041 A 
ATOM     14  C   UNL     1       5.638   1.279   2.433  1.00  0.00     0.048 A 
ATOM     15  Cl  UNL     1       9.313   2.633   1.119  1.00  0.00    -0.084 Cl
ATOM     16  C   UNL     1       6.937   1.854   2.280  1.00  0.00     0.024 A 
BRANCH   8  17
ATOM     17  C   UNL     1       2.920  -2.022  -1.545  1.00  0.00     0.430 C 
ATOM     18  F   UNL     1       1.786  -2.697  -1.446  1.00  0.00    -0.167 F 
ATOM     19  F   UNL     1       2.936  -1.748  -2.892  1.00  0.00    -0.167 F 
ATOM     20  F   UNL     1       3.973  -2.860  -1.407  1.00  0.00    -0.167 F 
ENDBRANCH   8  17
ENDBRANCH   4   6
ENDBRANCH   3   4
ENDBRANCH   2   3
ENDBRANCH   1   2
BRANCH   1  21
ATOM     21  O   UNL     1       3.895  -2.137   0.715  1.00  0.00    -0.458 OA
BRANCH  21  22
ATOM     22  C   UNL     1       2.809  -2.416   1.544  1.00  0.00     0.338 C 
ATOM     23  O   UNL     1       2.186  -1.679   2.289  1.00  0.00    -0.246 OA
BRANCH  22  24
ATOM     24  C   UNL     1       2.201  -3.690   1.051  1.00  0.00     0.060 A 
ATOM     25  C   UNL     1       0.904  -3.669   0.482  1.00  0.00     0.016 A 
ATOM     26  C   UNL     1       3.058  -4.751   0.790  1.00  0.00     0.016 A 
ATOM     27  C   UNL     1       0.591  -4.572  -0.560  1.00  0.00     0.010 A 
ATOM     28  C   UNL     1       2.747  -5.633  -0.241  1.00  0.00     0.010 A 
ATOM     29  C   UNL     1       1.555  -5.502  -0.984  1.00  0.00    -0.014 A 
BRANCH  29  30
ATOM     30  C   UNL     1       1.240  -6.592  -1.943  1.00  0.00     0.031 A 
ATOM     31  C   UNL     1       0.742  -7.834  -1.275  1.00  0.00     0.074 A 
ATOM     32  C   UNL     1       1.521  -6.585  -3.264  1.00  0.00     0.049 A 
ATOM     33  N   UNL     1       0.636  -9.050  -1.730  1.00  0.00    -0.248 NA
ATOM     34  C   UNL     1       0.406  -7.682   0.153  1.00  0.00     0.031 C 
ATOM     35  C   UNL     1       2.020  -5.452  -4.043  1.00  0.00     0.029 A 
ATOM     36  N   UNL     1       1.446  -7.607  -4.188  1.00  0.00    -0.354 N 
ATOM     37  C   UNL     1       0.262  -9.803  -0.629  1.00  0.00     0.074 A 
ATOM     38  C   UNL     1       0.270  -8.937   0.523  1.00  0.00     0.031 C 
ATOM     39  C   UNL     1       2.207  -5.844  -5.322  1.00  0.00     0.029 A 
ATOM     40  C   UNL     1       1.882  -7.265  -5.450  1.00  0.00     0.049 A 
ATOM     41  H   UNL     1       1.110  -8.505  -3.965  1.00  0.00     0.167 HD
ATOM     42  C   UNL     1      -0.095 -11.101  -0.576  1.00  0.00     0.037 A 
ATOM     43  C   UNL     1       2.011  -8.024  -6.563  1.00  0.00     0.037 A 
ATOM     44  C   UNL     1      -0.085 -11.958  -1.720  1.00  0.00     0.049 A 
ATOM     45  C   UNL     1       1.653  -9.496  -6.489  1.00  0.00     0.074 A 
ATOM     46  C   UNL     1      -0.440 -13.288  -1.801  1.00  0.00     0.029 A 
ATOM     47  N   UNL     1       0.322 -11.560  -2.986  1.00  0.00    -0.354 N 
ATOM     48  N   UNL     1       1.238 -10.197  -5.458  1.00  0.00    -0.248 NA
ATOM     49  C   UNL     1       1.781 -10.286  -7.726  1.00  0.00     0.031 C 
ATOM     50  C   UNL     1      -0.182 -13.716  -3.104  1.00  0.00     0.029 A 
ATOM     51  C   UNL     1       0.248 -12.630  -3.855  1.00  0.00     0.049 A 
ATOM     52  H   UNL     1       0.618 -10.653  -3.228  1.00  0.00     0.167 HD
ATOM     53  C   UNL     1       1.011 -11.487  -5.930  1.00  0.00     0.074 A 
ATOM     54  C   UNL     1       1.342 -11.477  -7.339  1.00  0.00     0.031 C 
ATOM     55  C   UNL     1       0.558 -12.579  -5.263  1.00  0.00     0.037 A 
BRANCH  42  56
ATOM     56  C   UNL     1      -0.469 -11.625   0.776  1.00  0.00     0.057 A 
ATOM     57  C   UNL     1      -1.576 -11.130   1.485  1.00  0.00     0.134 A 
ATOM     58  C   UNL     1       0.362 -12.539   1.431  1.00  0.00     0.134 A 
ATOM     59  F   UNL     1      -2.388 -10.217   0.929  1.00  0.00    -0.206 F 
ATOM     60  C   UNL     1      -1.798 -11.469   2.819  1.00  0.00     0.040 A 
ATOM     61  C   UNL     1       0.121 -12.923   2.749  1.00  0.00     0.040 A 
ATOM     62  F   UNL     1       1.443 -13.042   0.816  1.00  0.00    -0.206 F 
ATOM     63  C   UNL     1      -0.948 -12.370   3.454  1.00  0.00     0.006 A 
ENDBRANCH  42  56
BRANCH  43  64
ATOM     64  C   UNL     1       2.486  -7.436  -7.852  1.00  0.00     0.057 A 
ATOM     65  C   UNL     1       1.635  -7.328  -8.963  1.00  0.00     0.134 A 
ATOM     66  C   UNL     1       3.807  -7.006  -8.029  1.00  0.00     0.134 A 
ATOM     67  F   UNL     1       0.366  -7.757  -8.883  1.00  0.00    -0.206 F 
ATOM     68  C   UNL     1       2.078  -6.829 -10.193  1.00  0.00     0.040 A 
ATOM     69  C   UNL     1       4.258  -6.481  -9.246  1.00  0.00     0.040 A 
ATOM     70  F   UNL     1       4.687  -7.093  -7.021  1.00  0.00    -0.206 F 
ATOM     71  C   UNL     1       3.393  -6.396 -10.334  1.00  0.00     0.006 A 
ENDBRANCH  43  64
BRANCH  55  72
ATOM     72  C   UNL     1       0.311 -13.839  -6.041  1.00  0.00     0.057 A 
ATOM     73  C   UNL     1       1.351 -14.642  -6.519  1.00  0.00     0.134 A 
ATOM     74  C   UNL     1      -1.000 -14.317  -6.190  1.00  0.00     0.134 A 
ATOM     75  F   UNL     1       2.627 -14.243  -6.410  1.00  0.00    -0.206 F 
ATOM     76  C   UNL     1       1.096 -15.876  -7.123  1.00  0.00     0.040 A 
ATOM     77  C   UNL     1      -1.264 -15.561  -6.759  1.00  0.00     0.040 A 
ATOM     78  F   UNL     1      -2.041 -13.603  -5.734  1.00  0.00    -0.206 F 
ATOM     79  C   UNL     1      -0.213 -16.344  -7.230  1.00  0.00     0.006 A 
ENDBRANCH  55  72
ENDBRANCH  29  30
ENDBRANCH  22  24
ENDBRANCH  21  22
ENDBRANCH   1  21
TORSDOF 12
