REMARK SMILES COC(=O)c1c(NC(=O)[C@@H]2[C@H]3CC[C@H](CC3)[C@H]2C(=O)OCCOC(=O)c2ccc(-c3c4nc(c(-c5c(F)cccc5F)c5ccc([nH]5)c(-c5c(F)cccc5F)c5nc(c(-c6c(F)cccc6F)c6ccc3[nH]6)C=C5)C=C4)cc2)sc(C)c1-c1ccc(C)cc1
REMARK SMILES IDX 21 1 20 2 18 3 19 4 17 5 10 6 11 7 12 8 16 9 14 10 13 11
REMARK SMILES IDX 15 12 8 13 7 14 9 16 6 17 5 18 83 19 80 20 81 21 82 22 3 23
REMARK SMILES IDX 4 24 2 25 1 26 84 27 85 28 90 29 86 30 89 31 87 32 88 33
REMARK SMILES IDX 22 34 23 35 24 36 25 37 26 38 27 39 79 40 28 41 78 42 29 43
REMARK SMILES IDX 30 44 31 45 72 46 32 47 77 48 71 49 73 50 33 51 76 52 70 53
REMARK SMILES IDX 69 54 34 56 60 57 43 58 59 59 44 60 47 61 58 62 74 63 45 64
REMARK SMILES IDX 46 65 57 67 75 68 48 69 35 70 36 71 41 72 37 73 38 74 40 75
REMARK SMILES IDX 42 76 39 77 61 78 62 79 67 80 63 81 64 82 66 83 68 84 65 85
REMARK SMILES IDX 49 86 50 87 55 88 51 89 52 90 54 91 56 92 53 93
REMARK H PARENT 7 15 73 55 47 66
REMARK Flexibility Score: inf
ROOT
ATOM      1  C   UNL     1       5.421   2.835   5.731  1.00  0.00     0.274 C 
ENDROOT
BRANCH   1   2
ATOM      2  O   UNL     1       4.854   1.816   6.583  1.00  0.00    -0.462 OA
BRANCH   2   3
ATOM      3  C   UNL     1       3.911   2.258   7.454  1.00  0.00     0.310 C 
ATOM      4  O   UNL     1       3.690   3.447   7.677  1.00  0.00    -0.252 OA
BRANCH   3   5
ATOM      5  C   UNL     1       3.137   1.156   8.166  1.00  0.00     0.115 C 
ATOM      6  C   UNL     1       3.032  -0.267   7.505  1.00  0.00     0.096 C 
ATOM      7  C   UNL     1       3.552  -1.281   8.592  1.00  0.00     0.002 C 
ATOM      8  C   UNL     1       5.025  -0.926   8.900  1.00  0.00     0.005 C 
ATOM      9  C   UNL     1       2.802  -1.181   9.952  1.00  0.00     0.005 C 
ATOM     10  C   UNL     1       3.720   1.107   9.600  1.00  0.00     0.004 C 
ATOM     11  C   UNL     1       5.108   0.449   9.577  1.00  0.00     0.005 C 
ATOM     12  C   UNL     1       2.779   0.262  10.460  1.00  0.00     0.005 C 
BRANCH   6  13
ATOM     13  C   UNL     1       1.569  -0.624   7.092  1.00  0.00     0.229 C 
ATOM     14  N   UNL     1       1.014  -0.782   5.852  1.00  0.00    -0.317 N 
ATOM     15  H   UNL     1       0.078  -1.077   5.918  1.00  0.00     0.170 HD
ATOM     16  O   UNL     1       0.725  -0.735   8.002  1.00  0.00    -0.274 OA
BRANCH  14  17
ATOM     17  C   UNL     1       1.402  -0.642   4.524  1.00  0.00     0.111 A 
ATOM     18  C   UNL     1       0.561  -0.445   3.420  1.00  0.00     0.102 A 
ATOM     19  C   UNL     1       1.313   0.079   2.279  1.00  0.00     0.012 A 
ATOM     20  S   UNL     1       3.014  -0.781   4.018  1.00  0.00    -0.122 S 
ATOM     21  C   UNL     1       2.678   0.034   2.537  1.00  0.00     0.012 A 
ATOM     22  C   UNL     1       3.810   0.611   1.747  1.00  0.00     0.057 C 
BRANCH  18  23
ATOM     23  C   UNL     1      -0.891  -0.629   3.473  1.00  0.00     0.341 C 
ATOM     24  O   UNL     1      -1.514  -0.775   4.517  1.00  0.00    -0.246 OA
BRANCH  23  25
ATOM     25  O   UNL     1      -1.454  -0.652   2.233  1.00  0.00    -0.465 OA
ATOM     26  C   UNL     1      -2.869  -0.807   2.122  1.00  0.00     0.282 C 
ENDBRANCH  23  25
ENDBRANCH  18  23
BRANCH  19  27
ATOM     27  C   UNL     1       0.792   0.719   1.049  1.00  0.00    -0.016 A 
ATOM     28  C   UNL     1      -0.131   1.773   1.118  1.00  0.00     0.009 A 
ATOM     29  C   UNL     1       1.221   0.318  -0.220  1.00  0.00     0.009 A 
ATOM     30  C   UNL     1      -0.567   2.445  -0.033  1.00  0.00     0.004 A 
ATOM     31  C   UNL     1       0.793   0.990  -1.376  1.00  0.00     0.004 A 
ATOM     32  C   UNL     1      -0.092   2.069  -1.292  1.00  0.00    -0.051 A 
ATOM     33  C   UNL     1      -0.547   2.801  -2.522  1.00  0.00     0.044 C 
ENDBRANCH  19  27
ENDBRANCH  14  17
ENDBRANCH   6  13
ENDBRANCH   3   5
ENDBRANCH   2   3
ENDBRANCH   1   2
BRANCH   1  34
ATOM     34  C   UNL     1       4.637   3.018   4.416  1.00  0.00     0.275 C 
BRANCH  34  35
ATOM     35  O   UNL     1       3.352   3.684   4.530  1.00  0.00    -0.458 OA
BRANCH  35  36
ATOM     36  C   UNL     1       2.385   2.866   4.988  1.00  0.00     0.338 C 
ATOM     37  O   UNL     1       2.565   1.718   5.353  1.00  0.00    -0.246 OA
BRANCH  36  38
ATOM     38  C   UNL     1       1.020   3.359   5.109  1.00  0.00     0.060 A 
ATOM     39  C   UNL     1       0.364   3.050   6.309  1.00  0.00     0.016 A 
ATOM     40  C   UNL     1       0.301   3.774   3.997  1.00  0.00     0.016 A 
ATOM     41  C   UNL     1      -1.016   3.102   6.399  1.00  0.00     0.010 A 
ATOM     42  C   UNL     1      -1.091   3.873   4.097  1.00  0.00     0.010 A 
ATOM     43  C   UNL     1      -1.750   3.536   5.294  1.00  0.00    -0.014 A 
BRANCH  43  44
ATOM     44  C   UNL     1      -3.167   3.892   5.487  1.00  0.00     0.031 A 
ATOM     45  C   UNL     1      -4.294   3.037   5.010  1.00  0.00     0.074 A 
ATOM     46  C   UNL     1      -3.388   5.072   6.091  1.00  0.00     0.049 A 
ATOM     47  N   UNL     1      -5.577   3.292   5.003  1.00  0.00    -0.248 NA
ATOM     48  C   UNL     1      -3.939   1.726   4.458  1.00  0.00     0.031 C 
ATOM     49  C   UNL     1      -2.338   5.960   6.603  1.00  0.00     0.029 A 
ATOM     50  N   UNL     1      -4.550   5.739   6.348  1.00  0.00    -0.354 N 
ATOM     51  C   UNL     1      -6.183   2.184   4.425  1.00  0.00     0.074 A 
ATOM     52  C   UNL     1      -5.126   1.254   4.094  1.00  0.00     0.031 C 
ATOM     53  C   UNL     1      -2.904   7.072   7.084  1.00  0.00     0.029 A 
ATOM     54  C   UNL     1      -4.341   6.988   6.871  1.00  0.00     0.049 A 
ATOM     55  H   UNL     1      -5.443   5.362   6.176  1.00  0.00     0.167 HD
ATOM     56  C   UNL     1      -7.502   1.980   4.191  1.00  0.00     0.037 A 
ATOM     57  C   UNL     1      -5.215   7.977   7.111  1.00  0.00     0.037 A 
ATOM     58  C   UNL     1      -8.530   2.922   4.560  1.00  0.00     0.049 A 
ATOM     59  C   UNL     1      -6.665   7.726   6.841  1.00  0.00     0.074 A 
ATOM     60  C   UNL     1      -9.902   2.799   4.432  1.00  0.00     0.029 A 
ATOM     61  N   UNL     1      -8.291   4.166   5.128  1.00  0.00    -0.354 N 
ATOM     62  N   UNL     1      -7.236   6.660   6.333  1.00  0.00    -0.248 NA
ATOM     63  C   UNL     1      -7.593   8.804   7.191  1.00  0.00     0.031 C 
ATOM     64  C   UNL     1     -10.488   3.994   4.863  1.00  0.00     0.029 A 
ATOM     65  C   UNL     1      -9.487   4.836   5.320  1.00  0.00     0.049 A 
ATOM     66  H   UNL     1      -7.402   4.519   5.360  1.00  0.00     0.167 HD
ATOM     67  C   UNL     1      -8.596   6.927   6.329  1.00  0.00     0.074 A 
ATOM     68  C   UNL     1      -8.761   8.249   6.901  1.00  0.00     0.031 C 
ATOM     69  C   UNL     1      -9.618   6.152   5.892  1.00  0.00     0.037 A 
BRANCH  56  70
ATOM     70  C   UNL     1      -7.923   0.724   3.477  1.00  0.00     0.057 A 
ATOM     71  C   UNL     1      -7.877  -0.537   4.084  1.00  0.00     0.134 A 
ATOM     72  C   UNL     1      -8.469   0.794   2.187  1.00  0.00     0.134 A 
ATOM     73  F   UNL     1      -7.364  -0.681   5.314  1.00  0.00    -0.206 F 
ATOM     74  C   UNL     1      -8.348  -1.681   3.432  1.00  0.00     0.040 A 
ATOM     75  C   UNL     1      -8.966  -0.337   1.536  1.00  0.00     0.040 A 
ATOM     76  F   UNL     1      -8.551   1.970   1.546  1.00  0.00    -0.206 F 
ATOM     77  C   UNL     1      -8.905  -1.581   2.158  1.00  0.00     0.006 A 
ENDBRANCH  56  70
BRANCH  57  78
ATOM     78  C   UNL     1      -4.720   9.273   7.627  1.00  0.00     0.057 A 
ATOM     79  C   UNL     1      -4.988   9.677   8.937  1.00  0.00     0.134 A 
ATOM     80  C   UNL     1      -3.927  10.115   6.835  1.00  0.00     0.134 A 
ATOM     81  F   UNL     1      -5.739   8.909   9.740  1.00  0.00    -0.206 F 
ATOM     82  C   UNL     1      -4.508  10.888   9.437  1.00  0.00     0.040 A 
ATOM     83  C   UNL     1      -3.416  11.313   7.332  1.00  0.00     0.040 A 
ATOM     84  F   UNL     1      -3.612   9.768   5.579  1.00  0.00    -0.206 F 
ATOM     85  C   UNL     1      -3.715  11.707   8.634  1.00  0.00     0.006 A 
ENDBRANCH  57  78
BRANCH  69  86
ATOM     86  C   UNL     1     -11.000   6.710   6.050  1.00  0.00     0.057 A 
ATOM     87  C   UNL     1     -11.461   7.773   5.263  1.00  0.00     0.134 A 
ATOM     88  C   UNL     1     -11.883   6.165   6.990  1.00  0.00     0.134 A 
ATOM     89  F   UNL     1     -10.656   8.348   4.357  1.00  0.00    -0.206 F 
ATOM     90  C   UNL     1     -12.744   8.294   5.427  1.00  0.00     0.040 A 
ATOM     91  C   UNL     1     -13.179   6.657   7.140  1.00  0.00     0.040 A 
ATOM     92  F   UNL     1     -11.504   5.140   7.768  1.00  0.00    -0.206 F 
ATOM     93  C   UNL     1     -13.609   7.731   6.363  1.00  0.00     0.006 A 
ENDBRANCH  69  86
ENDBRANCH  43  44
ENDBRANCH  36  38
ENDBRANCH  35  36
ENDBRANCH  34  35
ENDBRANCH   1  34
TORSDOF 16
