REMARK SMILES CSCC[C@H](NC(=O)Cc1c(C)c2ccc(O)cc2oc1=O)C(=O)OCCOC(=O)c1ccc(-c2c3nc(c(-c4c(F)cccc4F)c4ccc([nH]4)c(-c4c(F)cccc4F)c4nc(c(-c5c(F)cccc5F)c5ccc2[nH]5)C=C4)C=C3)cc1
REMARK SMILES IDX 26 1 25 2 23 3 24 4 5 5 4 6 3 7 2 8 1 9 6 10 7 11 8 13 9 14
REMARK SMILES IDX 10 15 11 16 21 17 12 18 13 19 20 20 22 21 14 22 19 23 15 24
REMARK SMILES IDX 18 25 16 26 17 27 27 29 28 30 29 31 30 32 31 33 32 34 84 35
REMARK SMILES IDX 33 36 83 37 34 38 35 39 36 40 77 41 37 42 82 43 76 44 78 45
REMARK SMILES IDX 38 46 81 47 75 48 74 49 39 51 65 52 48 53 64 54 49 55 52 56
REMARK SMILES IDX 63 57 79 58 50 59 51 60 62 62 80 63 53 64 40 65 41 66 46 67
REMARK SMILES IDX 42 68 43 69 45 70 47 71 44 72 66 73 67 74 72 75 68 76 69 77
REMARK SMILES IDX 71 78 73 79 70 80 54 81 55 82 60 83 56 84 57 85 59 86 61 87
REMARK SMILES IDX 58 88
REMARK H PARENT 6 12 17 28 78 50 52 61
REMARK Flexibility Score: inf
ROOT
ATOM      1  C   UNL     1      -0.410  -1.669   5.425  1.00  0.00     0.274 C 
ENDROOT
BRANCH   1   2
ATOM      2  O   UNL     1       0.313  -0.569   4.851  1.00  0.00    -0.461 OA
BRANCH   2   3
ATOM      3  C   UNL     1       1.173  -0.839   3.847  1.00  0.00     0.328 C 
ATOM      4  O   UNL     1       1.596  -1.956   3.573  1.00  0.00    -0.250 OA
BRANCH   3   5
ATOM      5  C   UNL     1       1.441   0.413   2.993  1.00  0.00     0.193 C 
BRANCH   5   6
ATOM      6  C   UNL     1       2.888   0.495   2.501  1.00  0.00     0.048 C 
BRANCH   6   7
ATOM      7  C   UNL     1       3.111  -0.288   1.194  1.00  0.00     0.072 C 
BRANCH   7   8
ATOM      8  S   UNL     1       2.806   0.692  -0.324  1.00  0.00    -0.165 SA
ATOM      9  C   UNL     1       1.015   0.511  -0.520  1.00  0.00     0.085 C 
ENDBRANCH   7   8
ENDBRANCH   6   7
ENDBRANCH   5   6
BRANCH   5  10
ATOM     10  N   UNL     1       0.875   1.694   3.432  1.00  0.00    -0.342 N 
ATOM     11  C   UNL     1       1.143   2.587   4.414  1.00  0.00     0.225 C 
ATOM     12  H   UNL     1       0.114   1.974   2.874  1.00  0.00     0.164 HD
ATOM     13  O   UNL     1       0.587   3.685   4.333  1.00  0.00    -0.275 OA
BRANCH  11  14
ATOM     14  C   UNL     1       2.132   2.292   5.536  1.00  0.00     0.143 C 
BRANCH  14  15
ATOM     15  C   UNL     1       1.624   1.399   6.654  1.00  0.00     0.051 A 
ATOM     16  C   UNL     1       2.349   0.375   7.166  1.00  0.00    -0.029 A 
ATOM     17  C   UNL     1       0.268   1.712   7.190  1.00  0.00     0.340 A 
ATOM     18  C   UNL     1       3.789   0.162   6.785  1.00  0.00     0.046 C 
ATOM     19  C   UNL     1       1.687  -0.610   8.046  1.00  0.00     0.021 A 
ATOM     20  O   UNL     1      -0.266   0.835   8.124  1.00  0.00    -0.422 OA
ATOM     21  O   UNL     1      -0.354   2.715   6.869  1.00  0.00    -0.246 OA
ATOM     22  C   UNL     1       2.228  -1.868   8.355  1.00  0.00     0.016 A 
ATOM     23  C   UNL     1       0.378  -0.365   8.456  1.00  0.00     0.142 A 
ATOM     24  C   UNL     1       1.450  -2.861   8.969  1.00  0.00     0.047 A 
ATOM     25  C   UNL     1      -0.406  -1.331   9.092  1.00  0.00     0.094 A 
ATOM     26  C   UNL     1       0.128  -2.593   9.300  1.00  0.00     0.119 A 
BRANCH  26  27
ATOM     27  O   UNL     1      -0.697  -3.567   9.777  1.00  0.00    -0.508 OA
ATOM     28  H   UNL     1      -0.364  -4.430   9.927  1.00  0.00     0.293 HD
ENDBRANCH  26  27
ENDBRANCH  14  15
ENDBRANCH  11  14
ENDBRANCH   5  10
ENDBRANCH   3   5
ENDBRANCH   2   3
ENDBRANCH   1   2
BRANCH   1  29
ATOM     29  C   UNL     1      -1.776  -1.119   5.852  1.00  0.00     0.275 C 
BRANCH  29  30
ATOM     30  O   UNL     1      -2.703  -1.274   4.772  1.00  0.00    -0.458 OA
BRANCH  30  31
ATOM     31  C   UNL     1      -2.441  -0.528   3.673  1.00  0.00     0.338 C 
ATOM     32  O   UNL     1      -1.822   0.509   3.574  1.00  0.00    -0.246 OA
BRANCH  31  33
ATOM     33  C   UNL     1      -2.743  -1.405   2.540  1.00  0.00     0.060 A 
ATOM     34  C   UNL     1      -1.768  -1.555   1.546  1.00  0.00     0.016 A 
ATOM     35  C   UNL     1      -3.928  -2.135   2.519  1.00  0.00     0.016 A 
ATOM     36  C   UNL     1      -1.994  -2.413   0.485  1.00  0.00     0.010 A 
ATOM     37  C   UNL     1      -4.145  -3.012   1.475  1.00  0.00     0.010 A 
ATOM     38  C   UNL     1      -3.195  -3.121   0.444  1.00  0.00    -0.014 A 
BRANCH  38  39
ATOM     39  C   UNL     1      -3.584  -3.873  -0.753  1.00  0.00     0.031 A 
ATOM     40  C   UNL     1      -4.682  -3.295  -1.587  1.00  0.00     0.074 A 
ATOM     41  C   UNL     1      -3.034  -5.071  -0.995  1.00  0.00     0.049 A 
ATOM     42  N   UNL     1      -5.421  -3.867  -2.493  1.00  0.00    -0.248 NA
ATOM     43  C   UNL     1      -5.023  -1.883  -1.324  1.00  0.00     0.031 C 
ATOM     44  C   UNL     1      -1.930  -5.666  -0.240  1.00  0.00     0.029 A 
ATOM     45  N   UNL     1      -3.365  -6.021  -1.919  1.00  0.00    -0.354 N 
ATOM     46  C   UNL     1      -6.342  -2.902  -2.878  1.00  0.00     0.074 A 
ATOM     47  C   UNL     1      -6.091  -1.719  -2.088  1.00  0.00     0.031 C 
ATOM     48  C   UNL     1      -1.693  -6.899  -0.717  1.00  0.00     0.029 A 
ATOM     49  C   UNL     1      -2.670  -7.193  -1.760  1.00  0.00     0.049 A 
ATOM     50  H   UNL     1      -4.034  -5.879  -2.627  1.00  0.00     0.167 HD
ATOM     51  C   UNL     1      -7.311  -3.013  -3.813  1.00  0.00     0.037 A 
ATOM     52  C   UNL     1      -2.853  -8.381  -2.363  1.00  0.00     0.037 A 
ATOM     53  C   UNL     1      -7.517  -4.214  -4.574  1.00  0.00     0.049 A 
ATOM     54  C   UNL     1      -3.968  -8.495  -3.367  1.00  0.00     0.074 A 
ATOM     55  C   UNL     1      -8.446  -4.465  -5.563  1.00  0.00     0.029 A 
ATOM     56  N   UNL     1      -6.766  -5.374  -4.417  1.00  0.00    -0.354 N 
ATOM     57  N   UNL     1      -4.842  -7.587  -3.738  1.00  0.00    -0.248 NA
ATOM     58  C   UNL     1      -4.130  -9.793  -4.032  1.00  0.00     0.031 C 
ATOM     59  C   UNL     1      -8.289  -5.792  -5.972  1.00  0.00     0.029 A 
ATOM     60  C   UNL     1      -7.219  -6.349  -5.283  1.00  0.00     0.049 A 
ATOM     61  H   UNL     1      -6.022  -5.484  -3.782  1.00  0.00     0.167 HD
ATOM     62  C   UNL     1      -5.628  -8.187  -4.711  1.00  0.00     0.074 A 
ATOM     63  C   UNL     1      -5.128  -9.540  -4.868  1.00  0.00     0.031 C 
ATOM     64  C   UNL     1      -6.664  -7.673  -5.420  1.00  0.00     0.037 A 
BRANCH  51  65
ATOM     65  C   UNL     1      -8.211  -1.832  -4.027  1.00  0.00     0.057 A 
ATOM     66  C   UNL     1      -7.745  -0.627  -4.571  1.00  0.00     0.134 A 
ATOM     67  C   UNL     1      -9.567  -1.897  -3.681  1.00  0.00     0.134 A 
ATOM     68  F   UNL     1      -6.452  -0.487  -4.903  1.00  0.00    -0.206 F 
ATOM     69  C   UNL     1      -8.585   0.476  -4.737  1.00  0.00     0.040 A 
ATOM     70  C   UNL     1     -10.424  -0.812  -3.872  1.00  0.00     0.040 A 
ATOM     71  F   UNL     1     -10.083  -3.017  -3.150  1.00  0.00    -0.206 F 
ATOM     72  C   UNL     1      -9.931   0.382  -4.393  1.00  0.00     0.006 A 
ENDBRANCH  51  65
BRANCH  52  73
ATOM     73  C   UNL     1      -1.975  -9.530  -2.032  1.00  0.00     0.057 A 
ATOM     74  C   UNL     1      -1.064 -10.028  -2.970  1.00  0.00     0.134 A 
ATOM     75  C   UNL     1      -2.003 -10.145  -0.774  1.00  0.00     0.134 A 
ATOM     76  F   UNL     1      -0.994  -9.487  -4.195  1.00  0.00    -0.206 F 
ATOM     77  C   UNL     1      -0.229 -11.108  -2.679  1.00  0.00     0.040 A 
ATOM     78  C   UNL     1      -1.154 -11.209  -0.460  1.00  0.00     0.040 A 
ATOM     79  F   UNL     1      -2.841  -9.707   0.177  1.00  0.00    -0.206 F 
ATOM     80  C   UNL     1      -0.269 -11.698  -1.417  1.00  0.00     0.006 A 
ENDBRANCH  52  73
BRANCH  64  81
ATOM     81  C   UNL     1      -7.270  -8.547  -6.475  1.00  0.00     0.057 A 
ATOM     82  C   UNL     1      -8.106  -9.623  -6.158  1.00  0.00     0.134 A 
ATOM     83  C   UNL     1      -7.083  -8.240  -7.829  1.00  0.00     0.134 A 
ATOM     84  F   UNL     1      -8.313  -9.971  -4.879  1.00  0.00    -0.206 F 
ATOM     85  C   UNL     1      -8.728 -10.373  -7.156  1.00  0.00     0.040 A 
ATOM     86  C   UNL     1      -7.723  -8.962  -8.833  1.00  0.00     0.040 A 
ATOM     87  F   UNL     1      -6.301  -7.211  -8.193  1.00  0.00    -0.206 F 
ATOM     88  C   UNL     1      -8.547 -10.034  -8.497  1.00  0.00     0.006 A 
ENDBRANCH  64  81
ENDBRANCH  38  39
ENDBRANCH  31  33
ENDBRANCH  30  31
ENDBRANCH  29  30
ENDBRANCH   1  29
TORSDOF 18
