REMARK SMILES O=C(OCCOC(=O)[C@@H]1CN(C(=O)C2CCCC2)C[C@H]1c1ccccc1)c1ccc(-c2c3nc(c(-c4c(F)cccc4F)c4ccc([nH]4)c(-c4c(F)cccc4F)c4nc(c(-c5c(F)cccc5F)c5ccc2[nH]5)C=C4)C=C3)cc1
REMARK SMILES IDX 4 1 3 2 2 3 1 4 27 5 28 6 80 7 29 8 79 9 30 10 31 11 32 12
REMARK SMILES IDX 73 13 33 14 78 15 72 16 74 17 34 18 77 19 71 20 70 21 35 23
REMARK SMILES IDX 61 24 44 25 60 26 45 27 48 28 59 29 75 30 46 31 47 32 58 34
REMARK SMILES IDX 76 35 49 36 36 37 37 38 42 39 38 40 39 41 41 42 43 43 40 44
REMARK SMILES IDX 62 45 63 46 68 47 64 48 65 49 67 50 69 51 66 52 50 53 51 54
REMARK SMILES IDX 56 55 52 56 53 57 55 58 57 59 54 60 5 61 6 62 7 63 8 64 9 65
REMARK SMILES IDX 10 66 20 67 11 68 19 69 21 70 22 71 26 72 23 73 25 74 24 75
REMARK SMILES IDX 12 76 13 77 14 78 15 79 18 80 16 81 17 82
REMARK H PARENT 74 22 48 33
REMARK Flexibility Score: inf
ROOT
ATOM      1  C   UNL     1       4.668  -1.031   1.554  1.00  0.00     0.275 C 
ENDROOT
BRANCH   1   2
ATOM      2  O   UNL     1       4.662   0.403   1.393  1.00  0.00    -0.458 OA
BRANCH   2   3
ATOM      3  C   UNL     1       4.244   1.033   0.274  1.00  0.00     0.338 C 
ATOM      4  O   UNL     1       3.412   1.932   0.334  1.00  0.00    -0.246 OA
BRANCH   3   5
ATOM      5  C   UNL     1       4.879   0.673  -1.029  1.00  0.00     0.060 A 
ATOM      6  C   UNL     1       5.989  -0.163  -1.176  1.00  0.00     0.016 A 
ATOM      7  C   UNL     1       4.299   1.208  -2.182  1.00  0.00     0.016 A 
ATOM      8  C   UNL     1       6.414  -0.578  -2.447  1.00  0.00     0.010 A 
ATOM      9  C   UNL     1       4.703   0.776  -3.447  1.00  0.00     0.010 A 
ATOM     10  C   UNL     1       5.750  -0.142  -3.598  1.00  0.00    -0.014 A 
BRANCH  10  11
ATOM     11  C   UNL     1       6.188  -0.552  -4.959  1.00  0.00     0.031 A 
ATOM     12  C   UNL     1       6.657   0.500  -5.927  1.00  0.00     0.074 A 
ATOM     13  C   UNL     1       6.118  -1.836  -5.368  1.00  0.00     0.049 A 
ATOM     14  N   UNL     1       7.048   0.370  -7.169  1.00  0.00    -0.248 NA
ATOM     15  C   UNL     1       6.647   1.891  -5.444  1.00  0.00     0.031 C 
ATOM     16  C   UNL     1       5.620  -2.961  -4.576  1.00  0.00     0.029 A 
ATOM     17  N   UNL     1       6.451  -2.406  -6.575  1.00  0.00    -0.354 N 
ATOM     18  C   UNL     1       7.336   1.656  -7.601  1.00  0.00     0.074 A 
ATOM     19  C   UNL     1       6.947   2.560  -6.543  1.00  0.00     0.031 C 
ATOM     20  C   UNL     1       5.667  -4.078  -5.324  1.00  0.00     0.029 A 
ATOM     21  C   UNL     1       6.185  -3.752  -6.647  1.00  0.00     0.049 A 
ATOM     22  H   UNL     1       6.844  -1.895  -7.319  1.00  0.00     0.167 HD
ATOM     23  C   UNL     1       7.955   2.057  -8.736  1.00  0.00     0.037 A 
ATOM     24  C   UNL     1       6.344  -4.628  -7.660  1.00  0.00     0.037 A 
ATOM     25  C   UNL     1       8.399   1.168  -9.769  1.00  0.00     0.049 A 
ATOM     26  C   UNL     1       6.988  -4.168  -8.938  1.00  0.00     0.074 A 
ATOM     27  C   UNL     1       9.138   1.456 -10.901  1.00  0.00     0.029 A 
ATOM     28  N   UNL     1       8.141  -0.194  -9.790  1.00  0.00    -0.354 N 
ATOM     29  N   UNL     1       7.395  -2.968  -9.271  1.00  0.00    -0.248 NA
ATOM     30  C   UNL     1       7.239  -5.194  -9.962  1.00  0.00     0.031 C 
ATOM     31  C   UNL     1       9.318   0.266 -11.617  1.00  0.00     0.029 A 
ATOM     32  C   UNL     1       8.705  -0.762 -10.919  1.00  0.00     0.049 A 
ATOM     33  H   UNL     1       7.633  -0.684  -9.104  1.00  0.00     0.167 HD
ATOM     34  C   UNL     1       8.005  -3.104 -10.510  1.00  0.00     0.074 A 
ATOM     35  C   UNL     1       7.895  -4.500 -10.882  1.00  0.00     0.031 C 
ATOM     36  C   UNL     1       8.623  -2.159 -11.258  1.00  0.00     0.037 A 
BRANCH  23  37
ATOM     37  C   UNL     1       8.242   3.523  -8.847  1.00  0.00     0.057 A 
ATOM     38  C   UNL     1       9.195   4.135  -8.018  1.00  0.00     0.134 A 
ATOM     39  C   UNL     1       7.523   4.340  -9.724  1.00  0.00     0.134 A 
ATOM     40  F   UNL     1       9.899   3.405  -7.138  1.00  0.00    -0.206 F 
ATOM     41  C   UNL     1       9.381   5.516  -8.016  1.00  0.00     0.040 A 
ATOM     42  C   UNL     1       7.723   5.722  -9.752  1.00  0.00     0.040 A 
ATOM     43  F   UNL     1       6.600   3.817 -10.543  1.00  0.00    -0.206 F 
ATOM     44  C   UNL     1       8.642   6.314  -8.886  1.00  0.00     0.006 A 
ENDBRANCH  23  37
BRANCH  24  45
ATOM     45  C   UNL     1       5.939  -6.047  -7.500  1.00  0.00     0.057 A 
ATOM     46  C   UNL     1       6.884  -7.052  -7.264  1.00  0.00     0.134 A 
ATOM     47  C   UNL     1       4.601  -6.437  -7.626  1.00  0.00     0.134 A 
ATOM     48  F   UNL     1       8.185  -6.744  -7.167  1.00  0.00    -0.206 F 
ATOM     49  C   UNL     1       6.514  -8.396  -7.170  1.00  0.00     0.040 A 
ATOM     50  C   UNL     1       4.215  -7.775  -7.513  1.00  0.00     0.040 A 
ATOM     51  F   UNL     1       3.654  -5.526  -7.882  1.00  0.00    -0.206 F 
ATOM     52  C   UNL     1       5.175  -8.760  -7.290  1.00  0.00     0.006 A 
ENDBRANCH  24  45
BRANCH  36  53
ATOM     53  C   UNL     1       9.307  -2.610 -12.511  1.00  0.00     0.057 A 
ATOM     54  C   UNL     1       8.596  -2.912 -13.677  1.00  0.00     0.134 A 
ATOM     55  C   UNL     1      10.705  -2.685 -12.562  1.00  0.00     0.134 A 
ATOM     56  F   UNL     1       7.255  -2.873 -13.686  1.00  0.00    -0.206 F 
ATOM     57  C   UNL     1       9.253  -3.282 -14.851  1.00  0.00     0.040 A 
ATOM     58  C   UNL     1      11.373  -3.034 -13.734  1.00  0.00     0.040 A 
ATOM     59  F   UNL     1      11.441  -2.404 -11.476  1.00  0.00    -0.206 F 
ATOM     60  C   UNL     1      10.646  -3.335 -14.884  1.00  0.00     0.006 A 
ENDBRANCH  36  53
ENDBRANCH  10  11
ENDBRANCH   3   5
ENDBRANCH   2   3
ENDBRANCH   1   2
BRANCH   1  61
ATOM     61  C   UNL     1       3.382  -1.765   1.174  1.00  0.00     0.274 C 
BRANCH  61  62
ATOM     62  O   UNL     1       3.057  -1.699  -0.232  1.00  0.00    -0.462 OA
BRANCH  62  63
ATOM     63  C   UNL     1       1.720  -1.795  -0.493  1.00  0.00     0.311 C 
ATOM     64  O   UNL     1       0.850  -1.781   0.374  1.00  0.00    -0.252 OA
BRANCH  63  65
ATOM     65  C   UNL     1       1.375  -2.058  -1.941  1.00  0.00     0.128 C 
ATOM     66  C   UNL     1       1.976  -3.400  -2.370  1.00  0.00     0.135 C 
ATOM     67  C   UNL     1       1.907  -1.103  -3.015  1.00  0.00     0.055 C 
ATOM     68  N   UNL     1       1.960  -3.354  -3.821  1.00  0.00    -0.341 N 
ATOM     69  C   UNL     1       1.843  -1.984  -4.274  1.00  0.00     0.128 C 
BRANCH  67  70
ATOM     70  C   UNL     1       1.264   0.261  -3.221  1.00  0.00    -0.042 A 
ATOM     71  C   UNL     1       1.281   0.868  -4.497  1.00  0.00     0.004 A 
ATOM     72  C   UNL     1       0.776   1.025  -2.153  1.00  0.00     0.004 A 
ATOM     73  C   UNL     1       0.832   2.176  -4.696  1.00  0.00     0.000 A 
ATOM     74  C   UNL     1       0.335   2.341  -2.353  1.00  0.00     0.000 A 
ATOM     75  C   UNL     1       0.364   2.916  -3.620  1.00  0.00     0.000 A 
ENDBRANCH  67  70
BRANCH  68  76
ATOM     76  C   UNL     1       1.969  -4.350  -4.764  1.00  0.00     0.225 C 
ATOM     77  O   UNL     1       1.919  -4.069  -5.966  1.00  0.00    -0.275 OA
BRANCH  76  78
ATOM     78  C   UNL     1       1.973  -5.816  -4.367  1.00  0.00     0.078 C 
ATOM     79  C   UNL     1       3.149  -6.295  -3.524  1.00  0.00     0.013 C 
ATOM     80  C   UNL     1       0.701  -6.256  -3.635  1.00  0.00     0.013 C 
ATOM     81  C   UNL     1       2.594  -7.507  -2.796  1.00  0.00     0.001 C 
ATOM     82  C   UNL     1       1.167  -7.108  -2.459  1.00  0.00     0.001 C 
ENDBRANCH  76  78
ENDBRANCH  68  76
ENDBRANCH  63  65
ENDBRANCH  62  63
ENDBRANCH  61  62
ENDBRANCH   1  61
TORSDOF 14
