REMARK SMILES O=C(OCCOC(=O)[C@H]1CCCN(C(=O)CCOc2ccc(F)cc2)C1)c1ccc(-c2c3nc(c(-c4c(F)cccc4F)c4ccc([nH]4)c(-c4c(F)cccc4F)c4nc(c(-c5c(F)cccc5F)c5ccc2[nH]5)C=C4)C=C3)cc1
REMARK SMILES IDX 6 1 5 2 4 3 3 4 2 5 1 6 27 7 28 8 80 9 29 10 79 11 30 12
REMARK SMILES IDX 31 13 32 14 73 15 33 16 78 17 72 18 74 19 34 20 77 21 71 22
REMARK SMILES IDX 70 23 35 25 61 26 44 27 60 28 45 29 48 30 59 31 75 32 46 33
REMARK SMILES IDX 47 34 58 36 76 37 49 38 36 39 37 40 42 41 38 42 39 43 41 44
REMARK SMILES IDX 43 45 40 46 62 47 63 48 68 49 64 50 65 51 67 52 69 53 66 54
REMARK SMILES IDX 50 55 51 56 56 57 52 58 53 59 55 60 57 61 54 62 7 63 8 64
REMARK SMILES IDX 9 65 10 66 26 67 11 68 13 69 12 70 14 71 15 72 16 73 17 74
REMARK SMILES IDX 18 75 19 76 20 77 25 78 21 79 24 80 22 81 23 82
REMARK H PARENT 74 24 48 35
REMARK Flexibility Score: inf
ROOT
ATOM      1  O   UNL     1       0.828   1.333   0.837  1.00  0.00    -0.462 OA
ENDROOT
BRANCH   1   2
ATOM      2  C   UNL     1      -0.312   0.830   1.613  1.00  0.00     0.274 C 
BRANCH   2   3
ATOM      3  C   UNL     1      -0.138   0.449   3.108  1.00  0.00     0.275 C 
BRANCH   3   4
ATOM      4  O   UNL     1       0.563   1.393   3.912  1.00  0.00    -0.458 OA
BRANCH   4   5
ATOM      5  C   UNL     1       1.899   1.480   4.074  1.00  0.00     0.338 C 
ATOM      6  O   UNL     1       2.342   2.272   4.904  1.00  0.00    -0.246 OA
BRANCH   5   7
ATOM      7  C   UNL     1       2.867   0.788   3.158  1.00  0.00     0.060 A 
ATOM      8  C   UNL     1       2.629  -0.275   2.276  1.00  0.00     0.016 A 
ATOM      9  C   UNL     1       4.114   1.399   3.087  1.00  0.00     0.016 A 
ATOM     10  C   UNL     1       3.519  -0.599   1.250  1.00  0.00     0.010 A 
ATOM     11  C   UNL     1       4.952   1.156   2.000  1.00  0.00     0.010 A 
ATOM     12  C   UNL     1       4.684   0.133   1.091  1.00  0.00    -0.014 A 
BRANCH  12  13
ATOM     13  C   UNL     1       5.755  -0.338   0.195  1.00  0.00     0.031 A 
ATOM     14  C   UNL     1       7.035  -0.744   0.866  1.00  0.00     0.074 A 
ATOM     15  C   UNL     1       5.586  -0.462  -1.137  1.00  0.00     0.049 A 
ATOM     16  N   UNL     1       8.112  -1.254   0.338  1.00  0.00    -0.248 NA
ATOM     17  C   UNL     1       7.140  -0.531   2.327  1.00  0.00     0.031 C 
ATOM     18  C   UNL     1       4.379  -0.105  -1.881  1.00  0.00     0.029 A 
ATOM     19  N   UNL     1       6.431  -0.938  -2.108  1.00  0.00    -0.354 N 
ATOM     20  C   UNL     1       8.968  -1.437   1.412  1.00  0.00     0.074 A 
ATOM     21  C   UNL     1       8.409  -0.782   2.557  1.00  0.00     0.031 C 
ATOM     22  C   UNL     1       4.563  -0.358  -3.189  1.00  0.00     0.029 A 
ATOM     23  C   UNL     1       5.886  -0.937  -3.373  1.00  0.00     0.049 A 
ATOM     24  H   UNL     1       7.344  -1.252  -1.918  1.00  0.00     0.167 HD
ATOM     25  C   UNL     1      10.059  -2.220   1.487  1.00  0.00     0.037 A 
ATOM     26  C   UNL     1       6.387  -1.403  -4.534  1.00  0.00     0.037 A 
ATOM     27  C   UNL     1      10.594  -2.890   0.350  1.00  0.00     0.049 A 
ATOM     28  C   UNL     1       7.699  -2.141  -4.476  1.00  0.00     0.074 A 
ATOM     29  C   UNL     1      11.726  -3.669   0.271  1.00  0.00     0.029 A 
ATOM     30  N   UNL     1      10.031  -2.832  -0.916  1.00  0.00    -0.354 N 
ATOM     31  N   UNL     1       8.461  -2.380  -3.433  1.00  0.00    -0.248 NA
ATOM     32  C   UNL     1       8.198  -2.718  -5.729  1.00  0.00     0.031 C 
ATOM     33  C   UNL     1      11.905  -4.001  -1.072  1.00  0.00     0.029 A 
ATOM     34  C   UNL     1      10.824  -3.524  -1.804  1.00  0.00     0.049 A 
ATOM     35  H   UNL     1       9.193  -2.367  -1.145  1.00  0.00     0.167 HD
ATOM     36  C   UNL     1       9.501  -3.176  -3.892  1.00  0.00     0.074 A 
ATOM     37  C   UNL     1       9.270  -3.377  -5.309  1.00  0.00     0.031 C 
ATOM     38  C   UNL     1      10.543  -3.707  -3.206  1.00  0.00     0.037 A 
BRANCH  25  39
ATOM     39  C   UNL     1      10.690  -2.358   2.835  1.00  0.00     0.057 A 
ATOM     40  C   UNL     1      11.921  -1.755   3.096  1.00  0.00     0.134 A 
ATOM     41  C   UNL     1      10.040  -3.007   3.900  1.00  0.00     0.134 A 
ATOM     42  F   UNL     1      12.571  -1.091   2.129  1.00  0.00    -0.206 F 
ATOM     43  C   UNL     1      12.493  -1.797   4.366  1.00  0.00     0.040 A 
ATOM     44  C   UNL     1      10.585  -3.022   5.183  1.00  0.00     0.040 A 
ATOM     45  F   UNL     1       8.826  -3.554   3.729  1.00  0.00    -0.206 F 
ATOM     46  C   UNL     1      11.822  -2.424   5.415  1.00  0.00     0.006 A 
ENDBRANCH  25  39
BRANCH  26  47
ATOM     47  C   UNL     1       5.613  -1.282  -5.802  1.00  0.00     0.057 A 
ATOM     48  C   UNL     1       5.406  -0.039  -6.416  1.00  0.00     0.134 A 
ATOM     49  C   UNL     1       5.050  -2.400  -6.431  1.00  0.00     0.134 A 
ATOM     50  F   UNL     1       5.910   1.077  -5.870  1.00  0.00    -0.206 F 
ATOM     51  C   UNL     1       4.667   0.088  -7.597  1.00  0.00     0.040 A 
ATOM     52  C   UNL     1       4.327  -2.292  -7.623  1.00  0.00     0.040 A 
ATOM     53  F   UNL     1       5.218  -3.623  -5.908  1.00  0.00    -0.206 F 
ATOM     54  C   UNL     1       4.128  -1.043  -8.207  1.00  0.00     0.006 A 
ENDBRANCH  26  47
BRANCH  38  55
ATOM     55  C   UNL     1      11.495  -4.590  -3.951  1.00  0.00     0.057 A 
ATOM     56  C   UNL     1      11.614  -5.942  -3.599  1.00  0.00     0.134 A 
ATOM     57  C   UNL     1      12.387  -4.081  -4.900  1.00  0.00     0.134 A 
ATOM     58  F   UNL     1      10.803  -6.481  -2.675  1.00  0.00    -0.206 F 
ATOM     59  C   UNL     1      12.607  -6.749  -4.144  1.00  0.00     0.040 A 
ATOM     60  C   UNL     1      13.356  -4.892  -5.487  1.00  0.00     0.040 A 
ATOM     61  F   UNL     1      12.324  -2.794  -5.274  1.00  0.00    -0.206 F 
ATOM     62  C   UNL     1      13.479  -6.225  -5.096  1.00  0.00     0.006 A 
ENDBRANCH  38  55
ENDBRANCH  12  13
ENDBRANCH   5   7
ENDBRANCH   4   5
ENDBRANCH   3   4
ENDBRANCH   2   3
ENDBRANCH   1   2
BRANCH   1  63
ATOM     63  C   UNL     1       1.082   2.674   0.965  1.00  0.00     0.310 C 
ATOM     64  O   UNL     1       0.489   3.356   1.796  1.00  0.00    -0.252 OA
BRANCH  63  65
ATOM     65  C   UNL     1       2.344   3.299  -0.077  1.00  0.00     0.119 C 
ATOM     66  C   UNL     1       2.365   4.832  -1.679  1.00  0.00     0.019 C 
ATOM     67  C   UNL     1       3.288   3.970   1.550  1.00  0.00     0.134 C 
ATOM     68  C   UNL     1       3.329   6.464  -1.187  1.00  0.00     0.022 C 
ATOM     69  N   UNL     1       4.370   5.337   1.456  1.00  0.00    -0.342 N 
ATOM     70  C   UNL     1       3.963   6.659   0.523  1.00  0.00     0.119 C 
BRANCH  69  71
ATOM     71  C   UNL     1       5.776   4.888   1.445  1.00  0.00     0.226 C 
ATOM     72  O   UNL     1       6.241   4.218   2.368  1.00  0.00    -0.275 OA
BRANCH  71  73
ATOM     73  C   UNL     1       6.576   4.978   0.031  1.00  0.00     0.141 C 
BRANCH  73  74
ATOM     74  C   UNL     1       6.463   3.751  -1.064  1.00  0.00     0.239 C 
BRANCH  74  75
ATOM     75  O   UNL     1       5.339   3.309  -1.966  1.00  0.00    -0.493 OA
BRANCH  75  76
ATOM     76  C   UNL     1       4.021   3.381  -1.608  1.00  0.00     0.119 A 
ATOM     77  C   UNL     1       3.717   4.490  -0.480  1.00  0.00     0.049 A 
ATOM     78  C   UNL     1       2.654   2.697  -2.321  1.00  0.00     0.049 A 
ATOM     79  C   UNL     1       1.991   5.135   0.129  1.00  0.00     0.043 A 
ATOM     80  C   UNL     1       1.015   3.131  -1.876  1.00  0.00     0.043 A 
ATOM     81  C   UNL     1       0.619   4.350  -0.683  1.00  0.00     0.123 A 
ATOM     82  F   UNL     1      -0.651   4.620  -0.373  1.00  0.00    -0.207 F 
ENDBRANCH  75  76
ENDBRANCH  74  75
ENDBRANCH  73  74
ENDBRANCH  71  73
ENDBRANCH  69  71
ENDBRANCH  63  65
ENDBRANCH   1  63
TORSDOF 16
