REMARK SMILES CC(C)c1cc2c(cc1Cl)C=C(C(=O)OCCOC(=O)c1ccc(-c3c4nc(c(-c5c(F)cccc5F)c5ccc([nH]5)c(-c5c(F)cccc5F)c5nc(c(-c6c(F)cccc6F)c6ccc3[nH]6)C=C5)C=C4)cc1)[C@@H](C(F)(F)F)O2
REMARK SMILES IDX 17 1 16 2 15 3 13 4 14 5 12 6 4 7 5 8 9 9 6 10 8 11 10 12
REMARK SMILES IDX 7 13 80 14 11 15 75 16 2 17 1 18 3 19 76 20 77 21 78 22
REMARK SMILES IDX 79 23 18 24 19 25 20 26 21 27 22 28 74 29 23 30 73 31 24 32
REMARK SMILES IDX 25 33 26 34 67 35 27 36 72 37 66 38 68 39 28 40 71 41 65 42
REMARK SMILES IDX 64 43 29 45 55 46 38 47 54 48 39 49 42 50 53 51 69 52 40 53
REMARK SMILES IDX 41 54 52 56 70 57 43 58 30 59 31 60 36 61 32 62 33 63 35 64
REMARK SMILES IDX 37 65 34 66 56 67 57 68 62 69 58 70 59 71 61 72 63 73 60 74
REMARK SMILES IDX 44 75 45 76 50 77 46 78 47 79 49 80 51 81 48 82
REMARK H PARENT 68 44 42 55
REMARK Flexibility Score: inf
ROOT
ATOM      1  C   UNL     1      -9.815  -2.985   1.356  1.00  0.00     0.275 C 
ENDROOT
BRANCH   1   2
ATOM      2  C   UNL     1      -9.132  -3.796   0.255  1.00  0.00     0.275 C 
BRANCH   2   3
ATOM      3  O   UNL     1      -7.693  -3.772   0.393  1.00  0.00    -0.459 OA
BRANCH   3   4
ATOM      4  C   UNL     1      -7.046  -2.936  -0.452  1.00  0.00     0.338 C 
ATOM      5  O   UNL     1      -7.555  -2.217  -1.299  1.00  0.00    -0.246 OA
BRANCH   4   6
ATOM      6  C   UNL     1      -5.596  -2.941  -0.185  1.00  0.00     0.087 C 
ATOM      7  C   UNL     1      -0.770  -1.496   0.252  1.00  0.00    -0.023 A 
ATOM      8  C   UNL     1      -1.439  -2.743   0.109  1.00  0.00     0.052 A 
ATOM      9  C   UNL     1      -1.568  -0.346   0.370  1.00  0.00     0.045 A 
ATOM     10  C   UNL     1      -2.830  -2.840   0.053  1.00  0.00     0.128 A 
ATOM     11  C   UNL     1      -2.960  -0.444   0.286  1.00  0.00     0.032 A 
ATOM     12  Cl  UNL     1      -0.972   1.248   0.649  1.00  0.00    -0.084 Cl
ATOM     13  C   UNL     1      -3.583  -1.681   0.117  1.00  0.00     0.019 A 
ATOM     14  O   UNL     1      -3.374  -4.089  -0.057  1.00  0.00    -0.475 OA
ATOM     15  C   UNL     1      -5.017  -1.748  -0.027  1.00  0.00     0.027 C 
ATOM     16  C   UNL     1      -4.819  -4.227  -0.235  1.00  0.00     0.316 C 
BRANCH   7  17
ATOM     17  C   UNL     1       0.755  -1.562   0.291  1.00  0.00     0.014 C 
ATOM     18  C   UNL     1       1.559  -0.315  -0.088  1.00  0.00     0.012 C 
ATOM     19  C   UNL     1       1.222  -2.079   1.656  1.00  0.00     0.012 C 
ENDBRANCH   7  17
BRANCH  16  20
ATOM     20  C   UNL     1      -5.069  -4.983  -1.550  1.00  0.00     0.430 C 
ATOM     21  F   UNL     1      -4.366  -6.139  -1.595  1.00  0.00    -0.167 F 
ATOM     22  F   UNL     1      -6.374  -5.318  -1.693  1.00  0.00    -0.167 F 
ATOM     23  F   UNL     1      -4.718  -4.250  -2.631  1.00  0.00    -0.167 F 
ENDBRANCH  16  20
ENDBRANCH   4   6
ENDBRANCH   3   4
ENDBRANCH   2   3
ENDBRANCH   1   2
BRANCH   1  24
ATOM     24  O   UNL     1      -9.517  -1.585   1.202  1.00  0.00    -0.458 OA
BRANCH  24  25
ATOM     25  C   UNL     1      -8.775  -1.031   2.188  1.00  0.00     0.338 C 
ATOM     26  O   UNL     1      -8.356  -1.569   3.197  1.00  0.00    -0.246 OA
BRANCH  25  27
ATOM     27  C   UNL     1      -8.457   0.364   1.843  1.00  0.00     0.060 A 
ATOM     28  C   UNL     1      -8.849   1.417   2.663  1.00  0.00     0.016 A 
ATOM     29  C   UNL     1      -7.618   0.605   0.763  1.00  0.00     0.016 A 
ATOM     30  C   UNL     1      -8.402   2.713   2.373  1.00  0.00     0.010 A 
ATOM     31  C   UNL     1      -7.039   1.858   0.583  1.00  0.00     0.010 A 
ATOM     32  C   UNL     1      -7.456   2.950   1.354  1.00  0.00    -0.014 A 
BRANCH  32  33
ATOM     33  C   UNL     1      -6.934   4.321   1.063  1.00  0.00     0.031 A 
ATOM     34  C   UNL     1      -6.992   4.893  -0.340  1.00  0.00     0.074 A 
ATOM     35  C   UNL     1      -6.363   5.054   2.043  1.00  0.00     0.049 A 
ATOM     36  N   UNL     1      -6.556   6.048  -0.785  1.00  0.00    -0.248 NA
ATOM     37  C   UNL     1      -7.568   4.040  -1.392  1.00  0.00     0.031 C 
ATOM     38  C   UNL     1      -6.138   4.610   3.420  1.00  0.00     0.029 A 
ATOM     39  N   UNL     1      -5.879   6.341   2.033  1.00  0.00    -0.354 N 
ATOM     40  C   UNL     1      -6.763   6.030  -2.161  1.00  0.00     0.074 A 
ATOM     41  C   UNL     1      -7.291   4.726  -2.489  1.00  0.00     0.031 C 
ATOM     42  C   UNL     1      -5.634   5.627   4.137  1.00  0.00     0.029 A 
ATOM     43  C   UNL     1      -5.458   6.783   3.265  1.00  0.00     0.049 A 
ATOM     44  H   UNL     1      -5.836   6.894   1.219  1.00  0.00     0.167 HD
ATOM     45  C   UNL     1      -6.582   7.018  -3.071  1.00  0.00     0.037 A 
ATOM     46  C   UNL     1      -4.998   7.987   3.654  1.00  0.00     0.037 A 
ATOM     47  C   UNL     1      -6.144   8.348  -2.744  1.00  0.00     0.049 A 
ATOM     48  C   UNL     1      -4.879   9.095   2.644  1.00  0.00     0.074 A 
ATOM     49  C   UNL     1      -6.020   9.447  -3.576  1.00  0.00     0.029 A 
ATOM     50  N   UNL     1      -5.776   8.763  -1.474  1.00  0.00    -0.354 N 
ATOM     51  N   UNL     1      -5.158   9.081   1.364  1.00  0.00    -0.248 NA
ATOM     52  C   UNL     1      -4.387  10.389   3.138  1.00  0.00     0.031 C 
ATOM     53  C   UNL     1      -5.559  10.524  -2.812  1.00  0.00     0.029 A 
ATOM     54  C   UNL     1      -5.425  10.102  -1.500  1.00  0.00     0.049 A 
ATOM     55  H   UNL     1      -5.766   8.191  -0.673  1.00  0.00     0.167 HD
ATOM     56  C   UNL     1      -4.899  10.366   0.906  1.00  0.00     0.074 A 
ATOM     57  C   UNL     1      -4.460  11.139   2.048  1.00  0.00     0.031 C 
ATOM     58  C   UNL     1      -5.008  10.861  -0.351  1.00  0.00     0.037 A 
BRANCH  45  59
ATOM     59  C   UNL     1      -6.899   6.705  -4.507  1.00  0.00     0.057 A 
ATOM     60  C   UNL     1      -5.883   6.630  -5.468  1.00  0.00     0.134 A 
ATOM     61  C   UNL     1      -8.214   6.492  -4.942  1.00  0.00     0.134 A 
ATOM     62  F   UNL     1      -4.603   6.835  -5.125  1.00  0.00    -0.206 F 
ATOM     63  C   UNL     1      -6.164   6.345  -6.806  1.00  0.00     0.040 A 
ATOM     64  C   UNL     1      -8.504   6.177  -6.271  1.00  0.00     0.040 A 
ATOM     65  F   UNL     1      -9.235   6.540  -4.072  1.00  0.00    -0.206 F 
ATOM     66  C   UNL     1      -7.476   6.107  -7.209  1.00  0.00     0.006 A 
ENDBRANCH  45  59
BRANCH  46  67
ATOM     67  C   UNL     1      -4.665   8.238   5.080  1.00  0.00     0.057 A 
ATOM     68  C   UNL     1      -3.530   7.683   5.680  1.00  0.00     0.134 A 
ATOM     69  C   UNL     1      -5.472   9.068   5.869  1.00  0.00     0.134 A 
ATOM     70  F   UNL     1      -2.721   6.874   4.981  1.00  0.00    -0.206 F 
ATOM     71  C   UNL     1      -3.207   7.946   7.013  1.00  0.00     0.040 A 
ATOM     72  C   UNL     1      -5.148   9.359   7.195  1.00  0.00     0.040 A 
ATOM     73  F   UNL     1      -6.564   9.644   5.344  1.00  0.00    -0.206 F 
ATOM     74  C   UNL     1      -4.012   8.794   7.771  1.00  0.00     0.006 A 
ENDBRANCH  46  67
BRANCH  58  75
ATOM     75  C   UNL     1      -4.686  12.312  -0.545  1.00  0.00     0.057 A 
ATOM     76  C   UNL     1      -5.704  13.241  -0.788  1.00  0.00     0.134 A 
ATOM     77  C   UNL     1      -3.368  12.784  -0.518  1.00  0.00     0.134 A 
ATOM     78  F   UNL     1      -6.987  12.851  -0.834  1.00  0.00    -0.206 F 
ATOM     79  C   UNL     1      -5.422  14.591  -0.998  1.00  0.00     0.040 A 
ATOM     80  C   UNL     1      -3.075  14.136  -0.703  1.00  0.00     0.040 A 
ATOM     81  F   UNL     1      -2.350  11.944  -0.276  1.00  0.00    -0.206 F 
ATOM     82  C   UNL     1      -4.105  15.043  -0.949  1.00  0.00     0.006 A 
ENDBRANCH  58  75
ENDBRANCH  32  33
ENDBRANCH  25  27
ENDBRANCH  24  25
ENDBRANCH   1  24
TORSDOF 13
