REMARK SMILES C[C@@H](O)[C@@H](NC(=O)Nc1ccc(F)cc1F)C(=O)OCCOC(=O)c1ccc(-c2c3nc(c(-c4c(F)cccc4F)c4ccc([nH]4)c(-c4c(F)cccc4F)c4nc(c(-c5c(F)cccc5F)c5ccc2[nH]5)C=C4)C=C3)cc1
REMARK SMILES IDX 20 1 19 2 17 3 18 4 4 5 2 6 1 7 3 8 5 10 6 11 7 13 8 14 9 16
REMARK SMILES IDX 10 17 15 18 11 19 14 20 16 21 12 22 13 23 21 24 22 25 23 26
REMARK SMILES IDX 24 27 25 28 26 29 78 30 27 31 77 32 28 33 29 34 30 35 71 36
REMARK SMILES IDX 31 37 76 38 70 39 72 40 32 41 75 42 69 43 68 44 33 46 59 47
REMARK SMILES IDX 42 48 58 49 43 50 46 51 57 52 73 53 44 54 45 55 56 57 74 58
REMARK SMILES IDX 47 59 34 60 35 61 40 62 36 63 37 64 39 65 41 66 38 67 60 68
REMARK SMILES IDX 61 69 66 70 62 71 63 72 65 73 67 74 64 75 48 76 49 77 54 78
REMARK SMILES IDX 50 79 51 80 53 81 55 82 52 83
REMARK H PARENT 3 9 5 12 8 15 72 45 46 56
REMARK Flexibility Score: inf
ROOT
ATOM      1  C   UNL     1      -0.549   5.689  -1.949  1.00  0.00     0.274 C 
ENDROOT
BRANCH   1   2
ATOM      2  O   UNL     1       0.082   4.956  -0.732  1.00  0.00    -0.460 OA
BRANCH   2   3
ATOM      3  C   UNL     1       0.844   3.786  -0.863  1.00  0.00     0.331 C 
ATOM      4  O   UNL     1       1.875   3.779  -1.538  1.00  0.00    -0.250 OA
BRANCH   3   5
ATOM      5  C   UNL     1       0.193   2.325  -0.266  1.00  0.00     0.222 C 
BRANCH   5   6
ATOM      6  C   UNL     1       1.366   1.441   0.251  1.00  0.00     0.145 C 
ATOM      7  C   UNL     1       0.905   0.202   1.016  1.00  0.00     0.041 C 
BRANCH   6   8
ATOM      8  O   UNL     1       2.113   0.913  -0.866  1.00  0.00    -0.391 OA
ATOM      9  H   UNL     1       1.538   0.341  -1.398  1.00  0.00     0.211 HD
ENDBRANCH   6   8
ENDBRANCH   5   6
BRANCH   5  10
ATOM     10  N   UNL     1      -1.098   2.216   0.562  1.00  0.00    -0.322 N 
ATOM     11  C   UNL     1      -2.432   1.964   0.404  1.00  0.00     0.320 C 
ATOM     12  H   UNL     1      -0.900   2.381   1.513  1.00  0.00     0.166 HD
ATOM     13  O   UNL     1      -3.050   1.746   1.457  1.00  0.00    -0.248 OA
ATOM     14  N   UNL     1      -3.191   1.937  -0.743  1.00  0.00    -0.305 N 
ATOM     15  H   UNL     1      -4.090   1.554  -0.623  1.00  0.00     0.171 HD
BRANCH  14  16
ATOM     16  C   UNL     1      -2.914   2.359  -2.061  1.00  0.00     0.079 A 
ATOM     17  C   UNL     1      -4.024   2.469  -3.449  1.00  0.00     0.032 A 
ATOM     18  C   UNL     1      -1.307   3.049  -2.209  1.00  0.00     0.149 A 
ATOM     19  C   UNL     1      -3.460   3.176  -5.019  1.00  0.00     0.041 A 
ATOM     20  C   UNL     1      -0.653   3.772  -3.793  1.00  0.00     0.080 A 
ATOM     21  F   UNL     1      -1.400   3.786  -1.098  1.00  0.00    -0.205 F 
ATOM     22  C   UNL     1      -1.777   3.800  -5.200  1.00  0.00     0.126 A 
ATOM     23  F   UNL     1      -1.349   4.227  -6.393  1.00  0.00    -0.207 F 
ENDBRANCH  14  16
ENDBRANCH   5  10
ENDBRANCH   3   5
ENDBRANCH   2   3
ENDBRANCH   1   2
BRANCH   1  24
ATOM     24  C   UNL     1      -2.115   5.261  -2.660  1.00  0.00     0.275 C 
BRANCH  24  25
ATOM     25  O   UNL     1      -2.510   3.683  -3.439  1.00  0.00    -0.458 OA
BRANCH  25  26
ATOM     26  C   UNL     1      -1.817   1.989  -3.954  1.00  0.00     0.338 C 
ATOM     27  O   UNL     1      -0.622   1.588  -3.781  1.00  0.00    -0.246 OA
BRANCH  26  28
ATOM     28  C   UNL     1      -2.448   0.737  -4.518  1.00  0.00     0.060 A 
ATOM     29  C   UNL     1      -2.640  -0.349  -3.637  1.00  0.00     0.016 A 
ATOM     30  C   UNL     1      -2.355   0.517  -5.895  1.00  0.00     0.016 A 
ATOM     31  C   UNL     1      -2.855  -1.621  -4.138  1.00  0.00     0.010 A 
ATOM     32  C   UNL     1      -2.616  -0.744  -6.399  1.00  0.00     0.010 A 
ATOM     33  C   UNL     1      -2.883  -1.804  -5.522  1.00  0.00    -0.014 A 
BRANCH  33  34
ATOM     34  C   UNL     1      -3.285  -3.090  -6.103  1.00  0.00     0.031 A 
ATOM     35  C   UNL     1      -2.304  -3.890  -6.891  1.00  0.00     0.074 A 
ATOM     36  C   UNL     1      -4.591  -3.397  -6.032  1.00  0.00     0.049 A 
ATOM     37  N   UNL     1      -2.528  -4.894  -7.693  1.00  0.00    -0.248 NA
ATOM     38  C   UNL     1      -0.891  -3.488  -6.796  1.00  0.00     0.031 C 
ATOM     39  C   UNL     1      -5.599  -2.626  -5.295  1.00  0.00     0.029 A 
ATOM     40  N   UNL     1      -5.303  -4.403  -6.617  1.00  0.00    -0.354 N 
ATOM     41  C   UNL     1      -1.290  -5.229  -8.222  1.00  0.00     0.074 A 
ATOM     42  C   UNL     1      -0.322  -4.306  -7.672  1.00  0.00     0.031 C 
ATOM     43  C   UNL     1      -6.802  -3.184  -5.481  1.00  0.00     0.029 A 
ATOM     44  C   UNL     1      -6.654  -4.312  -6.389  1.00  0.00     0.049 A 
ATOM     45  H   UNL     1      -4.891  -5.122  -7.149  1.00  0.00     0.167 HD
ATOM     46  C   UNL     1      -1.008  -6.230  -9.087  1.00  0.00     0.037 A 
ATOM     47  C   UNL     1      -7.661  -5.045  -6.890  1.00  0.00     0.037 A 
ATOM     48  C   UNL     1      -2.008  -7.131  -9.597  1.00  0.00     0.049 A 
ATOM     49  C   UNL     1      -7.319  -6.147  -7.845  1.00  0.00     0.074 A 
ATOM     50  C   UNL     1      -1.848  -8.210 -10.446  1.00  0.00     0.029 A 
ATOM     51  N   UNL     1      -3.363  -7.052  -9.294  1.00  0.00    -0.354 N 
ATOM     52  N   UNL     1      -6.143  -6.485  -8.319  1.00  0.00    -0.248 NA
ATOM     53  C   UNL     1      -8.429  -6.971  -8.334  1.00  0.00     0.031 C 
ATOM     54  C   UNL     1      -3.109  -8.764 -10.682  1.00  0.00     0.029 A 
ATOM     55  C   UNL     1      -4.050  -8.059  -9.945  1.00  0.00     0.049 A 
ATOM     56  H   UNL     1      -3.772  -6.379  -8.703  1.00  0.00     0.167 HD
ATOM     57  C   UNL     1      -6.363  -7.580  -9.137  1.00  0.00     0.074 A 
ATOM     58  C   UNL     1      -7.788  -7.849  -9.095  1.00  0.00     0.031 C 
ATOM     59  C   UNL     1      -5.469  -8.302  -9.855  1.00  0.00     0.037 A 
BRANCH  46  60
ATOM     60  C   UNL     1       0.416  -6.402  -9.526  1.00  0.00     0.057 A 
ATOM     61  C   UNL     1       0.795  -6.153 -10.852  1.00  0.00     0.134 A 
ATOM     62  C   UNL     1       1.407  -6.859  -8.648  1.00  0.00     0.134 A 
ATOM     63  F   UNL     1      -0.103  -5.718 -11.748  1.00  0.00    -0.206 F 
ATOM     64  C   UNL     1       2.105  -6.360 -11.289  1.00  0.00     0.040 A 
ATOM     65  C   UNL     1       2.727  -7.045  -9.067  1.00  0.00     0.040 A 
ATOM     66  F   UNL     1       1.115  -7.107  -7.362  1.00  0.00    -0.206 F 
ATOM     67  C   UNL     1       3.077  -6.803 -10.393  1.00  0.00     0.006 A 
ENDBRANCH  46  60
BRANCH  47  68
ATOM     68  C   UNL     1      -9.049  -4.771  -6.452  1.00  0.00     0.057 A 
ATOM     69  C   UNL     1      -9.729  -3.605  -6.829  1.00  0.00     0.134 A 
ATOM     70  C   UNL     1      -9.698  -5.640  -5.570  1.00  0.00     0.134 A 
ATOM     71  F   UNL     1      -9.148  -2.716  -7.649  1.00  0.00    -0.206 F 
ATOM     72  C   UNL     1     -10.999  -3.308  -6.333  1.00  0.00     0.040 A 
ATOM     73  C   UNL     1     -10.977  -5.367  -5.083  1.00  0.00     0.040 A 
ATOM     74  F   UNL     1      -9.095  -6.769  -5.171  1.00  0.00    -0.206 F 
ATOM     75  C   UNL     1     -11.628  -4.194  -5.460  1.00  0.00     0.006 A 
ENDBRANCH  47  68
BRANCH  59  76
ATOM     76  C   UNL     1      -5.996  -9.476 -10.618  1.00  0.00     0.057 A 
ATOM     77  C   UNL     1      -5.719 -10.779 -10.186  1.00  0.00     0.134 A 
ATOM     78  C   UNL     1      -6.673  -9.316 -11.832  1.00  0.00     0.134 A 
ATOM     79  F   UNL     1      -5.066 -10.990  -9.033  1.00  0.00    -0.206 F 
ATOM     80  C   UNL     1      -6.074 -11.887 -10.953  1.00  0.00     0.040 A 
ATOM     81  C   UNL     1      -7.052 -10.418 -12.597  1.00  0.00     0.040 A 
ATOM     82  F   UNL     1      -6.975  -8.091 -12.286  1.00  0.00    -0.206 F 
ATOM     83  C   UNL     1      -6.740 -11.707 -12.164  1.00  0.00     0.006 A 
ENDBRANCH  59  76
ENDBRANCH  33  34
ENDBRANCH  26  28
ENDBRANCH  25  26
ENDBRANCH  24  25
ENDBRANCH   1  24
TORSDOF 15
