REMARK SMILES CC#CC[C@H](C(=O)OCCOC(=O)c1ccc(-c2c3nc(c(-c4c(F)cccc4F)c4ccc([nH]4)c(-c4c(F)cccc4F)c4nc(c(-c5c(F)cccc5F)c5ccc2[nH]5)C=C4)C=C3)cc1)c1cccc(Br)c1
REMARK SMILES IDX 9 1 8 2 6 3 7 4 5 5 4 6 3 7 1 8 2 9 68 10 69 11 74 12 70 13
REMARK SMILES IDX 72 14 71 15 73 16 10 17 11 18 12 19 13 20 14 21 15 22 67 23
REMARK SMILES IDX 16 24 66 25 17 26 18 27 19 28 60 29 20 30 65 31 59 32 61 33
REMARK SMILES IDX 21 34 64 35 58 36 57 37 22 39 48 40 31 41 47 42 32 43 35 44
REMARK SMILES IDX 46 45 62 46 33 47 34 48 45 50 63 51 36 52 23 53 24 54 29 55
REMARK SMILES IDX 25 56 26 57 28 58 30 59 27 60 49 61 50 62 55 63 51 64 52 65
REMARK SMILES IDX 54 66 56 67 53 68 37 69 38 70 43 71 39 72 40 73 42 74 44 75
REMARK SMILES IDX 41 76
REMARK H PARENT 61 38 35 49
REMARK Flexibility Score: inf
ROOT
ATOM      1  C   UNL     1       1.064  -1.187  -3.457  1.00  0.00     0.274 C 
ENDROOT
BRANCH   1   2
ATOM      2  O   UNL     1      -0.343  -0.909  -3.601  1.00  0.00    -0.462 OA
BRANCH   2   3
ATOM      3  C   UNL     1      -0.631   0.175  -4.381  1.00  0.00     0.314 C 
ATOM      4  O   UNL     1       0.196   0.761  -5.071  1.00  0.00    -0.252 OA
BRANCH   3   5
ATOM      5  C   UNL     1      -2.076   0.650  -4.182  1.00  0.00     0.141 C 
BRANCH   5   6
ATOM      6  C   UNL     1      -2.080   1.994  -3.417  1.00  0.00     0.109 C 
BRANCH   6   7
ATOM      7  C   UNL     1      -0.676   2.375  -2.974  1.00  0.00    -0.102 C 
ATOM      8  C   UNL     1       1.931   3.082  -2.152  1.00  0.00     0.107 C 
ATOM      9  C   UNL     1       0.528   2.702  -2.594  1.00  0.00    -0.107 C 
ENDBRANCH   6   7
ENDBRANCH   5   6
BRANCH   5  10
ATOM     10  C   UNL     1      -2.886   0.653  -5.477  1.00  0.00    -0.032 A 
ATOM     11  C   UNL     1      -3.071   1.804  -6.266  1.00  0.00     0.005 A 
ATOM     12  C   UNL     1      -3.438  -0.556  -5.940  1.00  0.00     0.020 A 
ATOM     13  C   UNL     1      -3.828   1.762  -7.440  1.00  0.00     0.001 A 
ATOM     14  C   UNL     1      -4.163  -0.597  -7.134  1.00  0.00     0.018 A 
ATOM     15  C   UNL     1      -4.374   0.560  -7.878  1.00  0.00     0.016 A 
ATOM     16  Br  UNL     1      -4.840  -2.245  -7.766  1.00  0.00    -0.051 Br
ENDBRANCH   5  10
ENDBRANCH   3   5
ENDBRANCH   2   3
ENDBRANCH   1   2
BRANCH   1  17
ATOM     17  C   UNL     1       1.583  -2.201  -4.478  1.00  0.00     0.275 C 
BRANCH  17  18
ATOM     18  O   UNL     1       1.461  -1.702  -5.821  1.00  0.00    -0.458 OA
BRANCH  18  19
ATOM     19  C   UNL     1       0.505  -2.287  -6.579  1.00  0.00     0.338 C 
ATOM     20  O   UNL     1      -0.198  -3.239  -6.284  1.00  0.00    -0.246 OA
BRANCH  19  21
ATOM     21  C   UNL     1       0.339  -1.538  -7.834  1.00  0.00     0.060 A 
ATOM     22  C   UNL     1      -0.392  -0.358  -7.793  1.00  0.00     0.016 A 
ATOM     23  C   UNL     1       0.729  -2.063  -9.062  1.00  0.00     0.016 A 
ATOM     24  C   UNL     1      -0.776   0.296  -8.946  1.00  0.00     0.010 A 
ATOM     25  C   UNL     1       0.365  -1.391 -10.239  1.00  0.00     0.010 A 
ATOM     26  C   UNL     1      -0.418  -0.223 -10.184  1.00  0.00    -0.014 A 
BRANCH  26  27
ATOM     27  C   UNL     1      -1.042   0.380 -11.383  1.00  0.00     0.031 A 
ATOM     28  C   UNL     1      -2.067  -0.414 -12.133  1.00  0.00     0.074 A 
ATOM     29  C   UNL     1      -0.827   1.669 -11.703  1.00  0.00     0.049 A 
ATOM     30  N   UNL     1      -2.600  -0.179 -13.302  1.00  0.00    -0.248 NA
ATOM     31  C   UNL     1      -2.565  -1.636 -11.477  1.00  0.00     0.031 C 
ATOM     32  C   UNL     1       0.005   2.607 -10.945  1.00  0.00     0.029 A 
ATOM     33  N   UNL     1      -1.325   2.425 -12.733  1.00  0.00    -0.354 N 
ATOM     34  C   UNL     1      -3.427  -1.263 -13.559  1.00  0.00     0.074 A 
ATOM     35  C   UNL     1      -3.362  -2.137 -12.409  1.00  0.00     0.031 C 
ATOM     36  C   UNL     1      -0.074   3.821 -11.514  1.00  0.00     0.029 A 
ATOM     37  C   UNL     1      -0.877   3.722 -12.728  1.00  0.00     0.049 A 
ATOM     38  H   UNL     1      -1.946   2.071 -13.410  1.00  0.00     0.167 HD
ATOM     39  C   UNL     1      -4.151  -1.510 -14.674  1.00  0.00     0.037 A 
ATOM     40  C   UNL     1      -1.052   4.703 -13.633  1.00  0.00     0.037 A 
ATOM     41  C   UNL     1      -4.252  -0.596 -15.778  1.00  0.00     0.049 A 
ATOM     42  C   UNL     1      -1.812   4.393 -14.892  1.00  0.00     0.074 A 
ATOM     43  C   UNL     1      -4.900  -0.762 -16.988  1.00  0.00     0.029 A 
ATOM     44  N   UNL     1      -3.709   0.681 -15.784  1.00  0.00    -0.354 N 
ATOM     45  N   UNL     1      -2.442   3.292 -15.225  1.00  0.00    -0.248 NA
ATOM     46  C   UNL     1      -1.844   5.441 -15.920  1.00  0.00     0.031 C 
ATOM     47  C   UNL     1      -4.736   0.412 -17.734  1.00  0.00     0.029 A 
ATOM     48  C   UNL     1      -4.008   1.316 -16.976  1.00  0.00     0.049 A 
ATOM     49  H   UNL     1      -3.188   1.077 -15.048  1.00  0.00     0.167 HD
ATOM     50  C   UNL     1      -2.930   3.506 -16.506  1.00  0.00     0.074 A 
ATOM     51  C   UNL     1      -2.553   4.856 -16.875  1.00  0.00     0.031 C 
ATOM     52  C   UNL     1      -3.612   2.658 -17.313  1.00  0.00     0.037 A 
BRANCH  39  53
ATOM     53  C   UNL     1      -4.812  -2.848 -14.774  1.00  0.00     0.057 A 
ATOM     54  C   UNL     1      -5.994  -3.154 -14.092  1.00  0.00     0.134 A 
ATOM     55  C   UNL     1      -4.240  -3.851 -15.567  1.00  0.00     0.134 A 
ATOM     56  F   UNL     1      -6.574  -2.244 -13.295  1.00  0.00    -0.206 F 
ATOM     57  C   UNL     1      -6.577  -4.420 -14.183  1.00  0.00     0.040 A 
ATOM     58  C   UNL     1      -4.822  -5.113 -15.681  1.00  0.00     0.040 A 
ATOM     59  F   UNL     1      -3.102  -3.621 -16.240  1.00  0.00    -0.206 F 
ATOM     60  C   UNL     1      -5.993  -5.402 -14.983  1.00  0.00     0.006 A 
ENDBRANCH  39  53
BRANCH  40  61
ATOM     61  C   UNL     1      -0.424   6.030 -13.424  1.00  0.00     0.057 A 
ATOM     62  C   UNL     1      -1.198   7.168 -13.178  1.00  0.00     0.134 A 
ATOM     63  C   UNL     1       0.967   6.193 -13.464  1.00  0.00     0.134 A 
ATOM     64  F   UNL     1      -2.536   7.083 -13.155  1.00  0.00    -0.206 F 
ATOM     65  C   UNL     1      -0.613   8.420 -12.977  1.00  0.00     0.040 A 
ATOM     66  C   UNL     1       1.567   7.432 -13.240  1.00  0.00     0.040 A 
ATOM     67  F   UNL     1       1.765   5.141 -13.703  1.00  0.00    -0.206 F 
ATOM     68  C   UNL     1       0.775   8.552 -12.999  1.00  0.00     0.006 A 
ENDBRANCH  40  61
BRANCH  52  69
ATOM     69  C   UNL     1      -3.986   3.172 -18.667  1.00  0.00     0.057 A 
ATOM     70  C   UNL     1      -3.050   3.230 -19.706  1.00  0.00     0.134 A 
ATOM     71  C   UNL     1      -5.297   3.576 -18.943  1.00  0.00     0.134 A 
ATOM     72  F   UNL     1      -1.775   2.867 -19.494  1.00  0.00    -0.206 F 
ATOM     73  C   UNL     1      -3.403   3.686 -20.975  1.00  0.00     0.040 A 
ATOM     74  C   UNL     1      -5.665   4.019 -20.213  1.00  0.00     0.040 A 
ATOM     75  F   UNL     1      -6.237   3.538 -17.987  1.00  0.00    -0.206 F 
ATOM     76  C   UNL     1      -4.716   4.077 -21.232  1.00  0.00     0.006 A 
ENDBRANCH  52  69
ENDBRANCH  26  27
ENDBRANCH  19  21
ENDBRANCH  18  19
ENDBRANCH  17  18
ENDBRANCH   1  17
TORSDOF 14
