REMARK SMILES O=C(OCCOC(=O)c1ccc(-c2c3nc(c(-c4c(F)cccc4F)c4ccc([nH]4)c(-c4c(F)cccc4F)c4nc(c(-c5c(F)cccc5F)c5ccc2[nH]5)C=C4)C=C3)cc1)C1=Cc2cc(Cl)c(Cl)c(Cl)c2O[C@@H]1C(F)(F)F
REMARK SMILES IDX 5 1 4 2 3 3 2 4 1 5 63 6 64 7 75 8 65 9 74 10 66 11 73 12
REMARK SMILES IDX 67 13 71 14 68 15 69 16 72 17 70 18 76 19 77 20 78 21 79 22
REMARK SMILES IDX 6 23 7 24 8 25 9 26 10 27 62 28 11 29 61 30 12 31 13 32
REMARK SMILES IDX 14 33 55 34 15 35 60 36 54 37 56 38 16 39 59 40 53 41 52 42
REMARK SMILES IDX 17 44 43 45 26 46 42 47 27 48 30 49 41 50 57 51 28 52 29 53
REMARK SMILES IDX 40 55 58 56 31 57 18 58 19 59 24 60 20 61 21 62 23 63 25 64
REMARK SMILES IDX 22 65 44 66 45 67 50 68 46 69 47 70 49 71 51 72 48 73 32 74
REMARK SMILES IDX 33 75 38 76 34 77 35 78 37 79 39 80 36 81
REMARK H PARENT 56 43 30 54
REMARK Flexibility Score: inf
ROOT
ATOM      1  C   UNL     1       4.655   0.834  -0.191  1.00  0.00     0.275 C 
ENDROOT
BRANCH   1   2
ATOM      2  C   UNL     1       3.860  -0.960   0.729  1.00  0.00     0.275 C 
BRANCH   2   3
ATOM      3  O   UNL     1       3.010  -1.028   2.029  1.00  0.00    -0.459 OA
BRANCH   3   4
ATOM      4  C   UNL     1       3.214   0.009   2.851  1.00  0.00     0.338 C 
ATOM      5  O   UNL     1       2.617   0.345   3.841  1.00  0.00    -0.246 OA
BRANCH   4   6
ATOM      6  C   UNL     1       4.050   0.738   1.928  1.00  0.00     0.087 C 
ATOM      7  C   UNL     1       5.417   0.216   1.870  1.00  0.00     0.027 C 
ATOM      8  C   UNL     1       2.780   0.728   0.474  1.00  0.00     0.316 C 
ATOM      9  C   UNL     1       6.059  -0.704   0.463  1.00  0.00     0.020 A 
ATOM     10  O   UNL     1       3.434  -0.310  -1.020  1.00  0.00    -0.474 OA
ATOM     11  C   UNL     1       7.262  -1.329   0.622  1.00  0.00     0.034 A 
ATOM     12  C   UNL     1       5.096  -1.071  -0.931  1.00  0.00     0.148 A 
ATOM     13  C   UNL     1       7.592  -2.261  -0.379  1.00  0.00     0.062 A 
ATOM     14  C   UNL     1       5.494  -1.997  -1.866  1.00  0.00     0.103 A 
ATOM     15  Cl  UNL     1       9.111  -3.075  -0.087  1.00  0.00    -0.083 Cl
ATOM     16  C   UNL     1       6.759  -2.594  -1.553  1.00  0.00     0.082 A 
ATOM     17  Cl  UNL     1       4.527  -2.434  -3.201  1.00  0.00    -0.079 Cl
ATOM     18  Cl  UNL     1       7.362  -3.861  -2.605  1.00  0.00    -0.081 Cl
BRANCH   8  19
ATOM     19  C   UNL     1       2.324   2.234   0.671  1.00  0.00     0.430 C 
ATOM     20  F   UNL     1       1.049   2.420   0.305  1.00  0.00    -0.167 F 
ATOM     21  F   UNL     1       2.315   2.518   2.012  1.00  0.00    -0.167 F 
ATOM     22  F   UNL     1       3.120   3.201   0.187  1.00  0.00    -0.167 F 
ENDBRANCH   8  19
ENDBRANCH   4   6
ENDBRANCH   3   4
ENDBRANCH   2   3
ENDBRANCH   1   2
BRANCH   1  23
ATOM     23  O   UNL     1       3.838   1.798  -1.380  1.00  0.00    -0.458 OA
BRANCH  23  24
ATOM     24  C   UNL     1       2.921   1.754  -2.407  1.00  0.00     0.338 C 
ATOM     25  O   UNL     1       2.460   0.794  -2.996  1.00  0.00    -0.246 OA
BRANCH  24  26
ATOM     26  C   UNL     1       2.236   3.088  -2.404  1.00  0.00     0.060 A 
ATOM     27  C   UNL     1       0.872   3.138  -2.059  1.00  0.00     0.016 A 
ATOM     28  C   UNL     1       3.003   4.250  -2.341  1.00  0.00     0.016 A 
ATOM     29  C   UNL     1       0.353   4.282  -1.420  1.00  0.00     0.010 A 
ATOM     30  C   UNL     1       2.479   5.388  -1.717  1.00  0.00     0.010 A 
ATOM     31  C   UNL     1       1.179   5.389  -1.178  1.00  0.00    -0.014 A 
BRANCH  31  32
ATOM     32  C   UNL     1       0.643   6.647  -0.589  1.00  0.00     0.031 A 
ATOM     33  C   UNL     1       0.112   7.645  -1.573  1.00  0.00     0.074 A 
ATOM     34  C   UNL     1       0.686   6.955   0.727  1.00  0.00     0.049 A 
ATOM     35  N   UNL     1      -0.329   8.859  -1.384  1.00  0.00    -0.248 NA
ATOM     36  C   UNL     1       0.116   7.210  -2.981  1.00  0.00     0.031 C 
ATOM     37  C   UNL     1       1.184   6.096   1.801  1.00  0.00     0.029 A 
ATOM     38  N   UNL     1       0.312   8.110   1.384  1.00  0.00    -0.354 N 
ATOM     39  C   UNL     1      -0.660   9.325  -2.647  1.00  0.00     0.074 A 
ATOM     40  C   UNL     1      -0.299   8.299  -3.598  1.00  0.00     0.031 C 
ATOM     41  C   UNL     1       1.095   6.755   2.975  1.00  0.00     0.029 A 
ATOM     42  C   UNL     1       0.547   8.091   2.743  1.00  0.00     0.049 A 
ATOM     43  H   UNL     1      -0.087   8.882   0.922  1.00  0.00     0.167 HD
ATOM     44  C   UNL     1      -1.242  10.493  -2.995  1.00  0.00     0.037 A 
ATOM     45  C   UNL     1       0.342   9.046   3.679  1.00  0.00     0.037 A 
ATOM     46  C   UNL     1      -1.574  11.531  -2.065  1.00  0.00     0.049 A 
ATOM     47  C   UNL     1      -0.243  10.380   3.256  1.00  0.00     0.074 A 
ATOM     48  C   UNL     1      -2.160  12.756  -2.316  1.00  0.00     0.029 A 
ATOM     49  N   UNL     1      -1.332  11.465  -0.702  1.00  0.00    -0.354 N 
ATOM     50  N   UNL     1      -0.626  10.781   2.066  1.00  0.00    -0.248 NA
ATOM     51  C   UNL     1      -0.433  11.393   4.309  1.00  0.00     0.031 C 
ATOM     52  C   UNL     1      -2.234  13.453  -1.107  1.00  0.00     0.029 A 
ATOM     53  C   UNL     1      -1.745  12.638  -0.098  1.00  0.00     0.049 A 
ATOM     54  H   UNL     1      -0.928  10.699  -0.234  1.00  0.00     0.167 HD
ATOM     55  C   UNL     1      -1.140  12.063   2.238  1.00  0.00     0.074 A 
ATOM     56  C   UNL     1      -1.031  12.372   3.647  1.00  0.00     0.031 C 
ATOM     57  C   UNL     1      -1.656  12.911   1.314  1.00  0.00     0.037 A 
BRANCH  44  58
ATOM     58  C   UNL     1      -1.530  10.678  -4.452  1.00  0.00     0.057 A 
ATOM     59  C   UNL     1      -2.509   9.914  -5.104  1.00  0.00     0.134 A 
ATOM     60  C   UNL     1      -0.779  11.571  -5.223  1.00  0.00     0.134 A 
ATOM     61  F   UNL     1      -3.234   9.014  -4.423  1.00  0.00    -0.206 F 
ATOM     62  C   UNL     1      -2.701  10.002  -6.482  1.00  0.00     0.040 A 
ATOM     63  C   UNL     1      -0.985  11.691  -6.597  1.00  0.00     0.040 A 
ATOM     64  F   UNL     1       0.180  12.321  -4.660  1.00  0.00    -0.206 F 
ATOM     65  C   UNL     1      -1.939  10.896  -7.232  1.00  0.00     0.006 A 
ENDBRANCH  44  58
BRANCH  45  66
ATOM     66  C   UNL     1       0.669   8.822   5.121  1.00  0.00     0.057 A 
ATOM     67  C   UNL     1      -0.338   8.804   6.098  1.00  0.00     0.134 A 
ATOM     68  C   UNL     1       1.991   8.739   5.575  1.00  0.00     0.134 A 
ATOM     69  F   UNL     1      -1.626   8.920   5.741  1.00  0.00    -0.206 F 
ATOM     70  C   UNL     1      -0.044   8.751   7.465  1.00  0.00     0.040 A 
ATOM     71  C   UNL     1       2.299   8.657   6.938  1.00  0.00     0.040 A 
ATOM     72  F   UNL     1       3.009   8.764   4.703  1.00  0.00    -0.206 F 
ATOM     73  C   UNL     1       1.280   8.677   7.888  1.00  0.00     0.006 A 
ENDBRANCH  45  66
BRANCH  57  74
ATOM     74  C   UNL     1      -2.199  14.227   1.793  1.00  0.00     0.057 A 
ATOM     75  C   UNL     1      -1.364  15.261   2.235  1.00  0.00     0.134 A 
ATOM     76  C   UNL     1      -3.575  14.488   1.732  1.00  0.00     0.134 A 
ATOM     77  F   UNL     1      -0.039  15.075   2.324  1.00  0.00    -0.206 F 
ATOM     78  C   UNL     1      -1.881  16.502   2.615  1.00  0.00     0.040 A 
ATOM     79  C   UNL     1      -4.099  15.733   2.080  1.00  0.00     0.040 A 
ATOM     80  F   UNL     1      -4.429  13.546   1.304  1.00  0.00    -0.206 F 
ATOM     81  C   UNL     1      -3.251  16.743   2.528  1.00  0.00     0.006 A 
ENDBRANCH  57  74
ENDBRANCH  31  32
ENDBRANCH  24  26
ENDBRANCH  23  24
ENDBRANCH   1  23
TORSDOF 12
