REMARK SMILES CC(=O)Oc1c(Cl)cc(-c2ccccc2)cc1C(=O)OCCOC(=O)c1ccc(-c2c3nc(c(-c4c(F)cccc4F)c4ccc([nH]4)c(-c4c(F)cccc4F)c4nc(c(-c5c(F)cccc5F)c5ccc2[nH]5)C=C4)C=C3)cc1
REMARK SMILES IDX 21 1 20 2 18 3 19 4 17 5 5 6 6 7 7 8 8 9 16 10 9 11 4 12
REMARK SMILES IDX 2 13 1 14 3 15 10 16 11 17 15 18 12 19 14 20 13 21 22 22
REMARK SMILES IDX 23 23 24 24 25 25 26 26 27 27 79 28 28 29 78 30 29 31 30 32
REMARK SMILES IDX 31 33 72 34 32 35 77 36 71 37 73 38 33 39 76 40 70 41 69 42
REMARK SMILES IDX 34 44 60 45 43 46 59 47 44 48 47 49 58 50 74 51 45 52 46 53
REMARK SMILES IDX 57 55 75 56 48 57 35 58 36 59 41 60 37 61 38 62 40 63 42 64
REMARK SMILES IDX 39 65 61 66 62 67 67 68 63 69 64 70 66 71 68 72 65 73 49 74
REMARK SMILES IDX 50 75 55 76 51 77 52 78 54 79 56 80 53 81
REMARK H PARENT 73 43 47 54
REMARK Flexibility Score: inf
ROOT
ATOM      1  C   UNL     1       4.021   2.383  -2.399  1.00  0.00     0.275 C 
ENDROOT
BRANCH   1   2
ATOM      2  O   UNL     1       2.675   1.969  -2.718  1.00  0.00    -0.458 OA
BRANCH   2   3
ATOM      3  C   UNL     1       1.926   2.868  -3.400  1.00  0.00     0.342 C 
ATOM      4  O   UNL     1       2.279   3.978  -3.769  1.00  0.00    -0.246 OA
BRANCH   3   5
ATOM      5  C   UNL     1       0.610   2.304  -3.769  1.00  0.00     0.105 A 
ATOM      6  C   UNL     1      -0.215   1.619  -2.879  1.00  0.00     0.164 A 
ATOM      7  C   UNL     1      -1.496   1.218  -3.289  1.00  0.00     0.085 A 
ATOM      8  Cl  UNL     1      -2.610   0.497  -2.182  1.00  0.00    -0.080 Cl
ATOM      9  C   UNL     1      -1.921   1.434  -4.607  1.00  0.00     0.033 A 
ATOM     10  C   UNL     1       0.152   2.553  -5.071  1.00  0.00     0.028 A 
ATOM     11  C   UNL     1      -1.091   2.091  -5.522  1.00  0.00    -0.016 A 
BRANCH   6  12
ATOM     12  O   UNL     1       0.192   1.442  -1.554  1.00  0.00    -0.424 OA
BRANCH  12  13
ATOM     13  C   UNL     1       0.604   0.139  -1.296  1.00  0.00     0.308 C 
ATOM     14  C   UNL     1       1.046   0.032   0.133  1.00  0.00     0.139 C 
ATOM     15  O   UNL     1       0.655  -0.781  -2.102  1.00  0.00    -0.252 OA
ENDBRANCH  12  13
ENDBRANCH   6  12
BRANCH  11  16
ATOM     16  C   UNL     1      -1.487   2.325  -6.916  1.00  0.00    -0.018 A 
ATOM     17  C   UNL     1      -2.502   3.239  -7.235  1.00  0.00     0.009 A 
ATOM     18  C   UNL     1      -0.813   1.680  -7.968  1.00  0.00     0.009 A 
ATOM     19  C   UNL     1      -2.826   3.508  -8.568  1.00  0.00     0.001 A 
ATOM     20  C   UNL     1      -1.140   1.946  -9.300  1.00  0.00     0.001 A 
ATOM     21  C   UNL     1      -2.145   2.863  -9.599  1.00  0.00     0.000 A 
ENDBRANCH  11  16
ENDBRANCH   3   5
ENDBRANCH   2   3
ENDBRANCH   1   2
BRANCH   1  22
ATOM     22  C   UNL     1       5.032   1.719  -3.331  1.00  0.00     0.275 C 
BRANCH  22  23
ATOM     23  O   UNL     1       4.821   2.183  -4.675  1.00  0.00    -0.458 OA
BRANCH  23  24
ATOM     24  C   UNL     1       4.600   1.224  -5.604  1.00  0.00     0.338 C 
ATOM     25  O   UNL     1       4.623   0.017  -5.449  1.00  0.00    -0.246 OA
BRANCH  24  26
ATOM     26  C   UNL     1       4.306   1.857  -6.902  1.00  0.00     0.060 A 
ATOM     27  C   UNL     1       3.277   2.790  -7.001  1.00  0.00     0.016 A 
ATOM     28  C   UNL     1       4.979   1.438  -8.046  1.00  0.00     0.016 A 
ATOM     29  C   UNL     1       2.844   3.228  -8.251  1.00  0.00     0.010 A 
ATOM     30  C   UNL     1       4.625   1.973  -9.289  1.00  0.00     0.010 A 
ATOM     31  C   UNL     1       3.529   2.848  -9.414  1.00  0.00    -0.014 A 
BRANCH  31  32
ATOM     32  C   UNL     1       3.111   3.351 -10.755  1.00  0.00     0.031 A 
ATOM     33  C   UNL     1       2.795   2.381 -11.866  1.00  0.00     0.074 A 
ATOM     34  C   UNL     1       3.034   4.675 -10.999  1.00  0.00     0.049 A 
ATOM     35  N   UNL     1       2.646   2.608 -13.147  1.00  0.00    -0.248 NA
ATOM     36  C   UNL     1       2.644   0.967 -11.488  1.00  0.00     0.031 C 
ATOM     37  C   UNL     1       3.266   5.738 -10.019  1.00  0.00     0.029 A 
ATOM     38  N   UNL     1       2.740   5.357 -12.157  1.00  0.00    -0.354 N 
ATOM     39  C   UNL     1       2.459   1.362 -13.735  1.00  0.00     0.074 A 
ATOM     40  C   UNL     1       2.500   0.383 -12.670  1.00  0.00     0.031 C 
ATOM     41  C   UNL     1       3.069   6.929 -10.602  1.00  0.00     0.029 A 
ATOM     42  C   UNL     1       2.796   6.723 -12.019  1.00  0.00     0.049 A 
ATOM     43  H   UNL     1       2.512   4.909 -13.003  1.00  0.00     0.167 HD
ATOM     44  C   UNL     1       2.279   1.065 -15.044  1.00  0.00     0.037 A 
ATOM     45  C   UNL     1       2.696   7.706 -12.933  1.00  0.00     0.037 A 
ATOM     46  C   UNL     1       2.165   2.045 -16.093  1.00  0.00     0.049 A 
ATOM     47  C   UNL     1       2.524   7.351 -14.381  1.00  0.00     0.074 A 
ATOM     48  C   UNL     1       1.930   1.840 -17.443  1.00  0.00     0.029 A 
ATOM     49  N   UNL     1       2.264   3.415 -15.909  1.00  0.00    -0.354 N 
ATOM     50  N   UNL     1       2.400   6.168 -14.931  1.00  0.00    -0.248 NA
ATOM     51  C   UNL     1       2.513   8.466 -15.339  1.00  0.00     0.031 C 
ATOM     52  C   UNL     1       1.919   3.085 -18.080  1.00  0.00     0.029 A 
ATOM     53  C   UNL     1       2.112   4.066 -17.122  1.00  0.00     0.049 A 
ATOM     54  H   UNL     1       2.418   3.859 -15.044  1.00  0.00     0.167 HD
ATOM     55  C   UNL     1       2.290   6.395 -16.296  1.00  0.00     0.074 A 
ATOM     56  C   UNL     1       2.341   7.829 -16.489  1.00  0.00     0.031 C 
ATOM     57  C   UNL     1       2.167   5.494 -17.299  1.00  0.00     0.037 A 
BRANCH  44  58
ATOM     58  C   UNL     1       2.224  -0.384 -15.431  1.00  0.00     0.057 A 
ATOM     59  C   UNL     1       1.105  -1.184 -15.178  1.00  0.00     0.134 A 
ATOM     60  C   UNL     1       3.295  -0.968 -16.122  1.00  0.00     0.134 A 
ATOM     61  F   UNL     1       0.052  -0.689 -14.511  1.00  0.00    -0.206 F 
ATOM     62  C   UNL     1       1.058  -2.520 -15.584  1.00  0.00     0.040 A 
ATOM     63  C   UNL     1       3.251  -2.295 -16.552  1.00  0.00     0.040 A 
ATOM     64  F   UNL     1       4.395  -0.253 -16.403  1.00  0.00    -0.206 F 
ATOM     65  C   UNL     1       2.131  -3.076 -16.280  1.00  0.00     0.006 A 
ENDBRANCH  44  58
BRANCH  45  66
ATOM     66  C   UNL     1       2.814   9.125 -12.511  1.00  0.00     0.057 A 
ATOM     67  C   UNL     1       1.710   9.982 -12.550  1.00  0.00     0.134 A 
ATOM     68  C   UNL     1       4.029   9.655 -12.057  1.00  0.00     0.134 A 
ATOM     69  F   UNL     1       0.527   9.540 -13.001  1.00  0.00    -0.206 F 
ATOM     70  C   UNL     1       1.809  11.318 -12.155  1.00  0.00     0.040 A 
ATOM     71  C   UNL     1       4.135  10.980 -11.634  1.00  0.00     0.040 A 
ATOM     72  F   UNL     1       5.125   8.884 -11.998  1.00  0.00    -0.206 F 
ATOM     73  C   UNL     1       3.023  11.817 -11.687  1.00  0.00     0.006 A 
ENDBRANCH  45  66
BRANCH  57  74
ATOM     74  C   UNL     1       2.057   6.036 -18.691  1.00  0.00     0.057 A 
ATOM     75  C   UNL     1       3.173   6.532 -19.375  1.00  0.00     0.134 A 
ATOM     76  C   UNL     1       0.829   6.037 -19.363  1.00  0.00     0.134 A 
ATOM     77  F   UNL     1       4.374   6.572 -18.777  1.00  0.00    -0.206 F 
ATOM     78  C   UNL     1       3.069   7.026 -20.676  1.00  0.00     0.040 A 
ATOM     79  C   UNL     1       0.716   6.509 -20.671  1.00  0.00     0.040 A 
ATOM     80  F   UNL     1      -0.277   5.571 -18.763  1.00  0.00    -0.206 F 
ATOM     81  C   UNL     1       1.838   7.010 -21.329  1.00  0.00     0.006 A 
ENDBRANCH  57  74
ENDBRANCH  31  32
ENDBRANCH  24  26
ENDBRANCH  23  24
ENDBRANCH  22  23
ENDBRANCH   1  22
TORSDOF 14
