REMARK SMILES Cc1ccc(C)c(N2C(=O)S[C@H](CC(=O)Nc3ccc(C(=O)OCCOC(=O)c4ccc(-c5c6nc(c(-c7c(F)cccc7F)c7ccc([nH]7)c(-c7c(F)cccc7F)c7nc(c(-c8c(F)cccc8F)c8ccc5[nH]8)C=C7)C=C6)cc4)c(O)c3)C2=O)c1
REMARK SMILES IDX 24 1 23 2 21 3 22 4 20 5 17 6 18 7 85 8 19 9 83 10 16 11
REMARK SMILES IDX 14 12 15 13 13 15 12 16 8 17 9 18 86 19 10 20 11 21 87 22
REMARK SMILES IDX 7 23 1 24 2 25 3 26 88 27 4 28 5 29 6 30 84 31 25 33 26 34
REMARK SMILES IDX 27 35 28 36 29 37 30 38 82 39 31 40 81 41 32 42 33 43 34 44
REMARK SMILES IDX 75 45 35 46 80 47 74 48 76 49 36 50 79 51 73 52 72 53 37 55
REMARK SMILES IDX 63 56 46 57 62 58 47 59 50 60 61 61 77 62 48 63 49 64 60 66
REMARK SMILES IDX 78 67 51 68 38 69 39 70 44 71 40 72 41 73 43 74 45 75 42 76
REMARK SMILES IDX 64 77 65 78 70 79 66 80 67 81 69 82 71 83 68 84 52 85 53 86
REMARK SMILES IDX 58 87 54 88 55 89 57 90 59 91 56 92
REMARK H PARENT 16 14 84 32 76 54 50 65
REMARK Flexibility Score: inf
ROOT
ATOM      1  C   UNL     1       3.530   5.530  -2.985  1.00  0.00     0.275 C 
ENDROOT
BRANCH   1   2
ATOM      2  O   UNL     1       2.314   5.775  -2.280  1.00  0.00    -0.458 OA
BRANCH   2   3
ATOM      3  C   UNL     1       1.658   6.881  -2.698  1.00  0.00     0.342 C 
ATOM      4  O   UNL     1       2.027   7.700  -3.522  1.00  0.00    -0.246 OA
BRANCH   3   5
ATOM      5  C   UNL     1       0.490   7.082  -1.845  1.00  0.00     0.101 A 
ATOM      6  C   UNL     1      -1.599   7.337  -0.029  1.00  0.00     0.044 A 
ATOM      7  C   UNL     1      -1.630   6.357  -1.020  1.00  0.00     0.027 A 
ATOM      8  C   UNL     1      -0.591   8.298  -0.052  1.00  0.00     0.073 A 
ATOM      9  C   UNL     1      -0.570   6.188  -1.898  1.00  0.00     0.022 A 
ATOM     10  C   UNL     1       0.448   8.174  -0.976  1.00  0.00     0.132 A 
BRANCH   6  11
ATOM     11  N   UNL     1      -2.594   7.373   0.958  1.00  0.00    -0.326 N 
ATOM     12  C   UNL     1      -3.216   6.297   1.555  1.00  0.00     0.226 C 
ATOM     13  O   UNL     1      -4.293   6.445   2.131  1.00  0.00    -0.275 OA
ATOM     14  H   UNL     1      -2.881   8.266   1.258  1.00  0.00     0.169 HD
BRANCH  12  15
ATOM     15  C   UNL     1      -2.436   4.993   1.672  1.00  0.00     0.125 C 
BRANCH  15  16
ATOM     16  C   UNL     1      -3.218   3.724   1.357  1.00  0.00     0.156 C 
ATOM     17  N   UNL     1      -1.805   2.083   0.317  1.00  0.00    -0.240 N 
ATOM     18  C   UNL     1      -2.412   2.564  -0.824  1.00  0.00     0.293 C 
ATOM     19  C   UNL     1      -2.281   2.540   1.532  1.00  0.00     0.248 C 
ATOM     20  O   UNL     1      -2.171   2.339  -1.983  1.00  0.00    -0.261 OA
ATOM     21  S   UNL     1      -3.767   3.593  -0.366  1.00  0.00    -0.050 SA
ATOM     22  O   UNL     1      -1.991   2.099   2.642  1.00  0.00    -0.273 OA
BRANCH  17  23
ATOM     23  C   UNL     1      -0.967   0.946   0.245  1.00  0.00     0.056 A 
ATOM     24  C   UNL     1       2.769   0.142   0.098  1.00  0.00     0.044 C 
ATOM     25  C   UNL     1       1.276  -0.007   0.147  1.00  0.00    -0.049 A 
ATOM     26  C   UNL     1       0.713  -1.284   0.067  1.00  0.00     0.004 A 
ATOM     27  C   UNL     1       0.428   1.106   0.257  1.00  0.00     0.030 A 
ATOM     28  C   UNL     1      -0.672  -1.448   0.071  1.00  0.00     0.006 A 
ATOM     29  C   UNL     1      -1.529  -0.341   0.149  1.00  0.00    -0.027 A 
ATOM     30  C   UNL     1      -3.010  -0.599   0.143  1.00  0.00     0.046 C 
ENDBRANCH  17  23
ENDBRANCH  15  16
ENDBRANCH  12  15
ENDBRANCH   6  11
BRANCH  10  31
ATOM     31  O   UNL     1       1.415   9.142  -0.973  1.00  0.00    -0.507 OA
ATOM     32  H   UNL     1       2.128   9.094  -1.578  1.00  0.00     0.293 HD
ENDBRANCH  10  31
ENDBRANCH   3   5
ENDBRANCH   2   3
ENDBRANCH   1   2
BRANCH   1  33
ATOM     33  C   UNL     1       4.064   4.123  -2.693  1.00  0.00     0.275 C 
BRANCH  33  34
ATOM     34  O   UNL     1       3.129   3.007  -2.599  1.00  0.00    -0.458 OA
BRANCH  34  35
ATOM     35  C   UNL     1       1.836   3.041  -3.015  1.00  0.00     0.338 C 
ATOM     36  O   UNL     1       0.905   2.787  -2.267  1.00  0.00    -0.246 OA
BRANCH  35  37
ATOM     37  C   UNL     1       1.620   3.450  -4.421  1.00  0.00     0.060 A 
ATOM     38  C   UNL     1       0.388   4.004  -4.794  1.00  0.00     0.016 A 
ATOM     39  C   UNL     1       2.700   3.500  -5.288  1.00  0.00     0.016 A 
ATOM     40  C   UNL     1       0.309   4.812  -5.929  1.00  0.00     0.010 A 
ATOM     41  C   UNL     1       2.653   4.403  -6.329  1.00  0.00     0.010 A 
ATOM     42  C   UNL     1       1.467   5.068  -6.668  1.00  0.00    -0.014 A 
BRANCH  42  43
ATOM     43  C   UNL     1       1.467   6.042  -7.766  1.00  0.00     0.031 A 
ATOM     44  C   UNL     1       0.847   7.398  -7.563  1.00  0.00     0.074 A 
ATOM     45  C   UNL     1       2.170   5.844  -8.901  1.00  0.00     0.049 A 
ATOM     46  N   UNL     1      -0.193   7.899  -8.155  1.00  0.00    -0.248 NA
ATOM     47  C   UNL     1       1.466   8.318  -6.602  1.00  0.00     0.031 C 
ATOM     48  C   UNL     1       3.063   4.738  -9.272  1.00  0.00     0.029 A 
ATOM     49  N   UNL     1       2.270   6.682  -9.967  1.00  0.00    -0.354 N 
ATOM     50  C   UNL     1      -0.292   9.237  -7.753  1.00  0.00     0.074 A 
ATOM     51  C   UNL     1       0.701   9.408  -6.723  1.00  0.00     0.031 C 
ATOM     52  C   UNL     1       3.782   5.079 -10.361  1.00  0.00     0.029 A 
ATOM     53  C   UNL     1       3.233   6.312 -10.883  1.00  0.00     0.049 A 
ATOM     54  H   UNL     1       1.705   7.481 -10.076  1.00  0.00     0.167 HD
ATOM     55  C   UNL     1      -1.090  10.145  -8.396  1.00  0.00     0.037 A 
ATOM     56  C   UNL     1       3.542   6.930 -12.040  1.00  0.00     0.037 A 
ATOM     57  C   UNL     1      -2.018   9.493  -9.281  1.00  0.00     0.049 A 
ATOM     58  C   UNL     1       2.349   7.699 -12.457  1.00  0.00     0.074 A 
ATOM     59  C   UNL     1      -3.060   8.601  -9.126  1.00  0.00     0.029 A 
ATOM     60  N   UNL     1      -1.743   9.490 -10.625  1.00  0.00    -0.354 N 
ATOM     61  N   UNL     1       1.217   7.144 -12.800  1.00  0.00    -0.248 NA
ATOM     62  C   UNL     1       2.269   9.098 -12.077  1.00  0.00     0.031 C 
ATOM     63  C   UNL     1      -2.962   7.735 -10.257  1.00  0.00     0.029 A 
ATOM     64  C   UNL     1      -1.899   8.194 -11.039  1.00  0.00     0.049 A 
ATOM     65  H   UNL     1      -1.486  10.263 -11.179  1.00  0.00     0.167 HD
ATOM     66  C   UNL     1       0.237   7.987 -12.295  1.00  0.00     0.074 A 
ATOM     67  C   UNL     1       0.945   9.219 -11.951  1.00  0.00     0.031 C 
ATOM     68  C   UNL     1      -1.006   7.527 -11.960  1.00  0.00     0.037 A 
BRANCH  55  69
ATOM     69  C   UNL     1      -0.899  11.646  -8.454  1.00  0.00     0.057 A 
ATOM     70  C   UNL     1      -1.915  12.462  -8.999  1.00  0.00     0.134 A 
ATOM     71  C   UNL     1       0.334  12.294  -8.257  1.00  0.00     0.134 A 
ATOM     72  F   UNL     1      -3.138  11.970  -9.247  1.00  0.00    -0.206 F 
ATOM     73  C   UNL     1      -1.698  13.794  -9.382  1.00  0.00     0.040 A 
ATOM     74  C   UNL     1       0.548  13.639  -8.591  1.00  0.00     0.040 A 
ATOM     75  F   UNL     1       1.417  11.639  -7.824  1.00  0.00    -0.206 F 
ATOM     76  C   UNL     1      -0.460  14.386  -9.184  1.00  0.00     0.006 A 
ENDBRANCH  55  69
BRANCH  56  77
ATOM     77  C   UNL     1       4.889   7.072 -12.610  1.00  0.00     0.057 A 
ATOM     78  C   UNL     1       5.093   7.295 -13.972  1.00  0.00     0.134 A 
ATOM     79  C   UNL     1       6.012   7.215 -11.772  1.00  0.00     0.134 A 
ATOM     80  F   UNL     1       4.070   7.211 -14.834  1.00  0.00    -0.206 F 
ATOM     81  C   UNL     1       6.348   7.656 -14.477  1.00  0.00     0.040 A 
ATOM     82  C   UNL     1       7.269   7.573 -12.262  1.00  0.00     0.040 A 
ATOM     83  F   UNL     1       5.902   7.085 -10.440  1.00  0.00    -0.206 F 
ATOM     84  C   UNL     1       7.437   7.806 -13.620  1.00  0.00     0.006 A 
ENDBRANCH  56  77
BRANCH  68  85
ATOM     85  C   UNL     1      -1.372   6.113 -12.329  1.00  0.00     0.057 A 
ATOM     86  C   UNL     1      -0.752   4.984 -11.776  1.00  0.00     0.134 A 
ATOM     87  C   UNL     1      -2.513   5.882 -13.104  1.00  0.00     0.134 A 
ATOM     88  F   UNL     1       0.280   5.104 -10.937  1.00  0.00    -0.206 F 
ATOM     89  C   UNL     1      -1.220   3.687 -12.008  1.00  0.00     0.040 A 
ATOM     90  C   UNL     1      -3.011   4.593 -13.321  1.00  0.00     0.040 A 
ATOM     91  F   UNL     1      -3.204   6.914 -13.614  1.00  0.00    -0.206 F 
ATOM     92  C   UNL     1      -2.360   3.489 -12.777  1.00  0.00     0.006 A 
ENDBRANCH  68  85
ENDBRANCH  42  43
ENDBRANCH  35  37
ENDBRANCH  34  35
ENDBRANCH  33  34
ENDBRANCH   1  33
TORSDOF 16
