REMARK SMILES O=C(OCCOC(=O)[C@@H]1CCn2c(C(=O)c3ccccc3)ccc21)c1ccc(-c2c3nc(c(-c4c(F)cccc4F)c4ccc([nH]4)c(-c4c(F)cccc4F)c4nc(c(-c5c(F)cccc5F)c5ccc2[nH]5)C=C4)C=C3)cc1
REMARK SMILES IDX 4 1 3 2 2 3 1 4 25 5 26 6 78 7 27 8 77 9 28 10 29 11 30 12
REMARK SMILES IDX 71 13 31 14 76 15 70 16 72 17 32 18 75 19 69 20 68 21 33 23
REMARK SMILES IDX 59 24 42 25 58 26 43 27 46 28 57 29 73 30 44 31 45 32 56 34
REMARK SMILES IDX 74 35 47 36 34 37 35 38 40 39 36 40 37 41 39 42 41 43 38 44
REMARK SMILES IDX 60 45 61 46 66 47 62 48 63 49 65 50 67 51 64 52 48 53 49 54
REMARK SMILES IDX 54 55 50 56 51 57 53 58 55 59 52 60 5 61 6 62 7 63 8 64 9 65
REMARK SMILES IDX 10 66 24 67 11 68 12 69 23 70 13 71 22 72 14 73 15 74 16 75
REMARK SMILES IDX 17 76 21 77 18 78 20 79 19 80
REMARK H PARENT 72 22 46 33
REMARK Flexibility Score: inf
ROOT
ATOM      1  C   UNL     1       4.112  -1.500  -0.095  1.00  0.00     0.275 C 
ENDROOT
BRANCH   1   2
ATOM      2  O   UNL     1       3.126  -0.766   0.640  1.00  0.00    -0.458 OA
BRANCH   2   3
ATOM      3  C   UNL     1       3.216   0.522   1.057  1.00  0.00     0.338 C 
ATOM      4  O   UNL     1       2.607   0.888   2.049  1.00  0.00    -0.246 OA
BRANCH   3   5
ATOM      5  C   UNL     1       3.870   1.568   0.210  1.00  0.00     0.060 A 
ATOM      6  C   UNL     1       5.093   1.447  -0.460  1.00  0.00     0.016 A 
ATOM      7  C   UNL     1       3.192   2.795   0.139  1.00  0.00     0.016 A 
ATOM      8  C   UNL     1       5.587   2.485  -1.262  1.00  0.00     0.010 A 
ATOM      9  C   UNL     1       3.694   3.841  -0.637  1.00  0.00     0.010 A 
ATOM     10  C   UNL     1       4.881   3.683  -1.369  1.00  0.00    -0.014 A 
BRANCH  10  11
ATOM     11  C   UNL     1       5.424   4.842  -2.114  1.00  0.00     0.031 A 
ATOM     12  C   UNL     1       5.920   6.007  -1.313  1.00  0.00     0.074 A 
ATOM     13  C   UNL     1       5.395   4.898  -3.458  1.00  0.00     0.049 A 
ATOM     14  N   UNL     1       6.293   7.193  -1.712  1.00  0.00    -0.248 NA
ATOM     15  C   UNL     1       5.975   5.807   0.144  1.00  0.00     0.031 C 
ATOM     16  C   UNL     1       4.957   3.825  -4.348  1.00  0.00     0.029 A 
ATOM     17  N   UNL     1       5.709   5.926  -4.312  1.00  0.00    -0.354 N 
ATOM     18  C   UNL     1       6.620   7.880  -0.552  1.00  0.00     0.074 A 
ATOM     19  C   UNL     1       6.316   7.012   0.563  1.00  0.00     0.031 C 
ATOM     20  C   UNL     1       4.965   4.271  -5.617  1.00  0.00     0.029 A 
ATOM     21  C   UNL     1       5.422   5.658  -5.630  1.00  0.00     0.049 A 
ATOM     22  H   UNL     1       6.102   6.777  -4.010  1.00  0.00     0.167 HD
ATOM     23  C   UNL     1       7.170   9.110  -0.425  1.00  0.00     0.037 A 
ATOM     24  C   UNL     1       5.519   6.447  -6.718  1.00  0.00     0.037 A 
ATOM     25  C   UNL     1       7.483   9.959  -1.537  1.00  0.00     0.049 A 
ATOM     26  C   UNL     1       6.085   7.834  -6.560  1.00  0.00     0.074 A 
ATOM     27  C   UNL     1       8.072  11.209  -1.535  1.00  0.00     0.029 A 
ATOM     28  N   UNL     1       7.227   9.633  -2.861  1.00  0.00    -0.354 N 
ATOM     29  N   UNL     1       6.459   8.451  -5.465  1.00  0.00    -0.248 NA
ATOM     30  C   UNL     1       6.275   8.621  -7.787  1.00  0.00     0.031 C 
ATOM     31  C   UNL     1       8.153  11.649  -2.862  1.00  0.00     0.029 A 
ATOM     32  C   UNL     1       7.643  10.658  -3.689  1.00  0.00     0.049 A 
ATOM     33  H   UNL     1       6.810   8.794  -3.166  1.00  0.00     0.167 HD
ATOM     34  C   UNL     1       6.989   9.669  -5.875  1.00  0.00     0.074 A 
ATOM     35  C   UNL     1       6.864   9.713  -7.318  1.00  0.00     0.031 C 
ATOM     36  C   UNL     1       7.545  10.653  -5.127  1.00  0.00     0.037 A 
BRANCH  23  37
ATOM     37  C   UNL     1       7.455   9.561   0.975  1.00  0.00     0.057 A 
ATOM     38  C   UNL     1       8.448   8.944   1.752  1.00  0.00     0.134 A 
ATOM     39  C   UNL     1       6.664  10.537   1.590  1.00  0.00     0.134 A 
ATOM     40  F   UNL     1       9.220   7.980   1.226  1.00  0.00    -0.206 F 
ATOM     41  C   UNL     1       8.600   9.236   3.107  1.00  0.00     0.040 A 
ATOM     42  C   UNL     1       6.828  10.860   2.938  1.00  0.00     0.040 A 
ATOM     43  F   UNL     1       5.697  11.164   0.903  1.00  0.00    -0.206 F 
ATOM     44  C   UNL     1       7.785  10.194   3.705  1.00  0.00     0.006 A 
ENDBRANCH  23  37
BRANCH  24  45
ATOM     45  C   UNL     1       5.116   5.939  -8.054  1.00  0.00     0.057 A 
ATOM     46  C   UNL     1       6.073   5.609  -9.021  1.00  0.00     0.134 A 
ATOM     47  C   UNL     1       3.769   5.792  -8.405  1.00  0.00     0.134 A 
ATOM     48  F   UNL     1       7.379   5.742  -8.749  1.00  0.00    -0.206 F 
ATOM     49  C   UNL     1       5.706   5.173 -10.297  1.00  0.00     0.040 A 
ATOM     50  C   UNL     1       3.388   5.343  -9.672  1.00  0.00     0.040 A 
ATOM     51  F   UNL     1       2.804   6.083  -7.520  1.00  0.00    -0.206 F 
ATOM     52  C   UNL     1       4.358   5.039 -10.624  1.00  0.00     0.006 A 
ENDBRANCH  24  45
BRANCH  36  53
ATOM     53  C   UNL     1       8.138  11.823  -5.850  1.00  0.00     0.057 A 
ATOM     54  C   UNL     1       7.346  12.839  -6.393  1.00  0.00     0.134 A 
ATOM     55  C   UNL     1       9.530  11.977  -5.911  1.00  0.00     0.134 A 
ATOM     56  F   UNL     1       6.008  12.741  -6.377  1.00  0.00    -0.206 F 
ATOM     57  C   UNL     1       7.918  13.972  -6.973  1.00  0.00     0.040 A 
ATOM     58  C   UNL     1      10.112  13.114  -6.468  1.00  0.00     0.040 A 
ATOM     59  F   UNL     1      10.341  11.037  -5.402  1.00  0.00    -0.206 F 
ATOM     60  C   UNL     1       9.305  14.117  -7.000  1.00  0.00     0.006 A 
ENDBRANCH  36  53
ENDBRANCH  10  11
ENDBRANCH   3   5
ENDBRANCH   2   3
ENDBRANCH   1   2
BRANCH   1  61
ATOM     61  C   UNL     1       3.848  -1.579  -1.600  1.00  0.00     0.274 C 
BRANCH  61  62
ATOM     62  O   UNL     1       3.214  -0.412  -2.157  1.00  0.00    -0.462 OA
BRANCH  62  63
ATOM     63  C   UNL     1       1.861  -0.516  -2.322  1.00  0.00     0.315 C 
ATOM     64  O   UNL     1       1.218  -1.512  -2.004  1.00  0.00    -0.251 OA
BRANCH  63  65
ATOM     65  C   UNL     1       1.235   0.686  -3.036  1.00  0.00     0.148 C 
ATOM     66  C   UNL     1       2.099   1.948  -3.238  1.00  0.00     0.043 C 
ATOM     67  C   UNL     1       0.095   1.228  -2.247  1.00  0.00     0.033 A 
ATOM     68  C   UNL     1       1.205   3.164  -2.911  1.00  0.00     0.124 C 
ATOM     69  N   UNL     1       0.127   2.593  -2.130  1.00  0.00    -0.341 N 
ATOM     70  C   UNL     1      -1.027   0.760  -1.628  1.00  0.00     0.025 A 
ATOM     71  C   UNL     1      -0.916   3.054  -1.380  1.00  0.00     0.090 A 
ATOM     72  C   UNL     1      -1.663   1.903  -1.090  1.00  0.00     0.032 A 
BRANCH  71  73
ATOM     73  C   UNL     1      -1.294   4.378  -0.904  1.00  0.00     0.209 C 
ATOM     74  O   UNL     1      -2.383   4.582  -0.362  1.00  0.00    -0.287 OA
BRANCH  73  75
ATOM     75  C   UNL     1      -0.396   5.551  -0.928  1.00  0.00     0.024 A 
ATOM     76  C   UNL     1      -0.152   6.206   0.290  1.00  0.00     0.012 A 
ATOM     77  C   UNL     1       0.043   6.125  -2.123  1.00  0.00     0.012 A 
ATOM     78  C   UNL     1       0.557   7.407   0.316  1.00  0.00     0.001 A 
ATOM     79  C   UNL     1       0.770   7.319  -2.091  1.00  0.00     0.001 A 
ATOM     80  C   UNL     1       1.024   7.959  -0.875  1.00  0.00     0.000 A 
ENDBRANCH  73  75
ENDBRANCH  71  73
ENDBRANCH  63  65
ENDBRANCH  62  63
ENDBRANCH  61  62
ENDBRANCH   1  61
TORSDOF 13
