REMARK SMILES COc1nc(-c2ccccc2)nc(C)c1CC(=O)OCCOC(=O)c1ccc(-c2c3nc(c(-c4c(F)cccc4F)c4ccc([nH]4)c(-c4c(F)cccc4F)c4nc(c(-c5c(F)cccc5F)c5ccc2[nH]5)C=C4)C=C3)cc1
REMARK SMILES IDX 20 1 19 2 17 3 18 4 16 5 15 6 3 7 4 8 5 9 13 10 12 11 14 12
REMARK SMILES IDX 2 13 1 14 6 15 7 16 11 17 8 18 10 19 9 20 21 21 22 22 23 23
REMARK SMILES IDX 24 24 25 25 26 26 78 27 27 28 77 29 28 30 29 31 30 32 71 33
REMARK SMILES IDX 31 34 76 35 70 36 72 37 32 38 75 39 69 40 68 41 33 43 59 44
REMARK SMILES IDX 42 45 58 46 43 47 46 48 57 49 73 50 44 51 45 52 56 54 74 55
REMARK SMILES IDX 47 56 34 57 35 58 40 59 36 60 37 61 39 62 41 63 38 64 60 65
REMARK SMILES IDX 61 66 66 67 62 68 63 69 65 70 67 71 64 72 48 73 49 74 54 75
REMARK SMILES IDX 50 76 51 77 53 78 55 79 52 80
REMARK H PARENT 72 42 46 53
REMARK Flexibility Score: inf
ROOT
ATOM      1  C   UNL     1       3.024   0.873  -2.683  1.00  0.00     0.274 C 
ENDROOT
BRANCH   1   2
ATOM      2  O   UNL     1       2.811  -0.434  -2.114  1.00  0.00    -0.462 OA
BRANCH   2   3
ATOM      3  C   UNL     1       3.737  -0.835  -1.204  1.00  0.00     0.310 C 
ATOM      4  O   UNL     1       4.745  -0.199  -0.909  1.00  0.00    -0.252 OA
BRANCH   3   5
ATOM      5  C   UNL     1       3.417  -2.145  -0.529  1.00  0.00     0.165 C 
BRANCH   5   6
ATOM      6  C   UNL     1       2.234  -2.909  -1.047  1.00  0.00     0.047 A 
ATOM      7  C   UNL     1       0.949  -2.673  -0.582  1.00  0.00     0.220 A 
ATOM      8  N   UNL     1      -0.132  -3.363  -0.974  1.00  0.00    -0.193 NA
ATOM      9  C   UNL     1       0.089  -4.348  -1.854  1.00  0.00     0.163 A 
ATOM     10  C   UNL     1       2.340  -3.900  -2.012  1.00  0.00     0.049 A 
ATOM     11  N   UNL     1       1.284  -4.648  -2.392  1.00  0.00    -0.233 NA
ATOM     12  C   UNL     1       3.646  -4.255  -2.660  1.00  0.00     0.067 C 
BRANCH   7  13
ATOM     13  O   UNL     1       0.793  -1.685   0.374  1.00  0.00    -0.481 OA
ATOM     14  C   UNL     1      -0.567  -1.482   0.758  1.00  0.00     0.280 C 
ENDBRANCH   7  13
BRANCH   9  15
ATOM     15  C   UNL     1      -1.051  -5.183  -2.227  1.00  0.00     0.019 A 
ATOM     16  C   UNL     1      -1.014  -6.577  -2.048  1.00  0.00     0.012 A 
ATOM     17  C   UNL     1      -2.219  -4.614  -2.761  1.00  0.00     0.012 A 
ATOM     18  C   UNL     1      -2.109  -7.375  -2.387  1.00  0.00     0.001 A 
ATOM     19  C   UNL     1      -3.308  -5.412  -3.117  1.00  0.00     0.001 A 
ATOM     20  C   UNL     1      -3.254  -6.792  -2.926  1.00  0.00     0.000 A 
ENDBRANCH   9  15
ENDBRANCH   5   6
ENDBRANCH   3   5
ENDBRANCH   2   3
ENDBRANCH   1   2
BRANCH   1  21
ATOM     21  C   UNL     1       2.145   1.911  -1.990  1.00  0.00     0.275 C 
BRANCH  21  22
ATOM     22  O   UNL     1       2.324   1.829  -0.565  1.00  0.00    -0.458 OA
BRANCH  22  23
ATOM     23  C   UNL     1       1.185   1.752   0.159  1.00  0.00     0.338 C 
ATOM     24  O   UNL     1       0.038   1.831  -0.256  1.00  0.00    -0.246 OA
BRANCH  23  25
ATOM     25  C   UNL     1       1.496   1.581   1.593  1.00  0.00     0.060 A 
ATOM     26  C   UNL     1       2.484   0.692   2.024  1.00  0.00     0.016 A 
ATOM     27  C   UNL     1       0.709   2.257   2.528  1.00  0.00     0.016 A 
ATOM     28  C   UNL     1       2.646   0.435   3.386  1.00  0.00     0.010 A 
ATOM     29  C   UNL     1       0.924   2.057   3.892  1.00  0.00     0.010 A 
ATOM     30  C   UNL     1       1.881   1.130   4.335  1.00  0.00    -0.014 A 
BRANCH  30  31
ATOM     31  C   UNL     1       2.095   0.927   5.791  1.00  0.00     0.031 A 
ATOM     32  C   UNL     1       0.999   0.373   6.659  1.00  0.00     0.074 A 
ATOM     33  C   UNL     1       3.266   1.293   6.345  1.00  0.00     0.049 A 
ATOM     34  N   UNL     1       0.943   0.288   7.965  1.00  0.00    -0.248 NA
ATOM     35  C   UNL     1      -0.194  -0.145   5.972  1.00  0.00     0.031 C 
ATOM     36  C   UNL     1       4.415   1.833   5.617  1.00  0.00     0.029 A 
ATOM     37  N   UNL     1       3.677   1.282   7.655  1.00  0.00    -0.354 N 
ATOM     38  C   UNL     1      -0.298  -0.262   8.258  1.00  0.00     0.074 A 
ATOM     39  C   UNL     1      -0.969  -0.485   6.994  1.00  0.00     0.031 C 
ATOM     40  C   UNL     1       5.403   2.091   6.486  1.00  0.00     0.029 A 
ATOM     41  C   UNL     1       4.936   1.797   7.836  1.00  0.00     0.049 A 
ATOM     42  H   UNL     1       3.122   0.937   8.392  1.00  0.00     0.167 HD
ATOM     43  C   UNL     1      -0.828  -0.553   9.471  1.00  0.00     0.037 A 
ATOM     44  C   UNL     1       5.627   2.046   8.963  1.00  0.00     0.037 A 
ATOM     45  C   UNL     1      -0.150  -0.359  10.727  1.00  0.00     0.049 A 
ATOM     46  C   UNL     1       5.005   1.748  10.294  1.00  0.00     0.074 A 
ATOM     47  C   UNL     1      -0.596  -0.659  12.003  1.00  0.00     0.029 A 
ATOM     48  N   UNL     1       1.119   0.182  10.865  1.00  0.00    -0.354 N 
ATOM     49  N   UNL     1       3.824   1.246  10.557  1.00  0.00    -0.248 NA
ATOM     50  C   UNL     1       5.806   2.067  11.484  1.00  0.00     0.031 C 
ATOM     51  C   UNL     1       0.391  -0.272  12.916  1.00  0.00     0.029 A 
ATOM     52  C   UNL     1       1.465   0.239  12.206  1.00  0.00     0.049 A 
ATOM     53  H   UNL     1       1.690   0.480  10.121  1.00  0.00     0.167 HD
ATOM     54  C   UNL     1       3.741   1.181  11.941  1.00  0.00     0.074 A 
ATOM     55  C   UNL     1       4.997   1.680  12.462  1.00  0.00     0.031 C 
ATOM     56  C   UNL     1       2.713   0.747  12.710  1.00  0.00     0.037 A 
BRANCH  43  57
ATOM     57  C   UNL     1      -2.222  -1.102   9.508  1.00  0.00     0.057 A 
ATOM     58  C   UNL     1      -2.501  -2.433   9.178  1.00  0.00     0.134 A 
ATOM     59  C   UNL     1      -3.288  -0.304   9.943  1.00  0.00     0.134 A 
ATOM     60  F   UNL     1      -1.524  -3.244   8.745  1.00  0.00    -0.206 F 
ATOM     61  C   UNL     1      -3.794  -2.951   9.272  1.00  0.00     0.040 A 
ATOM     62  C   UNL     1      -4.582  -0.815  10.058  1.00  0.00     0.040 A 
ATOM     63  F   UNL     1      -3.086   0.979  10.279  1.00  0.00    -0.206 F 
ATOM     64  C   UNL     1      -4.838  -2.143   9.720  1.00  0.00     0.006 A 
ENDBRANCH  43  57
BRANCH  44  65
ATOM     65  C   UNL     1       6.983   2.636   8.870  1.00  0.00     0.057 A 
ATOM     66  C   UNL     1       8.122   1.867   9.124  1.00  0.00     0.134 A 
ATOM     67  C   UNL     1       7.170   3.972   8.495  1.00  0.00     0.134 A 
ATOM     68  F   UNL     1       8.001   0.587   9.507  1.00  0.00    -0.206 F 
ATOM     69  C   UNL     1       9.404   2.405   9.008  1.00  0.00     0.040 A 
ATOM     70  C   UNL     1       8.447   4.517   8.355  1.00  0.00     0.040 A 
ATOM     71  F   UNL     1       6.114   4.757   8.236  1.00  0.00    -0.206 F 
ATOM     72  C   UNL     1       9.568   3.732   8.614  1.00  0.00     0.006 A 
ENDBRANCH  44  65
BRANCH  56  73
ATOM     73  C   UNL     1       2.917   0.784  14.193  1.00  0.00     0.057 A 
ATOM     74  C   UNL     1       2.842   1.982  14.913  1.00  0.00     0.134 A 
ATOM     75  C   UNL     1       3.178  -0.391  14.909  1.00  0.00     0.134 A 
ATOM     76  F   UNL     1       2.611   3.142  14.280  1.00  0.00    -0.206 F 
ATOM     77  C   UNL     1       3.041   2.014  16.294  1.00  0.00     0.040 A 
ATOM     78  C   UNL     1       3.361  -0.374  16.292  1.00  0.00     0.040 A 
ATOM     79  F   UNL     1       3.258  -1.570  14.275  1.00  0.00    -0.206 F 
ATOM     80  C   UNL     1       3.297   0.832  16.988  1.00  0.00     0.006 A 
ENDBRANCH  56  73
ENDBRANCH  30  31
ENDBRANCH  23  25
ENDBRANCH  22  23
ENDBRANCH  21  22
ENDBRANCH   1  21
TORSDOF 14
