REMARK SMILES O=C(CNC(=O)c1ccco1)Nc1cccc(C(=O)OCCOC(=O)c2ccc(-c3c4nc(c(-c5c(F)cccc5F)c5ccc([nH]5)c(-c5c(F)cccc5F)c5nc(c(-c6c(F)cccc6F)c6ccc3[nH]6)C=C5)C=C4)cc2)c1
REMARK SMILES IDX 21 1 20 2 18 3 19 4 17 5 13 6 14 7 80 8 15 9 16 10 12 11
REMARK SMILES IDX 1 12 2 13 3 15 4 16 5 17 6 19 7 20 8 21 11 22 9 23 10 24
REMARK SMILES IDX 22 25 23 26 24 27 25 28 26 29 27 30 79 31 28 32 78 33 29 34
REMARK SMILES IDX 30 35 31 36 72 37 32 38 77 39 71 40 73 41 33 42 76 43 70 44
REMARK SMILES IDX 69 45 34 47 60 48 43 49 59 50 44 51 47 52 58 53 74 54 45 55
REMARK SMILES IDX 46 56 57 58 75 59 48 60 35 61 36 62 41 63 37 64 38 65 40 66
REMARK SMILES IDX 42 67 39 68 61 69 62 70 67 71 63 72 64 73 66 74 68 75 65 76
REMARK SMILES IDX 49 77 50 78 55 79 51 80 52 81 54 82 56 83 53 84
REMARK H PARENT 12 14 4 18 73 46 47 57
REMARK Flexibility Score: inf
ROOT
ATOM      1  C   UNL     1      -1.796   4.717   0.256  1.00  0.00     0.275 C 
ENDROOT
BRANCH   1   2
ATOM      2  O   UNL     1      -0.651   3.989  -0.231  1.00  0.00    -0.458 OA
BRANCH   2   3
ATOM      3  C   UNL     1      -0.714   3.541  -1.510  1.00  0.00     0.338 C 
ATOM      4  O   UNL     1      -1.626   3.700  -2.302  1.00  0.00    -0.246 OA
BRANCH   3   5
ATOM      5  C   UNL     1       0.563   2.882  -1.865  1.00  0.00     0.062 A 
ATOM      6  C   UNL     1       2.333   1.326  -1.324  1.00  0.00     0.042 A 
ATOM      7  C   UNL     1       2.967   1.639  -2.533  1.00  0.00     0.026 A 
ATOM      8  C   UNL     1       1.160   1.993  -0.971  1.00  0.00     0.041 A 
ATOM      9  C   UNL     1       2.366   2.516  -3.436  1.00  0.00     0.003 A 
ATOM     10  C   UNL     1       1.143   3.100  -3.120  1.00  0.00     0.016 A 
BRANCH   6  11
ATOM     11  N   UNL     1       2.894   0.297  -0.546  1.00  0.00    -0.325 N 
ATOM     12  O   UNL     1       1.169  -0.119   0.968  1.00  0.00    -0.273 OA
ATOM     13  C   UNL     1       2.273  -0.375   0.492  1.00  0.00     0.243 C 
ATOM     14  H   UNL     1       3.816   0.029  -0.761  1.00  0.00     0.169 HD
BRANCH  13  15
ATOM     15  C   UNL     1       3.133  -1.465   1.130  1.00  0.00     0.216 C 
BRANCH  15  16
ATOM     16  N   UNL     1       4.185  -1.965   0.255  1.00  0.00    -0.340 N 
ATOM     17  C   UNL     1       5.543  -1.764   0.306  1.00  0.00     0.287 C 
ATOM     18  H   UNL     1       3.875  -2.534  -0.486  1.00  0.00     0.164 HD
ATOM     19  O   UNL     1       6.173  -2.068  -0.708  1.00  0.00    -0.266 OA
BRANCH  17  20
ATOM     20  C   UNL     1       6.148  -1.187   1.486  1.00  0.00     0.191 A 
ATOM     21  C   UNL     1       5.902  -1.305   2.843  1.00  0.00     0.056 A 
ATOM     22  O   UNL     1       7.227  -0.361   1.303  1.00  0.00    -0.459 OA
ATOM     23  C   UNL     1       6.835  -0.473   3.508  1.00  0.00     0.043 A 
ATOM     24  C   UNL     1       7.626   0.070   2.525  1.00  0.00     0.196 A 
ENDBRANCH  17  20
ENDBRANCH  15  16
ENDBRANCH  13  15
ENDBRANCH   6  11
ENDBRANCH   3   5
ENDBRANCH   2   3
ENDBRANCH   1   2
BRANCH   1  25
ATOM     25  C   UNL     1      -1.506   6.216   0.296  1.00  0.00     0.275 C 
BRANCH  25  26
ATOM     26  O   UNL     1      -1.373   6.712  -1.048  1.00  0.00    -0.458 OA
BRANCH  26  27
ATOM     27  C   UNL     1      -0.168   7.228  -1.374  1.00  0.00     0.338 C 
ATOM     28  O   UNL     1       0.794   7.410  -0.653  1.00  0.00    -0.246 OA
BRANCH  27  29
ATOM     29  C   UNL     1      -0.158   7.525  -2.815  1.00  0.00     0.060 A 
ATOM     30  C   UNL     1      -0.210   6.467  -3.717  1.00  0.00     0.016 A 
ATOM     31  C   UNL     1       0.012   8.828  -3.273  1.00  0.00     0.016 A 
ATOM     32  C   UNL     1      -0.009   6.684  -5.075  1.00  0.00     0.010 A 
ATOM     33  C   UNL     1       0.112   9.058  -4.650  1.00  0.00     0.010 A 
ATOM     34  C   UNL     1       0.132   7.987  -5.565  1.00  0.00    -0.014 A 
BRANCH  34  35
ATOM     35  C   UNL     1       0.331   8.232  -7.019  1.00  0.00     0.031 A 
ATOM     36  C   UNL     1       1.557   8.961  -7.495  1.00  0.00     0.074 A 
ATOM     37  C   UNL     1      -0.579   7.808  -7.919  1.00  0.00     0.049 A 
ATOM     38  N   UNL     1       1.810   9.480  -8.670  1.00  0.00    -0.248 NA
ATOM     39  C   UNL     1       2.639   9.143  -6.514  1.00  0.00     0.031 C 
ATOM     40  C   UNL     1      -1.784   7.034  -7.613  1.00  0.00     0.029 A 
ATOM     41  N   UNL     1      -0.632   7.974  -9.282  1.00  0.00    -0.354 N 
ATOM     42  C   UNL     1       3.044  10.107  -8.549  1.00  0.00     0.074 A 
ATOM     43  C   UNL     1       3.494   9.896  -7.190  1.00  0.00     0.031 C 
ATOM     44  C   UNL     1      -2.441   6.771  -8.752  1.00  0.00     0.029 A 
ATOM     45  C   UNL     1      -1.760   7.437  -9.856  1.00  0.00     0.049 A 
ATOM     46  H   UNL     1       0.069   8.434  -9.797  1.00  0.00     0.167 HD
ATOM     47  C   UNL     1       3.731  10.801  -9.487  1.00  0.00     0.037 A 
ATOM     48  C   UNL     1      -2.226   7.516 -11.117  1.00  0.00     0.037 A 
ATOM     49  C   UNL     1       3.307  10.956 -10.854  1.00  0.00     0.049 A 
ATOM     50  C   UNL     1      -1.464   8.317 -12.132  1.00  0.00     0.074 A 
ATOM     51  C   UNL     1       3.940  11.630 -11.883  1.00  0.00     0.029 A 
ATOM     52  N   UNL     1       2.148  10.410 -11.385  1.00  0.00    -0.354 N 
ATOM     53  N   UNL     1      -0.335   8.968 -11.990  1.00  0.00    -0.248 NA
ATOM     54  C   UNL     1      -2.052   8.416 -13.475  1.00  0.00     0.031 C 
ATOM     55  C   UNL     1       3.149  11.516 -13.032  1.00  0.00     0.029 A 
ATOM     56  C   UNL     1       2.043  10.739 -12.726  1.00  0.00     0.049 A 
ATOM     57  H   UNL     1       1.496   9.869 -10.883  1.00  0.00     0.167 HD
ATOM     58  C   UNL     1      -0.072   9.544 -13.225  1.00  0.00     0.074 A 
ATOM     59  C   UNL     1      -1.150   9.152 -14.109  1.00  0.00     0.031 C 
ATOM     60  C   UNL     1       0.968  10.332 -13.592  1.00  0.00     0.037 A 
BRANCH  47  61
ATOM     61  C   UNL     1       4.997  11.482  -9.056  1.00  0.00     0.057 A 
ATOM     62  C   UNL     1       6.178  10.775  -8.805  1.00  0.00     0.134 A 
ATOM     63  C   UNL     1       5.037  12.877  -8.925  1.00  0.00     0.134 A 
ATOM     64  F   UNL     1       6.202   9.437  -8.898  1.00  0.00    -0.206 F 
ATOM     65  C   UNL     1       7.350  11.429  -8.418  1.00  0.00     0.040 A 
ATOM     66  C   UNL     1       6.208  13.544  -8.562  1.00  0.00     0.040 A 
ATOM     67  F   UNL     1       3.940  13.614  -9.155  1.00  0.00    -0.206 F 
ATOM     68  C   UNL     1       7.368  12.818  -8.302  1.00  0.00     0.006 A 
ENDBRANCH  47  61
BRANCH  48  69
ATOM     69  C   UNL     1      -3.509   6.860 -11.471  1.00  0.00     0.057 A 
ATOM     70  C   UNL     1      -3.542   5.739 -12.307  1.00  0.00     0.134 A 
ATOM     71  C   UNL     1      -4.731   7.330 -10.973  1.00  0.00     0.134 A 
ATOM     72  F   UNL     1      -2.407   5.258 -12.836  1.00  0.00    -0.206 F 
ATOM     73  C   UNL     1      -4.744   5.111 -12.639  1.00  0.00     0.040 A 
ATOM     74  C   UNL     1      -5.937   6.696 -11.274  1.00  0.00     0.040 A 
ATOM     75  F   UNL     1      -4.767   8.401 -10.166  1.00  0.00    -0.206 F 
ATOM     76  C   UNL     1      -5.945   5.585 -12.114  1.00  0.00     0.006 A 
ENDBRANCH  48  69
BRANCH  60  77
ATOM     77  C   UNL     1       1.006  10.791 -15.017  1.00  0.00     0.057 A 
ATOM     78  C   UNL     1       0.173  11.815 -15.484  1.00  0.00     0.134 A 
ATOM     79  C   UNL     1       1.915  10.228 -15.922  1.00  0.00     0.134 A 
ATOM     80  F   UNL     1      -0.729  12.382 -14.668  1.00  0.00    -0.206 F 
ATOM     81  C   UNL     1       0.233  12.254 -16.807  1.00  0.00     0.040 A 
ATOM     82  C   UNL     1       1.998  10.673 -17.241  1.00  0.00     0.040 A 
ATOM     83  F   UNL     1       2.744   9.248 -15.533  1.00  0.00    -0.206 F 
ATOM     84  C   UNL     1       1.152  11.686 -17.688  1.00  0.00     0.006 A 
ENDBRANCH  60  77
ENDBRANCH  34  35
ENDBRANCH  27  29
ENDBRANCH  26  27
ENDBRANCH  25  26
ENDBRANCH   1  25
TORSDOF 15
