REMARK SMILES COc1ccc2c(c1)c(CC(=O)OCCOC(=O)c1ccc(-c3c4nc(c(-c5c(F)cccc5F)c5ccc([nH]5)c(-c5c(F)cccc5F)c5nc(c(-c6c(F)cccc6F)c6ccc3[nH]6)C=C5)C=C4)cc1)c(C)n2C(=O)c1ccc(Cl)cc1
REMARK SMILES IDX 14 1 13 2 11 3 12 4 10 5 9 6 3 7 4 8 8 9 5 10 7 11 6 12
REMARK SMILES IDX 75 13 73 14 74 15 2 16 1 17 76 18 77 19 78 20 79 21 84 22
REMARK SMILES IDX 80 23 83 24 81 25 82 26 15 27 16 28 17 29 18 30 19 31 20 32
REMARK SMILES IDX 72 33 21 34 71 35 22 36 23 37 24 38 65 39 25 40 70 41 64 42
REMARK SMILES IDX 66 43 26 44 69 45 63 46 62 47 27 49 53 50 36 51 52 52 37 53
REMARK SMILES IDX 40 54 51 55 67 56 38 57 39 58 50 60 68 61 41 62 28 63 29 64
REMARK SMILES IDX 34 65 30 66 31 67 33 68 35 69 32 70 54 71 55 72 60 73 56 74
REMARK SMILES IDX 57 75 59 76 61 77 58 78 42 79 43 80 48 81 44 82 45 83 47 84
REMARK SMILES IDX 49 85 46 86
REMARK H PARENT 66 48 40 59
REMARK Flexibility Score: inf
ROOT
ATOM      1  C   UNL     1      -1.635   6.294   3.175  1.00  0.00     0.274 C 
ENDROOT
BRANCH   1   2
ATOM      2  O   UNL     1      -1.073   5.218   3.959  1.00  0.00    -0.462 OA
BRANCH   2   3
ATOM      3  C   UNL     1      -1.909   4.659   4.864  1.00  0.00     0.310 C 
ATOM      4  O   UNL     1      -3.073   5.012   5.041  1.00  0.00    -0.252 OA
BRANCH   3   5
ATOM      5  C   UNL     1      -1.296   3.599   5.732  1.00  0.00     0.160 C 
BRANCH   5   6
ATOM      6  C   UNL     1       0.102   3.085   5.508  1.00  0.00    -0.008 A 
ATOM      7  C   UNL     1       1.046   1.320   2.194  1.00  0.00     0.119 A 
ATOM      8  C   UNL     1       2.247   0.809   2.641  1.00  0.00     0.048 A 
ATOM      9  C   UNL     1       0.310   2.168   3.040  1.00  0.00     0.057 A 
ATOM     10  C   UNL     1       2.709   1.120   3.923  1.00  0.00     0.031 A 
ATOM     11  C   UNL     1       0.705   2.445   4.372  1.00  0.00     0.008 A 
ATOM     12  C   UNL     1       1.949   1.949   4.783  1.00  0.00     0.057 A 
ATOM     13  N   UNL     1       2.202   2.443   6.073  1.00  0.00    -0.280 N 
ATOM     14  C   UNL     1       1.001   2.949   6.562  1.00  0.00     0.028 A 
ATOM     15  C   UNL     1       0.735   3.292   7.997  1.00  0.00     0.065 C 
BRANCH   7  16
ATOM     16  O   UNL     1       0.486   1.068   0.971  1.00  0.00    -0.497 OA
ATOM     17  C   UNL     1       1.066   0.031   0.182  1.00  0.00     0.278 C 
ENDBRANCH   7  16
BRANCH  13  18
ATOM     18  C   UNL     1       3.446   2.416   6.758  1.00  0.00     0.262 C 
ATOM     19  O   UNL     1       3.513   2.814   7.918  1.00  0.00    -0.268 OA
BRANCH  18  20
ATOM     20  C   UNL     1       4.704   1.955   6.164  1.00  0.00     0.040 A 
ATOM     21  C   UNL     1       5.290   2.677   5.119  1.00  0.00     0.015 A 
ATOM     22  C   UNL     1       5.249   0.749   6.614  1.00  0.00     0.015 A 
ATOM     23  C   UNL     1       6.404   2.145   4.472  1.00  0.00     0.021 A 
ATOM     24  C   UNL     1       6.364   0.226   5.964  1.00  0.00     0.021 A 
ATOM     25  C   UNL     1       6.927   0.918   4.889  1.00  0.00     0.041 A 
ATOM     26  Cl  UNL     1       8.263   0.236   4.048  1.00  0.00    -0.084 Cl
ENDBRANCH  18  20
ENDBRANCH  13  18
ENDBRANCH   5   6
ENDBRANCH   3   5
ENDBRANCH   2   3
ENDBRANCH   1   2
BRANCH   1  27
ATOM     27  C   UNL     1      -2.010   5.801   1.775  1.00  0.00     0.275 C 
BRANCH  27  28
ATOM     28  O   UNL     1      -3.170   4.964   1.882  1.00  0.00    -0.458 OA
BRANCH  28  29
ATOM     29  C   UNL     1      -3.015   3.654   1.550  1.00  0.00     0.338 C 
ATOM     30  O   UNL     1      -2.164   3.161   0.853  1.00  0.00    -0.246 OA
BRANCH  29  31
ATOM     31  C   UNL     1      -3.877   2.926   2.503  1.00  0.00     0.060 A 
ATOM     32  C   UNL     1      -5.200   3.313   2.703  1.00  0.00     0.016 A 
ATOM     33  C   UNL     1      -3.257   2.019   3.365  1.00  0.00     0.016 A 
ATOM     34  C   UNL     1      -5.855   2.890   3.852  1.00  0.00     0.010 A 
ATOM     35  C   UNL     1      -3.884   1.656   4.542  1.00  0.00     0.010 A 
ATOM     36  C   UNL     1      -5.164   2.127   4.805  1.00  0.00    -0.014 A 
BRANCH  36  37
ATOM     37  C   UNL     1      -5.896   1.542   5.915  1.00  0.00     0.031 A 
ATOM     38  C   UNL     1      -6.564   0.292   5.498  1.00  0.00     0.074 A 
ATOM     39  C   UNL     1      -5.892   1.915   7.209  1.00  0.00     0.049 A 
ATOM     40  N   UNL     1      -7.787   0.169   5.110  1.00  0.00    -0.248 NA
ATOM     41  C   UNL     1      -5.738  -0.905   5.281  1.00  0.00     0.031 C 
ATOM     42  C   UNL     1      -5.005   2.866   7.875  1.00  0.00     0.029 A 
ATOM     43  N   UNL     1      -6.674   1.442   8.229  1.00  0.00    -0.354 N 
ATOM     44  C   UNL     1      -7.948  -1.185   4.854  1.00  0.00     0.074 A 
ATOM     45  C   UNL     1      -6.625  -1.730   4.723  1.00  0.00     0.031 C 
ATOM     46  C   UNL     1      -5.180   2.773   9.217  1.00  0.00     0.029 A 
ATOM     47  C   UNL     1      -6.293   1.873   9.492  1.00  0.00     0.049 A 
ATOM     48  H   UNL     1      -7.443   0.846   8.078  1.00  0.00     0.167 HD
ATOM     49  C   UNL     1      -9.132  -1.787   5.144  1.00  0.00     0.037 A 
ATOM     50  C   UNL     1      -6.853   1.518  10.676  1.00  0.00     0.037 A 
ATOM     51  C   UNL     1     -10.148  -0.796   5.417  1.00  0.00     0.049 A 
ATOM     52  C   UNL     1      -8.230   1.037  10.411  1.00  0.00     0.074 A 
ATOM     53  C   UNL     1     -10.896   0.120   4.712  1.00  0.00     0.029 A 
ATOM     54  N   UNL     1     -10.210  -0.440   6.737  1.00  0.00    -0.354 N 
ATOM     55  N   UNL     1      -9.209   1.813  10.042  1.00  0.00    -0.248 NA
ATOM     56  C   UNL     1      -8.486  -0.394  10.278  1.00  0.00     0.031 C 
ATOM     57  C   UNL     1     -11.297   1.119   5.651  1.00  0.00     0.029 A 
ATOM     58  C   UNL     1     -10.797   0.782   6.906  1.00  0.00     0.049 A 
ATOM     59  H   UNL     1      -9.872  -0.996   7.475  1.00  0.00     0.167 HD
ATOM     60  C   UNL     1      -9.991   1.012   9.236  1.00  0.00     0.074 A 
ATOM     61  C   UNL     1      -9.622  -0.354   9.577  1.00  0.00     0.031 C 
ATOM     62  C   UNL     1     -10.601   1.526   8.130  1.00  0.00     0.037 A 
BRANCH  49  63
ATOM     63  C   UNL     1      -9.266  -3.175   5.748  1.00  0.00     0.057 A 
ATOM     64  C   UNL     1      -8.240  -3.875   6.415  1.00  0.00     0.134 A 
ATOM     65  C   UNL     1     -10.568  -3.654   5.994  1.00  0.00     0.134 A 
ATOM     66  F   UNL     1      -6.948  -3.547   6.319  1.00  0.00    -0.206 F 
ATOM     67  C   UNL     1      -8.494  -4.911   7.318  1.00  0.00     0.040 A 
ATOM     68  C   UNL     1     -10.835  -4.657   6.932  1.00  0.00     0.040 A 
ATOM     69  F   UNL     1     -11.631  -3.089   5.403  1.00  0.00    -0.206 F 
ATOM     70  C   UNL     1      -9.796  -5.277   7.613  1.00  0.00     0.006 A 
ENDBRANCH  49  63
BRANCH  50  71
ATOM     71  C   UNL     1      -6.280   1.461  12.038  1.00  0.00     0.057 A 
ATOM     72  C   UNL     1      -4.939   1.103  12.244  1.00  0.00     0.134 A 
ATOM     73  C   UNL     1      -7.099   1.474  13.179  1.00  0.00     0.134 A 
ATOM     74  F   UNL     1      -4.090   0.998  11.211  1.00  0.00    -0.206 F 
ATOM     75  C   UNL     1      -4.446   0.750  13.505  1.00  0.00     0.040 A 
ATOM     76  C   UNL     1      -6.619   1.117  14.446  1.00  0.00     0.040 A 
ATOM     77  F   UNL     1      -8.403   1.769  13.083  1.00  0.00    -0.206 F 
ATOM     78  C   UNL     1      -5.291   0.740  14.609  1.00  0.00     0.006 A 
ENDBRANCH  50  71
BRANCH  62  79
ATOM     79  C   UNL     1     -10.916   2.987   8.142  1.00  0.00     0.057 A 
ATOM     80  C   UNL     1     -12.262   3.369   8.089  1.00  0.00     0.134 A 
ATOM     81  C   UNL     1      -9.960   4.011   8.166  1.00  0.00     0.134 A 
ATOM     82  F   UNL     1     -13.228   2.438   8.028  1.00  0.00    -0.206 F 
ATOM     83  C   UNL     1     -12.647   4.709   8.073  1.00  0.00     0.040 A 
ATOM     84  C   UNL     1     -10.334   5.357   8.187  1.00  0.00     0.040 A 
ATOM     85  F   UNL     1      -8.648   3.737   8.142  1.00  0.00    -0.206 F 
ATOM     86  C   UNL     1     -11.681   5.709   8.138  1.00  0.00     0.006 A 
ENDBRANCH  62  79
ENDBRANCH  36  37
ENDBRANCH  29  31
ENDBRANCH  28  29
ENDBRANCH  27  28
ENDBRANCH   1  27
TORSDOF 15
