REMARK SMILES COc1cccc(C(=O)/C=C(/Nc2cc(C)c(C)cc2[N+](=O)[O-])C(=O)OCCOC(=O)c2ccc(-c3c4nc(c(-c5c(F)cccc5F)c5ccc([nH]5)c(-c5c(F)cccc5F)c5nc(c(-c6c(F)cccc6F)c6ccc3[nH]6)C=C5)C=C4)cc2)c1
REMARK SMILES IDX 27 1 26 2 24 3 25 4 11 5 10 6 8 7 9 8 7 9 3 10 4 11 86 12
REMARK SMILES IDX 5 13 6 14 2 15 1 16 12 17 13 19 14 20 20 21 15 22 19 23
REMARK SMILES IDX 16 24 17 25 18 26 21 27 22 28 23 29 28 30 29 31 30 32 31 33
REMARK SMILES IDX 32 34 33 35 85 36 34 37 84 38 35 39 36 40 37 41 78 42 38 43
REMARK SMILES IDX 83 44 77 45 79 46 39 47 82 48 76 49 75 50 40 52 66 53 49 54
REMARK SMILES IDX 65 55 50 56 53 57 64 58 80 59 51 60 52 61 63 63 81 64 54 65
REMARK SMILES IDX 41 66 42 67 47 68 43 69 44 70 46 71 48 72 45 73 67 74 68 75
REMARK SMILES IDX 73 76 69 77 70 78 72 79 74 80 71 81 55 82 56 83 61 84 57 85
REMARK SMILES IDX 58 86 60 87 62 88 59 89
REMARK H PARENT 12 18 79 51 53 62
REMARK Flexibility Score: inf
ROOT
ATOM      1  C   UNL     1       2.176   1.030  -0.207  1.00  0.00     0.275 C 
ENDROOT
BRANCH   1   2
ATOM      2  O   UNL     1       3.306   0.329  -0.723  1.00  0.00    -0.457 OA
BRANCH   2   3
ATOM      3  C   UNL     1       3.404  -0.979  -0.395  1.00  0.00     0.355 C 
ATOM      4  O   UNL     1       2.704  -1.621   0.381  1.00  0.00    -0.244 OA
BRANCH   3   5
ATOM      5  C   UNL     1       4.584  -1.514  -1.097  1.00  0.00     0.129 C 
ATOM      6  C   UNL     1       4.387  -2.265  -2.192  1.00  0.00     0.086 C 
BRANCH   6   7
ATOM      7  C   UNL     1       3.271  -2.899  -2.984  1.00  0.00     0.188 C 
ATOM      8  O   UNL     1       3.693  -3.598  -3.919  1.00  0.00    -0.289 OA
BRANCH   7   9
ATOM      9  C   UNL     1       1.766  -2.833  -2.848  1.00  0.00     0.026 A 
ATOM     10  C   UNL     1      -0.414  -1.971  -2.112  1.00  0.00     0.119 A 
ATOM     11  C   UNL     1      -1.091  -2.773  -3.015  1.00  0.00     0.046 A 
ATOM     12  C   UNL     1       0.992  -1.985  -2.057  1.00  0.00     0.058 A 
ATOM     13  C   UNL     1      -0.363  -3.634  -3.819  1.00  0.00     0.005 A 
ATOM     14  C   UNL     1       1.034  -3.676  -3.711  1.00  0.00     0.012 A 
BRANCH  10  15
ATOM     15  O   UNL     1      -1.167  -1.070  -1.405  1.00  0.00    -0.497 OA
ATOM     16  C   UNL     1      -1.064  -1.237   0.007  1.00  0.00     0.278 C 
ENDBRANCH  10  15
ENDBRANCH   7   9
ENDBRANCH   6   7
BRANCH   5  17
ATOM     17  N   UNL     1       5.819  -1.139  -0.543  1.00  0.00    -0.344 N 
ATOM     18  H   UNL     1       6.620  -1.136  -1.115  1.00  0.00     0.167 HD
BRANCH  17  19
ATOM     19  C   UNL     1       5.943  -0.763   0.822  1.00  0.00     0.118 A 
ATOM     20  C   UNL     1       6.380   0.534   1.138  1.00  0.00     0.037 A 
ATOM     21  C   UNL     1       5.365  -1.515   1.866  1.00  0.00     0.292 A 
ATOM     22  C   UNL     1       6.113   1.114   2.402  1.00  0.00    -0.046 A 
ATOM     23  C   UNL     1       4.997  -0.919   3.078  1.00  0.00     0.091 A 
ATOM     24  C   UNL     1       6.663   2.486   2.699  1.00  0.00     0.045 C 
ATOM     25  C   UNL     1       5.306   0.422   3.326  1.00  0.00    -0.041 A 
ATOM     26  C   UNL     1       4.788   1.050   4.592  1.00  0.00     0.045 C 
BRANCH  21  27
ATOM     27  N   UNL     1       5.147  -2.960   1.717  1.00  0.00     0.064 N 
ATOM     28  O   UNL     1       4.243  -3.480   2.388  1.00  0.00    -0.258 OA
ATOM     29  O   UNL     1       5.922  -3.588   0.981  1.00  0.00    -0.258 OA
ENDBRANCH  21  27
ENDBRANCH  17  19
ENDBRANCH   5  17
ENDBRANCH   3   5
ENDBRANCH   2   3
ENDBRANCH   1   2
BRANCH   1  30
ATOM     30  C   UNL     1       1.430   1.757  -1.333  1.00  0.00     0.275 C 
BRANCH  30  31
ATOM     31  O   UNL     1       1.357   0.997  -2.561  1.00  0.00    -0.458 OA
BRANCH  31  32
ATOM     32  C   UNL     1       2.386   1.187  -3.428  1.00  0.00     0.338 C 
ATOM     33  O   UNL     1       3.325   1.952  -3.267  1.00  0.00    -0.246 OA
BRANCH  32  34
ATOM     34  C   UNL     1       2.316   0.252  -4.583  1.00  0.00     0.060 A 
ATOM     35  C   UNL     1       3.525  -0.265  -5.072  1.00  0.00     0.016 A 
ATOM     36  C   UNL     1       1.119  -0.100  -5.214  1.00  0.00     0.016 A 
ATOM     37  C   UNL     1       3.544  -1.127  -6.176  1.00  0.00     0.010 A 
ATOM     38  C   UNL     1       1.141  -0.947  -6.339  1.00  0.00     0.010 A 
ATOM     39  C   UNL     1       2.356  -1.458  -6.837  1.00  0.00    -0.014 A 
BRANCH  39  40
ATOM     40  C   UNL     1       2.410  -2.168  -8.148  1.00  0.00     0.031 A 
ATOM     41  C   UNL     1       2.523  -1.343  -9.400  1.00  0.00     0.074 A 
ATOM     42  C   UNL     1       2.401  -3.511  -8.254  1.00  0.00     0.049 A 
ATOM     43  N   UNL     1       2.612  -1.733 -10.646  1.00  0.00    -0.248 NA
ATOM     44  C   UNL     1       2.582   0.116  -9.218  1.00  0.00     0.031 C 
ATOM     45  C   UNL     1       2.442  -4.440  -7.135  1.00  0.00     0.029 A 
ATOM     46  N   UNL     1       2.351  -4.333  -9.356  1.00  0.00    -0.354 N 
ATOM     47  C   UNL     1       2.773  -0.575 -11.391  1.00  0.00     0.074 A 
ATOM     48  C   UNL     1       2.727   0.537 -10.465  1.00  0.00     0.031 C 
ATOM     49  C   UNL     1       2.326  -5.699  -7.589  1.00  0.00     0.029 A 
ATOM     50  C   UNL     1       2.231  -5.669  -9.045  1.00  0.00     0.049 A 
ATOM     51  H   UNL     1       2.396  -3.997 -10.281  1.00  0.00     0.167 HD
ATOM     52  C   UNL     1       2.959  -0.449 -12.725  1.00  0.00     0.037 A 
ATOM     53  C   UNL     1       2.068  -6.744  -9.842  1.00  0.00     0.037 A 
ATOM     54  C   UNL     1       2.972  -1.548 -13.652  1.00  0.00     0.049 A 
ATOM     55  C   UNL     1       2.111  -6.558 -11.337  1.00  0.00     0.074 A 
ATOM     56  C   UNL     1       3.157  -1.515 -15.023  1.00  0.00     0.029 A 
ATOM     57  N   UNL     1       2.766  -2.875 -13.307  1.00  0.00    -0.354 N 
ATOM     58  N   UNL     1       2.323  -5.463 -12.026  1.00  0.00    -0.248 NA
ATOM     59  C   UNL     1       1.926  -7.759 -12.166  1.00  0.00     0.031 C 
ATOM     60  C   UNL     1       2.994  -2.814 -15.516  1.00  0.00     0.029 A 
ATOM     61  C   UNL     1       2.768  -3.664 -14.446  1.00  0.00     0.049 A 
ATOM     62  H   UNL     1       2.636  -3.207 -12.389  1.00  0.00     0.167 HD
ATOM     63  C   UNL     1       2.355  -5.851 -13.359  1.00  0.00     0.074 A 
ATOM     64  C   UNL     1       2.138  -7.282 -13.384  1.00  0.00     0.031 C 
ATOM     65  C   UNL     1       2.561  -5.090 -14.461  1.00  0.00     0.037 A 
BRANCH  52  66
ATOM     66  C   UNL     1       3.119   0.941 -13.263  1.00  0.00     0.057 A 
ATOM     67  C   UNL     1       4.289   1.684 -13.061  1.00  0.00     0.134 A 
ATOM     68  C   UNL     1       2.092   1.535 -14.006  1.00  0.00     0.134 A 
ATOM     69  F   UNL     1       5.301   1.177 -12.341  1.00  0.00    -0.206 F 
ATOM     70  C   UNL     1       4.424   2.979 -13.563  1.00  0.00     0.040 A 
ATOM     71  C   UNL     1       2.225   2.820 -14.533  1.00  0.00     0.040 A 
ATOM     72  F   UNL     1       0.947   0.876 -14.234  1.00  0.00    -0.206 F 
ATOM     73  C   UNL     1       3.392   3.548 -14.307  1.00  0.00     0.006 A 
ENDBRANCH  52  66
BRANCH  53  74
ATOM     74  C   UNL     1       1.855  -8.099  -9.265  1.00  0.00     0.057 A 
ATOM     75  C   UNL     1       2.801  -9.120  -9.419  1.00  0.00     0.134 A 
ATOM     76  C   UNL     1       0.659  -8.428  -8.612  1.00  0.00     0.134 A 
ATOM     77  F   UNL     1       3.954  -8.880 -10.061  1.00  0.00    -0.206 F 
ATOM     78  C   UNL     1       2.555 -10.422  -8.976  1.00  0.00     0.040 A 
ATOM     79  C   UNL     1       0.410  -9.721  -8.143  1.00  0.00     0.040 A 
ATOM     80  F   UNL     1      -0.295  -7.502  -8.437  1.00  0.00    -0.206 F 
ATOM     81  C   UNL     1       1.356 -10.726  -8.336  1.00  0.00     0.006 A 
ENDBRANCH  53  74
BRANCH  65  82
ATOM     82  C   UNL     1       2.604  -5.791 -15.788  1.00  0.00     0.057 A 
ATOM     83  C   UNL     1       1.455  -6.329 -16.381  1.00  0.00     0.134 A 
ATOM     84  C   UNL     1       3.805  -5.885 -16.503  1.00  0.00     0.134 A 
ATOM     85  F   UNL     1       0.275  -6.283 -15.743  1.00  0.00    -0.206 F 
ATOM     86  C   UNL     1       1.503  -6.955 -17.627  1.00  0.00     0.040 A 
ATOM     87  C   UNL     1       3.860  -6.481 -17.764  1.00  0.00     0.040 A 
ATOM     88  F   UNL     1       4.942  -5.383 -15.998  1.00  0.00    -0.206 F 
ATOM     89  C   UNL     1       2.707  -7.024 -18.326  1.00  0.00     0.006 A 
ENDBRANCH  65  82
ENDBRANCH  39  40
ENDBRANCH  32  34
ENDBRANCH  31  32
ENDBRANCH  30  31
ENDBRANCH   1  30
TORSDOF 17
