REMARK SMILES O=C(OCCOC(=O)[C@H]1CC[C@@H](CNC(=O)[C@@H]2CSc3ccccc32)O1)c1ccc(-c2c3nc(c(-c4c(F)cccc4F)c4ccc([nH]4)c(-c4c(F)cccc4F)c4nc(c(-c5c(F)cccc5F)c5ccc2[nH]5)C=C4)C=C3)cc1
REMARK SMILES IDX 5 1 4 2 3 3 2 4 1 5 27 6 28 7 80 8 29 9 79 10 30 11 31 12
REMARK SMILES IDX 32 13 73 14 33 15 78 16 72 17 74 18 34 19 77 20 71 21 70 22
REMARK SMILES IDX 35 24 61 25 44 26 60 27 45 28 48 29 59 30 75 31 46 32 47 33
REMARK SMILES IDX 58 35 76 36 49 37 36 38 37 39 42 40 38 41 39 42 41 43 43 44
REMARK SMILES IDX 40 45 62 46 63 47 68 48 64 49 65 50 67 51 69 52 66 53 50 54
REMARK SMILES IDX 51 55 56 56 52 57 53 58 55 59 57 60 54 61 6 62 7 63 8 64
REMARK SMILES IDX 9 65 10 66 26 67 11 68 12 69 13 70 14 71 15 72 16 74 17 75
REMARK SMILES IDX 18 76 25 77 19 78 20 79 24 80 21 81 23 82 22 83
REMARK H PARENT 74 23 48 34 14 73
REMARK Flexibility Score: inf
ROOT
ATOM      1  C   UNL     1       2.561   4.855  -9.626  1.00  0.00     0.274 C 
ENDROOT
BRANCH   1   2
ATOM      2  C   UNL     1       1.704   5.595 -10.652  1.00  0.00     0.275 C 
BRANCH   2   3
ATOM      3  O   UNL     1       0.324   5.207 -10.533  1.00  0.00    -0.458 OA
BRANCH   3   4
ATOM      4  C   UNL     1      -0.298   4.739 -11.643  1.00  0.00     0.338 C 
ATOM      5  O   UNL     1      -1.279   5.266 -12.146  1.00  0.00    -0.246 OA
BRANCH   4   6
ATOM      6  C   UNL     1       0.091   3.355 -11.986  1.00  0.00     0.060 A 
ATOM      7  C   UNL     1      -0.743   2.303 -11.590  1.00  0.00     0.016 A 
ATOM      8  C   UNL     1       1.230   3.099 -12.752  1.00  0.00     0.016 A 
ATOM      9  C   UNL     1      -0.405   0.986 -11.909  1.00  0.00     0.010 A 
ATOM     10  C   UNL     1       1.565   1.786 -13.075  1.00  0.00     0.010 A 
ATOM     11  C   UNL     1       0.753   0.722 -12.652  1.00  0.00    -0.014 A 
BRANCH  11  12
ATOM     12  C   UNL     1       1.062  -0.644 -13.125  1.00  0.00     0.031 A 
ATOM     13  C   UNL     1       2.153  -1.462 -12.506  1.00  0.00     0.074 A 
ATOM     14  C   UNL     1       0.396  -1.099 -14.201  1.00  0.00     0.049 A 
ATOM     15  N   UNL     1       2.508  -2.693 -12.767  1.00  0.00    -0.248 NA
ATOM     16  C   UNL     1       2.937  -0.833 -11.436  1.00  0.00     0.031 C 
ATOM     17  C   UNL     1      -0.664  -0.376 -14.906  1.00  0.00     0.029 A 
ATOM     18  N   UNL     1       0.562  -2.248 -14.927  1.00  0.00    -0.354 N 
ATOM     19  C   UNL     1       3.481  -3.014 -11.832  1.00  0.00     0.074 A 
ATOM     20  C   UNL     1       3.703  -1.835 -11.025  1.00  0.00     0.031 C 
ATOM     21  C   UNL     1      -1.002  -1.064 -16.007  1.00  0.00     0.029 A 
ATOM     22  C   UNL     1      -0.164  -2.255 -16.090  1.00  0.00     0.049 A 
ATOM     23  H   UNL     1       1.143  -2.991 -14.643  1.00  0.00     0.167 HD
ATOM     24  C   UNL     1       4.134  -4.187 -11.672  1.00  0.00     0.037 A 
ATOM     25  C   UNL     1      -0.110  -3.099 -17.136  1.00  0.00     0.037 A 
ATOM     26  C   UNL     1       4.036  -5.286 -12.593  1.00  0.00     0.049 A 
ATOM     27  C   UNL     1       0.815  -4.277 -17.070  1.00  0.00     0.074 A 
ATOM     28  C   UNL     1       4.633  -6.532 -12.530  1.00  0.00     0.029 A 
ATOM     29  N   UNL     1       3.353  -5.228 -13.798  1.00  0.00    -0.354 N 
ATOM     30  N   UNL     1       1.598  -4.654 -16.088  1.00  0.00    -0.248 NA
ATOM     31  C   UNL     1       0.867  -5.143 -18.253  1.00  0.00     0.031 C 
ATOM     32  C   UNL     1       4.380  -7.194 -13.738  1.00  0.00     0.029 A 
ATOM     33  C   UNL     1       3.586  -6.378 -14.530  1.00  0.00     0.049 A 
ATOM     34  H   UNL     1       2.785  -4.479 -14.090  1.00  0.00     0.167 HD
ATOM     35  C   UNL     1       2.215  -5.819 -16.522  1.00  0.00     0.074 A 
ATOM     36  C   UNL     1       1.719  -6.080 -17.859  1.00  0.00     0.031 C 
ATOM     37  C   UNL     1       3.100  -6.608 -15.865  1.00  0.00     0.037 A 
BRANCH  24  38
ATOM     38  C   UNL     1       5.032  -4.328 -10.483  1.00  0.00     0.057 A 
ATOM     39  C   UNL     1       6.422  -4.253 -10.611  1.00  0.00     0.134 A 
ATOM     40  C   UNL     1       4.508  -4.597  -9.211  1.00  0.00     0.134 A 
ATOM     41  F   UNL     1       6.982  -3.987 -11.800  1.00  0.00    -0.206 F 
ATOM     42  C   UNL     1       7.265  -4.454  -9.515  1.00  0.00     0.040 A 
ATOM     43  C   UNL     1       5.340  -4.793  -8.107  1.00  0.00     0.040 A 
ATOM     44  F   UNL     1       3.182  -4.666  -9.022  1.00  0.00    -0.206 F 
ATOM     45  C   UNL     1       6.724  -4.728  -8.260  1.00  0.00     0.006 A 
ENDBRANCH  24  38
BRANCH  25  46
ATOM     46  C   UNL     1      -0.911  -2.808 -18.346  1.00  0.00     0.057 A 
ATOM     47  C   UNL     1      -0.587  -1.730 -19.181  1.00  0.00     0.134 A 
ATOM     48  C   UNL     1      -2.029  -3.575 -18.681  1.00  0.00     0.134 A 
ATOM     49  F   UNL     1       0.474  -0.956 -18.907  1.00  0.00    -0.206 F 
ATOM     50  C   UNL     1      -1.357  -1.416 -20.300  1.00  0.00     0.040 A 
ATOM     51  C   UNL     1      -2.797  -3.284 -19.810  1.00  0.00     0.040 A 
ATOM     52  F   UNL     1      -2.377  -4.627 -17.927  1.00  0.00    -0.206 F 
ATOM     53  C   UNL     1      -2.465  -2.198 -20.619  1.00  0.00     0.006 A 
ENDBRANCH  25  46
BRANCH  37  54
ATOM     54  C   UNL     1       3.576  -7.830 -16.585  1.00  0.00     0.057 A 
ATOM     55  C   UNL     1       3.101  -9.098 -16.228  1.00  0.00     0.134 A 
ATOM     56  C   UNL     1       4.516  -7.753 -17.619  1.00  0.00     0.134 A 
ATOM     57  F   UNL     1       2.202  -9.235 -15.241  1.00  0.00    -0.206 F 
ATOM     58  C   UNL     1       3.548 -10.249 -16.874  1.00  0.00     0.040 A 
ATOM     59  C   UNL     1       4.955  -8.896 -18.287  1.00  0.00     0.040 A 
ATOM     60  F   UNL     1       4.993  -6.564 -18.016  1.00  0.00    -0.206 F 
ATOM     61  C   UNL     1       4.474 -10.149 -17.910  1.00  0.00     0.006 A 
ENDBRANCH  37  54
ENDBRANCH  11  12
ENDBRANCH   4   6
ENDBRANCH   3   4
ENDBRANCH   2   3
ENDBRANCH   1   2
BRANCH   1  62
ATOM     62  O   UNL     1       2.304   3.444  -9.708  1.00  0.00    -0.460 OA
BRANCH  62  63
ATOM     63  C   UNL     1       2.236   2.787  -8.512  1.00  0.00     0.335 C 
ATOM     64  O   UNL     1       2.571   3.257  -7.433  1.00  0.00    -0.249 OA
BRANCH  63  65
ATOM     65  C   UNL     1       1.605   1.409  -8.706  1.00  0.00     0.228 C 
ATOM     66  C   UNL     1       2.329   0.313  -7.941  1.00  0.00     0.047 C 
ATOM     67  O   UNL     1       0.244   1.423  -8.253  1.00  0.00    -0.361 OA
ATOM     68  C   UNL     1       1.467   0.138  -6.712  1.00  0.00     0.037 C 
ATOM     69  C   UNL     1       0.076   0.385  -7.275  1.00  0.00     0.138 C 
BRANCH  69  70
ATOM     70  C   UNL     1      -1.037   0.732  -6.271  1.00  0.00     0.147 C 
BRANCH  70  71
ATOM     71  N   UNL     1      -0.564   1.214  -4.984  1.00  0.00    -0.353 N 
ATOM     72  C   UNL     1      -0.386   2.425  -4.414  1.00  0.00     0.228 C 
ATOM     73  H   UNL     1      -0.311   0.478  -4.381  1.00  0.00     0.163 HD
ATOM     74  O   UNL     1       0.131   2.369  -3.286  1.00  0.00    -0.274 OA
BRANCH  72  75
ATOM     75  C   UNL     1      -0.672   3.792  -5.032  1.00  0.00     0.120 C 
ATOM     76  C   UNL     1      -1.296   4.679  -3.929  1.00  0.00     0.093 C 
ATOM     77  C   UNL     1      -1.647   3.924  -6.173  1.00  0.00    -0.021 A 
ATOM     78  S   UNL     1      -3.102   4.414  -4.043  1.00  0.00    -0.125 SA
ATOM     79  C   UNL     1      -2.973   4.149  -5.786  1.00  0.00     0.011 A 
ATOM     80  C   UNL     1      -1.320   3.936  -7.522  1.00  0.00     0.006 A 
ATOM     81  C   UNL     1      -3.992   4.272  -6.718  1.00  0.00     0.015 A 
ATOM     82  C   UNL     1      -2.336   4.075  -8.468  1.00  0.00     0.000 A 
ATOM     83  C   UNL     1      -3.668   4.216  -8.072  1.00  0.00     0.001 A 
ENDBRANCH  72  75
ENDBRANCH  70  71
ENDBRANCH  69  70
ENDBRANCH  63  65
ENDBRANCH  62  63
ENDBRANCH   1  62
TORSDOF 14
