REMARK SMILES Cc1ccc(C(=O)OCCOC(=O)c2ccc(-c3c4nc(c(-c5c(F)cccc5F)c5ccc([nH]5)c(-c5c(F)cccc5F)c5nc(c(-c6c(F)cccc6F)c6ccc3[nH]6)C=C5)C=C4)cc2)cc1NC(=O)Cc1ccc2ccccc2c1
REMARK SMILES IDX 9 1 8 2 6 3 7 4 5 5 1 6 2 7 3 8 69 9 4 10 68 11 70 12 71 13
REMARK SMILES IDX 72 15 73 16 74 17 75 18 83 19 76 20 82 21 77 22 81 23 78 24
REMARK SMILES IDX 80 25 79 26 10 27 11 28 12 29 13 30 14 31 15 32 67 33 16 34
REMARK SMILES IDX 66 35 17 36 18 37 19 38 60 39 20 40 65 41 59 42 61 43 21 44
REMARK SMILES IDX 64 45 58 46 57 47 22 49 48 50 31 51 47 52 32 53 35 54 46 55
REMARK SMILES IDX 62 56 33 57 34 58 45 60 63 61 36 62 23 63 24 64 29 65 25 66
REMARK SMILES IDX 26 67 28 68 30 69 27 70 49 71 50 72 55 73 51 74 52 75 54 76
REMARK SMILES IDX 56 77 53 78 37 79 38 80 43 81 39 82 40 83 42 84 44 85 41 86
REMARK H PARENT 70 14 61 48 35 59
REMARK Flexibility Score: inf
ROOT
ATOM      1  C   UNL     1      -4.524   1.546  -2.285  1.00  0.00     0.275 C 
ENDROOT
BRANCH   1   2
ATOM      2  O   UNL     1      -3.256   0.873  -2.369  1.00  0.00    -0.458 OA
BRANCH   2   3
ATOM      3  C   UNL     1      -2.495   1.095  -1.273  1.00  0.00     0.338 C 
ATOM      4  O   UNL     1      -2.824   1.754  -0.292  1.00  0.00    -0.246 OA
BRANCH   3   5
ATOM      5  C   UNL     1      -1.085   0.697  -1.406  1.00  0.00     0.062 A 
ATOM      6  C   UNL     1       2.940   0.356   0.048  1.00  0.00     0.046 C 
ATOM      7  C   UNL     1       1.546   0.555  -0.479  1.00  0.00    -0.027 A 
ATOM      8  C   UNL     1       0.772  -0.617  -0.683  1.00  0.00     0.006 A 
ATOM      9  C   UNL     1       0.962   1.808  -0.736  1.00  0.00     0.044 A 
ATOM     10  C   UNL     1      -0.569  -0.543  -1.073  1.00  0.00     0.016 A 
ATOM     11  C   UNL     1      -0.259   1.811  -1.390  1.00  0.00     0.042 A 
BRANCH   9  12
ATOM     12  N   UNL     1       1.528   3.026  -0.272  1.00  0.00    -0.326 N 
ATOM     13  C   UNL     1       0.937   4.259   0.011  1.00  0.00     0.228 C 
ATOM     14  H   UNL     1       2.502   2.995  -0.126  1.00  0.00     0.169 HD
ATOM     15  O   UNL     1       1.665   5.174   0.400  1.00  0.00    -0.274 OA
BRANCH  13  16
ATOM     16  C   UNL     1      -0.568   4.410  -0.139  1.00  0.00     0.135 C 
BRANCH  16  17
ATOM     17  C   UNL     1      -1.343   5.638   0.274  1.00  0.00    -0.038 A 
ATOM     18  C   UNL     1      -2.649   5.453   0.761  1.00  0.00     0.005 A 
ATOM     19  C   UNL     1      -0.953   6.923  -0.110  1.00  0.00     0.013 A 
ATOM     20  C   UNL     1      -3.531   6.521   0.908  1.00  0.00     0.009 A 
ATOM     21  C   UNL     1      -1.862   7.996  -0.052  1.00  0.00    -0.018 A 
ATOM     22  C   UNL     1      -3.155   7.797   0.488  1.00  0.00    -0.018 A 
ATOM     23  C   UNL     1      -1.538   9.251  -0.586  1.00  0.00     0.009 A 
ATOM     24  C   UNL     1      -4.062   8.865   0.538  1.00  0.00     0.009 A 
ATOM     25  C   UNL     1      -2.473  10.287  -0.590  1.00  0.00     0.001 A 
ATOM     26  C   UNL     1      -3.726  10.101  -0.012  1.00  0.00     0.001 A 
ENDBRANCH  16  17
ENDBRANCH  13  16
ENDBRANCH   9  12
ENDBRANCH   3   5
ENDBRANCH   2   3
ENDBRANCH   1   2
BRANCH   1  27
ATOM     27  C   UNL     1      -5.676   0.777  -2.941  1.00  0.00     0.275 C 
BRANCH  27  28
ATOM     28  O   UNL     1      -5.614  -0.677  -3.001  1.00  0.00    -0.458 OA
BRANCH  28  29
ATOM     29  C   UNL     1      -5.041  -1.534  -2.127  1.00  0.00     0.338 C 
ATOM     30  O   UNL     1      -4.612  -2.635  -2.466  1.00  0.00    -0.246 OA
BRANCH  29  31
ATOM     31  C   UNL     1      -4.918  -1.101  -0.733  1.00  0.00     0.060 A 
ATOM     32  C   UNL     1      -3.778  -1.488  -0.006  1.00  0.00     0.016 A 
ATOM     33  C   UNL     1      -5.877  -0.254  -0.188  1.00  0.00     0.016 A 
ATOM     34  C   UNL     1      -3.548  -0.964   1.253  1.00  0.00     0.010 A 
ATOM     35  C   UNL     1      -5.588   0.383   0.987  1.00  0.00     0.010 A 
ATOM     36  C   UNL     1      -4.472  -0.043   1.729  1.00  0.00    -0.014 A 
BRANCH  36  37
ATOM     37  C   UNL     1      -4.653   0.188   3.147  1.00  0.00     0.031 A 
ATOM     38  C   UNL     1      -3.985   1.315   3.799  1.00  0.00     0.074 A 
ATOM     39  C   UNL     1      -5.673  -0.591   3.575  1.00  0.00     0.049 A 
ATOM     40  N   UNL     1      -3.756   1.407   5.059  1.00  0.00    -0.248 NA
ATOM     41  C   UNL     1      -3.427   2.442   3.053  1.00  0.00     0.031 C 
ATOM     42  C   UNL     1      -6.593  -0.501   4.687  1.00  0.00     0.029 A 
ATOM     43  N   UNL     1      -6.025  -1.812   2.966  1.00  0.00    -0.354 N 
ATOM     44  C   UNL     1      -3.502   2.746   5.302  1.00  0.00     0.074 A 
ATOM     45  C   UNL     1      -3.077   3.281   4.035  1.00  0.00     0.031 C 
ATOM     46  C   UNL     1      -7.147  -1.718   4.880  1.00  0.00     0.029 A 
ATOM     47  C   UNL     1      -6.492  -2.654   3.967  1.00  0.00     0.049 A 
ATOM     48  H   UNL     1      -5.952  -2.029   2.008  1.00  0.00     0.167 HD
ATOM     49  C   UNL     1      -3.979   3.290   6.462  1.00  0.00     0.037 A 
ATOM     50  C   UNL     1      -5.668  -3.686   4.322  1.00  0.00     0.037 A 
ATOM     51  C   UNL     1      -4.682   2.246   7.213  1.00  0.00     0.049 A 
ATOM     52  C   UNL     1      -5.105  -3.410   5.695  1.00  0.00     0.074 A 
ATOM     53  C   UNL     1      -6.029   1.925   7.269  1.00  0.00     0.029 A 
ATOM     54  N   UNL     1      -3.989   1.125   7.658  1.00  0.00    -0.354 N 
ATOM     55  N   UNL     1      -4.781  -2.223   6.136  1.00  0.00    -0.248 NA
ATOM     56  C   UNL     1      -5.012  -4.448   6.713  1.00  0.00     0.031 C 
ATOM     57  C   UNL     1      -6.137   0.573   7.681  1.00  0.00     0.029 A 
ATOM     58  C   UNL     1      -4.858   0.064   7.839  1.00  0.00     0.049 A 
ATOM     59  H   UNL     1      -3.019   1.092   7.821  1.00  0.00     0.167 HD
ATOM     60  C   UNL     1      -4.560  -2.303   7.486  1.00  0.00     0.074 A 
ATOM     61  C   UNL     1      -4.677  -3.720   7.790  1.00  0.00     0.031 C 
ATOM     62  C   UNL     1      -4.367  -1.222   8.299  1.00  0.00     0.037 A 
BRANCH  49  63
ATOM     63  C   UNL     1      -4.184   4.771   6.737  1.00  0.00     0.057 A 
ATOM     64  C   UNL     1      -5.148   5.194   7.679  1.00  0.00     0.134 A 
ATOM     65  C   UNL     1      -3.497   5.827   6.113  1.00  0.00     0.134 A 
ATOM     66  F   UNL     1      -5.823   4.324   8.441  1.00  0.00    -0.206 F 
ATOM     67  C   UNL     1      -5.470   6.539   7.907  1.00  0.00     0.040 A 
ATOM     68  C   UNL     1      -3.825   7.180   6.314  1.00  0.00     0.040 A 
ATOM     69  F   UNL     1      -2.443   5.610   5.319  1.00  0.00    -0.206 F 
ATOM     70  C   UNL     1      -4.824   7.541   7.206  1.00  0.00     0.006 A 
ENDBRANCH  49  63
BRANCH  50  71
ATOM     71  C   UNL     1      -4.927  -4.301   3.165  1.00  0.00     0.057 A 
ATOM     72  C   UNL     1      -5.666  -4.746   2.044  1.00  0.00     0.134 A 
ATOM     73  C   UNL     1      -3.542  -4.225   2.990  1.00  0.00     0.134 A 
ATOM     74  F   UNL     1      -7.003  -4.856   2.119  1.00  0.00    -0.206 F 
ATOM     75  C   UNL     1      -5.079  -4.996   0.797  1.00  0.00     0.040 A 
ATOM     76  C   UNL     1      -2.936  -4.499   1.749  1.00  0.00     0.040 A 
ATOM     77  F   UNL     1      -2.746  -3.812   3.986  1.00  0.00    -0.206 F 
ATOM     78  C   UNL     1      -3.706  -4.857   0.643  1.00  0.00     0.006 A 
ENDBRANCH  50  71
BRANCH  62  79
ATOM     79  C   UNL     1      -3.785  -1.293   9.683  1.00  0.00     0.057 A 
ATOM     80  C   UNL     1      -2.883  -2.286  10.083  1.00  0.00     0.134 A 
ATOM     81  C   UNL     1      -3.972  -0.235  10.601  1.00  0.00     0.134 A 
ATOM     82  F   UNL     1      -2.517  -3.279   9.260  1.00  0.00    -0.206 F 
ATOM     83  C   UNL     1      -2.266  -2.269  11.336  1.00  0.00     0.040 A 
ATOM     84  C   UNL     1      -3.304  -0.171  11.822  1.00  0.00     0.040 A 
ATOM     85  F   UNL     1      -4.783   0.801  10.341  1.00  0.00    -0.206 F 
ATOM     86  C   UNL     1      -2.463  -1.203  12.204  1.00  0.00     0.006 A 
ENDBRANCH  62  79
ENDBRANCH  36  37
ENDBRANCH  29  31
ENDBRANCH  28  29
ENDBRANCH  27  28
ENDBRANCH   1  27
TORSDOF 14
