REMARK SMILES O=C(CC[N@H+]1CCC[C@H](c2nccn2Cc2cscn2)C1)OCCOC(=O)c1ccc(-c2c3nc(c(-c4c(F)cccc4F)c4ccc([nH]4)c(-c4c(F)cccc4F)c4nc(c(-c5c(F)cccc5F)c5ccc2[nH]5)C=C4)C=C3)cc1
REMARK SMILES IDX 22 1 2 2 1 3 3 4 4 5 5 6 6 7 21 8 7 10 9 11 8 12 10 13 11 14
REMARK SMILES IDX 14 15 12 16 13 17 15 18 16 19 17 20 20 21 18 22 19 23 23 24
REMARK SMILES IDX 24 25 25 26 26 27 27 28 28 29 29 30 81 31 30 32 80 33 31 34
REMARK SMILES IDX 32 35 33 36 74 37 34 38 79 39 73 40 75 41 35 42 78 43 72 44
REMARK SMILES IDX 71 45 36 47 62 48 45 49 61 50 46 51 49 52 60 53 76 54 47 55
REMARK SMILES IDX 48 56 59 58 77 59 50 60 37 61 38 62 43 63 39 64 40 65 42 66
REMARK SMILES IDX 44 67 41 68 63 69 64 70 69 71 65 72 66 73 68 74 70 75 67 76
REMARK SMILES IDX 51 77 52 78 57 79 53 80 54 81 56 82 58 83 55 84
REMARK H PARENT 5 9 75 46 49 57
REMARK Flexibility Score: inf
ROOT
ATOM      1  O   UNL     1       2.074  -0.586   0.532  1.00  0.00    -0.462 OA
ENDROOT
BRANCH   1   2
ATOM      2  C   UNL     1       2.036   0.482  -0.298  1.00  0.00     0.311 C 
ATOM      3  O   UNL     1       0.937   0.999  -0.526  1.00  0.00    -0.252 OA
BRANCH   2   4
ATOM      4  C   UNL     1       3.233   0.951  -1.101  1.00  0.00     0.184 C 
BRANCH   4   5
ATOM      5  C   UNL     1       4.291   1.911  -0.566  1.00  0.00     0.274 C 
BRANCH   5   6
ATOM      6  N   UNL     1       5.363   1.361   0.271  1.00  0.00    -0.334 N 
ATOM      7  C   UNL     1       6.026   0.152  -0.234  1.00  0.00     0.262 C 
ATOM      8  C   UNL     1       6.420   2.352   0.552  1.00  0.00     0.273 C 
ATOM      9  H   UNL     1       4.854   1.100   1.116  1.00  0.00     0.348 HD
ATOM     10  C   UNL     1       6.819  -0.473   0.915  1.00  0.00     0.062 C 
ATOM     11  C   UNL     1       7.274   1.896   1.739  1.00  0.00     0.111 C 
ATOM     12  C   UNL     1       7.880   0.499   1.416  1.00  0.00     0.023 C 
BRANCH  11  13
ATOM     13  C   UNL     1       6.649   1.895   3.129  1.00  0.00     0.117 A 
ATOM     14  N   UNL     1       7.331   1.361   4.137  1.00  0.00    -0.241 NA
ATOM     15  N   UNL     1       5.472   2.457   3.620  1.00  0.00    -0.328 N 
ATOM     16  C   UNL     1       6.648   1.620   5.280  1.00  0.00     0.131 A 
ATOM     17  C   UNL     1       5.529   2.345   4.997  1.00  0.00     0.108 A 
BRANCH  15  18
ATOM     18  C   UNL     1       4.402   3.214   2.979  1.00  0.00     0.180 C 
BRANCH  18  19
ATOM     19  C   UNL     1       3.026   2.645   3.203  1.00  0.00     0.071 A 
ATOM     20  C   UNL     1       2.291   2.661   4.377  1.00  0.00     0.092 A 
ATOM     21  N   UNL     1       2.320   2.141   2.118  1.00  0.00    -0.248 NA
ATOM     22  S   UNL     1       0.744   1.963   4.148  1.00  0.00    -0.130 S 
ATOM     23  C   UNL     1       1.116   1.760   2.495  1.00  0.00     0.175 A 
ENDBRANCH  18  19
ENDBRANCH  15  18
ENDBRANCH  11  13
ENDBRANCH   5   6
ENDBRANCH   4   5
ENDBRANCH   2   4
ENDBRANCH   1   2
BRANCH   1  24
ATOM     24  C   UNL     1       3.214  -1.294   1.058  1.00  0.00     0.274 C 
BRANCH  24  25
ATOM     25  C   UNL     1       3.601  -2.536   0.254  1.00  0.00     0.275 C 
BRANCH  25  26
ATOM     26  O   UNL     1       3.718  -2.236  -1.128  1.00  0.00    -0.458 OA
BRANCH  26  27
ATOM     27  C   UNL     1       2.555  -2.249  -1.823  1.00  0.00     0.338 C 
ATOM     28  O   UNL     1       1.465  -2.596  -1.434  1.00  0.00    -0.246 OA
BRANCH  27  29
ATOM     29  C   UNL     1       2.859  -1.783  -3.186  1.00  0.00     0.060 A 
ATOM     30  C   UNL     1       1.802  -1.734  -4.091  1.00  0.00     0.016 A 
ATOM     31  C   UNL     1       4.190  -1.558  -3.583  1.00  0.00     0.016 A 
ATOM     32  C   UNL     1       2.109  -1.756  -5.430  1.00  0.00     0.010 A 
ATOM     33  C   UNL     1       4.495  -1.557  -4.915  1.00  0.00     0.010 A 
ATOM     34  C   UNL     1       3.458  -1.795  -5.802  1.00  0.00    -0.014 A 
BRANCH  34  35
ATOM     35  C   UNL     1       3.784  -2.095  -7.173  1.00  0.00     0.031 A 
ATOM     36  C   UNL     1       3.507  -0.963  -8.071  1.00  0.00     0.074 A 
ATOM     37  C   UNL     1       4.326  -3.281  -7.515  1.00  0.00     0.049 A 
ATOM     38  N   UNL     1       2.541  -0.868  -8.919  1.00  0.00    -0.248 NA
ATOM     39  C   UNL     1       4.242   0.293  -7.847  1.00  0.00     0.031 C 
ATOM     40  C   UNL     1       4.837  -4.343  -6.641  1.00  0.00     0.029 A 
ATOM     41  N   UNL     1       4.602  -3.756  -8.759  1.00  0.00    -0.354 N 
ATOM     42  C   UNL     1       2.704   0.373  -9.519  1.00  0.00     0.074 A 
ATOM     43  C   UNL     1       3.605   1.117  -8.680  1.00  0.00     0.031 C 
ATOM     44  C   UNL     1       5.559  -5.223  -7.375  1.00  0.00     0.029 A 
ATOM     45  C   UNL     1       5.440  -4.871  -8.777  1.00  0.00     0.049 A 
ATOM     46  H   UNL     1       4.240  -3.347  -9.579  1.00  0.00     0.167 HD
ATOM     47  C   UNL     1       2.331   0.555 -10.812  1.00  0.00     0.037 A 
ATOM     48  C   UNL     1       6.026  -5.391  -9.886  1.00  0.00     0.037 A 
ATOM     49  C   UNL     1       1.391  -0.459 -11.225  1.00  0.00     0.049 A 
ATOM     50  C   UNL     1       5.248  -4.905 -11.058  1.00  0.00     0.074 A 
ATOM     51  C   UNL     1       0.136  -0.846 -10.794  1.00  0.00     0.029 A 
ATOM     52  N   UNL     1       1.879  -1.515 -11.957  1.00  0.00    -0.354 N 
ATOM     53  N   UNL     1       4.021  -5.274 -11.304  1.00  0.00    -0.248 NA
ATOM     54  C   UNL     1       5.647  -3.631 -11.640  1.00  0.00     0.031 C 
ATOM     55  C   UNL     1       0.136  -2.269 -10.882  1.00  0.00     0.029 A 
ATOM     56  C   UNL     1       1.351  -2.670 -11.439  1.00  0.00     0.049 A 
ATOM     57  H   UNL     1       2.498  -1.453 -12.720  1.00  0.00     0.167 HD
ATOM     58  C   UNL     1       3.370  -4.107 -11.681  1.00  0.00     0.074 A 
ATOM     59  C   UNL     1       4.438  -3.136 -11.920  1.00  0.00     0.031 C 
ATOM     60  C   UNL     1       2.031  -3.945 -11.469  1.00  0.00     0.037 A 
BRANCH  47  61
ATOM     61  C   UNL     1       3.142   1.362 -11.793  1.00  0.00     0.057 A 
ATOM     62  C   UNL     1       2.623   1.585 -13.078  1.00  0.00     0.134 A 
ATOM     63  C   UNL     1       4.512   1.669 -11.639  1.00  0.00     0.134 A 
ATOM     64  F   UNL     1       1.338   1.315 -13.357  1.00  0.00    -0.206 F 
ATOM     65  C   UNL     1       3.423   2.008 -14.146  1.00  0.00     0.040 A 
ATOM     66  C   UNL     1       5.307   2.140 -12.684  1.00  0.00     0.040 A 
ATOM     67  F   UNL     1       5.187   1.434 -10.508  1.00  0.00    -0.206 F 
ATOM     68  C   UNL     1       4.772   2.280 -13.952  1.00  0.00     0.006 A 
ENDBRANCH  47  61
BRANCH  48  69
ATOM     69  C   UNL     1       7.394  -5.946 -10.031  1.00  0.00     0.057 A 
ATOM     70  C   UNL     1       7.769  -6.668 -11.174  1.00  0.00     0.134 A 
ATOM     71  C   UNL     1       8.445  -5.529  -9.195  1.00  0.00     0.134 A 
ATOM     72  F   UNL     1       6.845  -7.070 -12.059  1.00  0.00    -0.206 F 
ATOM     73  C   UNL     1       9.111  -6.939 -11.480  1.00  0.00     0.040 A 
ATOM     74  C   UNL     1       9.788  -5.796  -9.487  1.00  0.00     0.040 A 
ATOM     75  F   UNL     1       8.213  -4.769  -8.116  1.00  0.00    -0.206 F 
ATOM     76  C   UNL     1      10.127  -6.491 -10.641  1.00  0.00     0.006 A 
ENDBRANCH  48  69
BRANCH  60  77
ATOM     77  C   UNL     1       1.238  -5.148 -11.030  1.00  0.00     0.057 A 
ATOM     78  C   UNL     1       1.422  -5.818  -9.809  1.00  0.00     0.134 A 
ATOM     79  C   UNL     1       0.148  -5.547 -11.809  1.00  0.00     0.134 A 
ATOM     80  F   UNL     1       2.381  -5.445  -8.951  1.00  0.00    -0.206 F 
ATOM     81  C   UNL     1       0.581  -6.861  -9.405  1.00  0.00     0.040 A 
ATOM     82  C   UNL     1      -0.719  -6.564 -11.402  1.00  0.00     0.040 A 
ATOM     83  F   UNL     1      -0.123  -4.917 -12.962  1.00  0.00    -0.206 F 
ATOM     84  C   UNL     1      -0.498  -7.232 -10.201  1.00  0.00     0.006 A 
ENDBRANCH  60  77
ENDBRANCH  34  35
ENDBRANCH  27  29
ENDBRANCH  26  27
ENDBRANCH  25  26
ENDBRANCH  24  25
ENDBRANCH   1  24
TORSDOF 16
