REMARK SMILES C[C@@H]1CCCN(c2cc(Br)ccc2/C=C/C(=O)OCCOC(=O)c2ccc(-c3c4nc(c(-c5c(F)cccc5F)c5ccc([nH]5)c(-c5c(F)cccc5F)c5nc(c(-c6c(F)cccc6F)c6ccc3[nH]6)C=C5)C=C4)cc2)C1
REMARK SMILES IDX 19 1 18 2 16 3 17 4 15 5 14 6 13 7 7 8 8 9 9 10 12 11 10 12
REMARK SMILES IDX 11 13 6 14 1 15 2 16 3 17 78 18 4 19 5 20 20 21 21 22 22 23
REMARK SMILES IDX 23 24 24 25 25 26 77 27 26 28 76 29 27 30 28 31 29 32 70 33
REMARK SMILES IDX 30 34 75 35 69 36 71 37 31 38 74 39 68 40 67 41 32 43 58 44
REMARK SMILES IDX 41 45 57 46 42 47 45 48 56 49 72 50 43 51 44 52 55 54 73 55
REMARK SMILES IDX 46 56 33 57 34 58 39 59 35 60 36 61 38 62 40 63 37 64 59 65
REMARK SMILES IDX 60 66 65 67 61 68 62 69 64 70 66 71 63 72 47 73 48 74 53 75
REMARK SMILES IDX 49 76 50 77 52 78 54 79 51 80
REMARK H PARENT 71 42 45 53
REMARK Flexibility Score: inf
ROOT
ATOM      1  C   UNL     1      -0.314   5.187   4.433  1.00  0.00     0.275 C 
ENDROOT
BRANCH   1   2
ATOM      2  O   UNL     1       0.088   4.683   3.146  1.00  0.00    -0.459 OA
BRANCH   2   3
ATOM      3  C   UNL     1       0.049   5.571   2.126  1.00  0.00     0.330 C 
ATOM      4  O   UNL     1      -0.352   6.725   2.186  1.00  0.00    -0.247 OA
BRANCH   3   5
ATOM      5  C   UNL     1       0.584   5.020   0.866  1.00  0.00     0.094 C 
ATOM      6  C   UNL     1       1.260   3.867   0.745  1.00  0.00     0.018 C 
BRANCH   6   7
ATOM      7  C   UNL     1       1.829   3.409  -0.540  1.00  0.00    -0.002 A 
ATOM      8  C   UNL     1       1.742   2.059  -0.956  1.00  0.00     0.045 A 
ATOM      9  C   UNL     1       2.367   1.694  -2.165  1.00  0.00     0.042 A 
ATOM     10  C   UNL     1       3.062   2.625  -2.935  1.00  0.00     0.020 A 
ATOM     11  C   UNL     1       2.566   4.327  -1.317  1.00  0.00     0.011 A 
ATOM     12  Br  UNL     1       3.861   2.090  -4.562  1.00  0.00    -0.051 Br
ATOM     13  C   UNL     1       3.172   3.941  -2.512  1.00  0.00     0.016 A 
BRANCH   8  14
ATOM     14  N   UNL     1       1.068   1.078  -0.247  1.00  0.00    -0.371 N 
ATOM     15  C   UNL     1      -2.560   0.017   0.087  1.00  0.00     0.009 C 
ATOM     16  C   UNL     1      -1.098  -0.042  -0.349  1.00  0.00     0.005 C 
ATOM     17  C   UNL     1      -0.421  -1.313   0.189  1.00  0.00     0.007 C 
ATOM     18  C   UNL     1      -0.340   1.219   0.104  1.00  0.00     0.119 C 
ATOM     19  C   UNL     1       1.055  -1.359  -0.205  1.00  0.00     0.022 C 
ATOM     20  C   UNL     1       1.785  -0.094   0.240  1.00  0.00     0.116 C 
ENDBRANCH   8  14
ENDBRANCH   6   7
ENDBRANCH   3   5
ENDBRANCH   2   3
ENDBRANCH   1   2
BRANCH   1  21
ATOM     21  C   UNL     1       0.900   5.509   5.309  1.00  0.00     0.275 C 
BRANCH  21  22
ATOM     22  O   UNL     1       1.631   6.647   4.817  1.00  0.00    -0.458 OA
BRANCH  22  23
ATOM     23  C   UNL     1       2.621   6.359   3.939  1.00  0.00     0.338 C 
ATOM     24  O   UNL     1       2.971   5.255   3.557  1.00  0.00    -0.246 OA
BRANCH  23  25
ATOM     25  C   UNL     1       3.190   7.607   3.404  1.00  0.00     0.060 A 
ATOM     26  C   UNL     1       3.282   7.750   2.015  1.00  0.00     0.016 A 
ATOM     27  C   UNL     1       3.701   8.589   4.254  1.00  0.00     0.016 A 
ATOM     28  C   UNL     1       3.901   8.874   1.470  1.00  0.00     0.010 A 
ATOM     29  C   UNL     1       4.324   9.714   3.706  1.00  0.00     0.010 A 
ATOM     30  C   UNL     1       4.442   9.854   2.312  1.00  0.00    -0.014 A 
BRANCH  30  31
ATOM     31  C   UNL     1       5.197  10.997   1.744  1.00  0.00     0.031 A 
ATOM     32  C   UNL     1       6.697  11.003   1.813  1.00  0.00     0.074 A 
ATOM     33  C   UNL     1       4.543  12.026   1.177  1.00  0.00     0.049 A 
ATOM     34  N   UNL     1       7.540  11.942   1.464  1.00  0.00    -0.248 NA
ATOM     35  C   UNL     1       7.333   9.789   2.349  1.00  0.00     0.031 C 
ATOM     36  C   UNL     1       3.093  12.120   1.018  1.00  0.00     0.029 A 
ATOM     37  N   UNL     1       5.018  13.196   0.639  1.00  0.00    -0.354 N 
ATOM     38  C   UNL     1       8.803  11.441   1.751  1.00  0.00     0.074 A 
ATOM     39  C   UNL     1       8.616  10.123   2.321  1.00  0.00     0.031 C 
ATOM     40  C   UNL     1       2.794  13.291   0.429  1.00  0.00     0.029 A 
ATOM     41  C   UNL     1       4.027  14.042   0.207  1.00  0.00     0.049 A 
ATOM     42  H   UNL     1       5.977  13.408   0.571  1.00  0.00     0.167 HD
ATOM     43  C   UNL     1      10.008  12.025   1.554  1.00  0.00     0.037 A 
ATOM     44  C   UNL     1       4.106  15.293  -0.287  1.00  0.00     0.037 A 
ATOM     45  C   UNL     1      10.193  13.334   0.982  1.00  0.00     0.049 A 
ATOM     46  C   UNL     1       5.453  15.945  -0.440  1.00  0.00     0.074 A 
ATOM     47  C   UNL     1      11.376  14.008   0.734  1.00  0.00     0.029 A 
ATOM     48  N   UNL     1       9.164  14.166   0.571  1.00  0.00    -0.354 N 
ATOM     49  N   UNL     1       6.641  15.461  -0.170  1.00  0.00    -0.248 NA
ATOM     50  C   UNL     1       5.469  17.318  -0.964  1.00  0.00     0.031 C 
ATOM     51  C   UNL     1      11.060  15.265   0.206  1.00  0.00     0.029 A 
ATOM     52  C   UNL     1       9.683  15.355   0.086  1.00  0.00     0.049 A 
ATOM     53  H   UNL     1       8.205  13.945   0.617  1.00  0.00     0.167 HD
ATOM     54  C   UNL     1       7.546  16.457  -0.518  1.00  0.00     0.074 A 
ATOM     55  C   UNL     1       6.770  17.570  -1.024  1.00  0.00     0.031 C 
ATOM     56  C   UNL     1       8.898  16.448  -0.429  1.00  0.00     0.037 A 
BRANCH  43  57
ATOM     57  C   UNL     1      11.224  11.259   1.983  1.00  0.00     0.057 A 
ATOM     58  C   UNL     1      11.688  10.148   1.268  1.00  0.00     0.134 A 
ATOM     59  C   UNL     1      11.955  11.655   3.110  1.00  0.00     0.134 A 
ATOM     60  F   UNL     1      11.024   9.710   0.187  1.00  0.00    -0.206 F 
ATOM     61  C   UNL     1      12.824   9.444   1.671  1.00  0.00     0.040 A 
ATOM     62  C   UNL     1      13.106  10.973   3.509  1.00  0.00     0.040 A 
ATOM     63  F   UNL     1      11.568  12.714   3.836  1.00  0.00    -0.206 F 
ATOM     64  C   UNL     1      13.540   9.861   2.792  1.00  0.00     0.006 A 
ENDBRANCH  43  57
BRANCH  44  65
ATOM     65  C   UNL     1       2.868  16.019  -0.662  1.00  0.00     0.057 A 
ATOM     66  C   UNL     1       2.562  16.281  -2.002  1.00  0.00     0.134 A 
ATOM     67  C   UNL     1       1.970  16.480   0.308  1.00  0.00     0.134 A 
ATOM     68  F   UNL     1       3.396  15.886  -2.975  1.00  0.00    -0.206 F 
ATOM     69  C   UNL     1       1.413  16.985  -2.364  1.00  0.00     0.040 A 
ATOM     70  C   UNL     1       0.806  17.165  -0.040  1.00  0.00     0.040 A 
ATOM     71  F   UNL     1       2.209  16.261   1.610  1.00  0.00    -0.206 F 
ATOM     72  C   UNL     1       0.528  17.425  -1.381  1.00  0.00     0.006 A 
ENDBRANCH  44  65
BRANCH  56  73
ATOM     73  C   UNL     1       9.629  17.657  -0.931  1.00  0.00     0.057 A 
ATOM     74  C   UNL     1       9.658  18.857  -0.210  1.00  0.00     0.134 A 
ATOM     75  C   UNL     1      10.352  17.603  -2.130  1.00  0.00     0.134 A 
ATOM     76  F   UNL     1       8.975  18.976   0.939  1.00  0.00    -0.206 F 
ATOM     77  C   UNL     1      10.367  19.966  -0.671  1.00  0.00     0.040 A 
ATOM     78  C   UNL     1      11.083  18.698  -2.590  1.00  0.00     0.040 A 
ATOM     79  F   UNL     1      10.371  16.480  -2.864  1.00  0.00    -0.206 F 
ATOM     80  C   UNL     1      11.089  19.886  -1.862  1.00  0.00     0.006 A 
ENDBRANCH  56  73
ENDBRANCH  30  31
ENDBRANCH  23  25
ENDBRANCH  22  23
ENDBRANCH  21  22
ENDBRANCH   1  21
TORSDOF 13
