REMARK SMILES CCc1cn(C[C@H](NC(=O)c2ccco2)C(=O)OCCOC(=O)c2ccc(-c3c4nc(c(-c5c(F)cccc5F)c5ccc([nH]5)c(-c5c(F)cccc5F)c5nc(c(-c6c(F)cccc6F)c6ccc3[nH]6)C=C5)C=C4)cc2)c(=O)[nH]c1=O
REMARK SMILES IDX 19 1 18 2 16 3 17 4 7 5 6 6 5 7 3 8 4 9 81 10 80 11 82 12
REMARK SMILES IDX 78 13 79 15 2 16 1 17 8 18 9 19 10 21 11 22 12 23 15 24
REMARK SMILES IDX 13 25 14 26 20 27 21 28 22 29 23 30 24 31 25 32 77 33 26 34
REMARK SMILES IDX 76 35 27 36 28 37 29 38 70 39 30 40 75 41 69 42 71 43 31 44
REMARK SMILES IDX 74 45 68 46 67 47 32 49 58 50 41 51 57 52 42 53 45 54 56 55
REMARK SMILES IDX 72 56 43 57 44 58 55 60 73 61 46 62 33 63 34 64 39 65 35 66
REMARK SMILES IDX 36 67 38 68 40 69 37 70 59 71 60 72 65 73 61 74 62 75 64 76
REMARK SMILES IDX 66 77 63 78 47 79 48 80 53 81 49 82 50 83 52 84 54 85 51 86
REMARK H PARENT 80 14 8 20 71 48 45 59
REMARK Flexibility Score: inf
ROOT
ATOM      1  C   UNL     1      -2.476   9.109   1.656  1.00  0.00     0.274 C 
ENDROOT
BRANCH   1   2
ATOM      2  O   UNL     1      -1.528   8.028   1.560  1.00  0.00    -0.460 OA
BRANCH   2   3
ATOM      3  C   UNL     1      -0.610   7.951   2.561  1.00  0.00     0.330 C 
ATOM      4  O   UNL     1      -0.559   8.710   3.525  1.00  0.00    -0.250 OA
BRANCH   3   5
ATOM      5  C   UNL     1       0.450   6.871   2.313  1.00  0.00     0.212 C 
BRANCH   5   6
ATOM      6  C   UNL     1       1.736   7.444   1.663  1.00  0.00     0.164 C 
BRANCH   6   7
ATOM      7  N   UNL     1       1.934   8.883   1.843  1.00  0.00    -0.298 N 
ATOM      8  C   UNL     1       2.843  10.664   3.128  1.00  0.00     0.033 A 
ATOM      9  C   UNL     1       2.742   9.356   2.855  1.00  0.00     0.100 A 
ATOM     10  C   UNL     1       1.951  11.592   2.390  1.00  0.00     0.256 A 
ATOM     11  N   UNL     1       1.309  11.066   1.311  1.00  0.00    -0.274 N 
ATOM     12  O   UNL     1       1.805  12.764   2.722  1.00  0.00    -0.269 OA
ATOM     13  C   UNL     1       1.250   9.743   0.989  1.00  0.00     0.328 A 
ATOM     14  H   UNL     1       0.847  11.695   0.712  1.00  0.00     0.175 HD
ATOM     15  O   UNL     1       0.574   9.364   0.036  1.00  0.00    -0.248 OA
BRANCH   8  16
ATOM     16  C   UNL     1       3.798  11.253   4.123  1.00  0.00     0.039 C 
ATOM     17  C   UNL     1       4.840  12.127   3.432  1.00  0.00     0.009 C 
ENDBRANCH   8  16
ENDBRANCH   6   7
ENDBRANCH   5   6
BRANCH   5  18
ATOM     18  N   UNL     1      -0.073   5.742   1.532  1.00  0.00    -0.334 N 
ATOM     19  C   UNL     1       0.432   4.465   1.461  1.00  0.00     0.287 C 
ATOM     20  H   UNL     1      -0.880   5.920   0.996  1.00  0.00     0.164 HD
ATOM     21  O   UNL     1      -0.004   3.694   0.610  1.00  0.00    -0.266 OA
BRANCH  19  22
ATOM     22  C   UNL     1       1.463   4.111   2.410  1.00  0.00     0.191 A 
ATOM     23  C   UNL     1       1.436   3.950   3.784  1.00  0.00     0.056 A 
ATOM     24  O   UNL     1       2.736   3.905   1.953  1.00  0.00    -0.459 OA
ATOM     25  C   UNL     1       2.761   3.663   4.187  1.00  0.00     0.043 A 
ATOM     26  C   UNL     1       3.510   3.629   3.035  1.00  0.00     0.196 A 
ENDBRANCH  19  22
ENDBRANCH   5  18
ENDBRANCH   3   5
ENDBRANCH   2   3
ENDBRANCH   1   2
BRANCH   1  27
ATOM     27  C   UNL     1      -3.854   8.605   2.090  1.00  0.00     0.275 C 
BRANCH  27  28
ATOM     28  O   UNL     1      -3.820   8.044   3.413  1.00  0.00    -0.458 OA
BRANCH  28  29
ATOM     29  C   UNL     1      -3.454   6.740   3.468  1.00  0.00     0.338 C 
ATOM     30  O   UNL     1      -3.213   5.997   2.537  1.00  0.00    -0.246 OA
BRANCH  29  31
ATOM     31  C   UNL     1      -3.196   6.373   4.870  1.00  0.00     0.060 A 
ATOM     32  C   UNL     1      -4.159   6.560   5.859  1.00  0.00     0.016 A 
ATOM     33  C   UNL     1      -1.963   5.788   5.174  1.00  0.00     0.016 A 
ATOM     34  C   UNL     1      -3.875   6.159   7.165  1.00  0.00     0.010 A 
ATOM     35  C   UNL     1      -1.682   5.384   6.475  1.00  0.00     0.010 A 
ATOM     36  C   UNL     1      -2.639   5.564   7.480  1.00  0.00    -0.014 A 
BRANCH  36  37
ATOM     37  C   UNL     1      -2.389   5.056   8.848  1.00  0.00     0.031 A 
ATOM     38  C   UNL     1      -1.440   5.755   9.774  1.00  0.00     0.074 A 
ATOM     39  C   UNL     1      -3.027   3.939   9.241  1.00  0.00     0.049 A 
ATOM     40  N   UNL     1      -1.208   5.523  11.041  1.00  0.00    -0.248 NA
ATOM     41  C   UNL     1      -0.632   6.842   9.202  1.00  0.00     0.031 C 
ATOM     42  C   UNL     1      -3.908   3.132   8.394  1.00  0.00     0.029 A 
ATOM     43  N   UNL     1      -3.048   3.299  10.452  1.00  0.00    -0.354 N 
ATOM     44  C   UNL     1      -0.248   6.449  11.426  1.00  0.00     0.074 A 
ATOM     45  C   UNL     1       0.111   7.199  10.241  1.00  0.00     0.031 C 
ATOM     46  C   UNL     1      -4.422   2.131   9.126  1.00  0.00     0.029 A 
ATOM     47  C   UNL     1      -3.896   2.219  10.484  1.00  0.00     0.049 A 
ATOM     48  H   UNL     1      -2.508   3.586  11.224  1.00  0.00     0.167 HD
ATOM     49  C   UNL     1       0.264   6.669  12.662  1.00  0.00     0.037 A 
ATOM     50  C   UNL     1      -4.229   1.408  11.504  1.00  0.00     0.037 A 
ATOM     51  C   UNL     1      -0.090   5.902  13.830  1.00  0.00     0.049 A 
ATOM     52  C   UNL     1      -3.643   1.671  12.863  1.00  0.00     0.074 A 
ATOM     53  C   UNL     1       0.331   6.071  15.138  1.00  0.00     0.029 A 
ATOM     54  N   UNL     1      -0.944   4.808  13.826  1.00  0.00    -0.354 N 
ATOM     55  N   UNL     1      -2.820   2.619  13.242  1.00  0.00    -0.248 NA
ATOM     56  C   UNL     1      -4.047   0.757  13.940  1.00  0.00     0.031 C 
ATOM     57  C   UNL     1      -0.230   5.050  15.915  1.00  0.00     0.029 A 
ATOM     58  C   UNL     1      -1.042   4.276  15.102  1.00  0.00     0.049 A 
ATOM     59  H   UNL     1      -1.411   4.460  13.033  1.00  0.00     0.167 HD
ATOM     60  C   UNL     1      -2.629   2.434  14.604  1.00  0.00     0.074 A 
ATOM     61  C   UNL     1      -3.441   1.296  14.988  1.00  0.00     0.031 C 
ATOM     62  C   UNL     1      -1.852   3.139  15.463  1.00  0.00     0.037 A 
BRANCH  49  63
ATOM     63  C   UNL     1       1.254   7.790  12.809  1.00  0.00     0.057 A 
ATOM     64  C   UNL     1       2.596   7.533  13.114  1.00  0.00     0.134 A 
ATOM     65  C   UNL     1       0.870   9.132  12.676  1.00  0.00     0.134 A 
ATOM     66  F   UNL     1       3.033   6.274  13.264  1.00  0.00    -0.206 F 
ATOM     67  C   UNL     1       3.520   8.568  13.275  1.00  0.00     0.040 A 
ATOM     68  C   UNL     1       1.790  10.174  12.807  1.00  0.00     0.040 A 
ATOM     69  F   UNL     1      -0.399   9.449  12.377  1.00  0.00    -0.206 F 
ATOM     70  C   UNL     1       3.120   9.893  13.113  1.00  0.00     0.006 A 
ENDBRANCH  49  63
BRANCH  50  71
ATOM     71  C   UNL     1      -5.201   0.307  11.294  1.00  0.00     0.057 A 
ATOM     72  C   UNL     1      -4.877  -0.817  10.526  1.00  0.00     0.134 A 
ATOM     73  C   UNL     1      -6.476   0.349  11.871  1.00  0.00     0.134 A 
ATOM     74  F   UNL     1      -3.676  -0.911   9.937  1.00  0.00    -0.206 F 
ATOM     75  C   UNL     1      -5.784  -1.861  10.341  1.00  0.00     0.040 A 
ATOM     76  C   UNL     1      -7.383  -0.700  11.717  1.00  0.00     0.040 A 
ATOM     77  F   UNL     1      -6.840   1.395  12.628  1.00  0.00    -0.206 F 
ATOM     78  C   UNL     1      -7.038  -1.808  10.947  1.00  0.00     0.006 A 
ENDBRANCH  50  71
BRANCH  62  79
ATOM     79  C   UNL     1      -1.871   2.709  16.902  1.00  0.00     0.057 A 
ATOM     80  C   UNL     1      -2.483   3.507  17.876  1.00  0.00     0.134 A 
ATOM     81  C   UNL     1      -1.284   1.508  17.324  1.00  0.00     0.134 A 
ATOM     82  F   UNL     1      -3.057   4.673  17.541  1.00  0.00    -0.206 F 
ATOM     83  C   UNL     1      -2.518   3.123  19.218  1.00  0.00     0.040 A 
ATOM     84  C   UNL     1      -1.339   1.100  18.658  1.00  0.00     0.040 A 
ATOM     85  F   UNL     1      -0.695   0.691  16.439  1.00  0.00    -0.206 F 
ATOM     86  C   UNL     1      -1.954   1.911  19.610  1.00  0.00     0.006 A 
ENDBRANCH  62  79
ENDBRANCH  36  37
ENDBRANCH  29  31
ENDBRANCH  28  29
ENDBRANCH  27  28
ENDBRANCH   1  27
TORSDOF 16
