REMARK SMILES O=C(OCCOC(=O)[C@@H]1[C@H](C(=O)Nc2cccc(Cl)c2F)[C@@H]2C=C[C@H]1C2)c1ccc(-c2c3nc(c(-c4c(F)cccc4F)c4ccc([nH]4)c(-c4c(F)cccc4F)c4nc(c(-c5c(F)cccc5F)c5ccc2[nH]5)C=C4)C=C3)cc1
REMARK SMILES IDX 4 1 3 2 2 3 1 4 27 5 28 6 80 7 29 8 79 9 30 10 31 11 32 12
REMARK SMILES IDX 73 13 33 14 78 15 72 16 74 17 34 18 77 19 71 20 70 21 35 23
REMARK SMILES IDX 61 24 44 25 60 26 45 27 48 28 59 29 75 30 46 31 47 32 58 34
REMARK SMILES IDX 76 35 49 36 36 37 37 38 42 39 38 40 39 41 41 42 43 43 40 44
REMARK SMILES IDX 62 45 63 46 68 47 64 48 65 49 67 50 69 51 66 52 50 53 51 54
REMARK SMILES IDX 56 55 52 56 53 57 55 58 57 59 54 60 5 61 6 62 7 63 8 64 9 65
REMARK SMILES IDX 10 66 25 67 22 68 24 69 26 70 23 71 11 72 12 73 13 74 14 76
REMARK SMILES IDX 15 77 20 78 16 79 18 80 21 81 17 82 19 83
REMARK H PARENT 74 22 48 33 13 75
REMARK Flexibility Score: inf
ROOT
ATOM      1  C   UNL     1       4.979  -1.613   0.800  1.00  0.00     0.275 C 
ENDROOT
BRANCH   1   2
ATOM      2  O   UNL     1       4.252  -0.393   1.014  1.00  0.00    -0.458 OA
BRANCH   2   3
ATOM      3  C   UNL     1       2.999  -0.420   0.514  1.00  0.00     0.338 C 
ATOM      4  O   UNL     1       2.134  -1.123   0.993  1.00  0.00    -0.246 OA
BRANCH   3   5
ATOM      5  C   UNL     1       3.039   0.410  -0.803  1.00  0.00     0.060 A 
ATOM      6  C   UNL     1       4.652   0.132  -1.569  1.00  0.00     0.016 A 
ATOM      7  C   UNL     1       2.083   1.920  -1.444  1.00  0.00     0.016 A 
ATOM      8  C   UNL     1       5.297   1.083  -2.778  1.00  0.00     0.010 A 
ATOM      9  C   UNL     1       2.932   2.978  -2.669  1.00  0.00     0.010 A 
ATOM     10  C   UNL     1       4.449   2.422  -3.377  1.00  0.00    -0.014 A 
BRANCH  10  11
ATOM     11  C   UNL     1       4.988   2.828  -4.706  1.00  0.00     0.031 A 
ATOM     12  C   UNL     1       5.662   4.142  -4.719  1.00  0.00     0.074 A 
ATOM     13  C   UNL     1       4.999   2.009  -5.796  1.00  0.00     0.049 A 
ATOM     14  N   UNL     1       6.183   4.795  -5.713  1.00  0.00    -0.248 NA
ATOM     15  C   UNL     1       5.760   4.811  -3.415  1.00  0.00     0.031 C 
ATOM     16  C   UNL     1       4.555   0.608  -5.875  1.00  0.00     0.029 A 
ATOM     17  N   UNL     1       5.408   2.238  -7.095  1.00  0.00    -0.354 N 
ATOM     18  C   UNL     1       6.651   5.968  -5.151  1.00  0.00     0.074 A 
ATOM     19  C   UNL     1       6.286   5.969  -3.756  1.00  0.00     0.031 C 
ATOM     20  C   UNL     1       4.600   0.156  -7.135  1.00  0.00     0.029 A 
ATOM     21  C   UNL     1       5.127   1.205  -7.975  1.00  0.00     0.049 A 
ATOM     22  H   UNL     1       5.862   3.066  -7.373  1.00  0.00     0.167 HD
ATOM     23  C   UNL     1       7.349   6.949  -5.757  1.00  0.00     0.037 A 
ATOM     24  C   UNL     1       5.277   1.100  -9.310  1.00  0.00     0.037 A 
ATOM     25  C   UNL     1       7.659   6.915  -7.155  1.00  0.00     0.049 A 
ATOM     26  C   UNL     1       5.933   2.258  -9.996  1.00  0.00     0.074 A 
ATOM     27  C   UNL     1       8.303   7.864  -7.918  1.00  0.00     0.029 A 
ATOM     28  N   UNL     1       7.313   5.867  -8.005  1.00  0.00    -0.354 N 
ATOM     29  N   UNL     1       6.363   3.377  -9.460  1.00  0.00    -0.248 NA
ATOM     30  C   UNL     1       6.150   2.153 -11.441  1.00  0.00     0.031 C 
ATOM     31  C   UNL     1       8.265   7.433  -9.246  1.00  0.00     0.029 A 
ATOM     32  C   UNL     1       7.691   6.168  -9.298  1.00  0.00     0.049 A 
ATOM     33  H   UNL     1       6.866   5.036  -7.726  1.00  0.00     0.167 HD
ATOM     34  C   UNL     1       6.932   4.099 -10.492  1.00  0.00     0.074 A 
ATOM     35  C   UNL     1       6.791   3.288 -11.688  1.00  0.00     0.031 C 
ATOM     36  C   UNL     1       7.526   5.316 -10.453  1.00  0.00     0.037 A 
BRANCH  23  37
ATOM     37  C   UNL     1       7.679   8.133  -4.903  1.00  0.00     0.057 A 
ATOM     38  C   UNL     1       8.522   8.039  -3.783  1.00  0.00     0.134 A 
ATOM     39  C   UNL     1       7.003   9.341  -5.103  1.00  0.00     0.134 A 
ATOM     40  F   UNL     1       9.161   6.892  -3.505  1.00  0.00    -0.206 F 
ATOM     41  C   UNL     1       8.616   9.077  -2.855  1.00  0.00     0.040 A 
ATOM     42  C   UNL     1       7.127  10.402  -4.207  1.00  0.00     0.040 A 
ATOM     43  F   UNL     1       6.169   9.492  -6.143  1.00  0.00    -0.206 F 
ATOM     44  C   UNL     1       7.915  10.262  -3.066  1.00  0.00     0.006 A 
ENDBRANCH  23  37
BRANCH  24  45
ATOM     45  C   UNL     1       4.806  -0.110 -10.054  1.00  0.00     0.057 A 
ATOM     46  C   UNL     1       5.691  -0.999 -10.679  1.00  0.00     0.134 A 
ATOM     47  C   UNL     1       3.440  -0.419 -10.146  1.00  0.00     0.134 A 
ATOM     48  F   UNL     1       7.012  -0.770 -10.646  1.00  0.00    -0.206 F 
ATOM     49  C   UNL     1       5.241  -2.131 -11.372  1.00  0.00     0.040 A 
ATOM     50  C   UNL     1       2.976  -1.558 -10.815  1.00  0.00     0.040 A 
ATOM     51  F   UNL     1       2.527   0.377  -9.569  1.00  0.00    -0.206 F 
ATOM     52  C   UNL     1       3.879  -2.416 -11.436  1.00  0.00     0.006 A 
ENDBRANCH  24  45
BRANCH  36  53
ATOM     53  C   UNL     1       8.107   5.826 -11.733  1.00  0.00     0.057 A 
ATOM     54  C   UNL     1       7.302   6.291 -12.777  1.00  0.00     0.134 A 
ATOM     55  C   UNL     1       9.495   5.969 -11.855  1.00  0.00     0.134 A 
ATOM     56  F   UNL     1       5.967   6.168 -12.717  1.00  0.00    -0.206 F 
ATOM     57  C   UNL     1       7.862   6.886 -13.905  1.00  0.00     0.040 A 
ATOM     58  C   UNL     1      10.062   6.598 -12.958  1.00  0.00     0.040 A 
ATOM     59  F   UNL     1      10.312   5.550 -10.876  1.00  0.00    -0.206 F 
ATOM     60  C   UNL     1       9.243   7.057 -13.988  1.00  0.00     0.006 A 
ENDBRANCH  36  53
ENDBRANCH  10  11
ENDBRANCH   3   5
ENDBRANCH   2   3
ENDBRANCH   1   2
BRANCH   1  61
ATOM     61  C   UNL     1       4.324  -2.695  -0.160  1.00  0.00     0.274 C 
BRANCH  61  62
ATOM     62  O   UNL     1       3.795  -2.172  -1.445  1.00  0.00    -0.462 OA
BRANCH  62  63
ATOM     63  C   UNL     1       2.458  -2.000  -1.754  1.00  0.00     0.310 C 
ATOM     64  O   UNL     1       1.573  -2.736  -1.351  1.00  0.00    -0.252 OA
BRANCH  63  65
ATOM     65  C   UNL     1       2.249  -0.792  -2.766  1.00  0.00     0.119 C 
ATOM     66  C   UNL     1       3.000   0.871  -2.750  1.00  0.00     0.100 C 
ATOM     67  C   UNL     1       0.802  -0.604  -3.385  1.00  0.00     0.027 C 
ATOM     68  C   UNL     1       1.622   1.436  -3.888  1.00  0.00     0.025 C 
ATOM     69  C   UNL     1      -0.135   0.444  -2.808  1.00  0.00    -0.027 C 
ATOM     70  C   UNL     1       1.155   0.199  -4.642  1.00  0.00     0.017 C 
ATOM     71  C   UNL     1       0.274   1.653  -3.212  1.00  0.00    -0.027 C 
BRANCH  66  72
ATOM     72  C   UNL     1       3.957   2.059  -1.165  1.00  0.00     0.229 C 
ATOM     73  O   UNL     1       5.069   2.654  -1.046  1.00  0.00    -0.274 OA
ATOM     74  N   UNL     1       3.180   2.395   0.363  1.00  0.00    -0.323 N 
ATOM     75  H   UNL     1       3.758   2.923   0.960  1.00  0.00     0.170 HD
BRANCH  74  76
ATOM     76  C   UNL     1       1.725   2.053   1.063  1.00  0.00     0.078 A 
ATOM     77  C   UNL     1       1.310   2.863   2.118  1.00  0.00     0.029 A 
ATOM     78  C   UNL     1       0.678   1.080   0.682  1.00  0.00     0.165 A 
ATOM     79  C   UNL     1      -0.006   2.744   2.671  1.00  0.00     0.004 A 
ATOM     80  C   UNL     1      -0.566   0.906   1.284  1.00  0.00     0.078 A 
ATOM     81  F   UNL     1       0.789   0.262  -0.376  1.00  0.00    -0.203 F 
ATOM     82  C   UNL     1      -0.933   1.772   2.269  1.00  0.00     0.024 A 
ATOM     83  Cl  UNL     1      -1.647  -0.333   0.743  1.00  0.00    -0.081 Cl
ENDBRANCH  74  76
ENDBRANCH  66  72
ENDBRANCH  63  65
ENDBRANCH  62  63
ENDBRANCH  61  62
ENDBRANCH   1  61
TORSDOF 13
