REMARK SMILES Cc1nn(CC(=O)OCCOC(=O)c2ccc(-c3c4nc(c(-c5c(F)cccc5F)c5ccc([nH]5)c(-c5c(F)cccc5F)c5nc(c(-c6c(F)cccc6F)c6ccc3[nH]6)C=C5)C=C4)cc2)c(C)c1NC(=O)C(=O)Nc1ccc(F)cc1
REMARK SMILES IDX 9 1 8 2 6 3 7 4 5 5 4 6 1 7 2 8 3 9 70 10 68 11 69 12 71 13
REMARK SMILES IDX 72 14 73 16 74 17 75 18 76 19 77 21 78 22 83 23 79 24 82 25
REMARK SMILES IDX 80 26 81 27 10 28 11 29 12 30 13 31 14 32 15 33 67 34 16 35
REMARK SMILES IDX 66 36 17 37 18 38 19 39 60 40 20 41 65 42 59 43 61 44 21 45
REMARK SMILES IDX 64 46 58 47 57 48 22 50 48 51 31 52 47 53 32 54 35 55 46 56
REMARK SMILES IDX 62 57 33 58 34 59 45 61 63 62 36 63 23 64 24 65 29 66 25 67
REMARK SMILES IDX 26 68 28 69 30 70 27 71 49 72 50 73 55 74 51 75 52 76 54 77
REMARK SMILES IDX 56 78 53 79 37 80 38 81 43 82 39 83 40 84 42 85 44 86 41 87
REMARK H PARENT 71 15 76 20 61 49 35 60
REMARK Flexibility Score: inf
ROOT
ATOM      1  C   UNL     1      -1.173  -6.248  -2.739  1.00  0.00     0.274 C 
ENDROOT
BRANCH   1   2
ATOM      2  O   UNL     1      -0.900  -5.546  -1.510  1.00  0.00    -0.461 OA
BRANCH   2   3
ATOM      3  C   UNL     1      -0.086  -6.169  -0.615  1.00  0.00     0.327 C 
ATOM      4  O   UNL     1       0.279  -7.338  -0.726  1.00  0.00    -0.250 OA
BRANCH   3   5
ATOM      5  C   UNL     1       0.347  -5.321   0.548  1.00  0.00     0.267 C 
BRANCH   5   6
ATOM      6  N   UNL     1      -0.043  -3.920   0.503  1.00  0.00    -0.256 N 
ATOM      7  C   UNL     1       0.996  -0.554   0.193  1.00  0.00     0.071 C 
ATOM      8  C   UNL     1       0.274  -1.828   0.444  1.00  0.00     0.083 A 
ATOM      9  N   UNL     1       0.912  -2.992   0.302  1.00  0.00    -0.175 NA
ATOM     10  C   UNL     1      -1.053  -2.018   0.923  1.00  0.00     0.086 A 
ATOM     11  C   UNL     1      -1.266  -3.382   0.841  1.00  0.00     0.060 A 
ATOM     12  C   UNL     1      -2.470  -4.238   1.009  1.00  0.00     0.069 C 
BRANCH  10  13
ATOM     13  N   UNL     1      -1.888  -0.997   1.337  1.00  0.00    -0.315 N 
ATOM     14  C   UNL     1      -2.826  -0.990   2.347  1.00  0.00     0.314 C 
ATOM     15  H   UNL     1      -1.800  -0.152   0.838  1.00  0.00     0.170 HD
ATOM     16  O   UNL     1      -3.387   0.059   2.652  1.00  0.00    -0.263 OA
BRANCH  14  17
ATOM     17  C   UNL     1      -3.026  -2.244   3.196  1.00  0.00     0.314 C 
ATOM     18  O   UNL     1      -2.040  -2.804   3.678  1.00  0.00    -0.263 OA
ATOM     19  N   UNL     1      -4.271  -2.754   3.499  1.00  0.00    -0.318 N 
ATOM     20  H   UNL     1      -4.273  -3.708   3.741  1.00  0.00     0.170 HD
BRANCH  19  21
ATOM     21  C   UNL     1      -5.534  -2.147   3.522  1.00  0.00     0.041 A 
ATOM     22  C   UNL     1      -6.360  -2.548   4.584  1.00  0.00     0.029 A 
ATOM     23  C   UNL     1      -5.974  -1.143   2.662  1.00  0.00     0.029 A 
ATOM     24  C   UNL     1      -7.535  -1.856   4.871  1.00  0.00     0.041 A 
ATOM     25  C   UNL     1      -7.163  -0.458   2.940  1.00  0.00     0.041 A 
ATOM     26  C   UNL     1      -7.913  -0.799   4.058  1.00  0.00     0.123 A 
ATOM     27  F   UNL     1      -9.012  -0.096   4.362  1.00  0.00    -0.207 F 
ENDBRANCH  19  21
ENDBRANCH  14  17
ENDBRANCH  10  13
ENDBRANCH   5   6
ENDBRANCH   3   5
ENDBRANCH   2   3
ENDBRANCH   1   2
BRANCH   1  28
ATOM     28  C   UNL     1      -0.211  -5.836  -3.851  1.00  0.00     0.275 C 
BRANCH  28  29
ATOM     29  O   UNL     1       1.146  -6.079  -3.476  1.00  0.00    -0.458 OA
BRANCH  29  30
ATOM     30  C   UNL     1       1.708  -5.033  -2.834  1.00  0.00     0.338 C 
ATOM     31  O   UNL     1       1.147  -3.995  -2.504  1.00  0.00    -0.246 OA
BRANCH  30  32
ATOM     32  C   UNL     1       3.143  -5.224  -2.670  1.00  0.00     0.060 A 
ATOM     33  C   UNL     1       3.790  -4.456  -1.694  1.00  0.00     0.016 A 
ATOM     34  C   UNL     1       3.842  -5.884  -3.686  1.00  0.00     0.016 A 
ATOM     35  C   UNL     1       5.133  -4.191  -1.847  1.00  0.00     0.010 A 
ATOM     36  C   UNL     1       5.177  -5.600  -3.849  1.00  0.00     0.010 A 
ATOM     37  C   UNL     1       5.781  -4.690  -2.977  1.00  0.00    -0.014 A 
BRANCH  37  38
ATOM     38  C   UNL     1       7.107  -4.191  -3.279  1.00  0.00     0.031 A 
ATOM     39  C   UNL     1       8.217  -4.830  -2.538  1.00  0.00     0.074 A 
ATOM     40  C   UNL     1       7.300  -3.332  -4.299  1.00  0.00     0.049 A 
ATOM     41  N   UNL     1       9.137  -4.269  -1.826  1.00  0.00    -0.248 NA
ATOM     42  C   UNL     1       8.266  -6.301  -2.540  1.00  0.00     0.031 C 
ATOM     43  C   UNL     1       6.321  -2.893  -5.299  1.00  0.00     0.029 A 
ATOM     44  N   UNL     1       8.461  -2.784  -4.743  1.00  0.00    -0.354 N 
ATOM     45  C   UNL     1       9.982  -5.299  -1.427  1.00  0.00     0.074 A 
ATOM     46  C   UNL     1       9.331  -6.534  -1.775  1.00  0.00     0.031 C 
ATOM     47  C   UNL     1       6.979  -2.354  -6.350  1.00  0.00     0.029 A 
ATOM     48  C   UNL     1       8.401  -2.318  -6.046  1.00  0.00     0.049 A 
ATOM     49  H   UNL     1       9.273  -2.724  -4.188  1.00  0.00     0.167 HD
ATOM     50  C   UNL     1      11.263  -5.069  -1.035  1.00  0.00     0.037 A 
ATOM     51  C   UNL     1       9.458  -2.030  -6.844  1.00  0.00     0.037 A 
ATOM     52  C   UNL     1      11.478  -3.703  -0.646  1.00  0.00     0.049 A 
ATOM     53  C   UNL     1      10.658  -1.894  -5.977  1.00  0.00     0.074 A 
ATOM     54  C   UNL     1      10.906  -2.865   0.294  1.00  0.00     0.029 A 
ATOM     55  N   UNL     1      12.179  -2.881  -1.492  1.00  0.00    -0.354 N 
ATOM     56  N   UNL     1      10.868  -0.903  -5.157  1.00  0.00    -0.248 NA
ATOM     57  C   UNL     1      11.439  -3.096  -5.712  1.00  0.00     0.031 C 
ATOM     58  C   UNL     1      10.879  -1.581  -0.324  1.00  0.00     0.029 A 
ATOM     59  C   UNL     1      11.463  -1.714  -1.583  1.00  0.00     0.049 A 
ATOM     60  H   UNL     1      13.028  -3.088  -1.945  1.00  0.00     0.167 HD
ATOM     61  C   UNL     1      11.471  -1.481  -4.048  1.00  0.00     0.074 A 
ATOM     62  C   UNL     1      11.888  -2.809  -4.488  1.00  0.00     0.031 C 
ATOM     63  C   UNL     1      11.323  -0.951  -2.799  1.00  0.00     0.037 A 
BRANCH  50  64
ATOM     64  C   UNL     1      12.389  -6.021  -1.327  1.00  0.00     0.057 A 
ATOM     65  C   UNL     1      13.620  -5.868  -0.672  1.00  0.00     0.134 A 
ATOM     66  C   UNL     1      12.392  -6.908  -2.425  1.00  0.00     0.134 A 
ATOM     67  F   UNL     1      13.748  -5.022   0.361  1.00  0.00    -0.206 F 
ATOM     68  C   UNL     1      14.781  -6.519  -1.105  1.00  0.00     0.040 A 
ATOM     69  C   UNL     1      13.531  -7.606  -2.830  1.00  0.00     0.040 A 
ATOM     70  F   UNL     1      11.324  -7.065  -3.218  1.00  0.00    -0.206 F 
ATOM     71  C   UNL     1      14.739  -7.391  -2.187  1.00  0.00     0.006 A 
ENDBRANCH  50  64
BRANCH  51  72
ATOM     72  C   UNL     1       9.557  -2.151  -8.316  1.00  0.00     0.057 A 
ATOM     73  C   UNL     1      10.595  -1.530  -9.024  1.00  0.00     0.134 A 
ATOM     74  C   UNL     1       8.782  -3.072  -9.045  1.00  0.00     0.134 A 
ATOM     75  F   UNL     1      11.421  -0.672  -8.409  1.00  0.00    -0.206 F 
ATOM     76  C   UNL     1      10.855  -1.816 -10.371  1.00  0.00     0.040 A 
ATOM     77  C   UNL     1       9.020  -3.355 -10.394  1.00  0.00     0.040 A 
ATOM     78  F   UNL     1       7.821  -3.797  -8.455  1.00  0.00    -0.206 F 
ATOM     79  C   UNL     1      10.069  -2.736 -11.059  1.00  0.00     0.006 A 
ENDBRANCH  51  72
BRANCH  63  80
ATOM     80  C   UNL     1      10.697   0.410  -2.679  1.00  0.00     0.057 A 
ATOM     81  C   UNL     1       9.387   0.701  -3.088  1.00  0.00     0.134 A 
ATOM     82  C   UNL     1      11.381   1.416  -1.989  1.00  0.00     0.134 A 
ATOM     83  F   UNL     1       8.612  -0.234  -3.653  1.00  0.00    -0.206 F 
ATOM     84  C   UNL     1       8.807   1.954  -2.873  1.00  0.00     0.040 A 
ATOM     85  C   UNL     1      10.800   2.661  -1.735  1.00  0.00     0.040 A 
ATOM     86  F   UNL     1      12.614   1.189  -1.507  1.00  0.00    -0.206 F 
ATOM     87  C   UNL     1       9.513   2.938  -2.189  1.00  0.00     0.006 A 
ENDBRANCH  63  80
ENDBRANCH  37  38
ENDBRANCH  30  32
ENDBRANCH  29  30
ENDBRANCH  28  29
ENDBRANCH   1  28
TORSDOF 15
