REMARK SMILES O=C1CCCC2=C1[C@H](c1ccc([N+](=O)[O-])cc1)CC(=O)N2c1ccccc1C(=O)OCCOC(=O)c1ccc(-c2c3nc(c(-c4c(F)cccc4F)c4ccc([nH]4)c(-c4c(F)cccc4F)c4nc(c(-c5c(F)cccc5F)c5ccc2[nH]5)C=C4)C=C3)cc1
REMARK SMILES IDX 31 1 30 2 28 3 29 4 27 5 22 6 23 7 24 8 26 9 25 10 21 11
REMARK SMILES IDX 1 12 2 13 3 14 7 15 4 16 6 17 8 18 5 19 18 20 19 21 20 22
REMARK SMILES IDX 9 23 10 24 17 25 11 26 16 27 12 28 13 29 14 30 15 31 32 32
REMARK SMILES IDX 33 33 34 34 35 35 36 36 37 37 89 38 38 39 88 40 39 41 40 42
REMARK SMILES IDX 41 43 82 44 42 45 87 46 81 47 83 48 43 49 86 50 80 51 79 52
REMARK SMILES IDX 44 54 70 55 53 56 69 57 54 58 57 59 68 60 84 61 55 62 56 63
REMARK SMILES IDX 67 65 85 66 58 67 45 68 46 69 51 70 47 71 48 72 50 73 52 74
REMARK SMILES IDX 49 75 71 76 72 77 77 78 73 79 74 80 76 81 78 82 75 83 59 84
REMARK SMILES IDX 60 85 65 86 61 87 62 88 64 89 66 90 63 91
REMARK H PARENT 83 53 57 64
REMARK Flexibility Score: inf
ROOT
ATOM      1  C   UNL     1       5.507  -0.424   2.401  1.00  0.00     0.275 C 
ENDROOT
BRANCH   1   2
ATOM      2  O   UNL     1       5.992  -1.291   1.354  1.00  0.00    -0.458 OA
BRANCH   2   3
ATOM      3  C   UNL     1       6.915  -0.753   0.521  1.00  0.00     0.340 C 
ATOM      4  O   UNL     1       7.467   0.328   0.660  1.00  0.00    -0.246 OA
BRANCH   3   5
ATOM      5  C   UNL     1       7.194  -1.622  -0.650  1.00  0.00     0.084 A 
ATOM      6  C   UNL     1       6.207  -2.341  -1.348  1.00  0.00     0.063 A 
ATOM      7  C   UNL     1       6.615  -3.167  -2.416  1.00  0.00     0.027 A 
ATOM      8  C   UNL     1       7.955  -3.257  -2.801  1.00  0.00     0.002 A 
ATOM      9  C   UNL     1       8.536  -1.689  -1.075  1.00  0.00     0.018 A 
ATOM     10  C   UNL     1       8.916  -2.513  -2.133  1.00  0.00     0.001 A 
BRANCH   6  11
ATOM     11  N   UNL     1       4.799  -2.279  -1.047  1.00  0.00    -0.284 N 
ATOM     12  O   UNL     1       0.866   0.252  -0.275  1.00  0.00    -0.294 OA
ATOM     13  C   UNL     1       2.089   0.225  -0.368  1.00  0.00     0.161 C 
ATOM     14  C   UNL     1       2.908   1.486  -0.397  1.00  0.00     0.081 C 
ATOM     15  C   UNL     1       2.834  -1.067  -0.440  1.00  0.00     0.023 C 
ATOM     16  C   UNL     1       3.783   1.421  -1.629  1.00  0.00     0.015 C 
ATOM     17  C   UNL     1       4.070  -1.072  -0.984  1.00  0.00     0.033 C 
ATOM     18  C   UNL     1       2.118  -2.308   0.028  1.00  0.00     0.064 C 
ATOM     19  C   UNL     1       4.689   0.190  -1.587  1.00  0.00     0.055 C 
ATOM     20  C   UNL     1       2.683  -3.521  -0.702  1.00  0.00     0.114 C 
ATOM     21  C   UNL     1       4.190  -3.523  -0.769  1.00  0.00     0.232 C 
ATOM     22  O   UNL     1       4.792  -4.593  -0.659  1.00  0.00    -0.274 OA
BRANCH  18  23
ATOM     23  C   UNL     1       2.038  -2.432   1.554  1.00  0.00    -0.039 A 
ATOM     24  C   UNL     1       2.862  -3.278   2.315  1.00  0.00     0.011 A 
ATOM     25  C   UNL     1       1.053  -1.686   2.234  1.00  0.00     0.011 A 
ATOM     26  C   UNL     1       2.690  -3.393   3.703  1.00  0.00     0.086 A 
ATOM     27  C   UNL     1       0.886  -1.777   3.617  1.00  0.00     0.086 A 
ATOM     28  C   UNL     1       1.699  -2.644   4.347  1.00  0.00     0.269 A 
BRANCH  28  29
ATOM     29  N   UNL     1       1.499  -2.775   5.794  1.00  0.00     0.062 N 
ATOM     30  O   UNL     1       2.075  -3.706   6.374  1.00  0.00    -0.258 OA
ATOM     31  O   UNL     1       0.766  -1.944   6.351  1.00  0.00    -0.258 OA
ENDBRANCH  28  29
ENDBRANCH  18  23
ENDBRANCH   6  11
ENDBRANCH   3   5
ENDBRANCH   2   3
ENDBRANCH   1   2
BRANCH   1  32
ATOM     32  C   UNL     1       6.054  -0.829   3.764  1.00  0.00     0.275 C 
BRANCH  32  33
ATOM     33  O   UNL     1       7.477  -0.637   3.782  1.00  0.00    -0.458 OA
BRANCH  33  34
ATOM     34  C   UNL     1       8.216  -1.764   3.854  1.00  0.00     0.338 C 
ATOM     35  O   UNL     1       7.826  -2.911   4.008  1.00  0.00    -0.246 OA
BRANCH  34  36
ATOM     36  C   UNL     1       9.625  -1.423   3.637  1.00  0.00     0.060 A 
ATOM     37  C   UNL     1      10.031  -1.079   2.350  1.00  0.00     0.016 A 
ATOM     38  C   UNL     1      10.562  -1.572   4.654  1.00  0.00     0.016 A 
ATOM     39  C   UNL     1      11.379  -0.951   2.044  1.00  0.00     0.010 A 
ATOM     40  C   UNL     1      11.916  -1.370   4.365  1.00  0.00     0.010 A 
ATOM     41  C   UNL     1      12.339  -1.095   3.049  1.00  0.00    -0.014 A 
BRANCH  41  42
ATOM     42  C   UNL     1      13.784  -1.055   2.710  1.00  0.00     0.031 A 
ATOM     43  C   UNL     1      14.630  -2.273   2.954  1.00  0.00     0.074 A 
ATOM     44  C   UNL     1      14.336   0.044   2.160  1.00  0.00     0.049 A 
ATOM     45  N   UNL     1      15.932  -2.395   2.946  1.00  0.00    -0.248 NA
ATOM     46  C   UNL     1      13.911  -3.520   3.264  1.00  0.00     0.031 C 
ATOM     47  C   UNL     1      13.617   1.263   1.788  1.00  0.00     0.029 A 
ATOM     48  N   UNL     1      15.637   0.307   1.810  1.00  0.00    -0.354 N 
ATOM     49  C   UNL     1      16.189  -3.706   3.326  1.00  0.00     0.074 A 
ATOM     50  C   UNL     1      14.910  -4.346   3.540  1.00  0.00     0.031 C 
ATOM     51  C   UNL     1      14.478   2.130   1.233  1.00  0.00     0.029 A 
ATOM     52  C   UNL     1      15.822   1.566   1.294  1.00  0.00     0.049 A 
ATOM     53  H   UNL     1      16.367  -0.345   1.918  1.00  0.00     0.167 HD
ATOM     54  C   UNL     1      17.389  -4.313   3.492  1.00  0.00     0.037 A 
ATOM     55  C   UNL     1      16.953   2.213   0.955  1.00  0.00     0.037 A 
ATOM     56  C   UNL     1      18.652  -3.687   3.206  1.00  0.00     0.049 A 
ATOM     57  C   UNL     1      18.274   1.532   1.174  1.00  0.00     0.074 A 
ATOM     58  C   UNL     1      19.925  -4.216   3.323  1.00  0.00     0.029 A 
ATOM     59  N   UNL     1      18.797  -2.396   2.722  1.00  0.00    -0.354 N 
ATOM     60  N   UNL     1      18.517   0.322   1.618  1.00  0.00    -0.248 NA
ATOM     61  C   UNL     1      19.480   2.317   0.877  1.00  0.00     0.031 C 
ATOM     62  C   UNL     1      20.843  -3.233   2.935  1.00  0.00     0.029 A 
ATOM     63  C   UNL     1      20.139  -2.106   2.544  1.00  0.00     0.049 A 
ATOM     64  H   UNL     1      18.056  -1.776   2.533  1.00  0.00     0.167 HD
ATOM     65  C   UNL     1      19.898   0.197   1.646  1.00  0.00     0.074 A 
ATOM     66  C   UNL     1      20.441   1.448   1.156  1.00  0.00     0.031 C 
ATOM     67  C   UNL     1      20.653  -0.854   2.049  1.00  0.00     0.037 A 
BRANCH  54  68
ATOM     68  C   UNL     1      17.387  -5.702   4.057  1.00  0.00     0.057 A 
ATOM     69  C   UNL     1      16.994  -6.818   3.310  1.00  0.00     0.134 A 
ATOM     70  C   UNL     1      17.802  -5.922   5.378  1.00  0.00     0.134 A 
ATOM     71  F   UNL     1      16.568  -6.673   2.046  1.00  0.00    -0.206 F 
ATOM     72  C   UNL     1      16.989  -8.100   3.863  1.00  0.00     0.040 A 
ATOM     73  C   UNL     1      17.824  -7.201   5.934  1.00  0.00     0.040 A 
ATOM     74  F   UNL     1      18.193  -4.896   6.149  1.00  0.00    -0.206 F 
ATOM     75  C   UNL     1      17.411  -8.295   5.178  1.00  0.00     0.006 A 
ENDBRANCH  54  68
BRANCH  55  76
ATOM     76  C   UNL     1      16.888   3.596   0.421  1.00  0.00     0.057 A 
ATOM     77  C   UNL     1      17.212   3.871  -0.911  1.00  0.00     0.134 A 
ATOM     78  C   UNL     1      16.494   4.674   1.224  1.00  0.00     0.134 A 
ATOM     79  F   UNL     1      17.621   2.885  -1.724  1.00  0.00    -0.206 F 
ATOM     80  C   UNL     1      17.149   5.167  -1.427  1.00  0.00     0.040 A 
ATOM     81  C   UNL     1      16.402   5.970   0.716  1.00  0.00     0.040 A 
ATOM     82  F   UNL     1      16.171   4.477   2.511  1.00  0.00    -0.206 F 
ATOM     83  C   UNL     1      16.735   6.220  -0.613  1.00  0.00     0.006 A 
ENDBRANCH  55  76
BRANCH  67  84
ATOM     84  C   UNL     1      22.139  -0.702   1.944  1.00  0.00     0.057 A 
ATOM     85  C   UNL     1      22.864   0.072   2.858  1.00  0.00     0.134 A 
ATOM     86  C   UNL     1      22.853  -1.358   0.935  1.00  0.00     0.134 A 
ATOM     87  F   UNL     1      22.233   0.738   3.837  1.00  0.00    -0.206 F 
ATOM     88  C   UNL     1      24.250   0.202   2.760  1.00  0.00     0.040 A 
ATOM     89  C   UNL     1      24.241  -1.252   0.840  1.00  0.00     0.040 A 
ATOM     90  F   UNL     1      22.214  -2.119   0.033  1.00  0.00    -0.206 F 
ATOM     91  C   UNL     1      24.942  -0.466   1.752  1.00  0.00     0.006 A 
ENDBRANCH  67  84
ENDBRANCH  41  42
ENDBRANCH  34  36
ENDBRANCH  33  34
ENDBRANCH  32  33
ENDBRANCH   1  32
TORSDOF 14
