REMARK SMILES CC1=C([C@H](NC(=O)c2cccc3ccccc23)C(=O)OCCOC(=O)c2ccc(-c3c4nc(c(-c5c(F)cccc5F)c5ccc([nH]5)c(-c5c(F)cccc5F)c5nc(c(-c6c(F)cccc6F)c6ccc3[nH]6)C=C5)C=C4)cc2)[C@H](C)N=N1
REMARK SMILES IDX 21 1 20 2 18 3 19 4 4 5 3 6 1 7 2 8 83 9 80 10 82 11 81 12
REMARK SMILES IDX 5 13 6 14 7 16 8 17 9 18 17 19 10 20 12 21 16 22 11 23 13 24
REMARK SMILES IDX 15 25 14 26 22 27 23 28 24 29 25 30 26 31 27 32 79 33 28 34
REMARK SMILES IDX 78 35 29 36 30 37 31 38 72 39 32 40 77 41 71 42 73 43 33 44
REMARK SMILES IDX 76 45 70 46 69 47 34 49 60 50 43 51 59 52 44 53 47 54 58 55
REMARK SMILES IDX 74 56 45 57 46 58 57 60 75 61 48 62 35 63 36 64 41 65 37 66
REMARK SMILES IDX 38 67 40 68 42 69 39 70 61 71 62 72 67 73 63 74 64 75 66 76
REMARK SMILES IDX 68 77 65 78 49 79 50 80 55 81 51 82 52 83 54 84 56 85 53 86
REMARK H PARENT 5 15 73 48 47 59
REMARK Flexibility Score: inf
ROOT
ATOM      1  C   UNL     1       4.736   5.250   0.122  1.00  0.00     0.274 C 
ENDROOT
BRANCH   1   2
ATOM      2  O   UNL     1       3.403   4.780  -0.139  1.00  0.00    -0.460 OA
BRANCH   2   3
ATOM      3  C   UNL     1       3.216   3.748  -0.990  1.00  0.00     0.333 C 
ATOM      4  O   UNL     1       4.093   3.317  -1.732  1.00  0.00    -0.249 OA
BRANCH   3   5
ATOM      5  C   UNL     1       1.746   3.215  -0.975  1.00  0.00     0.223 C 
BRANCH   5   6
ATOM      6  C   UNL     1       0.916   3.607  -2.164  1.00  0.00     0.012 C 
ATOM      7  C   UNL     1       2.449   3.050  -4.139  1.00  0.00     0.069 C 
ATOM      8  C   UNL     1       1.224   3.575  -3.470  1.00  0.00     0.064 C 
ATOM      9  N   UNL     1       0.214   4.057  -4.263  1.00  0.00    -0.160 NA
ATOM     10  C   UNL     1      -0.506   4.079  -2.129  1.00  0.00     0.156 C 
ATOM     11  N   UNL     1      -0.775   4.390  -3.560  1.00  0.00    -0.181 NA
ATOM     12  C   UNL     1      -1.551   3.062  -1.681  1.00  0.00     0.040 C 
ENDBRANCH   5   6
BRANCH   5  13
ATOM     13  N   UNL     1       0.938   3.265   0.254  1.00  0.00    -0.335 N 
ATOM     14  C   UNL     1       0.550   4.195   1.180  1.00  0.00     0.252 C 
ATOM     15  H   UNL     1       0.573   2.377   0.472  1.00  0.00     0.165 HD
ATOM     16  O   UNL     1      -0.349   3.879   1.960  1.00  0.00    -0.269 OA
BRANCH  14  17
ATOM     17  C   UNL     1       1.197   5.517   1.337  1.00  0.00     0.047 A 
ATOM     18  C   UNL     1       1.196   6.418   0.265  1.00  0.00     0.014 A 
ATOM     19  C   UNL     1       1.818   5.864   2.576  1.00  0.00    -0.006 A 
ATOM     20  C   UNL     1       1.853   7.638   0.369  1.00  0.00     0.001 A 
ATOM     21  C   UNL     1       2.480   7.116   2.660  1.00  0.00    -0.018 A 
ATOM     22  C   UNL     1       1.860   5.033   3.727  1.00  0.00     0.009 A 
ATOM     23  C   UNL     1       2.493   7.980   1.556  1.00  0.00     0.009 A 
ATOM     24  C   UNL     1       3.143   7.489   3.841  1.00  0.00     0.009 A 
ATOM     25  C   UNL     1       2.515   5.423   4.898  1.00  0.00     0.001 A 
ATOM     26  C   UNL     1       3.159   6.651   4.954  1.00  0.00     0.001 A 
ENDBRANCH  14  17
ENDBRANCH   5  13
ENDBRANCH   3   5
ENDBRANCH   2   3
ENDBRANCH   1   2
BRANCH   1  27
ATOM     27  C   UNL     1       5.192   4.705   1.463  1.00  0.00     0.275 C 
BRANCH  27  28
ATOM     28  O   UNL     1       5.529   3.328   1.318  1.00  0.00    -0.458 OA
BRANCH  28  29
ATOM     29  C   UNL     1       4.533   2.453   1.513  1.00  0.00     0.338 C 
ATOM     30  O   UNL     1       3.328   2.680   1.650  1.00  0.00    -0.246 OA
BRANCH  29  31
ATOM     31  C   UNL     1       5.089   1.128   1.688  1.00  0.00     0.060 A 
ATOM     32  C   UNL     1       4.234   0.021   1.599  1.00  0.00     0.016 A 
ATOM     33  C   UNL     1       6.397   1.036   2.175  1.00  0.00     0.016 A 
ATOM     34  C   UNL     1       4.662  -1.178   2.122  1.00  0.00     0.010 A 
ATOM     35  C   UNL     1       6.808  -0.146   2.720  1.00  0.00     0.010 A 
ATOM     36  C   UNL     1       5.916  -1.218   2.732  1.00  0.00    -0.014 A 
BRANCH  36  37
ATOM     37  C   UNL     1       6.352  -2.436   3.369  1.00  0.00     0.031 A 
ATOM     38  C   UNL     1       6.922  -3.431   2.433  1.00  0.00     0.074 A 
ATOM     39  C   UNL     1       6.452  -2.492   4.709  1.00  0.00     0.049 A 
ATOM     40  N   UNL     1       6.537  -4.644   2.219  1.00  0.00    -0.248 NA
ATOM     41  C   UNL     1       7.986  -2.970   1.522  1.00  0.00     0.031 C 
ATOM     42  C   UNL     1       6.255  -1.399   5.669  1.00  0.00     0.029 A 
ATOM     43  N   UNL     1       6.898  -3.508   5.487  1.00  0.00    -0.354 N 
ATOM     44  C   UNL     1       7.441  -5.159   1.293  1.00  0.00     0.074 A 
ATOM     45  C   UNL     1       8.169  -4.043   0.757  1.00  0.00     0.031 C 
ATOM     46  C   UNL     1       6.794  -1.752   6.856  1.00  0.00     0.029 A 
ATOM     47  C   UNL     1       7.261  -3.125   6.768  1.00  0.00     0.049 A 
ATOM     48  H   UNL     1       6.960  -4.438   5.169  1.00  0.00     0.167 HD
ATOM     49  C   UNL     1       7.721  -6.487   1.242  1.00  0.00     0.037 A 
ATOM     50  C   UNL     1       7.974  -3.867   7.647  1.00  0.00     0.037 A 
ATOM     51  C   UNL     1       6.696  -7.265   1.887  1.00  0.00     0.049 A 
ATOM     52  C   UNL     1       7.958  -5.272   7.165  1.00  0.00     0.074 A 
ATOM     53  C   UNL     1       5.338  -7.429   1.698  1.00  0.00     0.029 A 
ATOM     54  N   UNL     1       6.964  -7.753   3.142  1.00  0.00    -0.354 N 
ATOM     55  N   UNL     1       6.900  -6.034   7.151  1.00  0.00    -0.248 NA
ATOM     56  C   UNL     1       9.042  -5.705   6.294  1.00  0.00     0.031 C 
ATOM     57  C   UNL     1       4.795  -7.580   3.008  1.00  0.00     0.029 A 
ATOM     58  C   UNL     1       5.854  -7.539   3.916  1.00  0.00     0.049 A 
ATOM     59  H   UNL     1       7.802  -8.179   3.432  1.00  0.00     0.167 HD
ATOM     60  C   UNL     1       7.013  -6.783   5.988  1.00  0.00     0.074 A 
ATOM     61  C   UNL     1       8.400  -6.622   5.566  1.00  0.00     0.031 C 
ATOM     62  C   UNL     1       5.902  -7.222   5.326  1.00  0.00     0.037 A 
BRANCH  49  63
ATOM     63  C   UNL     1       9.098  -7.034   0.958  1.00  0.00     0.057 A 
ATOM     64  C   UNL     1       9.255  -8.415   0.760  1.00  0.00     0.134 A 
ATOM     65  C   UNL     1      10.299  -6.316   1.153  1.00  0.00     0.134 A 
ATOM     66  F   UNL     1       8.189  -9.210   0.587  1.00  0.00    -0.206 F 
ATOM     67  C   UNL     1      10.505  -9.043   0.818  1.00  0.00     0.040 A 
ATOM     68  C   UNL     1      11.556  -6.925   1.154  1.00  0.00     0.040 A 
ATOM     69  F   UNL     1      10.322  -5.013   1.455  1.00  0.00    -0.206 F 
ATOM     70  C   UNL     1      11.661  -8.298   1.020  1.00  0.00     0.006 A 
ENDBRANCH  49  63
BRANCH  50  71
ATOM     71  C   UNL     1       8.903  -3.404   8.700  1.00  0.00     0.057 A 
ATOM     72  C   UNL     1       9.285  -4.252   9.747  1.00  0.00     0.134 A 
ATOM     73  C   UNL     1       9.635  -2.209   8.573  1.00  0.00     0.134 A 
ATOM     74  F   UNL     1       8.673  -5.432   9.924  1.00  0.00    -0.206 F 
ATOM     75  C   UNL     1      10.347  -3.942  10.606  1.00  0.00     0.040 A 
ATOM     76  C   UNL     1      10.689  -1.881   9.431  1.00  0.00     0.040 A 
ATOM     77  F   UNL     1       9.410  -1.360   7.560  1.00  0.00    -0.206 F 
ATOM     78  C   UNL     1      11.058  -2.757  10.444  1.00  0.00     0.006 A 
ENDBRANCH  50  71
BRANCH  62  79
ATOM     79  C   UNL     1       4.584  -7.121   6.042  1.00  0.00     0.057 A 
ATOM     80  C   UNL     1       3.982  -5.907   6.407  1.00  0.00     0.134 A 
ATOM     81  C   UNL     1       3.833  -8.284   6.244  1.00  0.00     0.134 A 
ATOM     82  F   UNL     1       4.577  -4.736   6.154  1.00  0.00    -0.206 F 
ATOM     83  C   UNL     1       2.715  -5.858   6.995  1.00  0.00     0.040 A 
ATOM     84  C   UNL     1       2.552  -8.246   6.798  1.00  0.00     0.040 A 
ATOM     85  F   UNL     1       4.318  -9.476   5.861  1.00  0.00    -0.206 F 
ATOM     86  C   UNL     1       1.994  -7.031   7.188  1.00  0.00     0.006 A 
ENDBRANCH  62  79
ENDBRANCH  36  37
ENDBRANCH  29  31
ENDBRANCH  28  29
ENDBRANCH  27  28
ENDBRANCH   1  27
TORSDOF 14
