REMARK SMILES Cc1cc2nc(SCC(=O)OCCOC(=O)c3ccc(-c4c5nc(c(-c6c(F)cccc6F)c6ccc([nH]6)c(-c6c(F)cccc6F)c6nc(c(-c7c(F)cccc7F)c7ccc4[nH]7)C=C6)C=C5)cc3)n(CC(C)C)c(=O)c2[nH]1
REMARK SMILES IDX 12 1 11 2 9 3 10 4 8 5 7 6 6 7 1 8 2 9 3 10 79 11 4 12 78 13
REMARK SMILES IDX 5 15 76 16 71 17 77 18 72 19 73 20 74 21 75 22 13 23 14 24
REMARK SMILES IDX 15 25 16 26 17 27 18 28 70 29 19 30 69 31 20 32 21 33 22 34
REMARK SMILES IDX 63 35 23 36 68 37 62 38 64 39 24 40 67 41 61 42 60 43 25 45
REMARK SMILES IDX 51 46 34 47 50 48 35 49 38 50 49 51 65 52 36 53 37 54 48 56
REMARK SMILES IDX 66 57 39 58 26 59 27 60 32 61 28 62 29 63 31 64 33 65 30 66
REMARK SMILES IDX 52 67 53 68 58 69 54 70 55 71 57 72 59 73 56 74 40 75 41 76
REMARK SMILES IDX 46 77 42 78 43 79 45 80 47 81 44 82
REMARK H PARENT 79 14 64 44 38 55
REMARK Flexibility Score: inf
ROOT
ATOM      1  C   UNL     1      -2.805   9.418  -3.007  1.00  0.00     0.274 C 
ENDROOT
BRANCH   1   2
ATOM      2  O   UNL     1      -1.475   9.486  -2.487  1.00  0.00    -0.461 OA
BRANCH   2   3
ATOM      3  C   UNL     1      -1.403   9.604  -1.138  1.00  0.00     0.316 C 
ATOM      4  O   UNL     1      -1.994  10.491  -0.537  1.00  0.00    -0.251 OA
BRANCH   3   5
ATOM      5  C   UNL     1      -0.535   8.508  -0.499  1.00  0.00     0.200 C 
BRANCH   5   6
ATOM      6  S   UNL     1      -0.049   7.248  -1.738  1.00  0.00    -0.076 SA
BRANCH   6   7
ATOM      7  C   UNL     1      -0.091   5.695  -0.933  1.00  0.00     0.172 A 
ATOM      8  C   UNL     1       2.181   0.634   0.474  1.00  0.00     0.064 C 
ATOM      9  C   UNL     1       1.556   1.964   0.665  1.00  0.00     0.014 A 
ATOM     10  C   UNL     1       2.014   3.284   0.747  1.00  0.00     0.052 A 
ATOM     11  N   UNL     1       0.186   2.043   0.563  1.00  0.00    -0.353 N 
ATOM     12  C   UNL     1       0.922   4.104   0.341  1.00  0.00     0.097 A 
ATOM     13  C   UNL     1      -0.011   3.218  -0.086  1.00  0.00     0.131 A 
ATOM     14  H   UNL     1      -0.489   1.402   0.883  1.00  0.00     0.166 HD
ATOM     15  N   UNL     1       0.903   5.430  -0.119  1.00  0.00    -0.222 NA
ATOM     16  C   UNL     1      -0.736   3.457  -1.267  1.00  0.00     0.278 A 
ATOM     17  N   UNL     1      -1.036   4.778  -1.440  1.00  0.00    -0.286 N 
ATOM     18  O   UNL     1      -0.927   2.600  -2.112  1.00  0.00    -0.267 OA
BRANCH  17  19
ATOM     19  C   UNL     1      -2.459   4.996  -1.723  1.00  0.00     0.131 C 
BRANCH  19  20
ATOM     20  C   UNL     1      -3.204   4.602  -3.051  1.00  0.00     0.003 C 
ATOM     21  C   UNL     1      -3.622   3.127  -3.150  1.00  0.00     0.009 C 
ATOM     22  C   UNL     1      -4.578   5.299  -3.268  1.00  0.00     0.009 C 
ENDBRANCH  19  20
ENDBRANCH  17  19
ENDBRANCH   6   7
ENDBRANCH   5   6
ENDBRANCH   3   5
ENDBRANCH   2   3
ENDBRANCH   1   2
BRANCH   1  23
ATOM     23  C   UNL     1      -3.532   8.148  -2.548  1.00  0.00     0.275 C 
BRANCH  23  24
ATOM     24  O   UNL     1      -4.425   8.066  -1.365  1.00  0.00    -0.458 OA
BRANCH  24  25
ATOM     25  C   UNL     1      -4.055   7.685  -0.097  1.00  0.00     0.338 C 
ATOM     26  O   UNL     1      -3.458   8.437   0.660  1.00  0.00    -0.246 OA
BRANCH  25  27
ATOM     27  C   UNL     1      -4.359   6.259   0.383  1.00  0.00     0.060 A 
ATOM     28  C   UNL     1      -3.528   5.685   1.374  1.00  0.00     0.016 A 
ATOM     29  C   UNL     1      -5.287   5.401  -0.204  1.00  0.00     0.016 A 
ATOM     30  C   UNL     1      -3.478   4.277   1.603  1.00  0.00     0.010 A 
ATOM     31  C   UNL     1      -5.200   3.991  -0.009  1.00  0.00     0.010 A 
ATOM     32  C   UNL     1      -4.241   3.384   0.833  1.00  0.00    -0.014 A 
BRANCH  32  33
ATOM     33  C   UNL     1      -4.261   1.901   1.124  1.00  0.00     0.031 A 
ATOM     34  C   UNL     1      -5.373   1.602   2.047  1.00  0.00     0.074 A 
ATOM     35  C   UNL     1      -3.625   0.793   0.638  1.00  0.00     0.049 A 
ATOM     36  N   UNL     1      -5.309   1.457   3.327  1.00  0.00    -0.248 NA
ATOM     37  C   UNL     1      -6.733   1.674   1.498  1.00  0.00     0.031 C 
ATOM     38  C   UNL     1      -2.754   0.705  -0.518  1.00  0.00     0.029 A 
ATOM     39  N   UNL     1      -3.663  -0.541   1.038  1.00  0.00    -0.354 N 
ATOM     40  C   UNL     1      -6.620   1.217   3.708  1.00  0.00     0.074 A 
ATOM     41  C   UNL     1      -7.449   1.661   2.620  1.00  0.00     0.031 C 
ATOM     42  C   UNL     1      -2.430  -0.574  -0.810  1.00  0.00     0.029 A 
ATOM     43  C   UNL     1      -3.048  -1.455   0.157  1.00  0.00     0.049 A 
ATOM     44  H   UNL     1      -4.090  -0.826   1.878  1.00  0.00     0.167 HD
ATOM     45  C   UNL     1      -6.921   0.362   4.720  1.00  0.00     0.037 A 
ATOM     46  C   UNL     1      -3.035  -2.825   0.165  1.00  0.00     0.037 A 
ATOM     47  C   UNL     1      -5.766   0.061   5.529  1.00  0.00     0.049 A 
ATOM     48  C   UNL     1      -3.405  -3.264   1.526  1.00  0.00     0.074 A 
ATOM     49  C   UNL     1      -4.824   0.810   6.209  1.00  0.00     0.029 A 
ATOM     50  N   UNL     1      -5.234  -1.202   5.439  1.00  0.00    -0.354 N 
ATOM     51  N   UNL     1      -2.627  -3.152   2.563  1.00  0.00    -0.248 NA
ATOM     52  C   UNL     1      -4.818  -3.442   1.814  1.00  0.00     0.031 C 
ATOM     53  C   UNL     1      -3.599   0.097   6.059  1.00  0.00     0.029 A 
ATOM     54  C   UNL     1      -3.873  -1.074   5.354  1.00  0.00     0.049 A 
ATOM     55  H   UNL     1      -5.740  -2.046   5.436  1.00  0.00     0.167 HD
ATOM     56  C   UNL     1      -3.479  -2.755   3.579  1.00  0.00     0.074 A 
ATOM     57  C   UNL     1      -4.824  -3.042   3.087  1.00  0.00     0.031 C 
ATOM     58  C   UNL     1      -3.030  -1.963   4.594  1.00  0.00     0.037 A 
BRANCH  45  59
ATOM     59  C   UNL     1      -8.156  -0.503   4.717  1.00  0.00     0.057 A 
ATOM     60  C   UNL     1      -8.837  -0.935   3.557  1.00  0.00     0.134 A 
ATOM     61  C   UNL     1      -8.523  -1.156   5.902  1.00  0.00     0.134 A 
ATOM     62  F   UNL     1      -8.531  -0.501   2.329  1.00  0.00    -0.206 F 
ATOM     63  C   UNL     1      -9.811  -1.933   3.575  1.00  0.00     0.040 A 
ATOM     64  C   UNL     1      -9.449  -2.204   5.921  1.00  0.00     0.040 A 
ATOM     65  F   UNL     1      -7.925  -0.853   7.064  1.00  0.00    -0.206 F 
ATOM     66  C   UNL     1     -10.096  -2.596   4.755  1.00  0.00     0.006 A 
ENDBRANCH  45  59
BRANCH  46  67
ATOM     67  C   UNL     1      -2.860  -3.826  -0.940  1.00  0.00     0.057 A 
ATOM     68  C   UNL     1      -3.135  -3.506  -2.281  1.00  0.00     0.134 A 
ATOM     69  C   UNL     1      -2.655  -5.200  -0.693  1.00  0.00     0.134 A 
ATOM     70  F   UNL     1      -3.437  -2.253  -2.644  1.00  0.00    -0.206 F 
ATOM     71  C   UNL     1      -3.202  -4.468  -3.301  1.00  0.00     0.040 A 
ATOM     72  C   UNL     1      -2.735  -6.178  -1.704  1.00  0.00     0.040 A 
ATOM     73  F   UNL     1      -2.430  -5.649   0.551  1.00  0.00    -0.206 F 
ATOM     74  C   UNL     1      -3.016  -5.812  -3.015  1.00  0.00     0.006 A 
ENDBRANCH  46  67
BRANCH  58  75
ATOM     75  C   UNL     1      -1.545  -1.819   4.778  1.00  0.00     0.057 A 
ATOM     76  C   UNL     1      -1.003  -2.145   6.029  1.00  0.00     0.134 A 
ATOM     77  C   UNL     1      -0.672  -1.253   3.836  1.00  0.00     0.134 A 
ATOM     78  F   UNL     1      -1.790  -2.646   6.995  1.00  0.00    -0.206 F 
ATOM     79  C   UNL     1       0.340  -1.923   6.335  1.00  0.00     0.040 A 
ATOM     80  C   UNL     1       0.683  -1.058   4.122  1.00  0.00     0.040 A 
ATOM     81  F   UNL     1      -1.111  -0.823   2.643  1.00  0.00    -0.206 F 
ATOM     82  C   UNL     1       1.192  -1.386   5.375  1.00  0.00     0.006 A 
ENDBRANCH  58  75
ENDBRANCH  32  33
ENDBRANCH  25  27
ENDBRANCH  24  25
ENDBRANCH  23  24
ENDBRANCH   1  23
TORSDOF 15
