REMARK SMILES O=C(Cc1sc(N2N=C(c3cccs3)C[C@@H]2c2ccco2)nc1-c1ccccc1)OCCOC(=O)c1ccc(-c2c3nc(c(-c4c(F)cccc4F)c4ccc([nH]4)c(-c4c(F)cccc4F)c4nc(c(-c5c(F)cccc5F)c5ccc2[nH]5)C=C4)C=C3)cc1
REMARK SMILES IDX 31 1 30 2 2 3 1 4 3 5 4 6 5 7 23 8 6 9 22 10 24 11 25 12
REMARK SMILES IDX 29 13 26 14 28 15 27 16 7 17 8 18 16 19 9 20 15 21 17 22
REMARK SMILES IDX 18 23 21 24 19 25 20 26 10 27 11 28 14 29 12 30 13 31 32 32
REMARK SMILES IDX 33 33 34 34 35 35 36 36 37 37 89 38 38 39 88 40 39 41 40 42
REMARK SMILES IDX 41 43 82 44 42 45 87 46 81 47 83 48 43 49 86 50 80 51 79 52
REMARK SMILES IDX 44 54 70 55 53 56 69 57 54 58 57 59 68 60 84 61 55 62 56 63
REMARK SMILES IDX 67 65 85 66 58 67 45 68 46 69 51 70 47 71 48 72 50 73 52 74
REMARK SMILES IDX 49 75 71 76 72 77 77 78 73 79 74 80 76 81 78 82 75 83 59 84
REMARK SMILES IDX 60 85 65 86 61 87 62 88 64 89 66 90 63 91
REMARK H PARENT 83 53 57 64
REMARK Flexibility Score: inf
ROOT
ATOM      1  C   UNL     1       4.411   0.105  -1.015  1.00  0.00     0.274 C 
ENDROOT
BRANCH   1   2
ATOM      2  O   UNL     1       3.063  -0.397  -0.879  1.00  0.00    -0.462 OA
BRANCH   2   3
ATOM      3  C   UNL     1       2.333  -0.386   0.261  1.00  0.00     0.311 C 
ATOM      4  O   UNL     1       1.166  -0.778   0.249  1.00  0.00    -0.252 OA
BRANCH   3   5
ATOM      5  C   UNL     1       2.949   0.150   1.530  1.00  0.00     0.171 C 
BRANCH   5   6
ATOM      6  C   UNL     1       3.947  -0.743   2.179  1.00  0.00     0.046 A 
ATOM      7  S   UNL     1       3.896  -2.438   1.979  1.00  0.00    -0.099 S 
ATOM      8  C   UNL     1       5.033  -0.415   2.975  1.00  0.00     0.087 A 
ATOM      9  C   UNL     1       5.171  -2.614   3.129  1.00  0.00     0.207 A 
ATOM     10  N   UNL     1       5.687  -1.483   3.559  1.00  0.00    -0.218 NA
BRANCH   8  11
ATOM     11  C   UNL     1       5.526   0.941   3.154  1.00  0.00     0.001 A 
ATOM     12  C   UNL     1       4.775   1.916   3.817  1.00  0.00     0.010 A 
ATOM     13  C   UNL     1       6.778   1.280   2.623  1.00  0.00     0.010 A 
ATOM     14  C   UNL     1       5.270   3.217   3.937  1.00  0.00     0.001 A 
ATOM     15  C   UNL     1       7.262   2.585   2.728  1.00  0.00     0.001 A 
ATOM     16  C   UNL     1       6.505   3.555   3.382  1.00  0.00     0.000 A 
ENDBRANCH   8  11
BRANCH   9  17
ATOM     17  N   UNL     1       5.538  -3.854   3.530  1.00  0.00    -0.228 N 
ATOM     18  N   UNL     1       5.882  -4.855   2.669  1.00  0.00    -0.173 NA
ATOM     19  C   UNL     1       5.346  -4.299   4.911  1.00  0.00     0.183 C 
ATOM     20  C   UNL     1       5.858  -5.957   3.345  1.00  0.00     0.081 C 
ATOM     21  C   UNL     1       5.455  -5.826   4.779  1.00  0.00     0.095 C 
BRANCH  19  22
ATOM     22  C   UNL     1       4.073  -3.956   5.647  1.00  0.00     0.128 A 
ATOM     23  C   UNL     1       3.666  -4.144   6.955  1.00  0.00     0.048 A 
ATOM     24  O   UNL     1       3.061  -3.366   4.946  1.00  0.00    -0.467 OA
ATOM     25  C   UNL     1       2.350  -3.624   7.051  1.00  0.00     0.042 A 
ATOM     26  C   UNL     1       2.035  -3.147   5.803  1.00  0.00     0.195 A 
ENDBRANCH  19  22
BRANCH  20  27
ATOM     27  C   UNL     1       6.144  -7.229   2.744  1.00  0.00     0.050 A 
ATOM     28  C   UNL     1       5.397  -8.387   2.789  1.00  0.00     0.022 A 
ATOM     29  S   UNL     1       7.561  -7.420   1.806  1.00  0.00    -0.142 S 
ATOM     30  C   UNL     1       5.989  -9.436   2.026  1.00  0.00     0.012 A 
ATOM     31  C   UNL     1       7.181  -9.049   1.454  1.00  0.00     0.065 A 
ENDBRANCH  20  27
ENDBRANCH   9  17
ENDBRANCH   5   6
ENDBRANCH   3   5
ENDBRANCH   2   3
ENDBRANCH   1   2
BRANCH   1  32
ATOM     32  C   UNL     1       4.415   1.524  -1.586  1.00  0.00     0.275 C 
BRANCH  32  33
ATOM     33  O   UNL     1       3.887   2.446  -0.614  1.00  0.00    -0.458 OA
BRANCH  33  34
ATOM     34  C   UNL     1       2.584   2.790  -0.766  1.00  0.00     0.338 C 
ATOM     35  O   UNL     1       1.864   2.532  -1.715  1.00  0.00    -0.246 OA
BRANCH  34  36
ATOM     36  C   UNL     1       2.088   3.356   0.511  1.00  0.00     0.060 A 
ATOM     37  C   UNL     1       0.807   2.987   0.942  1.00  0.00     0.016 A 
ATOM     38  C   UNL     1       2.883   4.182   1.312  1.00  0.00     0.016 A 
ATOM     39  C   UNL     1       0.310   3.466   2.157  1.00  0.00     0.010 A 
ATOM     40  C   UNL     1       2.382   4.661   2.527  1.00  0.00     0.010 A 
ATOM     41  C   UNL     1       1.085   4.325   2.949  1.00  0.00    -0.014 A 
BRANCH  41  42
ATOM     42  C   UNL     1       0.483   4.980   4.138  1.00  0.00     0.031 A 
ATOM     43  C   UNL     1       0.031   6.412   4.028  1.00  0.00     0.074 A 
ATOM     44  C   UNL     1       0.308   4.315   5.295  1.00  0.00     0.049 A 
ATOM     45  N   UNL     1      -0.593   7.155   4.906  1.00  0.00    -0.248 NA
ATOM     46  C   UNL     1       0.332   7.099   2.762  1.00  0.00     0.031 C 
ATOM     47  C   UNL     1       0.722   2.937   5.555  1.00  0.00     0.029 A 
ATOM     48  N   UNL     1      -0.270   4.720   6.473  1.00  0.00    -0.354 N 
ATOM     49  C   UNL     1      -0.781   8.385   4.289  1.00  0.00     0.074 A 
ATOM     50  C   UNL     1      -0.143   8.312   2.993  1.00  0.00     0.031 C 
ATOM     51  C   UNL     1       0.383   2.611   6.816  1.00  0.00     0.029 A 
ATOM     52  C   UNL     1      -0.274   3.753   7.449  1.00  0.00     0.049 A 
ATOM     53  H   UNL     1      -0.645   5.620   6.606  1.00  0.00     0.167 HD
ATOM     54  C   UNL     1      -1.453   9.470   4.741  1.00  0.00     0.037 A 
ATOM     55  C   UNL     1      -0.765   3.784   8.704  1.00  0.00     0.037 A 
ATOM     56  C   UNL     1      -2.084   9.562   6.029  1.00  0.00     0.049 A 
ATOM     57  C   UNL     1      -1.485   5.013   9.197  1.00  0.00     0.074 A 
ATOM     58  C   UNL     1      -2.798  10.618   6.568  1.00  0.00     0.029 A 
ATOM     59  N   UNL     1      -2.071   8.559   6.984  1.00  0.00    -0.354 N 
ATOM     60  N   UNL     1      -1.722   6.142   8.575  1.00  0.00    -0.248 NA
ATOM     61  C   UNL     1      -2.025   4.961  10.565  1.00  0.00     0.031 C 
ATOM     62  C   UNL     1      -3.192  10.265   7.864  1.00  0.00     0.029 A 
ATOM     63  C   UNL     1      -2.754   8.975   8.115  1.00  0.00     0.049 A 
ATOM     64  H   UNL     1      -1.640   7.680   6.876  1.00  0.00     0.167 HD
ATOM     65  C   UNL     1      -2.461   6.919   9.461  1.00  0.00     0.074 A 
ATOM     66  C   UNL     1      -2.648   6.127  10.658  1.00  0.00     0.031 C 
ATOM     67  C   UNL     1      -2.942   8.176   9.297  1.00  0.00     0.037 A 
BRANCH  54  68
ATOM     68  C   UNL     1      -1.548  10.643   3.813  1.00  0.00     0.057 A 
ATOM     69  C   UNL     1      -2.370  10.609   2.678  1.00  0.00     0.134 A 
ATOM     70  C   UNL     1      -0.825  11.816   4.055  1.00  0.00     0.134 A 
ATOM     71  F   UNL     1      -3.074   9.505   2.382  1.00  0.00    -0.206 F 
ATOM     72  C   UNL     1      -2.451  11.692   1.803  1.00  0.00     0.040 A 
ATOM     73  C   UNL     1      -0.916  12.915   3.200  1.00  0.00     0.040 A 
ATOM     74  F   UNL     1      -0.021  11.913   5.125  1.00  0.00    -0.206 F 
ATOM     75  C   UNL     1      -1.725  12.852   2.067  1.00  0.00     0.006 A 
ENDBRANCH  54  68
BRANCH  55  76
ATOM     76  C   UNL     1      -0.623   2.603   9.593  1.00  0.00     0.057 A 
ATOM     77  C   UNL     1      -1.729   1.821   9.945  1.00  0.00     0.134 A 
ATOM     78  C   UNL     1       0.613   2.266  10.157  1.00  0.00     0.134 A 
ATOM     79  F   UNL     1      -2.944   2.113   9.457  1.00  0.00    -0.206 F 
ATOM     80  C   UNL     1      -1.618   0.762  10.847  1.00  0.00     0.040 A 
ATOM     81  C   UNL     1       0.742   1.196  11.044  1.00  0.00     0.040 A 
ATOM     82  F   UNL     1       1.709   2.978   9.861  1.00  0.00    -0.206 F 
ATOM     83  C   UNL     1      -0.378   0.446  11.399  1.00  0.00     0.006 A 
ENDBRANCH  55  76
BRANCH  67  84
ATOM     84  C   UNL     1      -3.742   8.761  10.425  1.00  0.00     0.057 A 
ATOM     85  C   UNL     1      -3.141   9.175  11.620  1.00  0.00     0.134 A 
ATOM     86  C   UNL     1      -5.125   8.943  10.299  1.00  0.00     0.134 A 
ATOM     87  F   UNL     1      -1.822   9.018  11.808  1.00  0.00    -0.206 F 
ATOM     88  C   UNL     1      -3.892   9.725  12.661  1.00  0.00     0.040 A 
ATOM     89  C   UNL     1      -5.882   9.515  11.323  1.00  0.00     0.040 A 
ATOM     90  F   UNL     1      -5.762   8.578   9.176  1.00  0.00    -0.206 F 
ATOM     91  C   UNL     1      -5.266   9.902  12.511  1.00  0.00     0.006 A 
ENDBRANCH  67  84
ENDBRANCH  41  42
ENDBRANCH  34  36
ENDBRANCH  33  34
ENDBRANCH  32  33
ENDBRANCH   1  32
TORSDOF 16
