REMARK SMILES Cc1cc(C)c(S(=O)(=O)n2cc([C@@H](C)[C@@H]([NH3+])C(=O)OCCOC(=O)c3ccc(-c4c5nc(c(-c6c(F)cccc6F)c6ccc([nH]6)c(-c6c(F)cccc6F)c6nc(c(-c7c(F)cccc7F)c7ccc4[nH]7)C=C6)C=C5)cc3)c3ccccc32)c(C)c1
REMARK SMILES IDX 20 1 19 2 17 3 18 4 15 5 13 6 14 7 12 8 10 9 11 10 84 11
REMARK SMILES IDX 79 12 83 13 80 14 82 15 81 16 7 17 8 18 9 19 6 20 1 21 2 22
REMARK SMILES IDX 3 23 87 24 4 25 85 26 5 27 86 28 16 29 21 33 22 34 23 35
REMARK SMILES IDX 24 36 25 37 26 38 78 39 27 40 77 41 28 42 29 43 30 44 71 45
REMARK SMILES IDX 31 46 76 47 70 48 72 49 32 50 75 51 69 52 68 53 33 55 59 56
REMARK SMILES IDX 42 57 58 58 43 59 46 60 57 61 73 62 44 63 45 64 56 66 74 67
REMARK SMILES IDX 47 68 34 69 35 70 40 71 36 72 37 73 39 74 41 75 38 76 60 77
REMARK SMILES IDX 61 78 66 79 62 80 63 81 65 82 67 83 64 84 48 85 49 86 54 87
REMARK SMILES IDX 50 88 51 89 53 90 55 91 52 92
REMARK H PARENT 16 30 16 31 16 32 72 54 46 65
REMARK Flexibility Score: inf
ROOT
ATOM      1  C   UNL     1      -2.416 -10.546  -3.671  1.00  0.00     0.274 C 
ENDROOT
BRANCH   1   2
ATOM      2  O   UNL     1      -2.200  -9.268  -3.021  1.00  0.00    -0.458 OA
BRANCH   2   3
ATOM      3  C   UNL     1      -2.763  -9.128  -1.799  1.00  0.00     0.365 C 
ATOM      4  O   UNL     1      -3.399 -10.022  -1.242  1.00  0.00    -0.245 OA
BRANCH   3   5
ATOM      5  C   UNL     1      -2.606  -7.740  -1.136  1.00  0.00     0.299 C 
BRANCH   5   6
ATOM      6  C   UNL     1      -1.712  -6.632  -1.758  1.00  0.00     0.088 C 
ATOM      7  C   UNL     1      -0.329  -7.009  -2.286  1.00  0.00     0.020 C 
BRANCH   6   8
ATOM      8  C   UNL     1      -1.595  -5.462  -0.771  1.00  0.00    -0.012 A 
ATOM      9  N   UNL     1      -2.017  -3.472   0.128  1.00  0.00    -0.241 N 
ATOM     10  C   UNL     1      -2.286  -4.280  -0.938  1.00  0.00     0.109 A 
ATOM     11  C   UNL     1      -1.284  -4.131   1.088  1.00  0.00     0.064 A 
ATOM     12  C   UNL     1      -0.865  -5.325   0.475  1.00  0.00     0.004 A 
ATOM     13  C   UNL     1      -0.867  -3.753   2.381  1.00  0.00     0.028 A 
ATOM     14  C   UNL     1       0.121  -6.075   1.153  1.00  0.00     0.010 A 
ATOM     15  C   UNL     1       0.064  -4.557   3.039  1.00  0.00     0.002 A 
ATOM     16  C   UNL     1       0.578  -5.686   2.421  1.00  0.00     0.001 A 
BRANCH   9  17
ATOM     17  S   UNL     1      -2.436  -1.839   0.154  1.00  0.00     0.268 S 
ATOM     18  O   UNL     1      -2.972  -1.624   1.488  1.00  0.00    -0.201 OA
ATOM     19  O   UNL     1      -3.257  -1.646  -1.030  1.00  0.00    -0.201 OA
BRANCH  17  20
ATOM     20  C   UNL     1      -1.005  -0.770  -0.031  1.00  0.00     0.094 A 
ATOM     21  C   UNL     1       2.216   2.132   0.040  1.00  0.00     0.044 C 
ATOM     22  C   UNL     1       1.102   1.133  -0.007  1.00  0.00    -0.051 A 
ATOM     23  C   UNL     1      -0.222   1.547   0.079  1.00  0.00     0.008 A 
ATOM     24  C   UNL     1       1.363  -0.224  -0.168  1.00  0.00     0.008 A 
ATOM     25  C   UNL     1      -1.283   0.623   0.071  1.00  0.00    -0.030 A 
ATOM     26  C   UNL     1       0.333  -1.189  -0.232  1.00  0.00    -0.030 A 
ATOM     27  C   UNL     1      -2.664   1.236   0.137  1.00  0.00     0.046 C 
ATOM     28  C   UNL     1       0.839  -2.573  -0.519  1.00  0.00     0.046 C 
ENDBRANCH  17  20
ENDBRANCH   9  17
ENDBRANCH   6   8
ENDBRANCH   5   6
BRANCH   5  29
ATOM     29  N   UNL     1      -3.988  -7.201  -0.912  1.00  0.00    -0.345 N 
ATOM     30  H   UNL     1      -4.435  -7.027  -1.813  1.00  0.00     0.345 HD
ATOM     31  H   UNL     1      -3.932  -6.329  -0.386  1.00  0.00     0.345 HD
ATOM     32  H   UNL     1      -4.537  -7.881  -0.386  1.00  0.00     0.345 HD
ENDBRANCH   5  29
ENDBRANCH   3   5
ENDBRANCH   2   3
ENDBRANCH   1   2
BRANCH   1  33
ATOM     33  C   UNL     1      -1.098 -11.309  -3.846  1.00  0.00     0.275 C 
BRANCH  33  34
ATOM     34  O   UNL     1      -0.676 -11.819  -2.572  1.00  0.00    -0.458 OA
BRANCH  34  35
ATOM     35  C   UNL     1       0.356 -11.162  -1.980  1.00  0.00     0.338 C 
ATOM     36  O   UNL     1       1.198 -10.478  -2.511  1.00  0.00    -0.246 OA
BRANCH  35  37
ATOM     37  C   UNL     1      -0.014 -11.081  -0.550  1.00  0.00     0.060 A 
ATOM     38  C   UNL     1      -0.677 -12.111   0.123  1.00  0.00     0.016 A 
ATOM     39  C   UNL     1       0.050  -9.806  -0.003  1.00  0.00     0.016 A 
ATOM     40  C   UNL     1      -1.429 -11.812   1.259  1.00  0.00     0.010 A 
ATOM     41  C   UNL     1      -0.741  -9.510   1.091  1.00  0.00     0.010 A 
ATOM     42  C   UNL     1      -1.536 -10.487   1.682  1.00  0.00    -0.014 A 
BRANCH  42  43
ATOM     43  C   UNL     1      -2.295 -10.116   2.872  1.00  0.00     0.031 A 
ATOM     44  C   UNL     1      -1.458 -10.096   4.092  1.00  0.00     0.074 A 
ATOM     45  C   UNL     1      -3.553  -9.633   2.936  1.00  0.00     0.049 A 
ATOM     46  N   UNL     1      -1.385 -11.023   4.986  1.00  0.00    -0.248 NA
ATOM     47  C   UNL     1      -0.469  -9.022   4.256  1.00  0.00     0.031 C 
ATOM     48  C   UNL     1      -4.460  -9.259   1.861  1.00  0.00     0.029 A 
ATOM     49  N   UNL     1      -4.270  -9.312   4.053  1.00  0.00    -0.354 N 
ATOM     50  C   UNL     1      -0.484 -10.554   5.931  1.00  0.00     0.074 A 
ATOM     51  C   UNL     1       0.214  -9.460   5.313  1.00  0.00     0.031 C 
ATOM     52  C   UNL     1      -5.516  -8.570   2.362  1.00  0.00     0.029 A 
ATOM     53  C   UNL     1      -5.450  -8.616   3.814  1.00  0.00     0.049 A 
ATOM     54  H   UNL     1      -3.975  -9.555   4.960  1.00  0.00     0.167 HD
ATOM     55  C   UNL     1      -0.575 -10.928   7.235  1.00  0.00     0.037 A 
ATOM     56  C   UNL     1      -6.312  -8.134   4.745  1.00  0.00     0.037 A 
ATOM     57  C   UNL     1      -1.472 -12.050   7.392  1.00  0.00     0.049 A 
ATOM     58  C   UNL     1      -6.064  -8.878   6.003  1.00  0.00     0.074 A 
ATOM     59  C   UNL     1      -1.535 -13.331   6.875  1.00  0.00     0.029 A 
ATOM     60  N   UNL     1      -2.724 -11.795   7.897  1.00  0.00    -0.354 N 
ATOM     61  N   UNL     1      -6.367 -10.134   6.177  1.00  0.00    -0.248 NA
ATOM     62  C   UNL     1      -5.088  -8.337   6.936  1.00  0.00     0.031 C 
ATOM     63  C   UNL     1      -2.925 -13.579   6.666  1.00  0.00     0.029 A 
ATOM     64  C   UNL     1      -3.628 -12.460   7.112  1.00  0.00     0.049 A 
ATOM     65  H   UNL     1      -2.932 -11.236   8.681  1.00  0.00     0.167 HD
ATOM     66  C   UNL     1      -5.317 -10.647   6.921  1.00  0.00     0.074 A 
ATOM     67  C   UNL     1      -4.619  -9.477   7.450  1.00  0.00     0.031 C 
ATOM     68  C   UNL     1      -4.946 -11.956   6.802  1.00  0.00     0.037 A 
BRANCH  55  69
ATOM     69  C   UNL     1      -0.176 -10.057   8.401  1.00  0.00     0.057 A 
ATOM     70  C   UNL     1      -0.059  -8.652   8.362  1.00  0.00     0.134 A 
ATOM     71  C   UNL     1      -0.189 -10.617   9.690  1.00  0.00     0.134 A 
ATOM     72  F   UNL     1      -0.102  -7.949   7.225  1.00  0.00    -0.206 F 
ATOM     73  C   UNL     1       0.005  -7.865   9.514  1.00  0.00     0.040 A 
ATOM     74  C   UNL     1      -0.184  -9.834  10.849  1.00  0.00     0.040 A 
ATOM     75  F   UNL     1      -0.295 -11.944   9.863  1.00  0.00    -0.206 F 
ATOM     76  C   UNL     1      -0.097  -8.452  10.763  1.00  0.00     0.006 A 
ENDBRANCH  55  69
BRANCH  56  77
ATOM     77  C   UNL     1      -7.209  -6.956   4.715  1.00  0.00     0.057 A 
ATOM     78  C   UNL     1      -6.854  -5.798   4.005  1.00  0.00     0.134 A 
ATOM     79  C   UNL     1      -8.278  -6.824   5.616  1.00  0.00     0.134 A 
ATOM     80  F   UNL     1      -5.807  -5.799   3.168  1.00  0.00    -0.206 F 
ATOM     81  C   UNL     1      -7.501  -4.571   4.203  1.00  0.00     0.040 A 
ATOM     82  C   UNL     1      -8.934  -5.602   5.825  1.00  0.00     0.040 A 
ATOM     83  F   UNL     1      -8.669  -7.863   6.368  1.00  0.00    -0.206 F 
ATOM     84  C   UNL     1      -8.535  -4.466   5.128  1.00  0.00     0.006 A 
ENDBRANCH  56  77
BRANCH  68  85
ATOM     85  C   UNL     1      -5.879 -12.883   6.072  1.00  0.00     0.057 A 
ATOM     86  C   UNL     1      -6.344 -14.025   6.734  1.00  0.00     0.134 A 
ATOM     87  C   UNL     1      -6.224 -12.753   4.718  1.00  0.00     0.134 A 
ATOM     88  F   UNL     1      -6.011 -14.247   8.016  1.00  0.00    -0.206 F 
ATOM     89  C   UNL     1      -7.123 -14.988   6.088  1.00  0.00     0.040 A 
ATOM     90  C   UNL     1      -7.033 -13.691   4.069  1.00  0.00     0.040 A 
ATOM     91  F   UNL     1      -5.747 -11.748   3.973  1.00  0.00    -0.206 F 
ATOM     92  C   UNL     1      -7.481 -14.817   4.753  1.00  0.00     0.006 A 
ENDBRANCH  68  85
ENDBRANCH  42  43
ENDBRANCH  35  37
ENDBRANCH  34  35
ENDBRANCH  33  34
ENDBRANCH   1  33
TORSDOF 16
