REMARK SMILES COC[C@@H](C)CC(=O)N1CCSC[C@@H]1CC(=O)OCCOC(=O)c1ccc(-c2c3nc(c(-c4c(F)cccc4F)c4ccc([nH]4)c(-c4c(F)cccc4F)c4nc(c(-c5c(F)cccc5F)c5ccc2[nH]5)C=C4)C=C3)cc1
REMARK SMILES IDX 16 1 17 2 15 3 14 4 9 5 10 6 11 7 13 8 12 9 7 10 8 11 6 12
REMARK SMILES IDX 4 13 5 14 3 15 2 16 1 17 18 18 19 19 20 20 21 21 22 22 23 23
REMARK SMILES IDX 24 24 25 25 77 26 26 27 76 28 27 29 28 30 29 31 70 32 30 33
REMARK SMILES IDX 75 34 69 35 71 36 31 37 74 38 68 39 67 40 32 42 58 43 41 44
REMARK SMILES IDX 57 45 42 46 45 47 56 48 72 49 43 50 44 51 55 53 73 54 46 55
REMARK SMILES IDX 33 56 34 57 39 58 35 59 36 60 38 61 40 62 37 63 59 64 60 65
REMARK SMILES IDX 65 66 61 67 62 68 64 69 66 70 63 71 47 72 48 73 53 74 49 75
REMARK SMILES IDX 50 76 52 77 54 78 51 79
REMARK H PARENT 71 41 45 52
REMARK Flexibility Score: inf
ROOT
ATOM      1  C   UNL     1       3.732  -6.080  -0.224  1.00  0.00     0.308 C 
ATOM      2  O   UNL     1       4.742  -6.028   0.474  1.00  0.00    -0.252 OA
ENDROOT
BRANCH   1   3
ATOM      3  C   UNL     1       2.436  -6.594   0.349  1.00  0.00     0.148 C 
BRANCH   3   4
ATOM      4  C   UNL     1       1.140  -6.467  -0.470  1.00  0.00     0.106 C 
ATOM      5  N   UNL     1       0.608  -5.083  -0.583  1.00  0.00    -0.337 N 
ATOM      6  C   UNL     1       0.124  -4.454   0.651  1.00  0.00     0.130 C 
ATOM      7  C   UNL     1      -0.966  -5.247   1.386  1.00  0.00     0.091 C 
ATOM      8  C   UNL     1       0.067  -7.428   0.099  1.00  0.00     0.095 C 
ATOM      9  S   UNL     1      -0.467  -6.951   1.780  1.00  0.00    -0.158 SA
BRANCH   5  10
ATOM     10  C   UNL     1      -0.025  -4.763  -1.783  1.00  0.00     0.223 C 
ATOM     11  O   UNL     1      -0.678  -5.612  -2.397  1.00  0.00    -0.275 OA
BRANCH  10  12
ATOM     12  C   UNL     1       0.295  -3.423  -2.444  1.00  0.00     0.106 C 
BRANCH  12  13
ATOM     13  C   UNL     1      -0.339  -2.131  -1.907  1.00  0.00     0.021 C 
ATOM     14  C   UNL     1      -0.604  -1.181  -3.093  1.00  0.00     0.010 C 
BRANCH  13  15
ATOM     15  C   UNL     1       0.543  -1.359  -0.910  1.00  0.00     0.163 C 
BRANCH  15  16
ATOM     16  O   UNL     1      -0.264  -0.384  -0.237  1.00  0.00    -0.384 OA
ATOM     17  C   UNL     1       0.402   0.865  -0.105  1.00  0.00     0.194 C 
ENDBRANCH  15  16
ENDBRANCH  13  15
ENDBRANCH  12  13
ENDBRANCH  10  12
ENDBRANCH   5  10
ENDBRANCH   3   4
ENDBRANCH   1   3
BRANCH   1  18
ATOM     18  O   UNL     1       3.698  -5.747  -1.535  1.00  0.00    -0.462 OA
BRANCH  18  19
ATOM     19  C   UNL     1       4.976  -5.381  -2.101  1.00  0.00     0.274 C 
BRANCH  19  20
ATOM     20  C   UNL     1       5.254  -3.874  -2.066  1.00  0.00     0.275 C 
BRANCH  20  21
ATOM     21  O   UNL     1       5.203  -3.333  -0.730  1.00  0.00    -0.458 OA
BRANCH  21  22
ATOM     22  C   UNL     1       4.001  -2.800  -0.431  1.00  0.00     0.338 C 
ATOM     23  O   UNL     1       3.042  -2.731  -1.175  1.00  0.00    -0.246 OA
BRANCH  22  24
ATOM     24  C   UNL     1       3.899  -2.279   0.933  1.00  0.00     0.060 A 
ATOM     25  C   UNL     1       3.490  -3.134   1.956  1.00  0.00     0.016 A 
ATOM     26  C   UNL     1       3.927  -0.896   1.130  1.00  0.00     0.016 A 
ATOM     27  C   UNL     1       3.077  -2.605   3.175  1.00  0.00     0.010 A 
ATOM     28  C   UNL     1       3.560  -0.368   2.370  1.00  0.00     0.010 A 
ATOM     29  C   UNL     1       3.121  -1.220   3.395  1.00  0.00    -0.014 A 
BRANCH  29  30
ATOM     30  C   UNL     1       2.840  -0.696   4.749  1.00  0.00     0.031 A 
ATOM     31  C   UNL     1       1.564   0.014   5.083  1.00  0.00     0.074 A 
ATOM     32  C   UNL     1       3.779  -0.894   5.692  1.00  0.00     0.049 A 
ATOM     33  N   UNL     1       1.193   0.530   6.228  1.00  0.00    -0.248 NA
ATOM     34  C   UNL     1       0.580   0.169   4.003  1.00  0.00     0.031 C 
ATOM     35  C   UNL     1       5.056  -1.576   5.470  1.00  0.00     0.029 A 
ATOM     36  N   UNL     1       3.804  -0.556   7.018  1.00  0.00    -0.354 N 
ATOM     37  C   UNL     1      -0.061   1.083   6.009  1.00  0.00     0.074 A 
ATOM     38  C   UNL     1      -0.385   0.846   4.616  1.00  0.00     0.031 C 
ATOM     39  C   UNL     1       5.731  -1.625   6.626  1.00  0.00     0.029 A 
ATOM     40  C   UNL     1       4.952  -0.947   7.656  1.00  0.00     0.049 A 
ATOM     41  H   UNL     1       3.070  -0.078   7.469  1.00  0.00     0.167 HD
ATOM     42  C   UNL     1      -0.861   1.726   6.894  1.00  0.00     0.037 A 
ATOM     43  C   UNL     1       5.346  -0.771   8.928  1.00  0.00     0.037 A 
ATOM     44  C   UNL     1      -0.539   1.941   8.283  1.00  0.00     0.049 A 
ATOM     45  C   UNL     1       4.445  -0.054   9.881  1.00  0.00     0.074 A 
ATOM     46  C   UNL     1      -1.306   2.548   9.264  1.00  0.00     0.029 A 
ATOM     47  N   UNL     1       0.649   1.558   8.888  1.00  0.00    -0.354 N 
ATOM     48  N   UNL     1       3.260   0.460   9.659  1.00  0.00    -0.248 NA
ATOM     49  C   UNL     1       4.935   0.114  11.254  1.00  0.00     0.031 C 
ATOM     50  C   UNL     1      -0.570   2.556  10.456  1.00  0.00     0.029 A 
ATOM     51  C   UNL     1       0.644   1.932  10.223  1.00  0.00     0.049 A 
ATOM     52  H   UNL     1       1.387   1.089   8.436  1.00  0.00     0.167 HD
ATOM     53  C   UNL     1       2.862   1.021  10.862  1.00  0.00     0.074 A 
ATOM     54  C   UNL     1       3.924   0.764  11.816  1.00  0.00     0.031 C 
ATOM     55  C   UNL     1       1.722   1.694  11.148  1.00  0.00     0.037 A 
BRANCH  42  56
ATOM     56  C   UNL     1      -2.165   2.261   6.387  1.00  0.00     0.057 A 
ATOM     57  C   UNL     1      -3.279   1.434   6.201  1.00  0.00     0.134 A 
ATOM     58  C   UNL     1      -2.327   3.632   6.146  1.00  0.00     0.134 A 
ATOM     59  F   UNL     1      -3.186   0.112   6.410  1.00  0.00    -0.206 F 
ATOM     60  C   UNL     1      -4.508   1.951   5.787  1.00  0.00     0.040 A 
ATOM     61  C   UNL     1      -3.554   4.162   5.744  1.00  0.00     0.040 A 
ATOM     62  F   UNL     1      -1.299   4.477   6.311  1.00  0.00    -0.206 F 
ATOM     63  C   UNL     1      -4.650   3.320   5.562  1.00  0.00     0.006 A 
ENDBRANCH  42  56
BRANCH  43  64
ATOM     64  C   UNL     1       6.667  -1.289   9.344  1.00  0.00     0.057 A 
ATOM     65  C   UNL     1       6.778  -2.478  10.069  1.00  0.00     0.134 A 
ATOM     66  C   UNL     1       7.848  -0.651   8.947  1.00  0.00     0.134 A 
ATOM     67  F   UNL     1       5.677  -3.125  10.478  1.00  0.00    -0.206 F 
ATOM     68  C   UNL     1       8.023  -3.024  10.380  1.00  0.00     0.040 A 
ATOM     69  C   UNL     1       9.099  -1.194   9.238  1.00  0.00     0.040 A 
ATOM     70  F   UNL     1       7.798   0.485   8.238  1.00  0.00    -0.206 F 
ATOM     71  C   UNL     1       9.188  -2.386   9.955  1.00  0.00     0.006 A 
ENDBRANCH  43  64
BRANCH  55  72
ATOM     72  C   UNL     1       1.589   2.210  12.545  1.00  0.00     0.057 A 
ATOM     73  C   UNL     1       2.251   3.374  12.954  1.00  0.00     0.134 A 
ATOM     74  C   UNL     1       0.805   1.539  13.490  1.00  0.00     0.134 A 
ATOM     75  F   UNL     1       3.030   4.049  12.095  1.00  0.00    -0.206 F 
ATOM     76  C   UNL     1       2.154   3.843  14.264  1.00  0.00     0.040 A 
ATOM     77  C   UNL     1       0.689   2.006  14.799  1.00  0.00     0.040 A 
ATOM     78  F   UNL     1       0.149   0.417  13.157  1.00  0.00    -0.206 F 
ATOM     79  C   UNL     1       1.369   3.158  15.191  1.00  0.00     0.006 A 
ENDBRANCH  55  72
ENDBRANCH  29  30
ENDBRANCH  22  24
ENDBRANCH  21  22
ENDBRANCH  20  21
ENDBRANCH  19  20
ENDBRANCH  18  19
ENDBRANCH   1  18
TORSDOF 17
