REMARK SMILES COc1cc(/C=C2/SC(=S)N(c3ccc(C)cc3C)C2=O)ccc1O[C@@H](C)C(=O)OCCOC(=O)c1ccc(-c2c3nc(c(-c4c(F)cccc4F)c4ccc([nH]4)c(-c4c(F)cccc4F)c4nc(c(-c5c(F)cccc5F)c5ccc2[nH]5)C=C4)C=C3)cc1
REMARK SMILES IDX 31 1 30 2 28 3 29 4 26 5 27 6 25 7 24 8 3 9 4 10 5 11 23 12
REMARK SMILES IDX 22 13 2 14 1 15 6 16 7 17 8 18 20 19 9 20 11 21 21 22 10 23
REMARK SMILES IDX 12 24 13 25 18 26 14 27 17 28 19 29 15 30 16 31 32 32 33 33
REMARK SMILES IDX 34 34 35 35 36 36 37 37 89 38 38 39 88 40 39 41 40 42 41 43
REMARK SMILES IDX 82 44 42 45 87 46 81 47 83 48 43 49 86 50 80 51 79 52 44 54
REMARK SMILES IDX 70 55 53 56 69 57 54 58 57 59 68 60 84 61 55 62 56 63 67 65
REMARK SMILES IDX 85 66 58 67 45 68 46 69 51 70 47 71 48 72 50 73 52 74 49 75
REMARK SMILES IDX 71 76 72 77 77 78 73 79 74 80 76 81 78 82 75 83 59 84 60 85
REMARK SMILES IDX 65 86 61 87 62 88 64 89 66 90 63 91
REMARK H PARENT 83 53 57 64
REMARK Flexibility Score: inf
ROOT
ATOM      1  C   UNL     1       1.243   1.636  -2.572  1.00  0.00     0.274 C 
ENDROOT
BRANCH   1   2
ATOM      2  O   UNL     1       1.881   1.399  -1.303  1.00  0.00    -0.459 OA
BRANCH   2   3
ATOM      3  C   UNL     1       1.741   0.159  -0.759  1.00  0.00     0.347 C 
ATOM      4  O   UNL     1       1.255  -0.805  -1.342  1.00  0.00    -0.248 OA
BRANCH   3   5
ATOM      5  C   UNL     1       2.357   0.097   0.663  1.00  0.00     0.279 C 
ATOM      6  C   UNL     1       2.050  -1.226   1.372  1.00  0.00     0.066 C 
BRANCH   5   7
ATOM      7  O   UNL     1       2.332   1.087   1.664  1.00  0.00    -0.475 OA
BRANCH   7   8
ATOM      8  C   UNL     1       1.453   2.115   1.726  1.00  0.00     0.162 A 
ATOM      9  C   UNL     1       0.197   2.268   1.138  1.00  0.00     0.161 A 
ATOM     10  C   UNL     1      -0.479   3.493   1.246  1.00  0.00     0.058 A 
ATOM     11  C   UNL     1       0.076   4.554   1.969  1.00  0.00    -0.020 A 
ATOM     12  C   UNL     1       1.956   3.156   2.521  1.00  0.00     0.051 A 
ATOM     13  C   UNL     1       1.277   4.365   2.650  1.00  0.00     0.012 A 
BRANCH   9  14
ATOM     14  O   UNL     1      -0.357   1.362   0.279  1.00  0.00    -0.493 OA
ATOM     15  C   UNL     1      -1.223   0.425   0.904  1.00  0.00     0.278 C 
ENDBRANCH   9  14
BRANCH  11  16
ATOM     16  C   UNL     1      -0.539   5.881   1.912  1.00  0.00     0.029 C 
ATOM     17  C   UNL     1      -0.036   6.909   1.210  1.00  0.00     0.081 C 
ATOM     18  S   UNL     1      -0.779   8.463   1.180  1.00  0.00    -0.054 SA
ATOM     19  C   UNL     1       1.206   6.924   0.375  1.00  0.00     0.270 C 
ATOM     20  C   UNL     1       0.467   9.150   0.135  1.00  0.00     0.152 C 
ATOM     21  N   UNL     1       1.468   8.216  -0.070  1.00  0.00    -0.261 N 
ATOM     22  O   UNL     1       1.871   5.926   0.134  1.00  0.00    -0.268 OA
ATOM     23  S   UNL     1       0.285  10.678  -0.523  1.00  0.00    -0.051 S 
BRANCH  21  24
ATOM     24  C   UNL     1       2.689   8.486  -0.758  1.00  0.00     0.054 A 
ATOM     25  C   UNL     1       3.015   7.715  -1.888  1.00  0.00     0.027 A 
ATOM     26  C   UNL     1       3.613   9.448  -0.300  1.00  0.00    -0.027 A 
ATOM     27  C   UNL     1       4.202   7.931  -2.591  1.00  0.00     0.005 A 
ATOM     28  C   UNL     1       4.795   9.669  -1.036  1.00  0.00     0.009 A 
ATOM     29  C   UNL     1       3.460  10.220   0.983  1.00  0.00     0.046 C 
ATOM     30  C   UNL     1       5.096   8.919  -2.178  1.00  0.00    -0.051 A 
ATOM     31  C   UNL     1       6.375   9.138  -2.931  1.00  0.00     0.044 C 
ENDBRANCH  21  24
ENDBRANCH  11  16
ENDBRANCH   7   8
ENDBRANCH   5   7
ENDBRANCH   3   5
ENDBRANCH   2   3
ENDBRANCH   1   2
BRANCH   1  32
ATOM     32  C   UNL     1       2.193   2.404  -3.489  1.00  0.00     0.275 C 
BRANCH  32  33
ATOM     33  O   UNL     1       3.326   1.574  -3.797  1.00  0.00    -0.458 OA
BRANCH  33  34
ATOM     34  C   UNL     1       4.347   1.681  -2.920  1.00  0.00     0.338 C 
ATOM     35  O   UNL     1       4.504   2.506  -2.032  1.00  0.00    -0.246 OA
BRANCH  34  36
ATOM     36  C   UNL     1       5.211   0.511  -3.068  1.00  0.00     0.060 A 
ATOM     37  C   UNL     1       5.158  -0.467  -2.074  1.00  0.00     0.016 A 
ATOM     38  C   UNL     1       6.121   0.423  -4.117  1.00  0.00     0.016 A 
ATOM     39  C   UNL     1       6.050  -1.527  -2.089  1.00  0.00     0.010 A 
ATOM     40  C   UNL     1       7.005  -0.655  -4.147  1.00  0.00     0.010 A 
ATOM     41  C   UNL     1       6.989  -1.618  -3.120  1.00  0.00    -0.014 A 
BRANCH  41  42
ATOM     42  C   UNL     1       8.015  -2.678  -3.077  1.00  0.00     0.031 A 
ATOM     43  C   UNL     1       9.433  -2.308  -2.765  1.00  0.00     0.074 A 
ATOM     44  C   UNL     1       7.665  -3.957  -3.299  1.00  0.00     0.049 A 
ATOM     45  N   UNL     1      10.513  -3.040  -2.831  1.00  0.00    -0.248 NA
ATOM     46  C   UNL     1       9.667  -0.921  -2.327  1.00  0.00     0.031 C 
ATOM     47  C   UNL     1       6.301  -4.430  -3.540  1.00  0.00     0.029 A 
ATOM     48  N   UNL     1       8.431  -5.089  -3.365  1.00  0.00    -0.354 N 
ATOM     49  C   UNL     1      11.559  -2.196  -2.484  1.00  0.00     0.074 A 
ATOM     50  C   UNL     1      10.986  -0.896  -2.210  1.00  0.00     0.031 C 
ATOM     51  C   UNL     1       6.328  -5.758  -3.735  1.00  0.00     0.029 A 
ATOM     52  C   UNL     1       7.714  -6.213  -3.693  1.00  0.00     0.049 A 
ATOM     53  H   UNL     1       9.401  -5.097  -3.195  1.00  0.00     0.167 HD
ATOM     54  C   UNL     1      12.878  -2.487  -2.407  1.00  0.00     0.037 A 
ATOM     55  C   UNL     1       8.138  -7.458  -3.971  1.00  0.00     0.037 A 
ATOM     56  C   UNL     1      13.423  -3.795  -2.659  1.00  0.00     0.049 A 
ATOM     57  C   UNL     1       9.612  -7.745  -3.928  1.00  0.00     0.074 A 
ATOM     58  C   UNL     1      14.742  -4.207  -2.606  1.00  0.00     0.029 A 
ATOM     59  N   UNL     1      12.668  -4.906  -3.006  1.00  0.00    -0.354 N 
ATOM     60  N   UNL     1      10.603  -6.936  -3.635  1.00  0.00    -0.248 NA
ATOM     61  C   UNL     1      10.030  -9.112  -4.265  1.00  0.00     0.031 C 
ATOM     62  C   UNL     1      14.788  -5.561  -2.957  1.00  0.00     0.029 A 
ATOM     63  C   UNL     1      13.494  -6.002  -3.187  1.00  0.00     0.049 A 
ATOM     64  H   UNL     1      11.688  -4.914  -3.109  1.00  0.00     0.167 HD
ATOM     65  C   UNL     1      11.759  -7.697  -3.737  1.00  0.00     0.074 A 
ATOM     66  C   UNL     1      11.344  -9.037  -4.104  1.00  0.00     0.031 C 
ATOM     67  C   UNL     1      13.048  -7.324  -3.549  1.00  0.00     0.037 A 
BRANCH  54  68
ATOM     68  C   UNL     1      13.815  -1.363  -2.082  1.00  0.00     0.057 A 
ATOM     69  C   UNL     1      13.901  -0.811  -0.798  1.00  0.00     0.134 A 
ATOM     70  C   UNL     1      14.649  -0.829  -3.072  1.00  0.00     0.134 A 
ATOM     71  F   UNL     1      13.115  -1.264   0.191  1.00  0.00    -0.206 F 
ATOM     72  C   UNL     1      14.768   0.246  -0.515  1.00  0.00     0.040 A 
ATOM     73  C   UNL     1      15.537   0.213  -2.797  1.00  0.00     0.040 A 
ATOM     74  F   UNL     1      14.616  -1.310  -4.324  1.00  0.00    -0.206 F 
ATOM     75  C   UNL     1      15.593   0.758  -1.516  1.00  0.00     0.006 A 
ENDBRANCH  54  68
BRANCH  55  76
ATOM     76  C   UNL     1       7.159  -8.506  -4.349  1.00  0.00     0.057 A 
ATOM     77  C   UNL     1       6.880  -9.579  -3.497  1.00  0.00     0.134 A 
ATOM     78  C   UNL     1       6.469  -8.453  -5.567  1.00  0.00     0.134 A 
ATOM     79  F   UNL     1       7.523  -9.696  -2.326  1.00  0.00    -0.206 F 
ATOM     80  C   UNL     1       5.957 -10.567  -3.845  1.00  0.00     0.040 A 
ATOM     81  C   UNL     1       5.526  -9.419  -5.917  1.00  0.00     0.040 A 
ATOM     82  F   UNL     1       6.689  -7.447  -6.427  1.00  0.00    -0.206 F 
ATOM     83  C   UNL     1       5.271 -10.484  -5.056  1.00  0.00     0.006 A 
ENDBRANCH  55  76
BRANCH  67  84
ATOM     84  C   UNL     1      14.091  -8.388  -3.708  1.00  0.00     0.057 A 
ATOM     85  C   UNL     1      14.472  -8.861  -4.969  1.00  0.00     0.134 A 
ATOM     86  C   UNL     1      14.743  -8.917  -2.588  1.00  0.00     0.134 A 
ATOM     87  F   UNL     1      13.873  -8.402  -6.078  1.00  0.00    -0.206 F 
ATOM     88  C   UNL     1      15.456  -9.841  -5.109  1.00  0.00     0.040 A 
ATOM     89  C   UNL     1      15.744  -9.880  -2.717  1.00  0.00     0.040 A 
ATOM     90  F   UNL     1      14.427  -8.498  -1.353  1.00  0.00    -0.206 F 
ATOM     91  C   UNL     1      16.099 -10.348  -3.981  1.00  0.00     0.006 A 
ENDBRANCH  67  84
ENDBRANCH  41  42
ENDBRANCH  34  36
ENDBRANCH  33  34
ENDBRANCH  32  33
ENDBRANCH   1  32
TORSDOF 16
