REMARK SMILES Cc1cc(C(=O)OCCOC(=O)c2ccc(-c3c4nc(c(-c5c(F)cccc5F)c5ccc([nH]5)c(-c5c(F)cccc5F)c5nc(c(-c6c(F)cccc6F)c6ccc3[nH]6)C=C5)C=C4)cc2)ccc1NCCCC(=O)NC1CC1
REMARK SMILES IDX 5 1 6 2 4 3 1 4 2 5 3 6 69 7 68 8 67 9 70 10 71 12 72 13
REMARK SMILES IDX 73 14 74 15 75 16 76 17 77 19 78 20 79 21 7 22 8 23 9 24
REMARK SMILES IDX 10 25 11 26 12 27 13 28 14 29 66 30 15 31 65 32 16 33 17 34
REMARK SMILES IDX 18 35 59 36 19 37 64 38 58 39 60 40 20 41 63 42 57 43 56 44
REMARK SMILES IDX 21 46 47 47 30 48 46 49 31 50 34 51 45 52 61 53 32 54 33 55
REMARK SMILES IDX 44 57 62 58 35 59 22 60 23 61 28 62 24 63 25 64 27 65 29 66
REMARK SMILES IDX 26 67 48 68 49 69 54 70 50 71 51 72 53 73 55 74 52 75 36 76
REMARK SMILES IDX 37 77 42 78 38 79 39 80 41 81 43 82 40 83
REMARK H PARENT 70 11 76 18 60 45 34 56
REMARK Flexibility Score: inf
ROOT
ATOM      1  C   UNL     1      -3.129  -1.153  -1.093  1.00  0.00     0.338 C 
ATOM      2  O   UNL     1      -4.137  -1.092  -0.395  1.00  0.00    -0.246 OA
ENDROOT
BRANCH   1   3
ATOM      3  C   UNL     1      -2.065  -0.147  -0.894  1.00  0.00     0.060 A 
ATOM      4  C   UNL     1       1.601   0.071   0.078  1.00  0.00     0.046 C 
ATOM      5  C   UNL     1       0.174   0.510  -0.166  1.00  0.00    -0.027 A 
ATOM      6  C   UNL     1      -0.700  -0.418  -0.791  1.00  0.00     0.021 A 
ATOM      7  C   UNL     1      -0.325   1.765   0.254  1.00  0.00     0.037 A 
ATOM      8  C   UNL     1      -1.671   2.054  -0.008  1.00  0.00     0.027 A 
ATOM      9  C   UNL     1      -2.534   1.111  -0.542  1.00  0.00     0.018 A 
BRANCH   7  10
ATOM     10  N   UNL     1       0.489   2.735   0.825  1.00  0.00    -0.385 N 
ATOM     11  H   UNL     1       1.361   2.473   1.201  1.00  0.00     0.160 HD
BRANCH  10  12
ATOM     12  C   UNL     1       0.080   4.131   0.880  1.00  0.00     0.113 C 
BRANCH  12  13
ATOM     13  C   UNL     1       1.145   5.050   1.457  1.00  0.00     0.031 C 
BRANCH  13  14
ATOM     14  C   UNL     1       2.542   4.898   0.866  1.00  0.00     0.102 C 
BRANCH  14  15
ATOM     15  C   UNL     1       2.832   5.775  -0.331  1.00  0.00     0.220 C 
ATOM     16  O   UNL     1       3.313   6.901  -0.180  1.00  0.00    -0.275 OA
ATOM     17  N   UNL     1       2.608   5.332  -1.601  1.00  0.00    -0.353 N 
ATOM     18  H   UNL     1       3.039   5.867  -2.306  1.00  0.00     0.163 HD
BRANCH  17  19
ATOM     19  C   UNL     1       1.852   4.224  -2.071  1.00  0.00     0.082 C 
ATOM     20  C   UNL     1       2.335   3.514  -3.316  1.00  0.00     0.027 C 
ATOM     21  C   UNL     1       2.280   2.791  -2.011  1.00  0.00     0.027 C 
ENDBRANCH  17  19
ENDBRANCH  14  15
ENDBRANCH  13  14
ENDBRANCH  12  13
ENDBRANCH  10  12
ENDBRANCH   7  10
ENDBRANCH   1   3
BRANCH   1  22
ATOM     22  O   UNL     1      -2.929  -2.059  -2.085  1.00  0.00    -0.458 OA
BRANCH  22  23
ATOM     23  C   UNL     1      -4.064  -2.936  -2.194  1.00  0.00     0.275 C 
BRANCH  23  24
ATOM     24  C   UNL     1      -3.798  -4.276  -2.890  1.00  0.00     0.275 C 
BRANCH  24  25
ATOM     25  O   UNL     1      -2.455  -4.832  -2.923  1.00  0.00    -0.458 OA
BRANCH  25  26
ATOM     26  C   UNL     1      -1.440  -4.680  -2.046  1.00  0.00     0.338 C 
ATOM     27  O   UNL     1      -0.262  -4.773  -2.390  1.00  0.00    -0.246 OA
BRANCH  26  28
ATOM     28  C   UNL     1      -1.768  -4.380  -0.649  1.00  0.00     0.060 A 
ATOM     29  C   UNL     1      -0.891  -3.571   0.093  1.00  0.00     0.016 A 
ATOM     30  C   UNL     1      -2.967  -4.825  -0.106  1.00  0.00     0.016 A 
ATOM     31  C   UNL     1      -1.255  -3.115   1.349  1.00  0.00     0.010 A 
ATOM     32  C   UNL     1      -3.403  -4.260   1.062  1.00  0.00     0.010 A 
ATOM     33  C   UNL     1      -2.514  -3.474   1.811  1.00  0.00    -0.014 A 
BRANCH  33  34
ATOM     34  C   UNL     1      -2.846  -3.471   3.219  1.00  0.00     0.031 A 
ATOM     35  C   UNL     1      -3.431  -2.291   3.856  1.00  0.00     0.074 A 
ATOM     36  C   UNL     1      -2.716  -4.720   3.724  1.00  0.00     0.049 A 
ATOM     37  N   UNL     1      -3.487  -2.124   5.126  1.00  0.00    -0.248 NA
ATOM     38  C   UNL     1      -3.963  -1.148   3.118  1.00  0.00     0.031 C 
ATOM     39  C   UNL     1      -3.225  -5.353   4.921  1.00  0.00     0.029 A 
ATOM     40  N   UNL     1      -1.885  -5.706   3.157  1.00  0.00    -0.354 N 
ATOM     41  C   UNL     1      -4.363  -1.084   5.371  1.00  0.00     0.074 A 
ATOM     42  C   UNL     1      -4.493  -0.413   4.104  1.00  0.00     0.031 C 
ATOM     43  C   UNL     1      -2.474  -6.447   5.171  1.00  0.00     0.029 A 
ATOM     44  C   UNL     1      -1.373  -6.457   4.209  1.00  0.00     0.049 A 
ATOM     45  H   UNL     1      -1.702  -5.838   2.199  1.00  0.00     0.167 HD
ATOM     46  C   UNL     1      -4.997  -1.071   6.582  1.00  0.00     0.037 A 
ATOM     47  C   UNL     1      -0.050  -6.281   4.500  1.00  0.00     0.037 A 
ATOM     48  C   UNL     1      -4.455  -2.160   7.402  1.00  0.00     0.049 A 
ATOM     49  C   UNL     1       0.073  -5.574   5.829  1.00  0.00     0.074 A 
ATOM     50  C   UNL     1      -4.888  -3.461   7.598  1.00  0.00     0.029 A 
ATOM     51  N   UNL     1      -3.115  -2.126   7.775  1.00  0.00    -0.354 N 
ATOM     52  N   UNL     1      -0.756  -4.658   6.261  1.00  0.00    -0.248 NA
ATOM     53  C   UNL     1       1.058  -5.976   6.824  1.00  0.00     0.031 C 
ATOM     54  C   UNL     1      -3.757  -4.236   7.976  1.00  0.00     0.029 A 
ATOM     55  C   UNL     1      -2.647  -3.405   8.016  1.00  0.00     0.049 A 
ATOM     56  H   UNL     1      -2.576  -1.306   7.857  1.00  0.00     0.167 HD
ATOM     57  C   UNL     1      -0.498  -4.424   7.587  1.00  0.00     0.074 A 
ATOM     58  C   UNL     1       0.661  -5.252   7.882  1.00  0.00     0.031 C 
ATOM     59  C   UNL     1      -1.259  -3.625   8.393  1.00  0.00     0.037 A 
BRANCH  46  60
ATOM     60  C   UNL     1      -6.272  -0.331   6.950  1.00  0.00     0.057 A 
ATOM     61  C   UNL     1      -6.996  -0.712   8.104  1.00  0.00     0.134 A 
ATOM     62  C   UNL     1      -6.884   0.702   6.217  1.00  0.00     0.134 A 
ATOM     63  F   UNL     1      -6.532  -1.641   8.951  1.00  0.00    -0.206 F 
ATOM     64  C   UNL     1      -8.239  -0.165   8.456  1.00  0.00     0.040 A 
ATOM     65  C   UNL     1      -8.133   1.254   6.555  1.00  0.00     0.040 A 
ATOM     66  F   UNL     1      -6.308   1.258   5.150  1.00  0.00    -0.206 F 
ATOM     67  C   UNL     1      -8.822   0.815   7.673  1.00  0.00     0.006 A 
ENDBRANCH  46  60
BRANCH  47  68
ATOM     68  C   UNL     1       0.825  -6.081   3.292  1.00  0.00     0.057 A 
ATOM     69  C   UNL     1       0.761  -7.034   2.247  1.00  0.00     0.134 A 
ATOM     70  C   UNL     1       1.503  -4.895   2.992  1.00  0.00     0.134 A 
ATOM     71  F   UNL     1       0.145  -8.211   2.448  1.00  0.00    -0.206 F 
ATOM     72  C   UNL     1       1.232  -6.777   0.954  1.00  0.00     0.040 A 
ATOM     73  C   UNL     1       2.009  -4.638   1.703  1.00  0.00     0.040 A 
ATOM     74  F   UNL     1       1.627  -3.925   3.908  1.00  0.00    -0.206 F 
ATOM     75  C   UNL     1       1.843  -5.564   0.672  1.00  0.00     0.006 A 
ENDBRANCH  47  68
BRANCH  59  76
ATOM     76  C   UNL     1      -0.770  -3.043   9.694  1.00  0.00     0.057 A 
ATOM     77  C   UNL     1       0.584  -2.804   9.967  1.00  0.00     0.134 A 
ATOM     78  C   UNL     1      -1.677  -2.527  10.646  1.00  0.00     0.134 A 
ATOM     79  F   UNL     1       1.547  -3.110   9.087  1.00  0.00    -0.206 F 
ATOM     80  C   UNL     1       1.013  -2.180  11.141  1.00  0.00     0.040 A 
ATOM     81  C   UNL     1      -1.262  -1.832  11.782  1.00  0.00     0.040 A 
ATOM     82  F   UNL     1      -3.005  -2.640  10.500  1.00  0.00    -0.206 F 
ATOM     83  C   UNL     1       0.089  -1.678  12.046  1.00  0.00     0.006 A 
ENDBRANCH  59  76
ENDBRANCH  33  34
ENDBRANCH  26  28
ENDBRANCH  25  26
ENDBRANCH  24  25
ENDBRANCH  23  24
ENDBRANCH  22  23
ENDBRANCH   1  22
TORSDOF 17
