REMARK SMILES C=CC[N@H+](CC(=O)OCCOC(=O)c1ccc(-c2c3nc(c(-c4c(F)cccc4F)c4ccc([nH]4)c(-c4c(F)cccc4F)c4nc(c(-c5c(F)cccc5F)c5ccc2[nH]5)C=C4)C=C3)cc1)Cc1ccc(C(F)(F)F)cc1
REMARK SMILES IDX 9 1 8 2 6 3 7 4 5 5 4 6 3 8 2 9 1 10 68 11 69 12 70 13 78 14
REMARK SMILES IDX 71 15 77 16 72 17 73 18 74 19 75 20 76 21 10 22 11 23 12 24
REMARK SMILES IDX 13 25 14 26 15 27 67 28 16 29 66 30 17 31 18 32 19 33 60 34
REMARK SMILES IDX 20 35 65 36 59 37 61 38 21 39 64 40 58 41 57 42 22 44 48 45
REMARK SMILES IDX 31 46 47 47 32 48 35 49 46 50 62 51 33 52 34 53 45 55 63 56
REMARK SMILES IDX 36 57 23 58 24 59 29 60 25 61 26 62 28 63 30 64 27 65 49 66
REMARK SMILES IDX 50 67 55 68 51 69 52 70 54 71 56 72 53 73 37 74 38 75 43 76
REMARK SMILES IDX 39 77 40 78 42 79 44 80 41 81
REMARK H PARENT 4 7 61 43 35 54
REMARK Flexibility Score: inf
ROOT
ATOM      1  C   UNL     1      -5.171  -0.388  -0.400  1.00  0.00     0.274 C 
ENDROOT
BRANCH   1   2
ATOM      2  O   UNL     1      -3.872   0.120  -0.042  1.00  0.00    -0.458 OA
BRANCH   2   3
ATOM      3  C   UNL     1      -3.849   1.203   0.783  1.00  0.00     0.361 C 
ATOM      4  O   UNL     1      -4.852   1.797   1.170  1.00  0.00    -0.245 OA
BRANCH   3   5
ATOM      5  C   UNL     1      -2.442   1.651   1.187  1.00  0.00     0.387 C 
BRANCH   5   6
ATOM      6  N   UNL     1      -1.412   0.666   0.879  1.00  0.00    -0.319 N 
ATOM      7  H   UNL     1      -1.971  -0.127   0.565  1.00  0.00     0.349 HD
BRANCH   6   8
ATOM      8  C   UNL     1      -0.704   0.805  -0.376  1.00  0.00     0.291 C 
BRANCH   8   9
ATOM      9  C   UNL     1       0.770   1.038  -0.233  1.00  0.00     0.025 C 
ATOM     10  C   UNL     1       1.694   0.119  -0.547  1.00  0.00     0.010 C 
ENDBRANCH   8   9
ENDBRANCH   6   8
BRANCH   6  11
ATOM     11  C   UNL     1      -0.819  -0.065   1.988  1.00  0.00     0.299 C 
BRANCH  11  12
ATOM     12  C   UNL     1      -0.705  -1.571   1.829  1.00  0.00     0.006 A 
ATOM     13  C   UNL     1      -1.370  -2.285   0.825  1.00  0.00     0.010 A 
ATOM     14  C   UNL     1      -0.051  -2.299   2.837  1.00  0.00     0.010 A 
ATOM     15  C   UNL     1      -1.462  -3.677   0.871  1.00  0.00     0.013 A 
ATOM     16  C   UNL     1      -0.145  -3.693   2.890  1.00  0.00     0.013 A 
ATOM     17  C   UNL     1      -0.886  -4.392   1.927  1.00  0.00     0.056 A 
BRANCH  17  18
ATOM     18  C   UNL     1      -1.167  -5.862   2.092  1.00  0.00     0.416 C 
ATOM     19  F   UNL     1      -2.221  -6.099   2.923  1.00  0.00    -0.166 F 
ATOM     20  F   UNL     1      -1.470  -6.492   0.921  1.00  0.00    -0.166 F 
ATOM     21  F   UNL     1      -0.118  -6.552   2.622  1.00  0.00    -0.166 F 
ENDBRANCH  17  18
ENDBRANCH  11  12
ENDBRANCH   6  11
ENDBRANCH   5   6
ENDBRANCH   3   5
ENDBRANCH   2   3
ENDBRANCH   1   2
BRANCH   1  22
ATOM     22  C   UNL     1      -5.578  -1.547   0.504  1.00  0.00     0.275 C 
BRANCH  22  23
ATOM     23  O   UNL     1      -5.689  -1.098   1.869  1.00  0.00    -0.458 OA
BRANCH  23  24
ATOM     24  C   UNL     1      -4.707  -1.541   2.679  1.00  0.00     0.338 C 
ATOM     25  O   UNL     1      -3.806  -2.316   2.392  1.00  0.00    -0.246 OA
BRANCH  24  26
ATOM     26  C   UNL     1      -4.871  -1.076   4.053  1.00  0.00     0.060 A 
ATOM     27  C   UNL     1      -4.768   0.274   4.389  1.00  0.00     0.016 A 
ATOM     28  C   UNL     1      -5.012  -2.059   5.037  1.00  0.00     0.016 A 
ATOM     29  C   UNL     1      -4.815   0.640   5.733  1.00  0.00     0.010 A 
ATOM     30  C   UNL     1      -5.104  -1.689   6.373  1.00  0.00     0.010 A 
ATOM     31  C   UNL     1      -5.017  -0.337   6.726  1.00  0.00    -0.014 A 
BRANCH  31  32
ATOM     32  C   UNL     1      -5.345   0.079   8.104  1.00  0.00     0.031 A 
ATOM     33  C   UNL     1      -4.373  -0.054   9.231  1.00  0.00     0.074 A 
ATOM     34  C   UNL     1      -6.585   0.561   8.308  1.00  0.00     0.049 A 
ATOM     35  N   UNL     1      -4.523   0.292  10.484  1.00  0.00    -0.248 NA
ATOM     36  C   UNL     1      -3.070  -0.660   8.923  1.00  0.00     0.031 C 
ATOM     37  C   UNL     1      -7.613   0.686   7.270  1.00  0.00     0.029 A 
ATOM     38  N   UNL     1      -7.188   1.042   9.437  1.00  0.00    -0.354 N 
ATOM     39  C   UNL     1      -3.339  -0.053  11.119  1.00  0.00     0.074 A 
ATOM     40  C   UNL     1      -2.483  -0.654  10.114  1.00  0.00     0.031 C 
ATOM     41  C   UNL     1      -8.705   1.252   7.801  1.00  0.00     0.029 A 
ATOM     42  C   UNL     1      -8.465   1.492   9.218  1.00  0.00     0.049 A 
ATOM     43  H   UNL     1      -6.749   1.064  10.318  1.00  0.00     0.167 HD
ATOM     44  C   UNL     1      -3.007   0.119  12.421  1.00  0.00     0.037 A 
ATOM     45  C   UNL     1      -9.347   2.043  10.068  1.00  0.00     0.037 A 
ATOM     46  C   UNL     1      -3.879   0.710  13.407  1.00  0.00     0.049 A 
ATOM     47  C   UNL     1      -8.943   2.243  11.494  1.00  0.00     0.074 A 
ATOM     48  C   UNL     1      -3.634   0.946  14.749  1.00  0.00     0.029 A 
ATOM     49  N   UNL     1      -5.170   1.153  13.154  1.00  0.00    -0.354 N 
ATOM     50  N   UNL     1      -7.807   1.943  12.075  1.00  0.00    -0.248 NA
ATOM     51  C   UNL     1      -9.938   2.854  12.381  1.00  0.00     0.031 C 
ATOM     52  C   UNL     1      -4.787   1.506  15.314  1.00  0.00     0.029 A 
ATOM     53  C   UNL     1      -5.739   1.648  14.317  1.00  0.00     0.049 A 
ATOM     54  H   UNL     1      -5.616   1.121  12.277  1.00  0.00     0.167 HD
ATOM     55  C   UNL     1      -7.947   2.326  13.398  1.00  0.00     0.074 A 
ATOM     56  C   UNL     1      -9.271   2.907  13.525  1.00  0.00     0.031 C 
ATOM     57  C   UNL     1      -7.066   2.200  14.419  1.00  0.00     0.037 A 
BRANCH  44  58
ATOM     58  C   UNL     1      -1.652  -0.347  12.861  1.00  0.00     0.057 A 
ATOM     59  C   UNL     1      -0.490   0.372  12.553  1.00  0.00     0.134 A 
ATOM     60  C   UNL     1      -1.510  -1.497  13.648  1.00  0.00     0.134 A 
ATOM     61  F   UNL     1      -0.556   1.477  11.796  1.00  0.00    -0.206 F 
ATOM     62  C   UNL     1       0.765  -0.041  13.005  1.00  0.00     0.040 A 
ATOM     63  C   UNL     1      -0.263  -1.912  14.119  1.00  0.00     0.040 A 
ATOM     64  F   UNL     1      -2.583  -2.230  13.982  1.00  0.00    -0.206 F 
ATOM     65  C   UNL     1       0.880  -1.183  13.796  1.00  0.00     0.006 A 
ENDBRANCH  44  58
BRANCH  45  66
ATOM     66  C   UNL     1     -10.671   2.468   9.561  1.00  0.00     0.057 A 
ATOM     67  C   UNL     1     -10.963   3.821   9.361  1.00  0.00     0.134 A 
ATOM     68  C   UNL     1     -11.645   1.532   9.193  1.00  0.00     0.134 A 
ATOM     69  F   UNL     1     -10.069   4.761   9.702  1.00  0.00    -0.206 F 
ATOM     70  C   UNL     1     -12.179   4.230   8.814  1.00  0.00     0.040 A 
ATOM     71  C   UNL     1     -12.856   1.925   8.626  1.00  0.00     0.040 A 
ATOM     72  F   UNL     1     -11.413   0.219   9.345  1.00  0.00    -0.206 F 
ATOM     73  C   UNL     1     -13.126   3.280   8.436  1.00  0.00     0.006 A 
ENDBRANCH  45  66
BRANCH  57  74
ATOM     74  C   UNL     1      -7.527   2.695  15.754  1.00  0.00     0.057 A 
ATOM     75  C   UNL     1      -8.442   1.967  16.524  1.00  0.00     0.134 A 
ATOM     76  C   UNL     1      -7.067   3.914  16.265  1.00  0.00     0.134 A 
ATOM     77  F   UNL     1      -8.932   0.801  16.076  1.00  0.00    -0.206 F 
ATOM     78  C   UNL     1      -8.905   2.448  17.749  1.00  0.00     0.040 A 
ATOM     79  C   UNL     1      -7.509   4.396  17.497  1.00  0.00     0.040 A 
ATOM     80  F   UNL     1      -6.190   4.655  15.573  1.00  0.00    -0.206 F 
ATOM     81  C   UNL     1      -8.437   3.666  18.239  1.00  0.00     0.006 A 
ENDBRANCH  57  74
ENDBRANCH  31  32
ENDBRANCH  24  26
ENDBRANCH  23  24
ENDBRANCH  22  23
ENDBRANCH   1  22
TORSDOF 17
