REMARK SMILES C[C@H]([NH2+]CCc1ccccc1)[C@@H](C)C(=O)OCCOC(=O)c1ccc(-c2c3nc(c(-c4c(F)cccc4F)c4ccc([nH]4)c(-c4c(F)cccc4F)c4nc(c(-c5c(F)cccc5F)c5ccc2[nH]5)C=C4)C=C3)cc1
REMARK SMILES IDX 16 1 14 2 15 3 12 4 13 5 2 6 1 7 3 8 4 11 5 12 6 13 7 14
REMARK SMILES IDX 11 15 8 16 10 17 9 18 17 19 18 20 19 21 20 22 21 23 22 24
REMARK SMILES IDX 23 25 75 26 24 27 74 28 25 29 26 30 27 31 68 32 28 33 73 34
REMARK SMILES IDX 67 35 69 36 29 37 72 38 66 39 65 40 30 42 56 43 39 44 55 45
REMARK SMILES IDX 40 46 43 47 54 48 70 49 41 50 42 51 53 53 71 54 44 55 31 56
REMARK SMILES IDX 32 57 37 58 33 59 34 60 36 61 38 62 35 63 57 64 58 65 63 66
REMARK SMILES IDX 59 67 60 68 62 69 64 70 61 71 45 72 46 73 51 74 47 75 48 76
REMARK SMILES IDX 50 77 52 78 49 79
REMARK H PARENT 3 9 3 10 69 41 43 52
REMARK Flexibility Score: inf
ROOT
ATOM      1  O   UNL     1      -0.863  -1.726   3.448  1.00  0.00    -0.462 OA
ENDROOT
BRANCH   1   2
ATOM      2  C   UNL     1      -1.634  -1.166   2.480  1.00  0.00     0.314 C 
ATOM      3  O   UNL     1      -2.830  -0.918   2.601  1.00  0.00    -0.252 OA
BRANCH   2   4
ATOM      4  C   UNL     1      -0.891  -0.893   1.185  1.00  0.00     0.154 C 
ATOM      5  C   UNL     1      -1.314  -1.985   0.196  1.00  0.00     0.026 C 
BRANCH   4   6
ATOM      6  C   UNL     1       0.648  -0.749   1.297  1.00  0.00     0.193 C 
ATOM      7  C   UNL     1       1.061   0.373   2.262  1.00  0.00     0.076 C 
BRANCH   6   8
ATOM      8  N   UNL     1       1.167  -0.438  -0.049  1.00  0.00    -0.343 N 
ATOM      9  H   UNL     1       1.056   0.563  -0.211  1.00  0.00     0.346 HD
ATOM     10  H   UNL     1       0.633  -1.005  -0.709  1.00  0.00     0.346 HD
BRANCH   8  11
ATOM     11  C   UNL     1       2.577  -0.782  -0.240  1.00  0.00     0.265 C 
BRANCH  11  12
ATOM     12  C   UNL     1       3.097  -0.285  -1.603  1.00  0.00     0.097 C 
BRANCH  12  13
ATOM     13  C   UNL     1       3.098   1.214  -1.838  1.00  0.00    -0.042 A 
ATOM     14  C   UNL     1       2.954   1.693  -3.150  1.00  0.00     0.004 A 
ATOM     15  C   UNL     1       3.297   2.145  -0.809  1.00  0.00     0.004 A 
ATOM     16  C   UNL     1       2.975   3.063  -3.420  1.00  0.00     0.000 A 
ATOM     17  C   UNL     1       3.310   3.516  -1.078  1.00  0.00     0.000 A 
ATOM     18  C   UNL     1       3.148   3.975  -2.383  1.00  0.00     0.000 A 
ENDBRANCH  12  13
ENDBRANCH  11  12
ENDBRANCH   8  11
ENDBRANCH   6   8
ENDBRANCH   4   6
ENDBRANCH   2   4
ENDBRANCH   1   2
BRANCH   1  19
ATOM     19  C   UNL     1      -1.515  -1.902   4.724  1.00  0.00     0.274 C 
BRANCH  19  20
ATOM     20  C   UNL     1      -1.289  -0.682   5.619  1.00  0.00     0.275 C 
BRANCH  20  21
ATOM     21  O   UNL     1      -1.782   0.499   4.963  1.00  0.00    -0.458 OA
BRANCH  21  22
ATOM     22  C   UNL     1      -1.035   1.616   5.114  1.00  0.00     0.338 C 
ATOM     23  O   UNL     1      -0.033   1.748   5.793  1.00  0.00    -0.246 OA
BRANCH  22  24
ATOM     24  C   UNL     1      -1.639   2.717   4.338  1.00  0.00     0.060 A 
ATOM     25  C   UNL     1      -1.998   2.547   2.998  1.00  0.00     0.016 A 
ATOM     26  C   UNL     1      -1.801   3.958   4.954  1.00  0.00     0.016 A 
ATOM     27  C   UNL     1      -2.504   3.621   2.265  1.00  0.00     0.010 A 
ATOM     28  C   UNL     1      -2.366   5.016   4.238  1.00  0.00     0.010 A 
ATOM     29  C   UNL     1      -2.717   4.859   2.887  1.00  0.00    -0.014 A 
BRANCH  29  30
ATOM     30  C   UNL     1      -3.335   5.991   2.152  1.00  0.00     0.031 A 
ATOM     31  C   UNL     1      -2.556   7.251   1.908  1.00  0.00     0.074 A 
ATOM     32  C   UNL     1      -4.620   5.907   1.757  1.00  0.00     0.049 A 
ATOM     33  N   UNL     1      -2.976   8.413   1.476  1.00  0.00    -0.248 NA
ATOM     34  C   UNL     1      -1.115   7.200   2.197  1.00  0.00     0.031 C 
ATOM     35  C   UNL     1      -5.478   4.731   1.908  1.00  0.00     0.029 A 
ATOM     36  N   UNL     1      -5.435   6.841   1.167  1.00  0.00    -0.354 N 
ATOM     37  C   UNL     1      -1.861   9.241   1.474  1.00  0.00     0.074 A 
ATOM     38  C   UNL     1      -0.747   8.450   1.953  1.00  0.00     0.031 C 
ATOM     39  C   UNL     1      -6.698   5.013   1.425  1.00  0.00     0.029 A 
ATOM     40  C   UNL     1      -6.727   6.406   0.994  1.00  0.00     0.049 A 
ATOM     41  H   UNL     1      -5.125   7.734   0.894  1.00  0.00     0.167 HD
ATOM     42  C   UNL     1      -1.779  10.542   1.106  1.00  0.00     0.037 A 
ATOM     43  C   UNL     1      -7.824   7.067   0.581  1.00  0.00     0.037 A 
ATOM     44  C   UNL     1      -2.885  11.317   0.607  1.00  0.00     0.049 A 
ATOM     45  C   UNL     1      -7.720   8.524   0.236  1.00  0.00     0.074 A 
ATOM     46  C   UNL     1      -2.893  12.633   0.176  1.00  0.00     0.029 A 
ATOM     47  N   UNL     1      -4.182  10.845   0.471  1.00  0.00    -0.354 N 
ATOM     48  N   UNL     1      -6.666   9.303   0.254  1.00  0.00    -0.248 NA
ATOM     49  C   UNL     1      -8.962   9.198  -0.167  1.00  0.00     0.031 C 
ATOM     50  C   UNL     1      -4.203  12.968  -0.185  1.00  0.00     0.029 A 
ATOM     51  C   UNL     1      -5.003  11.850  -0.014  1.00  0.00     0.049 A 
ATOM     52  H   UNL     1      -4.476   9.931   0.688  1.00  0.00     0.167 HD
ATOM     53  C   UNL     1      -7.114  10.556  -0.140  1.00  0.00     0.074 A 
ATOM     54  C   UNL     1      -8.531  10.429  -0.410  1.00  0.00     0.031 C 
ATOM     55  C   UNL     1      -6.413  11.709  -0.265  1.00  0.00     0.037 A 
BRANCH  42  56
ATOM     56  C   UNL     1      -0.449  11.220   1.253  1.00  0.00     0.057 A 
ATOM     57  C   UNL     1       0.610  10.973   0.371  1.00  0.00     0.134 A 
ATOM     58  C   UNL     1      -0.242  12.164   2.267  1.00  0.00     0.134 A 
ATOM     59  F   UNL     1       0.479  10.071  -0.613  1.00  0.00    -0.206 F 
ATOM     60  C   UNL     1       1.835  11.631   0.502  1.00  0.00     0.040 A 
ATOM     61  C   UNL     1       0.971  12.842   2.396  1.00  0.00     0.040 A 
ATOM     62  F   UNL     1      -1.218  12.449   3.142  1.00  0.00    -0.206 F 
ATOM     63  C   UNL     1       2.016  12.573   1.514  1.00  0.00     0.006 A 
ENDBRANCH  42  56
BRANCH  43  64
ATOM     64  C   UNL     1      -9.126   6.361   0.515  1.00  0.00     0.057 A 
ATOM     65  C   UNL     1      -9.711   6.041  -0.715  1.00  0.00     0.134 A 
ATOM     66  C   UNL     1      -9.810   5.981   1.676  1.00  0.00     0.134 A 
ATOM     67  F   UNL     1      -9.114   6.402  -1.860  1.00  0.00    -0.206 F 
ATOM     68  C   UNL     1     -10.933   5.371  -0.788  1.00  0.00     0.040 A 
ATOM     69  C   UNL     1     -11.021   5.290   1.618  1.00  0.00     0.040 A 
ATOM     70  F   UNL     1      -9.299   6.260   2.885  1.00  0.00    -0.206 F 
ATOM     71  C   UNL     1     -11.587   4.987   0.382  1.00  0.00     0.006 A 
ENDBRANCH  43  64
BRANCH  55  72
ATOM     72  C   UNL     1      -7.174  12.917  -0.720  1.00  0.00     0.057 A 
ATOM     73  C   UNL     1      -8.032  13.610   0.141  1.00  0.00     0.134 A 
ATOM     74  C   UNL     1      -7.030  13.403  -2.025  1.00  0.00     0.134 A 
ATOM     75  F   UNL     1      -8.224  13.183   1.399  1.00  0.00    -0.206 F 
ATOM     76  C   UNL     1      -8.737  14.737  -0.285  1.00  0.00     0.040 A 
ATOM     77  C   UNL     1      -7.714  14.540  -2.457  1.00  0.00     0.040 A 
ATOM     78  F   UNL     1      -6.219  12.786  -2.897  1.00  0.00    -0.206 F 
ATOM     79  C   UNL     1      -8.574  15.207  -1.587  1.00  0.00     0.006 A 
ENDBRANCH  55  72
ENDBRANCH  29  30
ENDBRANCH  22  24
ENDBRANCH  21  22
ENDBRANCH  20  21
ENDBRANCH  19  20
ENDBRANCH   1  19
TORSDOF 16
