REMARK SMILES COC(=O)[C@@H]1CN(C(=O)N(CC(=O)OCCOC(=O)c2ccc(-c3c4nc(c(-c5c(F)cccc5F)c5ccc([nH]5)c(-c5c(F)cccc5F)c5nc(c(-c6c(F)cccc6F)c6ccc3[nH]6)C=C5)C=C4)cc2)C(C)(C)C)C[C@H]1C
REMARK SMILES IDX 14 1 12 2 13 3 11 4 10 5 8 6 9 7 7 8 5 9 6 10 79 11 78 12
REMARK SMILES IDX 80 13 3 14 4 15 2 16 1 17 74 18 75 19 76 20 77 21 15 22
REMARK SMILES IDX 16 23 17 24 18 25 19 26 20 27 21 28 73 29 22 30 72 31 23 32
REMARK SMILES IDX 24 33 25 34 66 35 26 36 71 37 65 38 67 39 27 40 70 41 64 42
REMARK SMILES IDX 63 43 28 45 54 46 37 47 53 48 38 49 41 50 52 51 68 52 39 53
REMARK SMILES IDX 40 54 51 56 69 57 42 58 29 59 30 60 35 61 31 62 32 63 34 64
REMARK SMILES IDX 36 65 33 66 55 67 56 68 61 69 57 70 58 71 60 72 62 73 59 74
REMARK SMILES IDX 43 75 44 76 49 77 45 78 46 79 48 80 50 81 47 82
REMARK H PARENT 67 44 41 55
REMARK Flexibility Score: inf
ROOT
ATOM      1  O   UNL     1       6.219   1.251  -0.892  1.00  0.00    -0.461 OA
ENDROOT
BRANCH   1   2
ATOM      2  C   UNL     1       5.079   1.747  -0.343  1.00  0.00     0.325 C 
ATOM      3  O   UNL     1       4.528   1.287   0.655  1.00  0.00    -0.250 OA
BRANCH   2   4
ATOM      4  C   UNL     1       4.534   2.989  -1.050  1.00  0.00     0.244 C 
BRANCH   4   5
ATOM      5  N   UNL     1       5.016   3.261  -2.404  1.00  0.00    -0.309 N 
BRANCH   5   6
ATOM      6  C   UNL     1       4.454   2.692  -3.549  1.00  0.00     0.321 C 
ATOM      7  O   UNL     1       4.856   3.027  -4.668  1.00  0.00    -0.248 OA
BRANCH   6   8
ATOM      8  N   UNL     1       3.438   1.761  -3.487  1.00  0.00    -0.323 N 
ATOM      9  C   UNL     1       2.108  -0.195  -3.011  1.00  0.00     0.123 C 
ATOM     10  C   UNL     1       2.826   1.009  -2.404  1.00  0.00     0.137 C 
ATOM     11  C   UNL     1       2.464  -0.127  -4.510  1.00  0.00     0.021 C 
ATOM     12  C   UNL     1       2.800   1.345  -4.730  1.00  0.00     0.125 C 
ATOM     13  C   UNL     1       3.676  -1.006  -4.832  1.00  0.00     0.010 C 
BRANCH   9  14
ATOM     14  C   UNL     1       0.617  -0.141  -2.738  1.00  0.00     0.310 C 
ATOM     15  O   UNL     1      -0.207   0.039  -3.629  1.00  0.00    -0.252 OA
BRANCH  14  16
ATOM     16  O   UNL     1       0.196  -0.344  -1.463  1.00  0.00    -0.469 OA
ATOM     17  C   UNL     1       1.051  -0.397  -0.308  1.00  0.00     0.282 C 
ENDBRANCH  14  16
ENDBRANCH   9  14
ENDBRANCH   6   8
ENDBRANCH   5   6
BRANCH   5  18
ATOM     18  C   UNL     1       6.129   4.289  -2.580  1.00  0.00     0.037 C 
ATOM     19  C   UNL     1       7.365   3.653  -3.254  1.00  0.00     0.034 C 
ATOM     20  C   UNL     1       5.625   5.497  -3.407  1.00  0.00     0.034 C 
ATOM     21  C   UNL     1       6.658   4.901  -1.254  1.00  0.00     0.034 C 
ENDBRANCH   5  18
ENDBRANCH   4   5
ENDBRANCH   2   4
ENDBRANCH   1   2
BRANCH   1  22
ATOM     22  C   UNL     1       6.798   0.119  -0.208  1.00  0.00     0.274 C 
BRANCH  22  23
ATOM     23  C   UNL     1       7.916   0.567   0.734  1.00  0.00     0.275 C 
BRANCH  23  24
ATOM     24  O   UNL     1       7.425   1.614   1.588  1.00  0.00    -0.458 OA
BRANCH  24  25
ATOM     25  C   UNL     1       8.257   2.666   1.772  1.00  0.00     0.338 C 
ATOM     26  O   UNL     1       9.422   2.742   1.423  1.00  0.00    -0.246 OA
BRANCH  25  27
ATOM     27  C   UNL     1       7.534   3.785   2.426  1.00  0.00     0.060 A 
ATOM     28  C   UNL     1       6.158   3.957   2.260  1.00  0.00     0.016 A 
ATOM     29  C   UNL     1       8.260   4.743   3.134  1.00  0.00     0.016 A 
ATOM     30  C   UNL     1       5.528   5.114   2.713  1.00  0.00     0.010 A 
ATOM     31  C   UNL     1       7.606   5.852   3.684  1.00  0.00     0.010 A 
ATOM     32  C   UNL     1       6.237   6.066   3.457  1.00  0.00    -0.014 A 
BRANCH  32  33
ATOM     33  C   UNL     1       5.542   7.267   3.999  1.00  0.00     0.031 A 
ATOM     34  C   UNL     1       6.012   8.655   3.650  1.00  0.00     0.074 A 
ATOM     35  C   UNL     1       4.483   7.117   4.822  1.00  0.00     0.049 A 
ATOM     36  N   UNL     1       5.630   9.805   4.146  1.00  0.00    -0.248 NA
ATOM     37  C   UNL     1       7.061   8.766   2.623  1.00  0.00     0.031 C 
ATOM     38  C   UNL     1       3.913   5.838   5.250  1.00  0.00     0.029 A 
ATOM     39  N   UNL     1       3.692   8.053   5.442  1.00  0.00    -0.354 N 
ATOM     40  C   UNL     1       6.434  10.766   3.546  1.00  0.00     0.074 A 
ATOM     41  C   UNL     1       7.319  10.067   2.640  1.00  0.00     0.031 C 
ATOM     42  C   UNL     1       2.841   6.067   6.022  1.00  0.00     0.029 A 
ATOM     43  C   UNL     1       2.692   7.505   6.209  1.00  0.00     0.049 A 
ATOM     44  H   UNL     1       3.828   9.023   5.346  1.00  0.00     0.167 HD
ATOM     45  C   UNL     1       6.436  12.107   3.737  1.00  0.00     0.037 A 
ATOM     46  C   UNL     1       1.775   8.087   7.004  1.00  0.00     0.037 A 
ATOM     47  C   UNL     1       5.510  12.816   4.582  1.00  0.00     0.049 A 
ATOM     48  C   UNL     1       1.771   9.577   7.163  1.00  0.00     0.074 A 
ATOM     49  C   UNL     1       5.411  14.181   4.797  1.00  0.00     0.029 A 
ATOM     50  N   UNL     1       4.511  12.221   5.335  1.00  0.00    -0.354 N 
ATOM     51  N   UNL     1       2.564  10.465   6.618  1.00  0.00    -0.248 NA
ATOM     52  C   UNL     1       0.758  10.143   8.064  1.00  0.00     0.031 C 
ATOM     53  C   UNL     1       4.365  14.409   5.698  1.00  0.00     0.029 A 
ATOM     54  C   UNL     1       3.795  13.189   6.020  1.00  0.00     0.049 A 
ATOM     55  H   UNL     1       4.335  11.253   5.377  1.00  0.00     0.167 HD
ATOM     56  C   UNL     1       2.153  11.694   7.115  1.00  0.00     0.074 A 
ATOM     57  C   UNL     1       1.018  11.440   7.979  1.00  0.00     0.031 C 
ATOM     58  C   UNL     1       2.678  12.921   6.887  1.00  0.00     0.037 A 
BRANCH  45  59
ATOM     59  C   UNL     1       7.491  12.908   3.036  1.00  0.00     0.057 A 
ATOM     60  C   UNL     1       7.410  13.213   1.672  1.00  0.00     0.134 A 
ATOM     61  C   UNL     1       8.572  13.435   3.756  1.00  0.00     0.134 A 
ATOM     62  F   UNL     1       6.408  12.726   0.926  1.00  0.00    -0.206 F 
ATOM     63  C   UNL     1       8.373  14.007   1.046  1.00  0.00     0.040 A 
ATOM     64  C   UNL     1       9.530  14.246   3.146  1.00  0.00     0.040 A 
ATOM     65  F   UNL     1       8.703  13.183   5.067  1.00  0.00    -0.206 F 
ATOM     66  C   UNL     1       9.432  14.533   1.786  1.00  0.00     0.006 A 
ENDBRANCH  45  59
BRANCH  46  67
ATOM     67  C   UNL     1       0.800   7.244   7.737  1.00  0.00     0.057 A 
ATOM     68  C   UNL     1      -0.547   7.207   7.360  1.00  0.00     0.134 A 
ATOM     69  C   UNL     1       1.194   6.448   8.819  1.00  0.00     0.134 A 
ATOM     70  F   UNL     1      -0.985   7.966   6.345  1.00  0.00    -0.206 F 
ATOM     71  C   UNL     1      -1.471   6.410   8.037  1.00  0.00     0.040 A 
ATOM     72  C   UNL     1       0.286   5.629   9.490  1.00  0.00     0.040 A 
ATOM     73  F   UNL     1       2.473   6.438   9.222  1.00  0.00    -0.206 F 
ATOM     74  C   UNL     1      -1.053   5.612   9.101  1.00  0.00     0.006 A 
ENDBRANCH  46  67
BRANCH  58  75
ATOM     75  C   UNL     1       2.026  14.073   7.586  1.00  0.00     0.057 A 
ATOM     76  C   UNL     1       2.230  14.308   8.951  1.00  0.00     0.134 A 
ATOM     77  C   UNL     1       1.188  14.953   6.892  1.00  0.00     0.134 A 
ATOM     78  F   UNL     1       3.010  13.489   9.673  1.00  0.00    -0.206 F 
ATOM     79  C   UNL     1       1.602  15.367   9.609  1.00  0.00     0.040 A 
ATOM     80  C   UNL     1       0.569  16.026   7.534  1.00  0.00     0.040 A 
ATOM     81  F   UNL     1       0.956  14.783   5.582  1.00  0.00    -0.206 F 
ATOM     82  C   UNL     1       0.770  16.231   8.899  1.00  0.00     0.006 A 
ENDBRANCH  58  75
ENDBRANCH  32  33
ENDBRANCH  25  27
ENDBRANCH  24  25
ENDBRANCH  23  24
ENDBRANCH  22  23
ENDBRANCH   1  22
TORSDOF 17
