REMARK SMILES Cc1ccc(C(=O)NC2CC2)cc1NC(=O)[C@@H]1[C@@H](C(=O)OCCOC(=O)c2ccc(-c3c4nc(c(-c5c(F)cccc5F)c5ccc([nH]5)c(-c5c(F)cccc5F)c5nc(c(-c6c(F)cccc6F)c6ccc3[nH]6)C=C5)C=C4)cc2)[C@H]2C=C[C@@H]1C2
REMARK SMILES IDX 22 1 21 2 19 3 20 4 18 5 17 6 84 7 81 8 83 9 85 10 82 11
REMARK SMILES IDX 15 12 14 13 16 15 13 16 1 17 2 18 3 19 4 20 12 21 5 22 6 23
REMARK SMILES IDX 7 24 8 25 9 27 10 28 11 29 23 30 24 31 25 32 26 33 27 34
REMARK SMILES IDX 28 35 80 36 29 37 79 38 30 39 31 40 32 41 73 42 33 43 78 44
REMARK SMILES IDX 72 45 74 46 34 47 77 48 71 49 70 50 35 52 61 53 44 54 60 55
REMARK SMILES IDX 45 56 48 57 59 58 75 59 46 60 47 61 58 63 76 64 49 65 36 66
REMARK SMILES IDX 37 67 42 68 38 69 39 70 41 71 43 72 40 73 62 74 63 75 68 76
REMARK SMILES IDX 64 77 65 78 67 79 69 80 66 81 50 82 51 83 56 84 52 85 53 86
REMARK SMILES IDX 55 87 57 88 54 89
REMARK H PARENT 14 14 8 26 74 51 48 62
REMARK Flexibility Score: inf
ROOT
ATOM      1  C   UNL     1      -2.672   8.243  -0.857  1.00  0.00     0.274 C 
ENDROOT
BRANCH   1   2
ATOM      2  O   UNL     1      -1.689   7.370  -0.237  1.00  0.00    -0.462 OA
BRANCH   2   3
ATOM      3  C   UNL     1      -2.198   6.684   0.841  1.00  0.00     0.310 C 
ATOM      4  O   UNL     1      -3.360   6.840   1.208  1.00  0.00    -0.252 OA
BRANCH   3   5
ATOM      5  C   UNL     1      -1.180   5.809   1.596  1.00  0.00     0.119 C 
ATOM      6  C   UNL     1      -0.884   4.265   1.250  1.00  0.00     0.100 C 
ATOM      7  C   UNL     1      -1.115   3.583   2.635  1.00  0.00     0.025 C 
ATOM      8  C   UNL     1      -1.736   5.675   3.054  1.00  0.00     0.027 C 
ATOM      9  C   UNL     1      -2.603   3.536   2.839  1.00  0.00    -0.027 C 
ATOM     10  C   UNL     1      -0.749   4.680   3.635  1.00  0.00     0.017 C 
ATOM     11  C   UNL     1      -2.983   4.795   3.084  1.00  0.00    -0.027 C 
BRANCH   6  12
ATOM     12  C   UNL     1       0.538   3.929   0.791  1.00  0.00     0.228 C 
ATOM     13  N   UNL     1       1.032   2.655   0.599  1.00  0.00    -0.326 N 
ATOM     14  H   UNL     1       1.997   2.674   0.406  1.00  0.00     0.169 HD
ATOM     15  O   UNL     1       1.325   4.852   0.548  1.00  0.00    -0.274 OA
BRANCH  13  16
ATOM     16  C   UNL     1       0.535   1.319   0.600  1.00  0.00     0.044 A 
ATOM     17  C   UNL     1       2.876   0.305   0.092  1.00  0.00     0.046 C 
ATOM     18  C   UNL     1       1.386   0.223   0.301  1.00  0.00    -0.027 A 
ATOM     19  C   UNL     1       0.850  -1.088   0.182  1.00  0.00     0.006 A 
ATOM     20  C   UNL     1      -0.514  -1.322   0.271  1.00  0.00     0.014 A 
ATOM     21  C   UNL     1      -0.812   1.024   0.784  1.00  0.00     0.040 A 
ATOM     22  C   UNL     1      -1.349  -0.247   0.525  1.00  0.00     0.041 A 
BRANCH  22  23
ATOM     23  C   UNL     1      -2.809  -0.438   0.347  1.00  0.00     0.251 C 
ATOM     24  O   UNL     1      -3.348  -1.437   0.811  1.00  0.00    -0.269 OA
ATOM     25  N   UNL     1      -3.506   0.484  -0.414  1.00  0.00    -0.349 N 
ATOM     26  H   UNL     1      -4.440   0.255  -0.624  1.00  0.00     0.164 HD
BRANCH  25  27
ATOM     27  C   UNL     1      -3.032   1.728  -0.934  1.00  0.00     0.082 C 
ATOM     28  C   UNL     1      -1.782   1.866  -1.790  1.00  0.00     0.027 C 
ATOM     29  C   UNL     1      -3.114   2.097  -2.377  1.00  0.00     0.027 C 
ENDBRANCH  25  27
ENDBRANCH  22  23
ENDBRANCH  13  16
ENDBRANCH   6  12
ENDBRANCH   3   5
ENDBRANCH   2   3
ENDBRANCH   1   2
BRANCH   1  30
ATOM     30  C   UNL     1      -2.386   8.664  -2.311  1.00  0.00     0.275 C 
BRANCH  30  31
ATOM     31  O   UNL     1      -1.501   7.817  -3.078  1.00  0.00    -0.458 OA
BRANCH  31  32
ATOM     32  C   UNL     1      -1.881   6.645  -3.647  1.00  0.00     0.338 C 
ATOM     33  O   UNL     1      -1.237   6.037  -4.477  1.00  0.00    -0.246 OA
BRANCH  32  34
ATOM     34  C   UNL     1      -3.076   6.050  -3.060  1.00  0.00     0.060 A 
ATOM     35  C   UNL     1      -2.890   5.355  -1.868  1.00  0.00     0.016 A 
ATOM     36  C   UNL     1      -4.333   6.231  -3.623  1.00  0.00     0.016 A 
ATOM     37  C   UNL     1      -3.990   4.890  -1.173  1.00  0.00     0.010 A 
ATOM     38  C   UNL     1      -5.418   5.665  -2.980  1.00  0.00     0.010 A 
ATOM     39  C   UNL     1      -5.229   4.950  -1.788  1.00  0.00    -0.014 A 
BRANCH  39  40
ATOM     40  C   UNL     1      -6.329   4.155  -1.281  1.00  0.00     0.031 A 
ATOM     41  C   UNL     1      -6.820   4.335   0.116  1.00  0.00     0.074 A 
ATOM     42  C   UNL     1      -6.810   3.196  -2.109  1.00  0.00     0.049 A 
ATOM     43  N   UNL     1      -7.401   3.412   0.812  1.00  0.00    -0.248 NA
ATOM     44  C   UNL     1      -6.580   5.551   0.902  1.00  0.00     0.031 C 
ATOM     45  C   UNL     1      -8.127   2.606  -2.023  1.00  0.00     0.029 A 
ATOM     46  N   UNL     1      -6.209   2.511  -3.184  1.00  0.00    -0.354 N 
ATOM     47  C   UNL     1      -7.931   4.026   1.933  1.00  0.00     0.074 A 
ATOM     48  C   UNL     1      -7.228   5.278   2.043  1.00  0.00     0.031 C 
ATOM     49  C   UNL     1      -8.167   1.527  -2.817  1.00  0.00     0.029 A 
ATOM     50  C   UNL     1      -6.812   1.257  -3.291  1.00  0.00     0.049 A 
ATOM     51  H   UNL     1      -5.489   2.856  -3.760  1.00  0.00     0.167 HD
ATOM     52  C   UNL     1      -9.083   3.540   2.485  1.00  0.00     0.037 A 
ATOM     53  C   UNL     1      -6.252   0.007  -3.319  1.00  0.00     0.037 A 
ATOM     54  C   UNL     1      -9.538   2.386   1.723  1.00  0.00     0.049 A 
ATOM     55  C   UNL     1      -6.894  -0.832  -2.217  1.00  0.00     0.074 A 
ATOM     56  C   UNL     1     -10.404   2.320   0.644  1.00  0.00     0.029 A 
ATOM     57  N   UNL     1      -8.858   1.179   1.774  1.00  0.00    -0.354 N 
ATOM     58  N   UNL     1      -7.377  -0.320  -1.114  1.00  0.00    -0.248 NA
ATOM     59  C   UNL     1      -7.054  -2.281  -2.274  1.00  0.00     0.031 C 
ATOM     60  C   UNL     1     -10.236   1.063   0.027  1.00  0.00     0.029 A 
ATOM     61  C   UNL     1      -9.280   0.363   0.742  1.00  0.00     0.049 A 
ATOM     62  H   UNL     1      -8.178   0.939   2.444  1.00  0.00     0.167 HD
ATOM     63  C   UNL     1      -8.046  -1.300  -0.419  1.00  0.00     0.074 A 
ATOM     64  C   UNL     1      -7.750  -2.519  -1.148  1.00  0.00     0.031 C 
ATOM     65  C   UNL     1      -8.854  -1.020   0.650  1.00  0.00     0.037 A 
BRANCH  52  66
ATOM     66  C   UNL     1     -10.019   4.338   3.378  1.00  0.00     0.057 A 
ATOM     67  C   UNL     1     -11.418   4.139   3.316  1.00  0.00     0.134 A 
ATOM     68  C   UNL     1      -9.627   5.350   4.269  1.00  0.00     0.134 A 
ATOM     69  F   UNL     1     -11.960   3.127   2.626  1.00  0.00    -0.206 F 
ATOM     70  C   UNL     1     -12.346   4.966   3.961  1.00  0.00     0.040 A 
ATOM     71  C   UNL     1     -10.547   6.204   4.905  1.00  0.00     0.040 A 
ATOM     72  F   UNL     1      -8.341   5.530   4.596  1.00  0.00    -0.206 F 
ATOM     73  C   UNL     1     -11.913   6.030   4.731  1.00  0.00     0.006 A 
ENDBRANCH  52  66
BRANCH  53  74
ATOM     74  C   UNL     1      -4.906  -0.304  -3.905  1.00  0.00     0.057 A 
ATOM     75  C   UNL     1      -4.477   0.331  -5.090  1.00  0.00     0.134 A 
ATOM     76  C   UNL     1      -3.941  -1.109  -3.271  1.00  0.00     0.134 A 
ATOM     77  F   UNL     1      -5.329   1.082  -5.803  1.00  0.00    -0.206 F 
ATOM     78  C   UNL     1      -3.139   0.303  -5.521  1.00  0.00     0.040 A 
ATOM     79  C   UNL     1      -2.598  -1.147  -3.693  1.00  0.00     0.040 A 
ATOM     80  F   UNL     1      -4.242  -1.793  -2.161  1.00  0.00    -0.206 F 
ATOM     81  C   UNL     1      -2.185  -0.408  -4.799  1.00  0.00     0.006 A 
ENDBRANCH  53  74
BRANCH  65  82
ATOM     82  C   UNL     1      -9.501  -1.991   1.617  1.00  0.00     0.057 A 
ATOM     83  C   UNL     1      -9.030  -3.281   1.877  1.00  0.00     0.134 A 
ATOM     84  C   UNL     1     -10.570  -1.572   2.455  1.00  0.00     0.134 A 
ATOM     85  F   UNL     1      -7.961  -3.780   1.245  1.00  0.00    -0.206 F 
ATOM     86  C   UNL     1      -9.606  -4.108   2.853  1.00  0.00     0.040 A 
ATOM     87  C   UNL     1     -11.109  -2.364   3.470  1.00  0.00     0.040 A 
ATOM     88  F   UNL     1     -11.134  -0.360   2.354  1.00  0.00    -0.206 F 
ATOM     89  C   UNL     1     -10.637  -3.647   3.663  1.00  0.00     0.006 A 
ENDBRANCH  65  82
ENDBRANCH  39  40
ENDBRANCH  32  34
ENDBRANCH  31  32
ENDBRANCH  30  31
ENDBRANCH   1  30
TORSDOF 15
