REMARK SMILES CC[C@](C)(C(=O)OCCOC(=O)c1ccc(-c2c3nc(c(-c4c(F)cccc4F)c4ccc([nH]4)c(-c4c(F)cccc4F)c4nc(c(-c5c(F)cccc5F)c5ccc2[nH]5)C=C4)C=C3)cc1)[C@@H]1CCC[C@@H]1O
REMARK SMILES IDX 8 1 7 2 5 3 6 4 3 5 4 6 2 7 1 8 67 9 68 10 71 11 69 12 70 13
REMARK SMILES IDX 72 14 9 16 10 17 11 18 12 19 13 20 14 21 66 22 15 23 65 24
REMARK SMILES IDX 16 25 17 26 18 27 59 28 19 29 64 30 58 31 60 32 20 33 63 34
REMARK SMILES IDX 57 35 56 36 21 38 47 39 30 40 46 41 31 42 34 43 45 44 61 45
REMARK SMILES IDX 32 46 33 47 44 49 62 50 35 51 22 52 23 53 28 54 24 55 25 56
REMARK SMILES IDX 27 57 29 58 26 59 48 60 49 61 54 62 50 63 51 64 53 65 55 66
REMARK SMILES IDX 52 67 36 68 37 69 42 70 38 71 39 72 41 73 43 74 40 75
REMARK H PARENT 72 15 60 37 34 48
REMARK Flexibility Score: inf
ROOT
ATOM      1  C   UNL     1       4.649   3.177   0.869  1.00  0.00     0.274 C 
ENDROOT
BRANCH   1   2
ATOM      2  O   UNL     1       3.709   2.093   0.700  1.00  0.00    -0.462 OA
BRANCH   2   3
ATOM      3  C   UNL     1       4.049   0.856   1.169  1.00  0.00     0.312 C 
ATOM      4  O   UNL     1       5.027   0.641   1.873  1.00  0.00    -0.252 OA
BRANCH   3   5
ATOM      5  C   UNL     1       3.144  -0.254   0.568  1.00  0.00     0.070 C 
ATOM      6  C   UNL     1       1.909   0.405  -0.115  1.00  0.00     0.024 C 
BRANCH   5   7
ATOM      7  C   UNL     1       3.989  -0.947  -0.543  1.00  0.00     0.015 C 
ATOM      8  C   UNL     1       4.866  -0.034  -1.401  1.00  0.00     0.005 C 
ENDBRANCH   5   7
BRANCH   5   9
ATOM      9  C   UNL     1       2.529  -1.269   1.642  1.00  0.00     0.035 C 
ATOM     10  C   UNL     1       2.666  -0.829   3.107  1.00  0.00     0.007 C 
ATOM     11  C   UNL     1       3.052  -2.711   1.774  1.00  0.00     0.118 C 
ATOM     12  C   UNL     1       3.923  -1.529   3.651  1.00  0.00     0.003 C 
ATOM     13  C   UNL     1       4.312  -2.569   2.606  1.00  0.00     0.032 C 
BRANCH  11  14
ATOM     14  O   UNL     1       3.242  -3.406   0.567  1.00  0.00    -0.393 OA
ATOM     15  H   UNL     1       3.901  -2.942   0.027  1.00  0.00     0.210 HD
ENDBRANCH  11  14
ENDBRANCH   5   9
ENDBRANCH   3   5
ENDBRANCH   2   3
ENDBRANCH   1   2
BRANCH   1  16
ATOM     16  C   UNL     1       4.023   4.283   1.715  1.00  0.00     0.275 C 
BRANCH  16  17
ATOM     17  O   UNL     1       3.977   3.807   3.067  1.00  0.00    -0.458 OA
BRANCH  17  18
ATOM     18  C   UNL     1       2.873   4.088   3.789  1.00  0.00     0.338 C 
ATOM     19  O   UNL     1       1.978   4.869   3.494  1.00  0.00    -0.246 OA
BRANCH  18  20
ATOM     20  C   UNL     1       2.864   3.228   4.996  1.00  0.00     0.060 A 
ATOM     21  C   UNL     1       3.515   1.996   4.977  1.00  0.00     0.016 A 
ATOM     22  C   UNL     1       2.113   3.581   6.118  1.00  0.00     0.016 A 
ATOM     23  C   UNL     1       3.311   1.078   6.005  1.00  0.00     0.010 A 
ATOM     24  C   UNL     1       2.015   2.696   7.205  1.00  0.00     0.010 A 
ATOM     25  C   UNL     1       2.574   1.405   7.148  1.00  0.00    -0.014 A 
BRANCH  25  26
ATOM     26  C   UNL     1       2.323   0.384   8.218  1.00  0.00     0.031 A 
ATOM     27  C   UNL     1       0.924   0.175   8.747  1.00  0.00     0.074 A 
ATOM     28  C   UNL     1       3.298  -0.416   8.704  1.00  0.00     0.049 A 
ATOM     29  N   UNL     1       0.535  -0.388   9.863  1.00  0.00    -0.248 NA
ATOM     30  C   UNL     1      -0.182   0.683   7.919  1.00  0.00     0.031 C 
ATOM     31  C   UNL     1       4.693  -0.444   8.263  1.00  0.00     0.029 A 
ATOM     32  N   UNL     1       3.249  -1.392   9.675  1.00  0.00    -0.354 N 
ATOM     33  C   UNL     1      -0.840  -0.194   9.927  1.00  0.00     0.074 A 
ATOM     34  C   UNL     1      -1.225   0.499   8.717  1.00  0.00     0.031 C 
ATOM     35  C   UNL     1       5.338  -1.440   8.887  1.00  0.00     0.029 A 
ATOM     36  C   UNL     1       4.452  -2.025   9.885  1.00  0.00     0.049 A 
ATOM     37  H   UNL     1       2.429  -1.616  10.173  1.00  0.00     0.167 HD
ATOM     38  C   UNL     1      -1.695  -0.545  10.917  1.00  0.00     0.037 A 
ATOM     39  C   UNL     1       4.833  -2.921  10.816  1.00  0.00     0.037 A 
ATOM     40  C   UNL     1      -1.333  -1.340  12.062  1.00  0.00     0.049 A 
ATOM     41  C   UNL     1       3.874  -3.312  11.903  1.00  0.00     0.074 A 
ATOM     42  C   UNL     1      -2.121  -1.724  13.135  1.00  0.00     0.029 A 
ATOM     43  N   UNL     1      -0.089  -1.919  12.254  1.00  0.00    -0.354 N 
ATOM     44  N   UNL     1       2.625  -2.953  12.070  1.00  0.00    -0.248 NA
ATOM     45  C   UNL     1       4.396  -4.188  12.962  1.00  0.00     0.031 C 
ATOM     46  C   UNL     1      -1.350  -2.532  13.979  1.00  0.00     0.029 A 
ATOM     47  C   UNL     1      -0.092  -2.671  13.417  1.00  0.00     0.049 A 
ATOM     48  H   UNL     1       0.682  -1.813  11.652  1.00  0.00     0.167 HD
ATOM     49  C   UNL     1       2.219  -3.542  13.260  1.00  0.00     0.074 A 
ATOM     50  C   UNL     1       3.340  -4.314  13.753  1.00  0.00     0.031 C 
ATOM     51  C   UNL     1       1.029  -3.433  13.898  1.00  0.00     0.037 A 
BRANCH  38  52
ATOM     52  C   UNL     1      -3.099  -0.025  10.838  1.00  0.00     0.057 A 
ATOM     53  C   UNL     1      -4.054  -0.558   9.967  1.00  0.00     0.134 A 
ATOM     54  C   UNL     1      -3.506   1.013  11.690  1.00  0.00     0.134 A 
ATOM     55  F   UNL     1      -3.723  -1.539   9.114  1.00  0.00    -0.206 F 
ATOM     56  C   UNL     1      -5.362  -0.068   9.933  1.00  0.00     0.040 A 
ATOM     57  C   UNL     1      -4.815   1.495  11.682  1.00  0.00     0.040 A 
ATOM     58  F   UNL     1      -2.640   1.565  12.553  1.00  0.00    -0.206 F 
ATOM     59  C   UNL     1      -5.747   0.957  10.797  1.00  0.00     0.006 A 
ENDBRANCH  38  52
BRANCH  39  60
ATOM     60  C   UNL     1       6.226  -3.438  10.821  1.00  0.00     0.057 A 
ATOM     61  C   UNL     1       6.500  -4.777  10.523  1.00  0.00     0.134 A 
ATOM     62  C   UNL     1       7.313  -2.609  11.124  1.00  0.00     0.134 A 
ATOM     63  F   UNL     1       5.499  -5.630  10.259  1.00  0.00    -0.206 F 
ATOM     64  C   UNL     1       7.806  -5.272  10.522  1.00  0.00     0.040 A 
ATOM     65  C   UNL     1       8.625  -3.081  11.096  1.00  0.00     0.040 A 
ATOM     66  F   UNL     1       7.115  -1.317  11.426  1.00  0.00    -0.206 F 
ATOM     67  C   UNL     1       8.874  -4.419  10.798  1.00  0.00     0.006 A 
ENDBRANCH  39  60
BRANCH  51  68
ATOM     68  C   UNL     1       0.879  -4.175  15.190  1.00  0.00     0.057 A 
ATOM     69  C   UNL     1       1.458  -3.704  16.374  1.00  0.00     0.134 A 
ATOM     70  C   UNL     1       0.134  -5.357  15.255  1.00  0.00     0.134 A 
ATOM     71  F   UNL     1       2.196  -2.583  16.372  1.00  0.00    -0.206 F 
ATOM     72  C   UNL     1       1.315  -4.394  17.578  1.00  0.00     0.040 A 
ATOM     73  C   UNL     1      -0.030  -6.048  16.456  1.00  0.00     0.040 A 
ATOM     74  F   UNL     1      -0.449  -5.857  14.155  1.00  0.00    -0.206 F 
ATOM     75  C   UNL     1       0.566  -5.569  17.622  1.00  0.00     0.006 A 
ENDBRANCH  51  68
ENDBRANCH  25  26
ENDBRANCH  18  20
ENDBRANCH  17  18
ENDBRANCH  16  17
ENDBRANCH   1  16
TORSDOF 14
