REMARK SMILES COc1c(C(=O)OCCOC(=O)c2ccc(-c3c4nc(c(-c5c(F)cccc5F)c5ccc([nH]5)c(-c5c(F)cccc5F)c5nc(c(-c6c(F)cccc6F)c6ccc3[nH]6)C=C5)C=C4)cc2)cccc1-c1cc(C)ccc1C
REMARK SMILES IDX 9 1 8 2 7 3 5 4 6 5 4 6 3 7 70 8 67 9 69 10 68 11 2 12 1 13
REMARK SMILES IDX 71 14 72 15 77 16 73 17 76 18 78 19 74 20 75 21 10 22 11 23
REMARK SMILES IDX 12 24 13 25 14 26 66 27 15 28 65 29 16 30 17 31 18 32 59 33
REMARK SMILES IDX 19 34 64 35 58 36 60 37 20 38 63 39 57 40 56 41 21 43 47 44
REMARK SMILES IDX 30 45 46 46 31 47 34 48 45 49 61 50 32 51 33 52 44 54 62 55
REMARK SMILES IDX 35 56 22 57 23 58 28 59 24 60 25 61 27 62 29 63 26 64 48 65
REMARK SMILES IDX 49 66 54 67 50 68 51 69 53 70 55 71 52 72 36 73 37 74 42 75
REMARK SMILES IDX 38 76 39 77 41 78 43 79 40 80
REMARK H PARENT 60 42 34 53
REMARK Flexibility Score: inf
ROOT
ATOM      1  C   UNL     1      -4.056   1.955   1.619  1.00  0.00     0.275 C 
ENDROOT
BRANCH   1   2
ATOM      2  C   UNL     1      -3.263   2.107   0.322  1.00  0.00     0.275 C 
BRANCH   2   3
ATOM      3  O   UNL     1      -1.850   2.127   0.609  1.00  0.00    -0.458 OA
BRANCH   3   4
ATOM      4  C   UNL     1      -1.178   3.259   0.272  1.00  0.00     0.342 C 
ATOM      5  O   UNL     1      -1.653   4.271  -0.200  1.00  0.00    -0.246 OA
BRANCH   4   6
ATOM      6  C   UNL     1       0.227   3.178   0.747  1.00  0.00     0.102 A 
ATOM      7  C   UNL     1       1.034   2.041   0.584  1.00  0.00     0.141 A 
ATOM      8  C   UNL     1       2.358   2.050   1.083  1.00  0.00     0.025 A 
ATOM      9  C   UNL     1       0.739   4.323   1.378  1.00  0.00     0.019 A 
ATOM     10  C   UNL     1       2.792   3.171   1.826  1.00  0.00     0.012 A 
ATOM     11  C   UNL     1       1.997   4.303   1.963  1.00  0.00     0.002 A 
BRANCH   7  12
ATOM     12  O   UNL     1       0.556   1.038  -0.225  1.00  0.00    -0.495 OA
ATOM     13  C   UNL     1       0.469  -0.227   0.428  1.00  0.00     0.278 C 
ENDBRANCH   7  12
BRANCH   8  14
ATOM     14  C   UNL     1       3.373   1.027   0.762  1.00  0.00    -0.011 A 
ATOM     15  C   UNL     1       3.959   0.279   1.805  1.00  0.00     0.012 A 
ATOM     16  C   UNL     1       3.854   0.844  -0.554  1.00  0.00    -0.043 A 
ATOM     17  C   UNL     1       4.991  -0.638   1.561  1.00  0.00    -0.050 A 
ATOM     18  C   UNL     1       4.855  -0.110  -0.796  1.00  0.00     0.004 A 
ATOM     19  C   UNL     1       3.319   1.620  -1.730  1.00  0.00     0.045 C 
ATOM     20  C   UNL     1       5.642  -1.360   2.704  1.00  0.00     0.044 C 
ATOM     21  C   UNL     1       5.425  -0.834   0.250  1.00  0.00     0.004 A 
ENDBRANCH   8  14
ENDBRANCH   4   6
ENDBRANCH   3   4
ENDBRANCH   2   3
ENDBRANCH   1   2
BRANCH   1  22
ATOM     22  O   UNL     1      -3.898   3.147   2.413  1.00  0.00    -0.458 OA
BRANCH  22  23
ATOM     23  C   UNL     1      -3.327   2.976   3.624  1.00  0.00     0.338 C 
ATOM     24  O   UNL     1      -3.021   1.932   4.175  1.00  0.00    -0.246 OA
BRANCH  23  25
ATOM     25  C   UNL     1      -3.001   4.295   4.184  1.00  0.00     0.060 A 
ATOM     26  C   UNL     1      -1.832   4.908   3.741  1.00  0.00     0.016 A 
ATOM     27  C   UNL     1      -3.736   4.853   5.226  1.00  0.00     0.016 A 
ATOM     28  C   UNL     1      -1.351   6.053   4.369  1.00  0.00     0.010 A 
ATOM     29  C   UNL     1      -3.278   6.033   5.830  1.00  0.00     0.010 A 
ATOM     30  C   UNL     1      -2.058   6.620   5.437  1.00  0.00    -0.014 A 
BRANCH  30  31
ATOM     31  C   UNL     1      -1.449   7.735   6.216  1.00  0.00     0.031 A 
ATOM     32  C   UNL     1      -1.049   7.508   7.652  1.00  0.00     0.074 A 
ATOM     33  C   UNL     1      -1.187   8.926   5.642  1.00  0.00     0.049 A 
ATOM     34  N   UNL     1      -0.592   8.362   8.535  1.00  0.00    -0.248 NA
ATOM     35  C   UNL     1      -1.188   6.136   8.165  1.00  0.00     0.031 C 
ATOM     36  C   UNL     1      -1.462   9.276   4.249  1.00  0.00     0.029 A 
ATOM     37  N   UNL     1      -0.613  10.061   6.163  1.00  0.00    -0.354 N 
ATOM     38  C   UNL     1      -0.441   7.644   9.715  1.00  0.00     0.074 A 
ATOM     39  C   UNL     1      -0.862   6.287   9.440  1.00  0.00     0.031 C 
ATOM     40  C   UNL     1      -1.031  10.526   4.017  1.00  0.00     0.029 A 
ATOM     41  C   UNL     1      -0.502  11.088   5.257  1.00  0.00     0.049 A 
ATOM     42  H   UNL     1      -0.310  10.132   7.097  1.00  0.00     0.167 HD
ATOM     43  C   UNL     1       0.010   8.072  10.919  1.00  0.00     0.037 A 
ATOM     44  C   UNL     1      -0.046  12.347   5.412  1.00  0.00     0.037 A 
ATOM     45  C   UNL     1       0.486   9.404  11.187  1.00  0.00     0.049 A 
ATOM     46  C   UNL     1       0.444  12.801   6.759  1.00  0.00     0.074 A 
ATOM     47  C   UNL     1       0.962   9.928  12.377  1.00  0.00     0.029 A 
ATOM     48  N   UNL     1       0.569  10.416  10.243  1.00  0.00    -0.354 N 
ATOM     49  N   UNL     1       0.531  12.126   7.879  1.00  0.00    -0.248 NA
ATOM     50  C   UNL     1       0.895  14.197   6.864  1.00  0.00     0.031 C 
ATOM     51  C   UNL     1       1.311  11.266  12.159  1.00  0.00     0.029 A 
ATOM     52  C   UNL     1       1.089  11.561  10.824  1.00  0.00     0.049 A 
ATOM     53  H   UNL     1       0.298  10.333   9.300  1.00  0.00     0.167 HD
ATOM     54  C   UNL     1       1.065  13.005   8.813  1.00  0.00     0.074 A 
ATOM     55  C   UNL     1       1.299  14.258   8.125  1.00  0.00     0.031 C 
ATOM     56  C   UNL     1       1.335  12.795  10.124  1.00  0.00     0.037 A 
BRANCH  43  57
ATOM     57  C   UNL     1      -0.019   7.089  12.053  1.00  0.00     0.057 A 
ATOM     58  C   UNL     1       0.887   6.026  12.142  1.00  0.00     0.134 A 
ATOM     59  C   UNL     1      -0.962   7.224  13.081  1.00  0.00     0.134 A 
ATOM     60  F   UNL     1       1.803   5.831  11.181  1.00  0.00    -0.206 F 
ATOM     61  C   UNL     1       0.841   5.116  13.200  1.00  0.00     0.040 A 
ATOM     62  C   UNL     1      -1.001   6.336  14.157  1.00  0.00     0.040 A 
ATOM     63  F   UNL     1      -1.855   8.224  13.059  1.00  0.00    -0.206 F 
ATOM     64  C   UNL     1      -0.102   5.274  14.215  1.00  0.00     0.006 A 
ENDBRANCH  43  57
BRANCH  44  65
ATOM     65  C   UNL     1      -0.044  13.284   4.260  1.00  0.00     0.057 A 
ATOM     66  C   UNL     1       1.155  13.715   3.679  1.00  0.00     0.134 A 
ATOM     67  C   UNL     1      -1.236  13.791   3.729  1.00  0.00     0.134 A 
ATOM     68  F   UNL     1       2.331  13.287   4.161  1.00  0.00    -0.206 F 
ATOM     69  C   UNL     1       1.169  14.627   2.622  1.00  0.00     0.040 A 
ATOM     70  C   UNL     1      -1.238  14.682   2.656  1.00  0.00     0.040 A 
ATOM     71  F   UNL     1      -2.417  13.418   4.243  1.00  0.00    -0.206 F 
ATOM     72  C   UNL     1      -0.032  15.109   2.104  1.00  0.00     0.006 A 
ENDBRANCH  44  65
BRANCH  56  73
ATOM     73  C   UNL     1       1.959  13.927  10.886  1.00  0.00     0.057 A 
ATOM     74  C   UNL     1       1.228  15.062  11.259  1.00  0.00     0.134 A 
ATOM     75  C   UNL     1       3.306  13.871  11.264  1.00  0.00     0.134 A 
ATOM     76  F   UNL     1      -0.063  15.182  10.916  1.00  0.00    -0.206 F 
ATOM     77  C   UNL     1       1.823  16.114  11.959  1.00  0.00     0.040 A 
ATOM     78  C   UNL     1       3.906  14.905  11.984  1.00  0.00     0.040 A 
ATOM     79  F   UNL     1       4.060  12.808  10.945  1.00  0.00    -0.206 F 
ATOM     80  C   UNL     1       3.165  16.035  12.326  1.00  0.00     0.006 A 
ENDBRANCH  56  73
ENDBRANCH  30  31
ENDBRANCH  23  25
ENDBRANCH  22  23
ENDBRANCH   1  22
TORSDOF 13
