REMARK SMILES O=C(Cn1c(SCCOc2ccccc2Cl)nc2ccccc21)OCCOC(=O)c1ccc(-c2c3nc(c(-c4c(F)cccc4F)c4ccc([nH]4)c(-c4c(F)cccc4F)c4nc(c(-c5c(F)cccc5F)c5ccc2[nH]5)C=C4)C=C3)cc1
REMARK SMILES IDX 1 1 2 2 3 3 4 4 5 5 23 6 17 7 18 8 22 9 19 10 21 11 20 12
REMARK SMILES IDX 6 13 7 14 8 15 9 16 10 17 11 18 15 19 12 20 14 21 16 22
REMARK SMILES IDX 13 23 24 24 25 25 26 26 27 27 28 28 29 29 30 30 31 31 83 32
REMARK SMILES IDX 32 33 82 34 33 35 34 36 35 37 76 38 36 39 81 40 75 41 77 42
REMARK SMILES IDX 37 43 80 44 74 45 73 46 38 48 64 49 47 50 63 51 48 52 51 53
REMARK SMILES IDX 62 54 78 55 49 56 50 57 61 59 79 60 52 61 39 62 40 63 45 64
REMARK SMILES IDX 41 65 42 66 44 67 46 68 43 69 65 70 66 71 71 72 67 73 68 74
REMARK SMILES IDX 70 75 72 76 69 77 53 78 54 79 59 80 55 81 56 82 58 83 60 84
REMARK SMILES IDX 57 85
REMARK H PARENT 77 47 51 58
REMARK Flexibility Score: inf
ROOT
ATOM      1  O   UNL     1       3.079  -0.302   2.904  1.00  0.00    -0.250 OA
ATOM      2  C   UNL     1       3.631  -0.704   1.910  1.00  0.00     0.326 C 
ENDROOT
BRANCH   2   3
ATOM      3  C   UNL     1       4.063   0.195   0.785  1.00  0.00     0.247 C 
BRANCH   3   4
ATOM      4  N   UNL     1       4.817   1.388   1.130  1.00  0.00    -0.308 N 
ATOM      5  C   UNL     1       4.388   2.623   1.558  1.00  0.00     0.169 A 
ATOM      6  C   UNL     1       6.115   1.569   0.662  1.00  0.00     0.069 A 
ATOM      7  N   UNL     1       5.315   3.544   1.437  1.00  0.00    -0.222 NA
ATOM      8  C   UNL     1       6.360   2.928   0.821  1.00  0.00     0.090 A 
ATOM      9  C   UNL     1       7.030   0.717   0.029  1.00  0.00     0.028 A 
ATOM     10  C   UNL     1       7.544   3.483   0.321  1.00  0.00     0.030 A 
ATOM     11  C   UNL     1       8.195   1.289  -0.484  1.00  0.00     0.002 A 
ATOM     12  C   UNL     1       8.451   2.651  -0.343  1.00  0.00     0.002 A 
BRANCH   5  13
ATOM     13  S   UNL     1       2.820   3.059   2.114  1.00  0.00    -0.084 SA
BRANCH  13  14
ATOM     14  C   UNL     1       1.722   2.308   0.920  1.00  0.00     0.119 C 
BRANCH  14  15
ATOM     15  C   UNL     1       1.980   2.534  -0.579  1.00  0.00     0.241 C 
BRANCH  15  16
ATOM     16  O   UNL     1       3.232   2.139  -1.143  1.00  0.00    -0.491 OA
BRANCH  16  17
ATOM     17  C   UNL     1       3.940   3.009  -1.929  1.00  0.00     0.137 A 
ATOM     18  C   UNL     1       3.732   4.388  -1.931  1.00  0.00     0.048 A 
ATOM     19  C   UNL     1       4.995   2.492  -2.708  1.00  0.00     0.083 A 
ATOM     20  C   UNL     1       4.566   5.233  -2.666  1.00  0.00     0.004 A 
ATOM     21  C   UNL     1       5.846   3.342  -3.421  1.00  0.00     0.024 A 
ATOM     22  Cl  UNL     1       5.301   0.793  -2.845  1.00  0.00    -0.080 Cl
ATOM     23  C   UNL     1       5.635   4.717  -3.392  1.00  0.00     0.002 A 
ENDBRANCH  16  17
ENDBRANCH  15  16
ENDBRANCH  14  15
ENDBRANCH  13  14
ENDBRANCH   5  13
ENDBRANCH   3   4
ENDBRANCH   2   3
BRANCH   2  24
ATOM     24  O   UNL     1       3.707  -2.048   1.651  1.00  0.00    -0.461 OA
BRANCH  24  25
ATOM     25  C   UNL     1       4.619  -2.594   0.679  1.00  0.00     0.274 C 
BRANCH  25  26
ATOM     26  C   UNL     1       3.951  -2.900  -0.674  1.00  0.00     0.275 C 
BRANCH  26  27
ATOM     27  O   UNL     1       3.219  -1.781  -1.232  1.00  0.00    -0.458 OA
BRANCH  27  28
ATOM     28  C   UNL     1       2.129  -2.116  -1.988  1.00  0.00     0.338 C 
ATOM     29  O   UNL     1       1.729  -3.241  -2.216  1.00  0.00    -0.246 OA
BRANCH  28  30
ATOM     30  C   UNL     1       1.381  -0.902  -2.404  1.00  0.00     0.060 A 
ATOM     31  C   UNL     1       1.917   0.014  -3.306  1.00  0.00     0.016 A 
ATOM     32  C   UNL     1       0.095  -0.686  -1.892  1.00  0.00     0.016 A 
ATOM     33  C   UNL     1       1.229   1.209  -3.572  1.00  0.00     0.010 A 
ATOM     34  C   UNL     1      -0.600   0.507  -2.167  1.00  0.00     0.010 A 
ATOM     35  C   UNL     1      -0.009   1.504  -2.950  1.00  0.00    -0.014 A 
BRANCH  35  36
ATOM     36  C   UNL     1      -0.613   2.852  -3.168  1.00  0.00     0.031 A 
ATOM     37  C   UNL     1      -0.722   3.210  -4.595  1.00  0.00     0.074 A 
ATOM     38  C   UNL     1      -1.053   3.761  -2.252  1.00  0.00     0.049 A 
ATOM     39  N   UNL     1      -0.130   4.188  -5.195  1.00  0.00    -0.248 NA
ATOM     40  C   UNL     1      -1.502   2.325  -5.471  1.00  0.00     0.031 C 
ATOM     41  C   UNL     1      -1.127   3.544  -0.812  1.00  0.00     0.029 A 
ATOM     42  N   UNL     1      -1.541   5.062  -2.374  1.00  0.00    -0.354 N 
ATOM     43  C   UNL     1      -0.678   4.201  -6.467  1.00  0.00     0.074 A 
ATOM     44  C   UNL     1      -1.382   2.954  -6.640  1.00  0.00     0.031 C 
ATOM     45  C   UNL     1      -1.693   4.599  -0.199  1.00  0.00     0.029 A 
ATOM     46  C   UNL     1      -2.062   5.594  -1.186  1.00  0.00     0.049 A 
ATOM     47  H   UNL     1      -1.521   5.563  -3.222  1.00  0.00     0.167 HD
ATOM     48  C   UNL     1      -0.843   5.384  -7.108  1.00  0.00     0.037 A 
ATOM     49  C   UNL     1      -2.738   6.748  -0.923  1.00  0.00     0.037 A 
ATOM     50  C   UNL     1       0.046   6.410  -6.635  1.00  0.00     0.049 A 
ATOM     51  C   UNL     1      -2.374   7.756  -1.937  1.00  0.00     0.074 A 
ATOM     52  C   UNL     1       1.378   6.732  -6.766  1.00  0.00     0.029 A 
ATOM     53  N   UNL     1      -0.449   7.161  -5.610  1.00  0.00    -0.354 N 
ATOM     54  N   UNL     1      -1.248   8.410  -1.923  1.00  0.00    -0.248 NA
ATOM     55  C   UNL     1      -3.181   7.918  -3.143  1.00  0.00     0.031 C 
ATOM     56  C   UNL     1       1.676   7.685  -5.746  1.00  0.00     0.029 A 
ATOM     57  C   UNL     1       0.518   7.928  -5.018  1.00  0.00     0.049 A 
ATOM     58  H   UNL     1      -1.393   7.154  -5.329  1.00  0.00     0.167 HD
ATOM     59  C   UNL     1      -1.007   8.676  -3.251  1.00  0.00     0.074 A 
ATOM     60  C   UNL     1      -2.290   8.533  -3.923  1.00  0.00     0.031 C 
ATOM     61  C   UNL     1       0.253   8.564  -3.750  1.00  0.00     0.037 A 
BRANCH  48  62
ATOM     62  C   UNL     1      -2.161   5.738  -7.750  1.00  0.00     0.057 A 
ATOM     63  C   UNL     1      -3.402   5.250  -7.285  1.00  0.00     0.134 A 
ATOM     64  C   UNL     1      -2.232   6.818  -8.639  1.00  0.00     0.134 A 
ATOM     65  F   UNL     1      -3.487   4.337  -6.307  1.00  0.00    -0.206 F 
ATOM     66  C   UNL     1      -4.627   5.757  -7.718  1.00  0.00     0.040 A 
ATOM     67  C   UNL     1      -3.454   7.374  -9.036  1.00  0.00     0.040 A 
ATOM     68  F   UNL     1      -1.114   7.410  -9.086  1.00  0.00    -0.206 F 
ATOM     69  C   UNL     1      -4.656   6.838  -8.583  1.00  0.00     0.006 A 
ENDBRANCH  48  62
BRANCH  49  70
ATOM     70  C   UNL     1      -3.638   7.107   0.220  1.00  0.00     0.057 A 
ATOM     71  C   UNL     1      -4.339   6.138   0.961  1.00  0.00     0.134 A 
ATOM     72  C   UNL     1      -4.011   8.439   0.487  1.00  0.00     0.134 A 
ATOM     73  F   UNL     1      -4.142   4.828   0.757  1.00  0.00    -0.206 F 
ATOM     74  C   UNL     1      -5.332   6.462   1.897  1.00  0.00     0.040 A 
ATOM     75  C   UNL     1      -5.019   8.777   1.405  1.00  0.00     0.040 A 
ATOM     76  F   UNL     1      -3.450   9.460  -0.177  1.00  0.00    -0.206 F 
ATOM     77  C   UNL     1      -5.690   7.785   2.108  1.00  0.00     0.006 A 
ENDBRANCH  49  70
BRANCH  61  78
ATOM     78  C   UNL     1       1.388   8.971  -2.871  1.00  0.00     0.057 A 
ATOM     79  C   UNL     1       2.146  10.081  -3.268  1.00  0.00     0.134 A 
ATOM     80  C   UNL     1       1.775   8.319  -1.694  1.00  0.00     0.134 A 
ATOM     81  F   UNL     1       1.842  10.737  -4.400  1.00  0.00    -0.206 F 
ATOM     82  C   UNL     1       3.239  10.533  -2.530  1.00  0.00     0.040 A 
ATOM     83  C   UNL     1       2.851   8.782  -0.928  1.00  0.00     0.040 A 
ATOM     84  F   UNL     1       1.151   7.207  -1.276  1.00  0.00    -0.206 F 
ATOM     85  C   UNL     1       3.588   9.889  -1.348  1.00  0.00     0.006 A 
ENDBRANCH  61  78
ENDBRANCH  35  36
ENDBRANCH  28  30
ENDBRANCH  27  28
ENDBRANCH  26  27
ENDBRANCH  25  26
ENDBRANCH  24  25
ENDBRANCH   2  24
TORSDOF 17
