REMARK SMILES O=C(OCCOC(=O)[C@@H]1CCCN(c2ccc3cc(S(=O)(=O)N4CCCCC4)ccc3n2)C1)c1ccc(-c2c3nc(c(-c4c(F)cccc4F)c4ccc([nH]4)c(-c4c(F)cccc4F)c4nc(c(-c5c(F)cccc5F)c5ccc2[nH]5)C=C4)C=C3)cc1
REMARK SMILES IDX 5 1 4 2 3 3 2 4 1 5 34 6 35 7 87 8 36 9 86 10 37 11 38 12
REMARK SMILES IDX 39 13 80 14 40 15 85 16 79 17 81 18 41 19 84 20 78 21 77 22
REMARK SMILES IDX 42 24 68 25 51 26 67 27 52 28 55 29 66 30 82 31 53 32 54 33
REMARK SMILES IDX 65 35 83 36 56 37 43 38 44 39 49 40 45 41 46 42 48 43 50 44
REMARK SMILES IDX 47 45 69 46 70 47 75 48 71 49 72 50 74 51 76 52 73 53 57 54
REMARK SMILES IDX 58 55 63 56 59 57 60 58 62 59 64 60 61 61 6 62 7 63 8 64
REMARK SMILES IDX 9 65 10 66 33 67 11 68 13 69 12 70 14 71 15 72 32 73 16 74
REMARK SMILES IDX 31 75 17 76 30 77 18 78 29 79 19 80 20 81 21 82 22 83 23 84
REMARK SMILES IDX 24 85 28 86 25 87 27 88 26 89
REMARK H PARENT 81 23 55 34
REMARK Flexibility Score: inf
ROOT
ATOM      1  C   UNL     1       3.906  -0.631  -1.718  1.00  0.00     0.274 C 
ENDROOT
BRANCH   1   2
ATOM      2  C   UNL     1       4.192  -1.333  -0.394  1.00  0.00     0.275 C 
BRANCH   2   3
ATOM      3  O   UNL     1       3.023  -1.385   0.466  1.00  0.00    -0.458 OA
BRANCH   3   4
ATOM      4  C   UNL     1       2.480  -0.499   1.333  1.00  0.00     0.338 C 
ATOM      5  O   UNL     1       1.351  -0.721   1.769  1.00  0.00    -0.246 OA
BRANCH   4   6
ATOM      6  C   UNL     1       3.145   0.756   1.802  1.00  0.00     0.060 A 
ATOM      7  C   UNL     1       4.517   0.907   1.985  1.00  0.00     0.016 A 
ATOM      8  C   UNL     1       2.310   1.829   2.194  1.00  0.00     0.016 A 
ATOM      9  C   UNL     1       5.043   2.130   2.442  1.00  0.00     0.010 A 
ATOM     10  C   UNL     1       2.832   3.034   2.704  1.00  0.00     0.010 A 
ATOM     11  C   UNL     1       4.213   3.208   2.813  1.00  0.00    -0.014 A 
BRANCH  11  12
ATOM     12  C   UNL     1       4.845   4.401   3.459  1.00  0.00     0.031 A 
ATOM     13  C   UNL     1       5.576   4.177   4.750  1.00  0.00     0.074 A 
ATOM     14  C   UNL     1       4.877   5.632   2.908  1.00  0.00     0.049 A 
ATOM     15  N   UNL     1       6.489   4.907   5.333  1.00  0.00    -0.248 NA
ATOM     16  C   UNL     1       5.219   2.947   5.474  1.00  0.00     0.031 C 
ATOM     17  C   UNL     1       4.165   6.038   1.708  1.00  0.00     0.029 A 
ATOM     18  N   UNL     1       5.617   6.752   3.240  1.00  0.00    -0.354 N 
ATOM     19  C   UNL     1       6.822   4.220   6.490  1.00  0.00     0.074 A 
ATOM     20  C   UNL     1       6.045   2.998   6.504  1.00  0.00     0.031 C 
ATOM     21  C   UNL     1       4.631   7.226   1.292  1.00  0.00     0.029 A 
ATOM     22  C   UNL     1       5.638   7.701   2.235  1.00  0.00     0.049 A 
ATOM     23  H   UNL     1       6.080   6.861   4.102  1.00  0.00     0.167 HD
ATOM     24  C   UNL     1       7.643   4.603   7.495  1.00  0.00     0.037 A 
ATOM     25  C   UNL     1       6.433   8.779   2.058  1.00  0.00     0.037 A 
ATOM     26  C   UNL     1       8.280   5.887   7.572  1.00  0.00     0.049 A 
ATOM     27  C   UNL     1       7.430   9.136   3.133  1.00  0.00     0.074 A 
ATOM     28  C   UNL     1       8.949   6.453   8.642  1.00  0.00     0.029 A 
ATOM     29  N   UNL     1       8.289   6.826   6.551  1.00  0.00    -0.354 N 
ATOM     30  N   UNL     1       7.765   8.475   4.215  1.00  0.00    -0.248 NA
ATOM     31  C   UNL     1       8.154  10.404   2.960  1.00  0.00     0.031 C 
ATOM     32  C   UNL     1       9.294   7.764   8.293  1.00  0.00     0.029 A 
ATOM     33  C   UNL     1       8.934   7.979   6.973  1.00  0.00     0.049 A 
ATOM     34  H   UNL     1       7.894   6.693   5.659  1.00  0.00     0.167 HD
ATOM     35  C   UNL     1       8.677   9.282   4.889  1.00  0.00     0.074 A 
ATOM     36  C   UNL     1       8.955  10.404   4.017  1.00  0.00     0.031 C 
ATOM     37  C   UNL     1       9.184   9.134   6.142  1.00  0.00     0.037 A 
BRANCH  24  38
ATOM     38  C   UNL     1       7.728   3.663   8.658  1.00  0.00     0.057 A 
ATOM     39  C   UNL     1       8.457   2.469   8.597  1.00  0.00     0.134 A 
ATOM     40  C   UNL     1       6.977   3.910   9.813  1.00  0.00     0.134 A 
ATOM     41  F   UNL     1       9.158   2.154   7.498  1.00  0.00    -0.206 F 
ATOM     42  C   UNL     1       8.412   1.539   9.638  1.00  0.00     0.040 A 
ATOM     43  C   UNL     1       6.938   2.997  10.866  1.00  0.00     0.040 A 
ATOM     44  F   UNL     1       6.240   5.026   9.919  1.00  0.00    -0.206 F 
ATOM     45  C   UNL     1       7.649   1.802  10.775  1.00  0.00     0.006 A 
ENDBRANCH  24  38
BRANCH  25  46
ATOM     46  C   UNL     1       6.432   9.535   0.765  1.00  0.00     0.057 A 
ATOM     47  C   UNL     1       7.582   9.564  -0.043  1.00  0.00     0.134 A 
ATOM     48  C   UNL     1       5.321  10.245   0.298  1.00  0.00     0.134 A 
ATOM     49  F   UNL     1       8.710   8.960   0.362  1.00  0.00    -0.206 F 
ATOM     50  C   UNL     1       7.624  10.251  -1.258  1.00  0.00     0.040 A 
ATOM     51  C   UNL     1       5.342  10.924  -0.925  1.00  0.00     0.040 A 
ATOM     52  F   UNL     1       4.191  10.285   1.018  1.00  0.00    -0.206 F 
ATOM     53  C   UNL     1       6.496  10.928  -1.707  1.00  0.00     0.006 A 
ENDBRANCH  25  46
BRANCH  37  54
ATOM     54  C   UNL     1      10.040  10.252   6.699  1.00  0.00     0.057 A 
ATOM     55  C   UNL     1       9.561  11.566   6.818  1.00  0.00     0.134 A 
ATOM     56  C   UNL     1      11.341  10.020   7.168  1.00  0.00     0.134 A 
ATOM     57  F   UNL     1       8.306  11.871   6.454  1.00  0.00    -0.206 F 
ATOM     58  C   UNL     1      10.369  12.609   7.280  1.00  0.00     0.040 A 
ATOM     59  C   UNL     1      12.155  11.049   7.645  1.00  0.00     0.040 A 
ATOM     60  F   UNL     1      11.846   8.778   7.204  1.00  0.00    -0.206 F 
ATOM     61  C   UNL     1      11.675  12.353   7.684  1.00  0.00     0.006 A 
ENDBRANCH  37  54
ENDBRANCH  11  12
ENDBRANCH   4   6
ENDBRANCH   3   4
ENDBRANCH   2   3
ENDBRANCH   1   2
BRANCH   1  62
ATOM     62  O   UNL     1       3.663   0.739  -1.403  1.00  0.00    -0.462 OA
BRANCH  62  63
ATOM     63  C   UNL     1       2.911   1.485  -2.255  1.00  0.00     0.310 C 
ATOM     64  O   UNL     1       2.451   1.085  -3.314  1.00  0.00    -0.252 OA
BRANCH  63  65
ATOM     65  C   UNL     1       2.603   2.821  -1.603  1.00  0.00     0.118 C 
ATOM     66  C   UNL     1       2.180   3.931  -2.571  1.00  0.00     0.019 C 
ATOM     67  C   UNL     1       3.772   3.285  -0.748  1.00  0.00     0.133 C 
ATOM     68  C   UNL     1       3.362   4.609  -3.279  1.00  0.00     0.022 C 
ATOM     69  N   UNL     1       4.857   3.812  -1.567  1.00  0.00    -0.356 N 
ATOM     70  C   UNL     1       4.495   5.003  -2.320  1.00  0.00     0.118 C 
BRANCH  69  71
ATOM     71  C   UNL     1       6.103   3.761  -0.942  1.00  0.00     0.129 A 
ATOM     72  C   UNL     1       6.729   2.522  -0.805  1.00  0.00     0.047 A 
ATOM     73  N   UNL     1       6.661   4.875  -0.437  1.00  0.00    -0.231 NA
ATOM     74  C   UNL     1       7.941   2.417  -0.130  1.00  0.00     0.014 A 
ATOM     75  C   UNL     1       7.817   4.769   0.254  1.00  0.00     0.073 A 
ATOM     76  C   UNL     1       8.512   3.559   0.424  1.00  0.00     0.002 A 
ATOM     77  C   UNL     1       8.366   5.895   0.841  1.00  0.00     0.030 A 
ATOM     78  C   UNL     1       9.740   3.524   1.116  1.00  0.00     0.032 A 
ATOM     79  C   UNL     1       9.564   5.877   1.565  1.00  0.00     0.024 A 
ATOM     80  C   UNL     1      10.277   4.692   1.671  1.00  0.00     0.083 A 
BRANCH  80  81
ATOM     81  S   UNL     1      11.911   4.575   2.378  1.00  0.00     0.243 S 
ATOM     82  O   UNL     1      11.762   3.866   3.631  1.00  0.00    -0.207 OA
ATOM     83  O   UNL     1      12.747   4.045   1.320  1.00  0.00    -0.207 OA
BRANCH  81  84
ATOM     84  N   UNL     1      12.469   6.150   2.708  1.00  0.00    -0.198 NA
ATOM     85  C   UNL     1      12.715   7.039   1.546  1.00  0.00     0.102 C 
ATOM     86  C   UNL     1      11.975   6.788   3.951  1.00  0.00     0.102 C 
ATOM     87  C   UNL     1      13.498   8.290   1.934  1.00  0.00     0.017 C 
ATOM     88  C   UNL     1      12.822   8.006   4.290  1.00  0.00     0.017 C 
ATOM     89  C   UNL     1      12.874   8.985   3.132  1.00  0.00     0.003 C 
ENDBRANCH  81  84
ENDBRANCH  80  81
ENDBRANCH  69  71
ENDBRANCH  63  65
ENDBRANCH  62  63
ENDBRANCH   1  62
TORSDOF 14
