REMARK SMILES CSc1ccc(C[C@H]([NH3+])C(=O)OCCOC(=O)c2ccc(-c3c4nc(c(-c5c(F)cccc5F)c5ccc([nH]5)c(-c5c(F)cccc5F)c5nc(c(-c6c(F)cccc6F)c6ccc3[nH]6)C=C5)C=C4)cc2)cc1
REMARK SMILES IDX 13 1 12 2 10 3 11 4 8 5 7 6 6 7 3 8 4 9 73 10 5 11 72 12
REMARK SMILES IDX 2 13 1 14 9 15 14 19 15 20 16 21 17 22 18 23 19 24 71 25
REMARK SMILES IDX 20 26 70 27 21 28 22 29 23 30 64 31 24 32 69 33 63 34 65 35
REMARK SMILES IDX 25 36 68 37 62 38 61 39 26 41 52 42 35 43 51 44 36 45 39 46
REMARK SMILES IDX 50 47 66 48 37 49 38 50 49 52 67 53 40 54 27 55 28 56 33 57
REMARK SMILES IDX 29 58 30 59 32 60 34 61 31 62 53 63 54 64 59 65 55 66 56 67
REMARK SMILES IDX 58 68 60 69 57 70 41 71 42 72 47 73 43 74 44 75 46 76 48 77
REMARK SMILES IDX 45 78
REMARK H PARENT 9 16 9 17 9 18 65 40 39 51
REMARK Flexibility Score: inf
ROOT
ATOM      1  C   UNL     1       2.573 -10.491   3.462  1.00  0.00     0.274 C 
ENDROOT
BRANCH   1   2
ATOM      2  O   UNL     1       2.254  -9.187   2.949  1.00  0.00    -0.458 OA
BRANCH   2   3
ATOM      3  C   UNL     1       1.197  -8.535   3.513  1.00  0.00     0.365 C 
ATOM      4  O   UNL     1       0.527  -8.960   4.449  1.00  0.00    -0.245 OA
BRANCH   3   5
ATOM      5  C   UNL     1       0.931  -7.169   2.843  1.00  0.00     0.296 C 
BRANCH   5   6
ATOM      6  C   UNL     1      -0.250  -7.204   1.850  1.00  0.00     0.113 C 
BRANCH   6   7
ATOM      7  C   UNL     1      -0.583  -8.582   1.332  1.00  0.00    -0.041 A 
ATOM      8  C   UNL     1      -0.988 -11.284   0.683  1.00  0.00     0.007 A 
ATOM      9  C   UNL     1       0.097 -10.584   0.147  1.00  0.00     0.015 A 
ATOM     10  C   UNL     1      -1.885 -10.618   1.521  1.00  0.00     0.015 A 
ATOM     11  C   UNL     1       0.290  -9.236   0.456  1.00  0.00     0.005 A 
ATOM     12  C   UNL     1      -1.689  -9.274   1.841  1.00  0.00     0.005 A 
BRANCH   8  13
ATOM     13  S   UNL     1      -1.210 -13.031   0.401  1.00  0.00    -0.130 SA
ATOM     14  C   UNL     1      -1.208 -13.057  -1.408  1.00  0.00     0.091 C 
ENDBRANCH   8  13
ENDBRANCH   6   7
ENDBRANCH   5   6
BRANCH   5  15
ATOM     15  N   UNL     1       2.158  -6.604   2.222  1.00  0.00    -0.346 N 
ATOM     16  H   UNL     1       2.465  -7.212   1.462  1.00  0.00     0.345 HD
ATOM     17  H   UNL     1       2.895  -6.537   2.923  1.00  0.00     0.345 HD
ATOM     18  H   UNL     1       1.954  -5.675   1.852  1.00  0.00     0.345 HD
ENDBRANCH   5  15
ENDBRANCH   3   5
ENDBRANCH   2   3
ENDBRANCH   1   2
BRANCH   1  19
ATOM     19  C   UNL     1       3.766 -10.434   4.420  1.00  0.00     0.275 C 
BRANCH  19  20
ATOM     20  O   UNL     1       3.418  -9.795   5.662  1.00  0.00    -0.458 OA
BRANCH  20  21
ATOM     21  C   UNL     1       3.536  -8.446   5.662  1.00  0.00     0.338 C 
ATOM     22  O   UNL     1       3.983  -7.740   4.771  1.00  0.00    -0.246 OA
BRANCH  21  23
ATOM     23  C   UNL     1       2.862  -7.887   6.847  1.00  0.00     0.060 A 
ATOM     24  C   UNL     1       1.985  -6.820   6.629  1.00  0.00     0.016 A 
ATOM     25  C   UNL     1       3.109  -8.349   8.142  1.00  0.00     0.016 A 
ATOM     26  C   UNL     1       1.355  -6.203   7.701  1.00  0.00     0.010 A 
ATOM     27  C   UNL     1       2.483  -7.720   9.224  1.00  0.00     0.010 A 
ATOM     28  C   UNL     1       1.617  -6.634   9.007  1.00  0.00    -0.014 A 
BRANCH  28  29
ATOM     29  C   UNL     1       1.035  -5.862  10.127  1.00  0.00     0.031 A 
ATOM     30  C   UNL     1       1.881  -4.855  10.848  1.00  0.00     0.074 A 
ATOM     31  C   UNL     1      -0.270  -5.996  10.422  1.00  0.00     0.049 A 
ATOM     32  N   UNL     1       1.549  -4.031  11.808  1.00  0.00    -0.248 NA
ATOM     33  C   UNL     1       3.288  -4.759  10.428  1.00  0.00     0.031 C 
ATOM     34  C   UNL     1      -1.196  -6.913   9.756  1.00  0.00     0.029 A 
ATOM     35  N   UNL     1      -1.046  -5.344  11.345  1.00  0.00    -0.354 N 
ATOM     36  C   UNL     1       2.704  -3.322  12.111  1.00  0.00     0.074 A 
ATOM     37  C   UNL     1       3.752  -3.830  11.251  1.00  0.00     0.031 C 
ATOM     38  C   UNL     1      -2.421  -6.754  10.284  1.00  0.00     0.029 A 
ATOM     39  C   UNL     1      -2.358  -5.745  11.339  1.00  0.00     0.049 A 
ATOM     40  H   UNL     1      -0.695  -4.654  11.953  1.00  0.00     0.167 HD
ATOM     41  C   UNL     1       2.871  -2.332  13.020  1.00  0.00     0.037 A 
ATOM     42  C   UNL     1      -3.391  -5.345  12.104  1.00  0.00     0.037 A 
ATOM     43  C   UNL     1       1.825  -1.828  13.870  1.00  0.00     0.049 A 
ATOM     44  C   UNL     1      -3.168  -4.270  13.131  1.00  0.00     0.074 A 
ATOM     45  C   UNL     1       1.894  -0.829  14.826  1.00  0.00     0.029 A 
ATOM     46  N   UNL     1       0.516  -2.288  13.866  1.00  0.00    -0.354 N 
ATOM     47  N   UNL     1      -2.073  -3.604  13.408  1.00  0.00    -0.248 NA
ATOM     48  C   UNL     1      -4.327  -3.888  13.949  1.00  0.00     0.031 C 
ATOM     49  C   UNL     1       0.634  -0.710  15.425  1.00  0.00     0.029 A 
ATOM     50  C   UNL     1      -0.229  -1.604  14.813  1.00  0.00     0.049 A 
ATOM     51  H   UNL     1       0.169  -2.995  13.277  1.00  0.00     0.167 HD
ATOM     52  C   UNL     1      -2.413  -2.715  14.419  1.00  0.00     0.074 A 
ATOM     53  C   UNL     1      -3.823  -2.911  14.689  1.00  0.00     0.031 C 
ATOM     54  C   UNL     1      -1.630  -1.819  15.069  1.00  0.00     0.037 A 
BRANCH  41  55
ATOM     55  C   UNL     1       4.248  -1.752  13.155  1.00  0.00     0.057 A 
ATOM     56  C   UNL     1       4.793  -0.904  12.183  1.00  0.00     0.134 A 
ATOM     57  C   UNL     1       5.033  -2.037  14.280  1.00  0.00     0.134 A 
ATOM     58  F   UNL     1       4.101  -0.607  11.073  1.00  0.00    -0.206 F 
ATOM     59  C   UNL     1       6.079  -0.376  12.316  1.00  0.00     0.040 A 
ATOM     60  C   UNL     1       6.310  -1.497  14.434  1.00  0.00     0.040 A 
ATOM     61  F   UNL     1       4.569  -2.843  15.247  1.00  0.00    -0.206 F 
ATOM     62  C   UNL     1       6.839  -0.668  13.447  1.00  0.00     0.006 A 
ENDBRANCH  41  55
BRANCH  42  63
ATOM     63  C   UNL     1      -4.728  -5.964  11.929  1.00  0.00     0.057 A 
ATOM     64  C   UNL     1      -5.800  -5.242  11.393  1.00  0.00     0.134 A 
ATOM     65  C   UNL     1      -4.967  -7.290  12.308  1.00  0.00     0.134 A 
ATOM     66  F   UNL     1      -5.637  -3.960  11.032  1.00  0.00    -0.206 F 
ATOM     67  C   UNL     1      -7.066  -5.811  11.253  1.00  0.00     0.040 A 
ATOM     68  C   UNL     1      -6.222  -7.880  12.152  1.00  0.00     0.040 A 
ATOM     69  F   UNL     1      -3.981  -8.034  12.829  1.00  0.00    -0.206 F 
ATOM     70  C   UNL     1      -7.278  -7.137  11.629  1.00  0.00     0.006 A 
ENDBRANCH  42  63
BRANCH  54  71
ATOM     71  C   UNL     1      -2.295  -0.976  16.117  1.00  0.00     0.057 A 
ATOM     72  C   UNL     1      -2.686  -1.508  17.352  1.00  0.00     0.134 A 
ATOM     73  C   UNL     1      -2.541   0.384  15.890  1.00  0.00     0.134 A 
ATOM     74  F   UNL     1      -2.490  -2.807  17.625  1.00  0.00    -0.206 F 
ATOM     75  C   UNL     1      -3.328  -0.725  18.312  1.00  0.00     0.040 A 
ATOM     76  C   UNL     1      -3.160   1.183  16.852  1.00  0.00     0.040 A 
ATOM     77  F   UNL     1      -2.183   0.957  14.731  1.00  0.00    -0.206 F 
ATOM     78  C   UNL     1      -3.563   0.626  18.064  1.00  0.00     0.006 A 
ENDBRANCH  54  71
ENDBRANCH  28  29
ENDBRANCH  21  23
ENDBRANCH  20  21
ENDBRANCH  19  20
ENDBRANCH   1  19
TORSDOF 15
