REMARK SMILES CCCN(c1cccc(Cl)c1/C=C/C(=O)OCCOC(=O)c1ccc(-c2c3nc(c(-c4c(F)cccc4F)c4ccc([nH]4)c(-c4c(F)cccc4F)c4nc(c(-c5c(F)cccc5F)c5ccc2[nH]5)C=C4)C=C3)cc1)C1CC1
REMARK SMILES IDX 17 1 16 2 14 3 15 4 13 5 12 6 11 7 5 8 6 9 7 10 9 11 8 12
REMARK SMILES IDX 10 13 4 14 3 15 2 16 1 17 76 18 77 19 78 20 18 21 19 22
REMARK SMILES IDX 20 23 21 24 22 25 23 26 75 27 24 28 74 29 25 30 26 31 27 32
REMARK SMILES IDX 68 33 28 34 73 35 67 36 69 37 29 38 72 39 66 40 65 41 30 43
REMARK SMILES IDX 56 44 39 45 55 46 40 47 43 48 54 49 70 50 41 51 42 52 53 54
REMARK SMILES IDX 71 55 44 56 31 57 32 58 37 59 33 60 34 61 36 62 38 63 35 64
REMARK SMILES IDX 57 65 58 66 63 67 59 68 60 69 62 70 64 71 61 72 45 73 46 74
REMARK SMILES IDX 51 75 47 76 48 77 50 78 52 79 49 80
REMARK H PARENT 69 42 43 53
REMARK Flexibility Score: inf
ROOT
ATOM      1  C   UNL     1      -2.607  -2.043   3.873  1.00  0.00     0.275 C 
ENDROOT
BRANCH   1   2
ATOM      2  O   UNL     1      -2.396  -2.514   2.527  1.00  0.00    -0.459 OA
BRANCH   2   3
ATOM      3  C   UNL     1      -2.206  -1.560   1.586  1.00  0.00     0.330 C 
ATOM      4  O   UNL     1      -2.206  -0.350   1.765  1.00  0.00    -0.247 OA
BRANCH   3   5
ATOM      5  C   UNL     1      -1.990  -2.134   0.245  1.00  0.00     0.094 C 
ATOM      6  C   UNL     1      -1.698  -3.419  -0.005  1.00  0.00     0.019 C 
BRANCH   6   7
ATOM      7  C   UNL     1      -1.443  -3.905  -1.379  1.00  0.00     0.017 A 
ATOM      8  C   UNL     1      -0.334  -3.451  -2.148  1.00  0.00     0.046 A 
ATOM      9  C   UNL     1      -0.198  -3.931  -3.467  1.00  0.00     0.026 A 
ATOM     10  C   UNL     1      -1.100  -4.841  -4.017  1.00  0.00     0.004 A 
ATOM     11  C   UNL     1      -2.344  -4.830  -1.952  1.00  0.00     0.050 A 
ATOM     12  C   UNL     1      -2.171  -5.294  -3.258  1.00  0.00     0.021 A 
ATOM     13  Cl  UNL     1      -3.719  -5.437  -1.084  1.00  0.00    -0.084 Cl
BRANCH   8  14
ATOM     14  N   UNL     1       0.676  -2.620  -1.614  1.00  0.00    -0.368 N 
BRANCH  14  15
ATOM     15  C   UNL     1       1.204  -1.486  -2.386  1.00  0.00     0.116 C 
BRANCH  15  16
ATOM     16  C   UNL     1       0.200  -0.332  -2.494  1.00  0.00     0.018 C 
ATOM     17  C   UNL     1       0.236   0.592  -1.286  1.00  0.00     0.006 C 
ENDBRANCH  15  16
ENDBRANCH  14  15
BRANCH  14  18
ATOM     18  C   UNL     1       1.375  -3.032  -0.387  1.00  0.00     0.082 C 
ATOM     19  C   UNL     1       1.963  -4.411  -0.241  1.00  0.00     0.027 C 
ATOM     20  C   UNL     1       2.867  -3.221  -0.329  1.00  0.00     0.027 C 
ENDBRANCH  14  18
ENDBRANCH   8  14
ENDBRANCH   6   7
ENDBRANCH   3   5
ENDBRANCH   2   3
ENDBRANCH   1   2
BRANCH   1  21
ATOM     21  C   UNL     1      -1.364  -2.313   4.712  1.00  0.00     0.275 C 
BRANCH  21  22
ATOM     22  O   UNL     1      -0.279  -1.519   4.204  1.00  0.00    -0.458 OA
BRANCH  22  23
ATOM     23  C   UNL     1       0.917  -2.145   4.133  1.00  0.00     0.338 C 
ATOM     24  O   UNL     1       1.191  -3.274   4.497  1.00  0.00    -0.246 OA
BRANCH  23  25
ATOM     25  C   UNL     1       1.908  -1.233   3.536  1.00  0.00     0.060 A 
ATOM     26  C   UNL     1       1.691  -0.698   2.268  1.00  0.00     0.016 A 
ATOM     27  C   UNL     1       3.118  -1.014   4.195  1.00  0.00     0.016 A 
ATOM     28  C   UNL     1       2.728  -0.033   1.613  1.00  0.00     0.010 A 
ATOM     29  C   UNL     1       4.119  -0.261   3.573  1.00  0.00     0.010 A 
ATOM     30  C   UNL     1       3.953   0.201   2.256  1.00  0.00    -0.014 A 
BRANCH  30  31
ATOM     31  C   UNL     1       5.075   0.871   1.539  1.00  0.00     0.031 A 
ATOM     32  C   UNL     1       6.386   0.152   1.340  1.00  0.00     0.074 A 
ATOM     33  C   UNL     1       4.931   2.115   1.039  1.00  0.00     0.049 A 
ATOM     34  N   UNL     1       7.531   0.619   0.907  1.00  0.00    -0.248 NA
ATOM     35  C   UNL     1       6.411  -1.281   1.675  1.00  0.00     0.031 C 
ATOM     36  C   UNL     1       3.709   2.917   1.091  1.00  0.00     0.029 A 
ATOM     37  N   UNL     1       5.828   2.921   0.379  1.00  0.00    -0.354 N 
ATOM     38  C   UNL     1       8.422  -0.445   0.967  1.00  0.00     0.074 A 
ATOM     39  C   UNL     1       7.686  -1.584   1.473  1.00  0.00     0.031 C 
ATOM     40  C   UNL     1       3.920   4.082   0.457  1.00  0.00     0.029 A 
ATOM     41  C   UNL     1       5.314   4.146   0.030  1.00  0.00     0.049 A 
ATOM     42  H   UNL     1       6.752   2.646   0.176  1.00  0.00     0.167 HD
ATOM     43  C   UNL     1       9.735  -0.472   0.634  1.00  0.00     0.037 A 
ATOM     44  C   UNL     1       5.903   5.218  -0.532  1.00  0.00     0.037 A 
ATOM     45  C   UNL     1      10.464   0.640   0.084  1.00  0.00     0.049 A 
ATOM     46  C   UNL     1       7.371   5.183  -0.845  1.00  0.00     0.074 A 
ATOM     47  C   UNL     1      11.801   0.705  -0.273  1.00  0.00     0.029 A 
ATOM     48  N   UNL     1       9.913   1.877  -0.208  1.00  0.00    -0.354 N 
ATOM     49  N   UNL     1       8.222   4.197  -0.705  1.00  0.00    -0.248 NA
ATOM     50  C   UNL     1       7.967   6.423  -1.365  1.00  0.00     0.031 C 
ATOM     51  C   UNL     1      12.063   1.990  -0.761  1.00  0.00     0.029 A 
ATOM     52  C   UNL     1      10.883   2.714  -0.735  1.00  0.00     0.049 A 
ATOM     53  H   UNL     1       8.971   2.124  -0.063  1.00  0.00     0.167 HD
ATOM     54  C   UNL     1       9.449   4.693  -1.125  1.00  0.00     0.074 A 
ATOM     55  C   UNL     1       9.230   6.062  -1.543  1.00  0.00     0.031 C 
ATOM     56  C   UNL     1      10.652   4.071  -1.152  1.00  0.00     0.037 A 
BRANCH  43  57
ATOM     57  C   UNL     1      10.484  -1.746   0.886  1.00  0.00     0.057 A 
ATOM     58  C   UNL     1      10.358  -2.859   0.048  1.00  0.00     0.134 A 
ATOM     59  C   UNL     1      11.373  -1.842   1.965  1.00  0.00     0.134 A 
ATOM     60  F   UNL     1       9.512  -2.834  -0.993  1.00  0.00    -0.206 F 
ATOM     61  C   UNL     1      11.080  -4.031   0.283  1.00  0.00     0.040 A 
ATOM     62  C   UNL     1      12.114  -3.001   2.199  1.00  0.00     0.040 A 
ATOM     63  F   UNL     1      11.542  -0.807   2.802  1.00  0.00    -0.206 F 
ATOM     64  C   UNL     1      11.965  -4.101   1.357  1.00  0.00     0.006 A 
ENDBRANCH  43  57
BRANCH  44  65
ATOM     65  C   UNL     1       5.110   6.444  -0.796  1.00  0.00     0.057 A 
ATOM     66  C   UNL     1       4.801   6.836  -2.103  1.00  0.00     0.134 A 
ATOM     67  C   UNL     1       4.652   7.256   0.249  1.00  0.00     0.134 A 
ATOM     68  F   UNL     1       5.236   6.112  -3.145  1.00  0.00    -0.206 F 
ATOM     69  C   UNL     1       4.071   7.997  -2.363  1.00  0.00     0.040 A 
ATOM     70  C   UNL     1       3.901   8.405   0.005  1.00  0.00     0.040 A 
ATOM     71  F   UNL     1       4.920   6.934   1.523  1.00  0.00    -0.206 F 
ATOM     72  C   UNL     1       3.613   8.781  -1.305  1.00  0.00     0.006 A 
ENDBRANCH  44  65
BRANCH  56  73
ATOM     73  C   UNL     1      11.817   4.857  -1.671  1.00  0.00     0.057 A 
ATOM     74  C   UNL     1      12.445   5.837  -0.893  1.00  0.00     0.134 A 
ATOM     75  C   UNL     1      12.335   4.609  -2.948  1.00  0.00     0.134 A 
ATOM     76  F   UNL     1      11.986   6.129   0.333  1.00  0.00    -0.206 F 
ATOM     77  C   UNL     1      13.541   6.555  -1.374  1.00  0.00     0.040 A 
ATOM     78  C   UNL     1      13.440   5.309  -3.434  1.00  0.00     0.040 A 
ATOM     79  F   UNL     1      11.779   3.680  -3.740  1.00  0.00    -0.206 F 
ATOM     80  C   UNL     1      14.044   6.288  -2.647  1.00  0.00     0.006 A 
ENDBRANCH  56  73
ENDBRANCH  30  31
ENDBRANCH  23  25
ENDBRANCH  22  23
ENDBRANCH  21  22
ENDBRANCH   1  21
TORSDOF 16
