REMARK SMILES CCC1(CC)CCN(c2nc(C(C)C)c(C(=O)OCCOC(=O)c3ccc(-c4c5nc(c(-c6c(F)cccc6F)c6ccc([nH]6)c(-c6c(F)cccc6F)c6nc(c(-c7c(F)cccc7F)c7ccc4[nH]7)C=C6)C=C5)cc3)s2)C1
REMARK SMILES IDX 19 1 18 2 16 3 17 4 15 5 9 6 10 7 78 8 11 9 8 10 3 11 6 12
REMARK SMILES IDX 79 13 7 14 2 15 1 16 4 17 5 18 12 19 13 20 14 21 20 22 21 23
REMARK SMILES IDX 22 24 23 25 24 26 25 27 77 28 26 29 76 30 27 31 28 32 29 33
REMARK SMILES IDX 70 34 30 35 75 36 69 37 71 38 31 39 74 40 68 41 67 42 32 44
REMARK SMILES IDX 58 45 41 46 57 47 42 48 45 49 56 50 72 51 43 52 44 53 55 55
REMARK SMILES IDX 73 56 46 57 33 58 34 59 39 60 35 61 36 62 38 63 40 64 37 65
REMARK SMILES IDX 59 66 60 67 65 68 61 69 62 70 64 71 66 72 63 73 47 74 48 75
REMARK SMILES IDX 53 76 49 77 50 78 52 79 54 80 51 81
REMARK H PARENT 71 43 45 54
REMARK Flexibility Score: inf
ROOT
ATOM      1  C   UNL     1      -0.144  -9.852  -2.711  1.00  0.00     0.275 C 
ENDROOT
BRANCH   1   2
ATOM      2  O   UNL     1      -0.055  -8.495  -3.192  1.00  0.00    -0.458 OA
BRANCH   2   3
ATOM      3  C   UNL     1      -0.837  -7.554  -2.591  1.00  0.00     0.350 C 
ATOM      4  O   UNL     1      -1.599  -7.801  -1.665  1.00  0.00    -0.245 OA
BRANCH   3   5
ATOM      5  C   UNL     1      -0.571  -6.237  -3.138  1.00  0.00     0.137 A 
ATOM      6  C   UNL     1      -0.195  -3.821  -3.276  1.00  0.00     0.186 A 
ATOM      7  N   UNL     1       0.146  -4.401  -4.405  1.00  0.00    -0.224 NA
ATOM      8  S   UNL     1      -0.956  -4.870  -2.158  1.00  0.00    -0.089 S 
ATOM      9  C   UNL     1      -0.093  -5.785  -4.362  1.00  0.00     0.071 A 
BRANCH   6  10
ATOM     10  N   UNL     1      -0.091  -2.503  -2.989  1.00  0.00    -0.347 N 
ATOM     11  C   UNL     1       0.955  -0.385  -2.622  1.00  0.00    -0.011 C 
ATOM     12  C   UNL     1      -0.017  -0.311  -3.822  1.00  0.00     0.030 C 
ATOM     13  C   UNL     1       1.151  -1.925  -2.488  1.00  0.00     0.126 C 
ATOM     14  C   UNL     1      -0.914  -1.536  -3.683  1.00  0.00     0.119 C 
BRANCH  11  15
ATOM     15  C   UNL     1       0.284   0.248  -1.366  1.00  0.00     0.005 C 
ATOM     16  C   UNL     1       1.017   0.051  -0.042  1.00  0.00     0.004 C 
ENDBRANCH  11  15
BRANCH  11  17
ATOM     17  C   UNL     1       2.297   0.313  -2.972  1.00  0.00     0.005 C 
ATOM     18  C   UNL     1       2.179   1.777  -3.390  1.00  0.00     0.004 C 
ENDBRANCH  11  17
ENDBRANCH   6  10
BRANCH   9  19
ATOM     19  C   UNL     1       0.128  -6.552  -5.649  1.00  0.00     0.034 C 
ATOM     20  C   UNL     1       1.444  -7.326  -5.690  1.00  0.00     0.014 C 
ATOM     21  C   UNL     1      -1.069  -7.435  -6.023  1.00  0.00     0.014 C 
ENDBRANCH   9  19
ENDBRANCH   3   5
ENDBRANCH   2   3
ENDBRANCH   1   2
BRANCH   1  22
ATOM     22  C   UNL     1       1.159 -10.283  -2.032  1.00  0.00     0.275 C 
BRANCH  22  23
ATOM     23  O   UNL     1       1.324  -9.604  -0.774  1.00  0.00    -0.458 OA
BRANCH  23  24
ATOM     24  C   UNL     1       2.086  -8.488  -0.826  1.00  0.00     0.338 C 
ATOM     25  O   UNL     1       2.698  -8.050  -1.785  1.00  0.00    -0.246 OA
BRANCH  24  26
ATOM     26  C   UNL     1       1.914  -7.733   0.421  1.00  0.00     0.060 A 
ATOM     27  C   UNL     1       1.121  -6.592   0.351  1.00  0.00     0.016 A 
ATOM     28  C   UNL     1       2.569  -8.065   1.603  1.00  0.00     0.016 A 
ATOM     29  C   UNL     1       0.987  -5.749   1.444  1.00  0.00     0.010 A 
ATOM     30  C   UNL     1       2.415  -7.231   2.718  1.00  0.00     0.010 A 
ATOM     31  C   UNL     1       1.635  -6.059   2.641  1.00  0.00    -0.014 A 
BRANCH  31  32
ATOM     32  C   UNL     1       1.540  -5.114   3.781  1.00  0.00     0.031 A 
ATOM     33  C   UNL     1       2.761  -4.362   4.225  1.00  0.00     0.074 A 
ATOM     34  C   UNL     1       0.355  -4.898   4.381  1.00  0.00     0.049 A 
ATOM     35  N   UNL     1       2.924  -3.585   5.265  1.00  0.00    -0.248 NA
ATOM     36  C   UNL     1       3.963  -4.508   3.389  1.00  0.00     0.031 C 
ATOM     37  C   UNL     1      -0.916  -5.511   3.991  1.00  0.00     0.029 A 
ATOM     38  N   UNL     1       0.025  -4.098   5.446  1.00  0.00    -0.354 N 
ATOM     39  C   UNL     1       4.252  -3.181   5.230  1.00  0.00     0.074 A 
ATOM     40  C   UNL     1       4.856  -3.809   4.075  1.00  0.00     0.031 C 
ATOM     41  C   UNL     1      -1.888  -5.058   4.798  1.00  0.00     0.029 A 
ATOM     42  C   UNL     1      -1.299  -4.180   5.803  1.00  0.00     0.049 A 
ATOM     43  H   UNL     1       0.674  -3.521   5.909  1.00  0.00     0.167 HD
ATOM     44  C   UNL     1       4.905  -2.361   6.088  1.00  0.00     0.037 A 
ATOM     45  C   UNL     1      -1.955  -3.642   6.849  1.00  0.00     0.037 A 
ATOM     46  C   UNL     1       4.284  -1.720   7.219  1.00  0.00     0.049 A 
ATOM     47  C   UNL     1      -1.192  -2.791   7.826  1.00  0.00     0.074 A 
ATOM     48  C   UNL     1       4.854  -0.867   8.147  1.00  0.00     0.029 A 
ATOM     49  N   UNL     1       2.950  -1.862   7.572  1.00  0.00    -0.354 N 
ATOM     50  N   UNL     1       0.071  -2.441   7.806  1.00  0.00    -0.248 NA
ATOM     51  C   UNL     1      -1.943  -2.270   8.976  1.00  0.00     0.031 C 
ATOM     52  C   UNL     1       3.876  -0.531   9.089  1.00  0.00     0.029 A 
ATOM     53  C   UNL     1       2.683  -1.129   8.717  1.00  0.00     0.049 A 
ATOM     54  H   UNL     1       2.290  -2.403   7.081  1.00  0.00     0.167 HD
ATOM     55  C   UNL     1       0.262  -1.640   8.924  1.00  0.00     0.074 A 
ATOM     56  C   UNL     1      -1.020  -1.544   9.591  1.00  0.00     0.031 C 
ATOM     57  C   UNL     1       1.397  -1.040   9.361  1.00  0.00     0.037 A 
BRANCH  44  58
ATOM     58  C   UNL     1       6.373  -2.146   5.859  1.00  0.00     0.057 A 
ATOM     59  C   UNL     1       6.862  -1.394   4.783  1.00  0.00     0.134 A 
ATOM     60  C   UNL     1       7.314  -2.686   6.747  1.00  0.00     0.134 A 
ATOM     61  F   UNL     1       6.018  -0.862   3.886  1.00  0.00    -0.206 F 
ATOM     62  C   UNL     1       8.232  -1.209   4.584  1.00  0.00     0.040 A 
ATOM     63  C   UNL     1       8.684  -2.484   6.575  1.00  0.00     0.040 A 
ATOM     64  F   UNL     1       6.915  -3.413   7.802  1.00  0.00    -0.206 F 
ATOM     65  C   UNL     1       9.147  -1.749   5.486  1.00  0.00     0.006 A 
ENDBRANCH  44  58
BRANCH  45  66
ATOM     66  C   UNL     1      -3.400  -3.925   7.048  1.00  0.00     0.057 A 
ATOM     67  C   UNL     1      -4.362  -2.917   6.929  1.00  0.00     0.134 A 
ATOM     68  C   UNL     1      -3.853  -5.211   7.373  1.00  0.00     0.134 A 
ATOM     69  F   UNL     1      -3.991  -1.660   6.644  1.00  0.00    -0.206 F 
ATOM     70  C   UNL     1      -5.719  -3.171   7.138  1.00  0.00     0.040 A 
ATOM     71  C   UNL     1      -5.208  -5.486   7.556  1.00  0.00     0.040 A 
ATOM     72  F   UNL     1      -2.983  -6.224   7.503  1.00  0.00    -0.206 F 
ATOM     73  C   UNL     1      -6.146  -4.462   7.446  1.00  0.00     0.006 A 
ENDBRANCH  45  66
BRANCH  57  74
ATOM     74  C   UNL     1       1.289  -0.192  10.594  1.00  0.00     0.057 A 
ATOM     75  C   UNL     1       1.115  -0.751  11.867  1.00  0.00     0.134 A 
ATOM     76  C   UNL     1       1.396   1.202  10.509  1.00  0.00     0.134 A 
ATOM     77  F   UNL     1       0.991  -2.078  12.015  1.00  0.00    -0.206 F 
ATOM     78  C   UNL     1       1.026   0.049  13.007  1.00  0.00     0.040 A 
ATOM     79  C   UNL     1       1.338   2.010  11.645  1.00  0.00     0.040 A 
ATOM     80  F   UNL     1       1.573   1.801   9.321  1.00  0.00    -0.206 F 
ATOM     81  C   UNL     1       1.146   1.433  12.898  1.00  0.00     0.006 A 
ENDBRANCH  57  74
ENDBRANCH  31  32
ENDBRANCH  24  26
ENDBRANCH  23  24
ENDBRANCH  22  23
ENDBRANCH   1  22
TORSDOF 15
