REMARK SMILES NC(=O)c1cccc(NC2(CC(=O)OCCOC(=O)c3ccc(-c4c5nc(c(-c6c(F)cccc6F)c6ccc([nH]6)c(-c6c(F)cccc6F)c6nc(c(-c7c(F)cccc7F)c7ccc4[nH]7)C=C6)C=C5)cc3)CCC2)n1
REMARK SMILES IDX 15 1 14 2 12 3 13 4 11 5 10 6 74 7 76 8 75 9 9 10 8 12 4 13
REMARK SMILES IDX 5 14 77 15 6 16 7 17 2 18 1 19 3 22 16 23 17 24 18 25 19 26
REMARK SMILES IDX 20 27 21 28 73 29 22 30 72 31 23 32 24 33 25 34 66 35 26 36
REMARK SMILES IDX 71 37 65 38 67 39 27 40 70 41 64 42 63 43 28 45 54 46 37 47
REMARK SMILES IDX 53 48 38 49 41 50 52 51 68 52 39 53 40 54 51 56 69 57 42 58
REMARK SMILES IDX 29 59 30 60 35 61 31 62 32 63 34 64 36 65 33 66 55 67 56 68
REMARK SMILES IDX 61 69 57 70 58 71 60 72 62 73 59 74 43 75 44 76 49 77 45 78
REMARK SMILES IDX 46 79 48 80 50 81 47 82
REMARK H PARENT 9 11 1 20 1 21 67 44 41 55
REMARK Flexibility Score: inf
ROOT
ATOM      1  C   UNL     1       2.383   4.803   7.871  1.00  0.00     0.274 C 
ENDROOT
BRANCH   1   2
ATOM      2  O   UNL     1       1.396   4.466   6.874  1.00  0.00    -0.462 OA
BRANCH   2   3
ATOM      3  C   UNL     1       0.347   5.319   6.779  1.00  0.00     0.308 C 
ATOM      4  O   UNL     1       0.226   6.346   7.440  1.00  0.00    -0.252 OA
BRANCH   3   5
ATOM      5  C   UNL     1      -0.710   4.890   5.801  1.00  0.00     0.151 C 
BRANCH   5   6
ATOM      6  C   UNL     1      -0.383   3.848   4.724  1.00  0.00     0.049 C 
ATOM      7  C   UNL     1      -1.698   3.448   3.986  1.00  0.00     0.029 C 
ATOM      8  C   UNL     1      -0.259   2.373   5.188  1.00  0.00     0.029 C 
ATOM      9  C   UNL     1      -1.755   2.185   4.865  1.00  0.00     0.005 C 
BRANCH   6  10
ATOM     10  N   UNL     1       0.685   4.279   3.849  1.00  0.00    -0.364 N 
ATOM     11  H   UNL     1       1.215   5.043   4.173  1.00  0.00     0.162 HD
BRANCH  10  12
ATOM     12  C   UNL     1       1.075   3.756   2.592  1.00  0.00     0.127 A 
ATOM     13  C   UNL     1       0.933   2.173   0.908  1.00  0.00     0.130 A 
ATOM     14  C   UNL     1       1.899   2.799   0.130  1.00  0.00     0.034 A 
ATOM     15  N   UNL     1       0.523   2.630   2.115  1.00  0.00    -0.226 NA
ATOM     16  C   UNL     1       2.455   3.971   0.618  1.00  0.00     0.006 A 
ATOM     17  C   UNL     1       2.029   4.457   1.852  1.00  0.00     0.047 A 
BRANCH  13  18
ATOM     18  C   UNL     1       0.273   0.920   0.428  1.00  0.00     0.267 C 
ATOM     19  N   UNL     1       1.080  -0.011  -0.178  1.00  0.00    -0.364 N 
ATOM     20  H   UNL     1       0.695  -0.853  -0.512  1.00  0.00     0.160 HD
ATOM     21  H   UNL     1       2.043   0.164  -0.279  1.00  0.00     0.160 HD
ATOM     22  O   UNL     1      -0.925   0.704   0.566  1.00  0.00    -0.268 OA
ENDBRANCH  13  18
ENDBRANCH  10  12
ENDBRANCH   6  10
ENDBRANCH   5   6
ENDBRANCH   3   5
ENDBRANCH   2   3
ENDBRANCH   1   2
BRANCH   1  23
ATOM     23  C   UNL     1       3.638   5.422   7.254  1.00  0.00     0.275 C 
BRANCH  23  24
ATOM     24  O   UNL     1       3.340   6.631   6.530  1.00  0.00    -0.458 OA
BRANCH  24  25
ATOM     25  C   UNL     1       3.166   6.457   5.202  1.00  0.00     0.338 C 
ATOM     26  O   UNL     1       3.245   5.412   4.580  1.00  0.00    -0.246 OA
BRANCH  25  27
ATOM     27  C   UNL     1       2.738   7.712   4.574  1.00  0.00     0.060 A 
ATOM     28  C   UNL     1       1.371   7.955   4.428  1.00  0.00     0.016 A 
ATOM     29  C   UNL     1       3.680   8.592   4.042  1.00  0.00     0.016 A 
ATOM     30  C   UNL     1       0.934   9.101   3.770  1.00  0.00     0.010 A 
ATOM     31  C   UNL     1       3.241   9.751   3.397  1.00  0.00     0.010 A 
ATOM     32  C   UNL     1       1.866  10.017   3.267  1.00  0.00    -0.014 A 
BRANCH  32  33
ATOM     33  C   UNL     1       1.408  11.286   2.658  1.00  0.00     0.031 A 
ATOM     34  C   UNL     1       1.472  11.492   1.176  1.00  0.00     0.074 A 
ATOM     35  C   UNL     1       0.951  12.264   3.461  1.00  0.00     0.049 A 
ATOM     36  N   UNL     1       1.279  12.589   0.489  1.00  0.00    -0.248 NA
ATOM     37  C   UNL     1       1.792  10.313   0.358  1.00  0.00     0.031 C 
ATOM     38  C   UNL     1       0.796  12.162   4.913  1.00  0.00     0.029 A 
ATOM     39  N   UNL     1       0.549  13.542   3.169  1.00  0.00    -0.354 N 
ATOM     40  C   UNL     1       1.468  12.239  -0.840  1.00  0.00     0.074 A 
ATOM     41  C   UNL     1       1.795  10.828  -0.865  1.00  0.00     0.031 C 
ATOM     42  C   UNL     1       0.344  13.333   5.388  1.00  0.00     0.029 A 
ATOM     43  C   UNL     1       0.230  14.279   4.282  1.00  0.00     0.049 A 
ATOM     44  H   UNL     1       0.494  13.896   2.252  1.00  0.00     0.167 HD
ATOM     45  C   UNL     1       1.376  13.029  -1.937  1.00  0.00     0.037 A 
ATOM     46  C   UNL     1      -0.075  15.584   4.405  1.00  0.00     0.037 A 
ATOM     47  C   UNL     1       1.040  14.428  -1.908  1.00  0.00     0.049 A 
ATOM     48  C   UNL     1      -0.091  16.454   3.183  1.00  0.00     0.074 A 
ATOM     49  C   UNL     1       0.923  15.311  -2.969  1.00  0.00     0.029 A 
ATOM     50  N   UNL     1       0.763  15.149  -0.757  1.00  0.00    -0.354 N 
ATOM     51  N   UNL     1       0.135  16.126   1.935  1.00  0.00    -0.248 NA
ATOM     52  C   UNL     1      -0.382  17.880   3.390  1.00  0.00     0.031 C 
ATOM     53  C   UNL     1       0.600  16.573  -2.456  1.00  0.00     0.029 A 
ATOM     54  C   UNL     1       0.492  16.468  -1.079  1.00  0.00     0.049 A 
ATOM     55  H   UNL     1       0.759  14.777   0.155  1.00  0.00     0.167 HD
ATOM     56  C   UNL     1       0.014  17.301   1.207  1.00  0.00     0.074 A 
ATOM     57  C   UNL     1      -0.323  18.347   2.150  1.00  0.00     0.031 C 
ATOM     58  C   UNL     1       0.173  17.496  -0.124  1.00  0.00     0.037 A 
BRANCH  45  59
ATOM     59  C   UNL     1       1.663  12.401  -3.265  1.00  0.00     0.057 A 
ATOM     60  C   UNL     1       0.714  11.615  -3.926  1.00  0.00     0.134 A 
ATOM     61  C   UNL     1       2.884  12.631  -3.912  1.00  0.00     0.134 A 
ATOM     62  F   UNL     1      -0.469  11.350  -3.350  1.00  0.00    -0.206 F 
ATOM     63  C   UNL     1       0.970  11.072  -5.186  1.00  0.00     0.040 A 
ATOM     64  C   UNL     1       3.146  12.106  -5.178  1.00  0.00     0.040 A 
ATOM     65  F   UNL     1       3.833  13.378  -3.329  1.00  0.00    -0.206 F 
ATOM     66  C   UNL     1       2.187  11.323  -5.818  1.00  0.00     0.006 A 
ENDBRANCH  45  59
BRANCH  46  67
ATOM     67  C   UNL     1      -0.331  16.156   5.747  1.00  0.00     0.057 A 
ATOM     68  C   UNL     1      -1.622  16.514   6.146  1.00  0.00     0.134 A 
ATOM     69  C   UNL     1       0.712  16.355   6.660  1.00  0.00     0.134 A 
ATOM     70  F   UNL     1      -2.654  16.366   5.303  1.00  0.00    -0.206 F 
ATOM     71  C   UNL     1      -1.868  17.056   7.408  1.00  0.00     0.040 A 
ATOM     72  C   UNL     1       0.477  16.878   7.931  1.00  0.00     0.040 A 
ATOM     73  F   UNL     1       1.971  16.031   6.331  1.00  0.00    -0.206 F 
ATOM     74  C   UNL     1      -0.817  17.234   8.306  1.00  0.00     0.006 A 
ENDBRANCH  46  67
BRANCH  58  75
ATOM     75  C   UNL     1      -0.015  18.893  -0.627  1.00  0.00     0.057 A 
ATOM     76  C   UNL     1       0.988  19.859  -0.484  1.00  0.00     0.134 A 
ATOM     77  C   UNL     1      -1.197  19.269  -1.274  1.00  0.00     0.134 A 
ATOM     78  F   UNL     1       2.136  19.559   0.142  1.00  0.00    -0.206 F 
ATOM     79  C   UNL     1       0.815  21.160  -0.957  1.00  0.00     0.040 A 
ATOM     80  C   UNL     1      -1.376  20.563  -1.764  1.00  0.00     0.040 A 
ATOM     81  F   UNL     1      -2.193  18.386  -1.441  1.00  0.00    -0.206 F 
ATOM     82  C   UNL     1      -0.368  21.514  -1.603  1.00  0.00     0.006 A 
ENDBRANCH  58  75
ENDBRANCH  32  33
ENDBRANCH  25  27
ENDBRANCH  24  25
ENDBRANCH  23  24
ENDBRANCH   1  23
TORSDOF 15
