REMARK SMILES O=C(OCCOC(=O)[C@@H]1CC=CC[C@@H]1C(=O)N1CCN(C(=O)c2sc3cc([N+](=O)[O-])ccc3c2Cl)CC1)c1ccc(-c2c3nc(c(-c4c(F)cccc4F)c4ccc([nH]4)c(-c4c(F)cccc4F)c4nc(c(-c5c(F)cccc5F)c5ccc2[nH]5)C=C4)C=C3)cc1
REMARK SMILES IDX 5 1 4 2 3 3 2 4 1 5 38 6 39 7 91 8 40 9 90 10 41 11 42 12
REMARK SMILES IDX 43 13 84 14 44 15 89 16 83 17 85 18 45 19 88 20 82 21 81 22
REMARK SMILES IDX 46 24 72 25 55 26 71 27 56 28 59 29 70 30 86 31 57 32 58 33
REMARK SMILES IDX 69 35 87 36 60 37 47 38 48 39 53 40 49 41 50 42 52 43 54 44
REMARK SMILES IDX 51 45 73 46 74 47 79 48 75 49 76 50 78 51 80 52 77 53 61 54
REMARK SMILES IDX 62 55 67 56 63 57 64 58 66 59 68 60 65 61 6 62 7 63 8 64
REMARK SMILES IDX 9 65 10 66 14 67 11 68 13 69 12 70 15 71 16 72 17 73 18 74
REMARK SMILES IDX 37 75 19 76 36 77 20 78 21 79 22 80 23 81 24 82 34 83 25 84
REMARK SMILES IDX 33 85 35 86 26 87 32 88 27 89 31 90 28 91 29 92 30 93
REMARK H PARENT 85 23 59 34
REMARK Flexibility Score: inf
ROOT
ATOM      1  C   UNL     1       6.186  -4.830   0.087  1.00  0.00     0.274 C 
ENDROOT
BRANCH   1   2
ATOM      2  C   UNL     1       6.249  -6.242  -0.570  1.00  0.00     0.275 C 
BRANCH   2   3
ATOM      3  O   UNL     1       5.155  -6.667  -1.395  1.00  0.00    -0.458 OA
BRANCH   3   4
ATOM      4  C   UNL     1       4.285  -5.691  -1.679  1.00  0.00     0.338 C 
ATOM      5  O   UNL     1       4.455  -4.941  -2.638  1.00  0.00    -0.246 OA
BRANCH   4   6
ATOM      6  C   UNL     1       3.251  -5.610  -0.613  1.00  0.00     0.060 A 
ATOM      7  C   UNL     1       2.446  -4.485  -0.396  1.00  0.00     0.016 A 
ATOM      8  C   UNL     1       3.110  -6.689   0.241  1.00  0.00     0.016 A 
ATOM      9  C   UNL     1       1.816  -4.280   0.801  1.00  0.00     0.010 A 
ATOM     10  C   UNL     1       2.278  -6.564   1.311  1.00  0.00     0.010 A 
ATOM     11  C   UNL     1       1.919  -5.295   1.712  1.00  0.00    -0.014 A 
BRANCH  11  12
ATOM     12  C   UNL     1       1.527  -5.099   3.080  1.00  0.00     0.031 A 
ATOM     13  C   UNL     1       0.117  -4.682   3.164  1.00  0.00     0.074 A 
ATOM     14  C   UNL     1       2.404  -5.438   4.050  1.00  0.00     0.049 A 
ATOM     15  N   UNL     1      -0.350  -3.547   3.556  1.00  0.00    -0.248 NA
ATOM     16  C   UNL     1      -0.868  -5.502   2.434  1.00  0.00     0.031 C 
ATOM     17  C   UNL     1       3.762  -5.986   3.896  1.00  0.00     0.029 A 
ATOM     18  N   UNL     1       2.209  -5.511   5.392  1.00  0.00    -0.354 N 
ATOM     19  C   UNL     1      -1.727  -3.675   3.425  1.00  0.00     0.074 A 
ATOM     20  C   UNL     1      -1.949  -4.725   2.474  1.00  0.00     0.031 C 
ATOM     21  C   UNL     1       4.149  -6.581   5.044  1.00  0.00     0.029 A 
ATOM     22  C   UNL     1       3.140  -6.329   6.049  1.00  0.00     0.049 A 
ATOM     23  H   UNL     1       1.484  -5.036   5.859  1.00  0.00     0.167 HD
ATOM     24  C   UNL     1      -2.534  -3.210   4.415  1.00  0.00     0.037 A 
ATOM     25  C   UNL     1       3.000  -6.791   7.317  1.00  0.00     0.037 A 
ATOM     26  C   UNL     1      -1.833  -2.233   5.215  1.00  0.00     0.049 A 
ATOM     27  C   UNL     1       1.959  -5.940   7.958  1.00  0.00     0.074 A 
ATOM     28  C   UNL     1      -1.211  -1.032   4.936  1.00  0.00     0.029 A 
ATOM     29  N   UNL     1      -1.317  -2.669   6.413  1.00  0.00    -0.354 N 
ATOM     30  N   UNL     1       2.141  -4.675   8.225  1.00  0.00    -0.248 NA
ATOM     31  C   UNL     1       0.569  -6.349   7.801  1.00  0.00     0.031 C 
ATOM     32  C   UNL     1      -0.043  -1.018   5.751  1.00  0.00     0.029 A 
ATOM     33  C   UNL     1      -0.057  -2.151   6.566  1.00  0.00     0.049 A 
ATOM     34  H   UNL     1      -1.776  -3.257   7.055  1.00  0.00     0.167 HD
ATOM     35  C   UNL     1       0.961  -4.058   7.825  1.00  0.00     0.074 A 
ATOM     36  C   UNL     1       0.002  -5.147   7.648  1.00  0.00     0.031 C 
ATOM     37  C   UNL     1       0.971  -2.768   7.374  1.00  0.00     0.037 A 
BRANCH  24  38
ATOM     38  C   UNL     1      -3.725  -3.977   4.933  1.00  0.00     0.057 A 
ATOM     39  C   UNL     1      -3.918  -5.370   4.794  1.00  0.00     0.134 A 
ATOM     40  C   UNL     1      -4.564  -3.354   5.870  1.00  0.00     0.134 A 
ATOM     41  F   UNL     1      -3.153  -6.140   4.016  1.00  0.00    -0.206 F 
ATOM     42  C   UNL     1      -4.856  -6.084   5.539  1.00  0.00     0.040 A 
ATOM     43  C   UNL     1      -5.464  -4.073   6.663  1.00  0.00     0.040 A 
ATOM     44  F   UNL     1      -4.469  -2.036   6.102  1.00  0.00    -0.206 F 
ATOM     45  C   UNL     1      -5.607  -5.444   6.505  1.00  0.00     0.006 A 
ENDBRANCH  24  38
BRANCH  25  46
ATOM     46  C   UNL     1       3.477  -8.054   7.921  1.00  0.00     0.057 A 
ATOM     47  C   UNL     1       3.654  -9.221   7.157  1.00  0.00     0.134 A 
ATOM     48  C   UNL     1       3.511  -8.221   9.313  1.00  0.00     0.134 A 
ATOM     49  F   UNL     1       3.580  -9.190   5.818  1.00  0.00    -0.206 F 
ATOM     50  C   UNL     1       3.824 -10.482   7.741  1.00  0.00     0.040 A 
ATOM     51  C   UNL     1       3.675  -9.477   9.911  1.00  0.00     0.040 A 
ATOM     52  F   UNL     1       3.324  -7.172  10.127  1.00  0.00    -0.206 F 
ATOM     53  C   UNL     1       3.818 -10.616   9.124  1.00  0.00     0.006 A 
ENDBRANCH  25  46
BRANCH  37  54
ATOM     54  C   UNL     1       2.239  -1.977   7.569  1.00  0.00     0.057 A 
ATOM     55  C   UNL     1       2.176  -0.802   8.322  1.00  0.00     0.134 A 
ATOM     56  C   UNL     1       3.462  -2.259   6.937  1.00  0.00     0.134 A 
ATOM     57  F   UNL     1       1.022  -0.435   8.901  1.00  0.00    -0.206 F 
ATOM     58  C   UNL     1       3.276   0.047   8.458  1.00  0.00     0.040 A 
ATOM     59  C   UNL     1       4.581  -1.434   7.091  1.00  0.00     0.040 A 
ATOM     60  F   UNL     1       3.590  -3.306   6.113  1.00  0.00    -0.206 F 
ATOM     61  C   UNL     1       4.488  -0.274   7.853  1.00  0.00     0.006 A 
ENDBRANCH  37  54
ENDBRANCH  11  12
ENDBRANCH   4   6
ENDBRANCH   3   4
ENDBRANCH   2   3
ENDBRANCH   1   2
BRANCH   1  62
ATOM     62  O   UNL     1       5.711  -3.781  -0.817  1.00  0.00    -0.462 OA
BRANCH  62  63
ATOM     63  C   UNL     1       4.865  -2.864  -0.275  1.00  0.00     0.310 C 
ATOM     64  O   UNL     1       4.847  -2.665   0.940  1.00  0.00    -0.252 OA
BRANCH  63  65
ATOM     65  C   UNL     1       3.965  -2.031  -1.262  1.00  0.00     0.115 C 
ATOM     66  C   UNL     1       2.942  -1.225  -0.377  1.00  0.00     0.043 C 
ATOM     67  C   UNL     1       3.429  -2.387  -2.769  1.00  0.00     0.097 C 
ATOM     68  C   UNL     1       1.785  -0.616  -1.097  1.00  0.00    -0.030 C 
ATOM     69  C   UNL     1       2.939  -0.971  -3.256  1.00  0.00     0.041 C 
ATOM     70  C   UNL     1       1.782  -0.484  -2.427  1.00  0.00    -0.030 C 
BRANCH  67  71
ATOM     71  C   UNL     1       2.320  -3.400  -3.567  1.00  0.00     0.227 C 
ATOM     72  O   UNL     1       1.944  -3.062  -4.705  1.00  0.00    -0.275 OA
ATOM     73  N   UNL     1       1.855  -4.665  -3.159  1.00  0.00    -0.339 N 
ATOM     74  C   UNL     1       2.220  -5.849  -3.979  1.00  0.00     0.141 C 
ATOM     75  C   UNL     1       0.426  -4.790  -2.858  1.00  0.00     0.141 C 
ATOM     76  C   UNL     1       1.988  -7.197  -3.244  1.00  0.00     0.141 C 
ATOM     77  C   UNL     1       0.080  -6.053  -2.027  1.00  0.00     0.141 C 
ATOM     78  N   UNL     1       0.843  -7.284  -2.310  1.00  0.00    -0.334 N 
ATOM     79  C   UNL     1       0.771  -8.477  -1.530  1.00  0.00     0.265 C 
ATOM     80  O   UNL     1       1.639  -9.342  -1.690  1.00  0.00    -0.268 OA
BRANCH  79  81
ATOM     81  C   UNL     1      -0.258  -8.658  -0.500  1.00  0.00     0.112 A 
ATOM     82  S   UNL     1       0.209  -9.393   0.995  1.00  0.00    -0.128 S 
ATOM     83  C   UNL     1      -1.632  -8.531  -0.524  1.00  0.00     0.072 A 
ATOM     84  C   UNL     1      -1.337  -9.174   1.717  1.00  0.00     0.043 A 
ATOM     85  C   UNL     1      -2.249  -8.692   0.775  1.00  0.00     0.012 A 
ATOM     86  Cl  UNL     1      -2.589  -8.261  -1.925  1.00  0.00    -0.082 Cl
ATOM     87  C   UNL     1      -1.710  -9.454   3.053  1.00  0.00     0.105 A 
ATOM     88  C   UNL     1      -3.587  -8.477   1.203  1.00  0.00     0.018 A 
ATOM     89  C   UNL     1      -3.050  -9.259   3.420  1.00  0.00     0.270 A 
ATOM     90  C   UNL     1      -3.982  -8.761   2.513  1.00  0.00     0.086 A 
BRANCH  89  91
ATOM     91  N   UNL     1      -3.490  -9.605   4.777  1.00  0.00     0.062 N 
ATOM     92  O   UNL     1      -2.625  -9.710   5.658  1.00  0.00    -0.258 OA
ATOM     93  O   UNL     1      -4.706  -9.760   4.963  1.00  0.00    -0.258 OA
ENDBRANCH  89  91
ENDBRANCH  79  81
ENDBRANCH  67  71
ENDBRANCH  63  65
ENDBRANCH  62  63
ENDBRANCH   1  62
TORSDOF 14
