REMARK SMILES O=C(OCCOC(=O)[C@@H]1C[C@@H](O)CN1C(=O)c1ccccc1)c1ccc(-c2c3nc(c(-c4c(F)cccc4F)c4ccc([nH]4)c(-c4c(F)cccc4F)c4nc(c(-c5c(F)cccc5F)c5ccc2[nH]5)C=C4)C=C3)cc1
REMARK SMILES IDX 4 1 3 2 2 3 1 4 23 5 24 6 76 7 25 8 75 9 26 10 27 11 28 12
REMARK SMILES IDX 69 13 29 14 74 15 68 16 70 17 30 18 73 19 67 20 66 21 31 23
REMARK SMILES IDX 57 24 40 25 56 26 41 27 44 28 55 29 71 30 42 31 43 32 54 34
REMARK SMILES IDX 72 35 45 36 32 37 33 38 38 39 34 40 35 41 37 42 39 43 36 44
REMARK SMILES IDX 58 45 59 46 64 47 60 48 61 49 63 50 65 51 62 52 46 53 47 54
REMARK SMILES IDX 52 55 48 56 49 57 51 58 53 59 50 60 5 61 6 62 7 63 8 64 9 65
REMARK SMILES IDX 10 66 14 67 11 68 13 69 15 70 16 71 17 72 18 73 22 74 19 75
REMARK SMILES IDX 21 76 20 77 12 78
REMARK H PARENT 70 22 44 33 12 79
REMARK Flexibility Score: inf
ROOT
ATOM      1  C   UNL     1       5.293   5.048  -4.446  1.00  0.00     0.275 C 
ENDROOT
BRANCH   1   2
ATOM      2  O   UNL     1       6.124   3.967  -4.025  1.00  0.00    -0.458 OA
BRANCH   2   3
ATOM      3  C   UNL     1       5.928   3.191  -2.945  1.00  0.00     0.338 C 
ATOM      4  O   UNL     1       6.708   2.261  -2.748  1.00  0.00    -0.246 OA
BRANCH   3   5
ATOM      5  C   UNL     1       4.718   3.266  -2.061  1.00  0.00     0.060 A 
ATOM      6  C   UNL     1       3.279   4.405  -2.055  1.00  0.00     0.016 A 
ATOM      7  C   UNL     1       4.740   1.865  -0.883  1.00  0.00     0.016 A 
ATOM      8  C   UNL     1       1.922   4.157  -0.847  1.00  0.00     0.010 A 
ATOM      9  C   UNL     1       3.474   1.686   0.356  1.00  0.00     0.010 A 
ATOM     10  C   UNL     1       2.111   2.855   0.468  1.00  0.00    -0.014 A 
BRANCH  10  11
ATOM     11  C   UNL     1       1.359   2.835   1.772  1.00  0.00     0.031 A 
ATOM     12  C   UNL     1       2.145   3.088   3.070  1.00  0.00     0.074 A 
ATOM     13  C   UNL     1       0.021   2.990   1.721  1.00  0.00     0.049 A 
ATOM     14  N   UNL     1       1.694   3.619   4.184  1.00  0.00    -0.248 NA
ATOM     15  C   UNL     1       3.614   2.929   3.073  1.00  0.00     0.031 C 
ATOM     16  C   UNL     1      -0.768   3.068   0.493  1.00  0.00     0.029 A 
ATOM     17  N   UNL     1      -0.905   3.230   2.696  1.00  0.00    -0.354 N 
ATOM     18  C   UNL     1       2.825   3.972   4.926  1.00  0.00     0.074 A 
ATOM     19  C   UNL     1       3.978   3.517   4.202  1.00  0.00     0.031 C 
ATOM     20  C   UNL     1      -2.053   3.260   0.770  1.00  0.00     0.029 A 
ATOM     21  C   UNL     1      -2.182   3.363   2.203  1.00  0.00     0.049 A 
ATOM     22  H   UNL     1      -0.682   3.300   3.652  1.00  0.00     0.167 HD
ATOM     23  C   UNL     1       2.894   4.678   6.078  1.00  0.00     0.037 A 
ATOM     24  C   UNL     1      -3.355   3.595   2.804  1.00  0.00     0.037 A 
ATOM     25  C   UNL     1       1.718   5.068   6.804  1.00  0.00     0.049 A 
ATOM     26  C   UNL     1      -3.277   4.046   4.214  1.00  0.00     0.074 A 
ATOM     27  C   UNL     1       1.624   5.674   8.040  1.00  0.00     0.029 A 
ATOM     28  N   UNL     1       0.421   4.849   6.354  1.00  0.00    -0.354 N 
ATOM     29  N   UNL     1      -2.196   4.308   4.911  1.00  0.00    -0.248 NA
ATOM     30  C   UNL     1      -4.538   4.286   4.904  1.00  0.00     0.031 C 
ATOM     31  C   UNL     1       0.268   5.742   8.375  1.00  0.00     0.029 A 
ATOM     32  C   UNL     1      -0.485   5.247   7.318  1.00  0.00     0.049 A 
ATOM     33  H   UNL     1       0.184   4.468   5.478  1.00  0.00     0.167 HD
ATOM     34  C   UNL     1      -2.641   4.755   6.136  1.00  0.00     0.074 A 
ATOM     35  C   UNL     1      -4.096   4.748   6.066  1.00  0.00     0.031 C 
ATOM     36  C   UNL     1      -1.921   5.147   7.216  1.00  0.00     0.037 A 
BRANCH  23  37
ATOM     37  C   UNL     1       4.253   5.005   6.642  1.00  0.00     0.057 A 
ATOM     38  C   UNL     1       5.059   6.029   6.119  1.00  0.00     0.134 A 
ATOM     39  C   UNL     1       4.757   4.301   7.743  1.00  0.00     0.134 A 
ATOM     40  F   UNL     1       4.648   6.748   5.064  1.00  0.00    -0.206 F 
ATOM     41  C   UNL     1       6.314   6.329   6.663  1.00  0.00     0.040 A 
ATOM     42  C   UNL     1       6.002   4.603   8.306  1.00  0.00     0.040 A 
ATOM     43  F   UNL     1       4.044   3.311   8.298  1.00  0.00    -0.206 F 
ATOM     44  C   UNL     1       6.787   5.617   7.764  1.00  0.00     0.006 A 
ENDBRANCH  23  37
BRANCH  24  45
ATOM     45  C   UNL     1      -4.598   3.410   2.012  1.00  0.00     0.057 A 
ATOM     46  C   UNL     1      -5.430   4.464   1.632  1.00  0.00     0.134 A 
ATOM     47  C   UNL     1      -4.873   2.143   1.459  1.00  0.00     0.134 A 
ATOM     48  F   UNL     1      -5.209   5.702   2.095  1.00  0.00    -0.206 F 
ATOM     49  C   UNL     1      -6.484   4.270   0.731  1.00  0.00     0.040 A 
ATOM     50  C   UNL     1      -5.898   1.944   0.536  1.00  0.00     0.040 A 
ATOM     51  F   UNL     1      -4.085   1.095   1.748  1.00  0.00    -0.206 F 
ATOM     52  C   UNL     1      -6.710   3.011   0.171  1.00  0.00     0.006 A 
ENDBRANCH  24  45
BRANCH  36  53
ATOM     53  C   UNL     1      -2.727   5.543   8.405  1.00  0.00     0.057 A 
ATOM     54  C   UNL     1      -3.432   4.591   9.150  1.00  0.00     0.134 A 
ATOM     55  C   UNL     1      -2.807   6.883   8.796  1.00  0.00     0.134 A 
ATOM     56  F   UNL     1      -3.403   3.295   8.800  1.00  0.00    -0.206 F 
ATOM     57  C   UNL     1      -4.229   4.967  10.226  1.00  0.00     0.040 A 
ATOM     58  C   UNL     1      -3.570   7.266   9.894  1.00  0.00     0.040 A 
ATOM     59  F   UNL     1      -2.145   7.834   8.119  1.00  0.00    -0.206 F 
ATOM     60  C   UNL     1      -4.294   6.308  10.603  1.00  0.00     0.006 A 
ENDBRANCH  36  53
ENDBRANCH  10  11
ENDBRANCH   3   5
ENDBRANCH   2   3
ENDBRANCH   1   2
BRANCH   1  61
ATOM     61  C   UNL     1       4.095   4.555  -5.270  1.00  0.00     0.274 C 
BRANCH  61  62
ATOM     62  O   UNL     1       3.231   3.722  -4.472  1.00  0.00    -0.461 OA
BRANCH  62  63
ATOM     63  C   UNL     1       3.547   2.403  -4.427  1.00  0.00     0.329 C 
ATOM     64  O   UNL     1       3.985   1.794  -5.397  1.00  0.00    -0.250 OA
BRANCH  63  65
ATOM     65  C   UNL     1       3.243   1.715  -3.042  1.00  0.00     0.198 C 
ATOM     66  C   UNL     1       1.992   0.904  -3.479  1.00  0.00     0.071 C 
ATOM     67  N   UNL     1       2.841   2.488  -1.492  1.00  0.00    -0.322 N 
ATOM     68  C   UNL     1       1.338   0.477  -2.223  1.00  0.00     0.136 C 
ATOM     69  C   UNL     1       1.326   1.778  -1.443  1.00  0.00     0.152 C 
BRANCH  67  70
ATOM     70  C   UNL     1       3.812   3.698  -0.235  1.00  0.00     0.254 C 
ATOM     71  O   UNL     1       5.052   3.767   0.076  1.00  0.00    -0.269 OA
BRANCH  70  72
ATOM     72  C   UNL     1       3.370   5.213   0.674  1.00  0.00     0.040 A 
ATOM     73  C   UNL     1       4.353   6.223   0.718  1.00  0.00     0.014 A 
ATOM     74  C   UNL     1       2.199   5.594   1.400  1.00  0.00     0.014 A 
ATOM     75  C   UNL     1       4.208   7.406   1.491  1.00  0.00     0.001 A 
ATOM     76  C   UNL     1       2.077   6.703   2.250  1.00  0.00     0.001 A 
ATOM     77  C   UNL     1       3.097   7.617   2.301  1.00  0.00     0.000 A 
ENDBRANCH  70  72
ENDBRANCH  67  70
BRANCH  68  78
ATOM     78  O   UNL     1       2.079  -0.552  -1.591  1.00  0.00    -0.391 OA
ATOM     79  H   UNL     1       2.990  -0.252  -1.444  1.00  0.00     0.211 HD
ENDBRANCH  68  78
ENDBRANCH  63  65
ENDBRANCH  62  63
ENDBRANCH  61  62
ENDBRANCH   1  61
TORSDOF 14
