REMARK SMILES CC(=O)Nc1nc(C[N@@H+]2CCO[C@@H](CC(=O)OCCOC(=O)c3ccc(-c4c5nc(c(-c6c(F)cccc6F)c6ccc([nH]6)c(-c6c(F)cccc6F)c6nc(c(-c7c(F)cccc7F)c7ccc4[nH]7)C=C6)C=C5)cc3)C2)cs1
REMARK SMILES IDX 18 1 17 2 15 3 16 4 14 5 13 6 9 7 10 8 77 9 11 11 12 12 8 13
REMARK SMILES IDX 7 14 5 15 6 16 79 17 78 18 4 19 1 20 2 21 3 22 19 24 20 25
REMARK SMILES IDX 21 26 22 27 23 28 24 29 76 30 25 31 75 32 26 33 27 34 28 35
REMARK SMILES IDX 69 36 29 37 74 38 68 39 70 40 30 41 73 42 67 43 66 44 31 46
REMARK SMILES IDX 57 47 40 48 56 49 41 50 44 51 55 52 71 53 42 54 43 55 54 57
REMARK SMILES IDX 72 58 45 59 32 60 33 61 38 62 34 63 35 64 37 65 39 66 36 67
REMARK SMILES IDX 58 68 59 69 64 70 60 71 61 72 63 73 65 74 62 75 46 76 47 77
REMARK SMILES IDX 52 78 48 79 49 80 51 81 53 82 50 83
REMARK H PARENT 9 10 4 23 70 45 44 56
REMARK Flexibility Score: inf
ROOT
ATOM      1  C   UNL     1       4.161   0.712  -1.146  1.00  0.00     0.274 C 
ENDROOT
BRANCH   1   2
ATOM      2  O   UNL     1       4.610   1.965  -0.581  1.00  0.00    -0.462 OA
BRANCH   2   3
ATOM      3  C   UNL     1       4.577   3.105  -1.323  1.00  0.00     0.308 C 
ATOM      4  O   UNL     1       4.106   3.174  -2.452  1.00  0.00    -0.252 OA
BRANCH   3   5
ATOM      5  C   UNL     1       5.297   4.278  -0.648  1.00  0.00     0.160 C 
BRANCH   5   6
ATOM      6  C   UNL     1       5.147   4.282   0.866  1.00  0.00     0.184 C 
ATOM      7  N   UNL     1       5.360   2.955   2.939  1.00  0.00    -0.326 N 
ATOM      8  C   UNL     1       5.481   4.222   3.671  1.00  0.00     0.291 C 
ATOM      9  C   UNL     1       5.890   3.142   1.584  1.00  0.00     0.295 C 
ATOM     10  H   UNL     1       5.933   2.288   3.457  1.00  0.00     0.348 HD
ATOM     11  C   UNL     1       5.123   5.512   2.883  1.00  0.00     0.222 C 
ATOM     12  O   UNL     1       5.564   5.512   1.501  1.00  0.00    -0.366 OA
BRANCH   7  13
ATOM     13  C   UNL     1       4.077   2.217   3.003  1.00  0.00     0.320 C 
BRANCH  13  14
ATOM     14  C   UNL     1       2.864   2.883   2.371  1.00  0.00     0.108 A 
ATOM     15  C   UNL     1       1.487   3.407   0.665  1.00  0.00     0.189 A 
ATOM     16  N   UNL     1       2.422   2.568   1.052  1.00  0.00    -0.219 NA
ATOM     17  S   UNL     1       1.025   4.566   1.849  1.00  0.00    -0.105 S 
ATOM     18  C   UNL     1       2.085   3.847   2.985  1.00  0.00     0.098 A 
BRANCH  15  19
ATOM     19  N   UNL     1       0.824   3.623  -0.512  1.00  0.00    -0.302 N 
ATOM     20  C   UNL     1       0.557   1.396  -1.664  1.00  0.00     0.114 C 
ATOM     21  C   UNL     1       0.553   2.890  -1.617  1.00  0.00     0.223 C 
ATOM     22  O   UNL     1       0.135   3.505  -2.607  1.00  0.00    -0.275 OA
ATOM     23  H   UNL     1       0.454   4.534  -0.569  1.00  0.00     0.172 HD
ENDBRANCH  15  19
ENDBRANCH  13  14
ENDBRANCH   7  13
ENDBRANCH   5   6
ENDBRANCH   3   5
ENDBRANCH   2   3
ENDBRANCH   1   2
BRANCH   1  24
ATOM     24  C   UNL     1       3.627  -0.266  -0.061  1.00  0.00     0.275 C 
BRANCH  24  25
ATOM     25  O   UNL     1       2.227  -0.058   0.252  1.00  0.00    -0.458 OA
BRANCH  25  26
ATOM     26  C   UNL     1       1.677  -0.820   1.247  1.00  0.00     0.338 C 
ATOM     27  O   UNL     1       2.226  -1.685   1.888  1.00  0.00    -0.246 OA
BRANCH  26  28
ATOM     28  C   UNL     1       0.243  -0.425   1.424  1.00  0.00     0.060 A 
ATOM     29  C   UNL     1      -0.051   0.843   1.921  1.00  0.00     0.016 A 
ATOM     30  C   UNL     1      -0.817  -1.258   1.064  1.00  0.00     0.016 A 
ATOM     31  C   UNL     1      -1.347   1.361   1.897  1.00  0.00     0.010 A 
ATOM     32  C   UNL     1      -2.143  -0.772   1.115  1.00  0.00     0.010 A 
ATOM     33  C   UNL     1      -2.413   0.557   1.496  1.00  0.00    -0.014 A 
BRANCH  33  34
ATOM     34  C   UNL     1      -3.794   1.072   1.710  1.00  0.00     0.031 A 
ATOM     35  C   UNL     1      -4.405   0.898   3.073  1.00  0.00     0.074 A 
ATOM     36  C   UNL     1      -4.448   1.813   0.792  1.00  0.00     0.049 A 
ATOM     37  N   UNL     1      -5.601   1.210   3.502  1.00  0.00    -0.248 NA
ATOM     38  C   UNL     1      -3.526   0.317   4.100  1.00  0.00     0.031 C 
ATOM     39  C   UNL     1      -3.916   2.227  -0.504  1.00  0.00     0.029 A 
ATOM     40  N   UNL     1      -5.703   2.379   0.833  1.00  0.00    -0.354 N 
ATOM     41  C   UNL     1      -5.627   0.836   4.839  1.00  0.00     0.074 A 
ATOM     42  C   UNL     1      -4.320   0.304   5.158  1.00  0.00     0.031 C 
ATOM     43  C   UNL     1      -4.834   2.989  -1.130  1.00  0.00     0.029 A 
ATOM     44  C   UNL     1      -6.040   3.073  -0.306  1.00  0.00     0.049 A 
ATOM     45  H   UNL     1      -6.305   2.294   1.608  1.00  0.00     0.167 HD
ATOM     46  C   UNL     1      -6.652   0.900   5.720  1.00  0.00     0.037 A 
ATOM     47  C   UNL     1      -7.198   3.678  -0.650  1.00  0.00     0.037 A 
ATOM     48  C   UNL     1      -7.957   1.413   5.410  1.00  0.00     0.049 A 
ATOM     49  C   UNL     1      -8.373   3.625   0.298  1.00  0.00     0.074 A 
ATOM     50  C   UNL     1      -9.092   1.431   6.201  1.00  0.00     0.029 A 
ATOM     51  N   UNL     1      -8.298   2.004   4.204  1.00  0.00    -0.354 N 
ATOM     52  N   UNL     1      -8.430   3.163   1.524  1.00  0.00    -0.248 NA
ATOM     53  C   UNL     1      -9.656   4.152  -0.199  1.00  0.00     0.031 C 
ATOM     54  C   UNL     1     -10.131   2.003   5.458  1.00  0.00     0.029 A 
ATOM     55  C   UNL     1      -9.631   2.377   4.221  1.00  0.00     0.049 A 
ATOM     56  H   UNL     1      -7.684   2.138   3.446  1.00  0.00     0.167 HD
ATOM     57  C   UNL     1      -9.742   3.354   1.946  1.00  0.00     0.074 A 
ATOM     58  C   UNL     1     -10.446   3.992   0.854  1.00  0.00     0.031 C 
ATOM     59  C   UNL     1     -10.314   3.022   3.130  1.00  0.00     0.037 A 
BRANCH  46  60
ATOM     60  C   UNL     1      -6.406   0.292   7.066  1.00  0.00     0.057 A 
ATOM     61  C   UNL     1      -5.612   0.916   8.036  1.00  0.00     0.134 A 
ATOM     62  C   UNL     1      -6.913  -0.980   7.361  1.00  0.00     0.134 A 
ATOM     63  F   UNL     1      -5.069   2.120   7.798  1.00  0.00    -0.206 F 
ATOM     64  C   UNL     1      -5.300   0.279   9.238  1.00  0.00     0.040 A 
ATOM     65  C   UNL     1      -6.627  -1.617   8.568  1.00  0.00     0.040 A 
ATOM     66  F   UNL     1      -7.674  -1.633   6.470  1.00  0.00    -0.206 F 
ATOM     67  C   UNL     1      -5.808  -0.992   9.506  1.00  0.00     0.006 A 
ENDBRANCH  46  60
BRANCH  47  68
ATOM     68  C   UNL     1      -7.348   4.343  -1.975  1.00  0.00     0.057 A 
ATOM     69  C   UNL     1      -7.563   5.724  -2.079  1.00  0.00     0.134 A 
ATOM     70  C   UNL     1      -7.348   3.606  -3.166  1.00  0.00     0.134 A 
ATOM     71  F   UNL     1      -7.617   6.483  -0.974  1.00  0.00    -0.206 F 
ATOM     72  C   UNL     1      -7.780   6.343  -3.312  1.00  0.00     0.040 A 
ATOM     73  C   UNL     1      -7.539   4.215  -4.408  1.00  0.00     0.040 A 
ATOM     74  F   UNL     1      -7.172   2.277  -3.139  1.00  0.00    -0.206 F 
ATOM     75  C   UNL     1      -7.763   5.588  -4.483  1.00  0.00     0.006 A 
ENDBRANCH  47  68
BRANCH  59  76
ATOM     76  C   UNL     1     -11.763   3.360   3.322  1.00  0.00     0.057 A 
ATOM     77  C   UNL     1     -12.780   2.614   2.714  1.00  0.00     0.134 A 
ATOM     78  C   UNL     1     -12.146   4.399   4.180  1.00  0.00     0.134 A 
ATOM     79  F   UNL     1     -12.479   1.611   1.875  1.00  0.00    -0.206 F 
ATOM     80  C   UNL     1     -14.128   2.896   2.945  1.00  0.00     0.040 A 
ATOM     81  C   UNL     1     -13.490   4.678   4.433  1.00  0.00     0.040 A 
ATOM     82  F   UNL     1     -11.220   5.146   4.800  1.00  0.00    -0.206 F 
ATOM     83  C   UNL     1     -14.486   3.925   3.813  1.00  0.00     0.006 A 
ENDBRANCH  59  76
ENDBRANCH  33  34
ENDBRANCH  26  28
ENDBRANCH  25  26
ENDBRANCH  24  25
ENDBRANCH   1  24
TORSDOF 15
