REMARK SMILES CCCCCCNC(=O)Oc1cccc(-c2ccc([C@H](C)C(=O)OCCOC(=O)c3ccc(-c4c5nc(c(-c6c(F)cccc6F)c6ccc([nH]6)c(-c6c(F)cccc6F)c6nc(c(-c7c(F)cccc7F)c7ccc4[nH]7)C=C6)C=C5)cc3)cc2F)c1
REMARK SMILES IDX 20 1 21 2 19 3 16 4 17 5 85 6 18 7 84 8 86 9 15 10 11 11
REMARK SMILES IDX 12 12 87 13 13 14 14 15 10 16 8 17 7 18 9 20 6 21 5 22 4 23
REMARK SMILES IDX 3 24 2 25 1 26 22 27 23 28 24 29 25 30 26 31 27 32 28 33
REMARK SMILES IDX 29 34 30 35 31 36 83 37 32 38 82 39 33 40 34 41 35 42 76 43
REMARK SMILES IDX 36 44 81 45 75 46 77 47 37 48 80 49 74 50 73 51 38 53 64 54
REMARK SMILES IDX 47 55 63 56 48 57 51 58 62 59 78 60 49 61 50 62 61 64 79 65
REMARK SMILES IDX 52 66 39 67 40 68 45 69 41 70 42 71 44 72 46 73 43 74 65 75
REMARK SMILES IDX 66 76 71 77 67 78 68 79 70 80 72 81 69 82 53 83 54 84 59 85
REMARK SMILES IDX 55 86 56 87 58 88 60 89 57 90
REMARK H PARENT 7 19 77 52 51 63
REMARK Flexibility Score: inf
ROOT
ATOM      1  C   UNL     1      -5.001  -3.311  13.292  1.00  0.00     0.126 C 
ATOM      2  C   UNL     1      -5.072  -3.837  11.858  1.00  0.00     0.025 C 
ENDROOT
BRANCH   1   3
ATOM      3  C   UNL     1      -6.315  -3.463  14.039  1.00  0.00    -0.031 A 
ATOM      4  C   UNL     1      -8.790  -3.680  15.408  1.00  0.00     0.018 A 
ATOM      5  C   UNL     1      -7.654  -4.360  15.864  1.00  0.00     0.012 A 
ATOM      6  C   UNL     1      -8.660  -2.882  14.265  1.00  0.00     0.131 A 
ATOM      7  C   UNL     1      -6.437  -4.260  15.187  1.00  0.00     0.005 A 
ATOM      8  C   UNL     1      -7.447  -2.766  13.591  1.00  0.00     0.044 A 
ATOM      9  F   UNL     1      -9.717  -2.209  13.783  1.00  0.00    -0.206 F 
BRANCH   4  10
ATOM     10  C   UNL     1     -10.076  -3.872  16.080  1.00  0.00    -0.012 A 
ATOM     11  C   UNL     1     -12.369  -4.647  16.010  1.00  0.00     0.133 A 
ATOM     12  C   UNL     1     -12.531  -4.378  17.365  1.00  0.00     0.047 A 
ATOM     13  C   UNL     1     -11.167  -4.377  15.362  1.00  0.00     0.056 A 
ATOM     14  C   UNL     1     -11.459  -3.858  18.089  1.00  0.00     0.004 A 
ATOM     15  C   UNL     1     -10.240  -3.611  17.451  1.00  0.00     0.009 A 
BRANCH  11  16
ATOM     16  O   UNL     1     -13.490  -5.088  15.295  1.00  0.00    -0.410 OA
BRANCH  16  17
ATOM     17  C   UNL     1     -13.327  -6.159  14.427  1.00  0.00     0.412 C 
ATOM     18  N   UNL     1     -14.395  -6.332  13.592  1.00  0.00    -0.321 N 
ATOM     19  H   UNL     1     -14.355  -7.095  12.971  1.00  0.00     0.167 HD
ATOM     20  O   UNL     1     -12.356  -6.903  14.368  1.00  0.00    -0.224 OA
BRANCH  18  21
ATOM     21  C   UNL     1     -15.580  -5.503  13.532  1.00  0.00     0.119 C 
BRANCH  21  22
ATOM     22  C   UNL     1     -15.788  -4.904  12.142  1.00  0.00     0.021 C 
BRANCH  22  23
ATOM     23  C   UNL     1     -16.062  -5.928  11.034  1.00  0.00     0.002 C 
BRANCH  23  24
ATOM     24  C   UNL     1     -17.247  -6.867  11.283  1.00  0.00    -0.000 C 
BRANCH  24  25
ATOM     25  C   UNL     1     -18.588  -6.178  11.547  1.00  0.00    -0.003 C 
ATOM     26  C   UNL     1     -19.079  -5.349  10.371  1.00  0.00     0.004 C 
ENDBRANCH  24  25
ENDBRANCH  23  24
ENDBRANCH  22  23
ENDBRANCH  21  22
ENDBRANCH  18  21
ENDBRANCH  16  17
ENDBRANCH  11  16
ENDBRANCH   4  10
ENDBRANCH   1   3
BRANCH   1  27
ATOM     27  C   UNL     1      -3.799  -3.837  14.072  1.00  0.00     0.313 C 
ATOM     28  O   UNL     1      -3.345  -3.260  15.056  1.00  0.00    -0.252 OA
BRANCH  27  29
ATOM     29  O   UNL     1      -3.338  -5.027  13.602  1.00  0.00    -0.462 OA
BRANCH  29  30
ATOM     30  C   UNL     1      -2.231  -5.601  14.321  1.00  0.00     0.274 C 
BRANCH  30  31
ATOM     31  C   UNL     1      -0.883  -5.226  13.699  1.00  0.00     0.275 C 
BRANCH  31  32
ATOM     32  O   UNL     1      -0.587  -3.824  13.842  1.00  0.00    -0.458 OA
BRANCH  32  33
ATOM     33  C   UNL     1      -0.985  -3.047  12.808  1.00  0.00     0.338 C 
ATOM     34  O   UNL     1      -1.519  -3.408  11.773  1.00  0.00    -0.246 OA
BRANCH  33  35
ATOM     35  C   UNL     1      -0.815  -1.627  13.149  1.00  0.00     0.060 A 
ATOM     36  C   UNL     1      -1.964  -0.844  13.277  1.00  0.00     0.016 A 
ATOM     37  C   UNL     1       0.450  -1.047  13.232  1.00  0.00     0.016 A 
ATOM     38  C   UNL     1      -1.865   0.526  13.482  1.00  0.00     0.010 A 
ATOM     39  C   UNL     1       0.552   0.333  13.436  1.00  0.00     0.010 A 
ATOM     40  C   UNL     1      -0.604   1.126  13.548  1.00  0.00    -0.014 A 
BRANCH  40  41
ATOM     41  C   UNL     1      -0.507   2.598  13.654  1.00  0.00     0.031 A 
ATOM     42  C   UNL     1      -0.113   3.401  12.450  1.00  0.00     0.074 A 
ATOM     43  C   UNL     1      -0.807   3.210  14.814  1.00  0.00     0.049 A 
ATOM     44  N   UNL     1       0.140   4.680  12.353  1.00  0.00    -0.248 NA
ATOM     45  C   UNL     1       0.013   2.662  11.183  1.00  0.00     0.031 C 
ATOM     46  C   UNL     1      -1.271   2.539  16.028  1.00  0.00     0.029 A 
ATOM     47  N   UNL     1      -0.760   4.536  15.158  1.00  0.00    -0.354 N 
ATOM     48  C   UNL     1       0.482   4.896  11.025  1.00  0.00     0.074 A 
ATOM     49  C   UNL     1       0.413   3.616  10.354  1.00  0.00     0.031 C 
ATOM     50  C   UNL     1      -1.461   3.458  16.988  1.00  0.00     0.029 A 
ATOM     51  C   UNL     1      -1.082   4.771  16.472  1.00  0.00     0.049 A 
ATOM     52  H   UNL     1      -0.518   5.251  14.526  1.00  0.00     0.167 HD
ATOM     53  C   UNL     1       0.825   6.060  10.425  1.00  0.00     0.037 A 
ATOM     54  C   UNL     1      -1.039   5.911  17.186  1.00  0.00     0.037 A 
ATOM     55  C   UNL     1       0.872   7.332  11.098  1.00  0.00     0.049 A 
ATOM     56  C   UNL     1      -0.589   7.178  16.513  1.00  0.00     0.074 A 
ATOM     57  C   UNL     1       1.203   8.571  10.579  1.00  0.00     0.029 A 
ATOM     58  N   UNL     1       0.575   7.524  12.439  1.00  0.00    -0.354 N 
ATOM     59  N   UNL     1      -0.238   7.371  15.264  1.00  0.00    -0.248 NA
ATOM     60  C   UNL     1      -0.517   8.383  17.351  1.00  0.00     0.031 C 
ATOM     61  C   UNL     1       1.142   9.508  11.617  1.00  0.00     0.029 A 
ATOM     62  C   UNL     1       0.734   8.859  12.771  1.00  0.00     0.049 A 
ATOM     63  H   UNL     1       0.293   6.816  13.062  1.00  0.00     0.167 HD
ATOM     64  C   UNL     1       0.079   8.719  15.162  1.00  0.00     0.074 A 
ATOM     65  C   UNL     1      -0.136   9.299  16.472  1.00  0.00     0.031 C 
ATOM     66  C   UNL     1       0.511   9.414  14.082  1.00  0.00     0.037 A 
BRANCH  53  67
ATOM     67  C   UNL     1       1.212   6.001   8.978  1.00  0.00     0.057 A 
ATOM     68  C   UNL     1       0.266   5.813   7.963  1.00  0.00     0.134 A 
ATOM     69  C   UNL     1       2.550   6.156   8.595  1.00  0.00     0.134 A 
ATOM     70  F   UNL     1      -1.030   5.641   8.264  1.00  0.00    -0.206 F 
ATOM     71  C   UNL     1       0.641   5.760   6.618  1.00  0.00     0.040 A 
ATOM     72  C   UNL     1       2.934   6.127   7.254  1.00  0.00     0.040 A 
ATOM     73  F   UNL     1       3.506   6.341   9.519  1.00  0.00    -0.206 F 
ATOM     74  C   UNL     1       1.978   5.923   6.261  1.00  0.00     0.006 A 
ENDBRANCH  53  67
BRANCH  54  75
ATOM     75  C   UNL     1      -1.397   5.898  18.625  1.00  0.00     0.057 A 
ATOM     76  C   UNL     1      -2.560   6.522  19.089  1.00  0.00     0.134 A 
ATOM     77  C   UNL     1      -0.580   5.268  19.572  1.00  0.00     0.134 A 
ATOM     78  F   UNL     1      -3.369   7.163  18.233  1.00  0.00    -0.206 F 
ATOM     79  C   UNL     1      -2.894   6.528  20.444  1.00  0.00     0.040 A 
ATOM     80  C   UNL     1      -0.914   5.245  20.927  1.00  0.00     0.040 A 
ATOM     81  F   UNL     1       0.549   4.653  19.191  1.00  0.00    -0.206 F 
ATOM     82  C   UNL     1      -2.073   5.882  21.367  1.00  0.00     0.006 A 
ENDBRANCH  54  75
BRANCH  66  83
ATOM     83  C   UNL     1       0.752  10.882  14.268  1.00  0.00     0.057 A 
ATOM     84  C   UNL     1       1.874  11.362  14.955  1.00  0.00     0.134 A 
ATOM     85  C   UNL     1      -0.128  11.824  13.723  1.00  0.00     0.134 A 
ATOM     86  F   UNL     1       2.747  10.509  15.512  1.00  0.00    -0.206 F 
ATOM     87  C   UNL     1       2.102  12.730  15.109  1.00  0.00     0.040 A 
ATOM     88  C   UNL     1       0.101  13.194  13.851  1.00  0.00     0.040 A 
ATOM     89  F   UNL     1      -1.218  11.428  13.048  1.00  0.00    -0.206 F 
ATOM     90  C   UNL     1       1.217  13.650  14.550  1.00  0.00     0.006 A 
ENDBRANCH  66  83
ENDBRANCH  40  41
ENDBRANCH  33  35
ENDBRANCH  32  33
ENDBRANCH  31  32
ENDBRANCH  30  31
ENDBRANCH  29  30
ENDBRANCH  27  29
ENDBRANCH   1  27
TORSDOF 20
