REMARK SMILES O=C(OCCOC(=O)c1cc(NS(=O)(=O)c2ccc3c(c2)OCCCO3)ccc1N1CCSCC1)c1ccc(-c2c3nc(c(-c4c(F)cccc4F)c4ccc([nH]4)c(-c4c(F)cccc4F)c4nc(c(-c5c(F)cccc5F)c5ccc2[nH]5)C=C4)C=C3)cc1
REMARK SMILES IDX 7 1 8 2 6 3 5 4 4 5 3 6 2 7 1 8 36 9 37 10 89 11 38 12 88 13
REMARK SMILES IDX 39 14 40 15 41 16 82 17 42 18 87 19 81 20 83 21 43 22 86 23
REMARK SMILES IDX 80 24 79 25 44 27 70 28 53 29 69 30 54 31 57 32 68 33 84 34
REMARK SMILES IDX 55 35 56 36 67 38 85 39 58 40 45 41 46 42 51 43 47 44 48 45
REMARK SMILES IDX 50 46 52 47 49 48 71 49 72 50 77 51 73 52 74 53 76 54 78 55
REMARK SMILES IDX 75 56 59 57 60 58 65 59 61 60 62 61 64 62 66 63 63 64 9 65
REMARK SMILES IDX 10 66 29 67 11 68 28 69 27 70 30 71 31 72 35 73 32 74 34 75
REMARK SMILES IDX 33 76 12 77 13 79 14 80 15 81 16 82 17 83 21 84 18 85 20 86
REMARK SMILES IDX 19 87 22 88 23 89 26 91 25 92 24 93
REMARK H PARENT 83 26 57 37 12 78
REMARK Flexibility Score: 80.00
ROOT
ATOM      1  C   UNL     1       2.340   0.709  -2.764  1.00  0.00     0.340 C 
ATOM      2  O   UNL     1       1.719  -0.125  -3.405  1.00  0.00    -0.246 OA
ENDROOT
BRANCH   1   3
ATOM      3  O   UNL     1       3.529   0.423  -2.055  1.00  0.00    -0.458 OA
BRANCH   3   4
ATOM      4  C   UNL     1       4.259  -0.905  -2.031  1.00  0.00     0.275 C 
BRANCH   4   5
ATOM      5  C   UNL     1       4.660  -1.698  -0.655  1.00  0.00     0.275 C 
BRANCH   5   6
ATOM      6  O   UNL     1       3.867  -1.646   0.526  1.00  0.00    -0.458 OA
BRANCH   6   7
ATOM      7  C   UNL     1       2.880  -0.764   0.361  1.00  0.00     0.338 C 
ATOM      8  O   UNL     1       1.998  -1.066  -0.429  1.00  0.00    -0.246 OA
BRANCH   7   9
ATOM      9  C   UNL     1       3.342   0.657   1.122  1.00  0.00     0.060 A 
ATOM     10  C   UNL     1       4.980   0.996   0.450  1.00  0.00     0.016 A 
ATOM     11  C   UNL     1       2.488   2.279   1.863  1.00  0.00     0.016 A 
ATOM     12  C   UNL     1       5.631   2.570   0.486  1.00  0.00     0.010 A 
ATOM     13  C   UNL     1       3.345   3.834   1.831  1.00  0.00     0.010 A 
ATOM     14  C   UNL     1       4.836   3.905   1.084  1.00  0.00    -0.014 A 
BRANCH  14  15
ATOM     15  C   UNL     1       5.519   5.211   0.963  1.00  0.00     0.031 A 
ATOM     16  C   UNL     1       6.239   5.589   2.162  1.00  0.00     0.074 A 
ATOM     17  C   UNL     1       5.463   6.067  -0.078  1.00  0.00     0.049 A 
ATOM     18  N   UNL     1       6.789   6.726   2.407  1.00  0.00    -0.248 NA
ATOM     19  C   UNL     1       6.202   4.638   3.274  1.00  0.00     0.031 C 
ATOM     20  C   UNL     1       4.585   5.843  -1.184  1.00  0.00     0.029 A 
ATOM     21  N   UNL     1       6.086   7.235  -0.448  1.00  0.00    -0.354 N 
ATOM     22  C   UNL     1       7.119   6.624   3.728  1.00  0.00     0.074 A 
ATOM     23  C   UNL     1       6.544   5.423   4.269  1.00  0.00     0.031 C 
ATOM     24  C   UNL     1       4.823   6.698  -2.188  1.00  0.00     0.029 A 
ATOM     25  C   UNL     1       5.809   7.640  -1.750  1.00  0.00     0.049 A 
ATOM     26  H   UNL     1       6.676   7.741   0.156  1.00  0.00     0.167 HD
ATOM     27  C   UNL     1       7.929   7.450   4.390  1.00  0.00     0.037 A 
ATOM     28  C   UNL     1       6.286   8.650  -2.507  1.00  0.00     0.037 A 
ATOM     29  C   UNL     1       8.431   8.636   3.790  1.00  0.00     0.049 A 
ATOM     30  C   UNL     1       7.139   9.599  -1.736  1.00  0.00     0.074 A 
ATOM     31  C   UNL     1       9.196   9.611   4.375  1.00  0.00     0.029 A 
ATOM     32  N   UNL     1       8.172   9.027   2.478  1.00  0.00    -0.354 N 
ATOM     33  N   UNL     1       7.521   9.472  -0.487  1.00  0.00    -0.248 NA
ATOM     34  C   UNL     1       7.561  10.836  -2.390  1.00  0.00     0.031 C 
ATOM     35  C   UNL     1       9.319  10.642   3.450  1.00  0.00     0.029 A 
ATOM     36  C   UNL     1       8.743  10.257   2.244  1.00  0.00     0.049 A 
ATOM     37  H   UNL     1       7.659   8.504   1.820  1.00  0.00     0.167 HD
ATOM     38  C   UNL     1       8.216  10.616  -0.188  1.00  0.00     0.074 A 
ATOM     39  C   UNL     1       8.252  11.405  -1.411  1.00  0.00     0.031 C 
ATOM     40  C   UNL     1       8.752  10.982   0.998  1.00  0.00     0.037 A 
BRANCH  27  41
ATOM     41  C   UNL     1       8.160   7.083   5.803  1.00  0.00     0.057 A 
ATOM     42  C   UNL     1       8.783   5.878   6.171  1.00  0.00     0.134 A 
ATOM     43  C   UNL     1       7.562   7.856   6.795  1.00  0.00     0.134 A 
ATOM     44  F   UNL     1       9.274   5.046   5.238  1.00  0.00    -0.206 F 
ATOM     45  C   UNL     1       8.760   5.439   7.489  1.00  0.00     0.040 A 
ATOM     46  C   UNL     1       7.595   7.460   8.123  1.00  0.00     0.040 A 
ATOM     47  F   UNL     1       6.882   8.968   6.474  1.00  0.00    -0.206 F 
ATOM     48  C   UNL     1       8.182   6.243   8.470  1.00  0.00     0.006 A 
ENDBRANCH  27  41
BRANCH  28  49
ATOM     49  C   UNL     1       5.969   8.865  -3.959  1.00  0.00     0.057 A 
ATOM     50  C   UNL     1       6.992   8.957  -4.920  1.00  0.00     0.134 A 
ATOM     51  C   UNL     1       4.662   9.020  -4.442  1.00  0.00     0.134 A 
ATOM     52  F   UNL     1       8.275   8.819  -4.553  1.00  0.00    -0.206 F 
ATOM     53  C   UNL     1       6.733   9.228  -6.271  1.00  0.00     0.040 A 
ATOM     54  C   UNL     1       4.383   9.241  -5.798  1.00  0.00     0.040 A 
ATOM     55  F   UNL     1       3.616   8.953  -3.604  1.00  0.00    -0.206 F 
ATOM     56  C   UNL     1       5.422   9.365  -6.715  1.00  0.00     0.006 A 
ENDBRANCH  28  49
BRANCH  40  57
ATOM     57  C   UNL     1       9.501  12.262   0.990  1.00  0.00     0.057 A 
ATOM     58  C   UNL     1       8.864  13.494   0.824  1.00  0.00     0.134 A 
ATOM     59  C   UNL     1      10.883  12.241   1.206  1.00  0.00     0.134 A 
ATOM     60  F   UNL     1       7.539  13.558   0.620  1.00  0.00    -0.206 F 
ATOM     61  C   UNL     1       9.598  14.672   0.809  1.00  0.00     0.040 A 
ATOM     62  C   UNL     1      11.613  13.416   1.267  1.00  0.00     0.040 A 
ATOM     63  F   UNL     1      11.528  11.080   1.400  1.00  0.00    -0.206 F 
ATOM     64  C   UNL     1      10.973  14.634   1.043  1.00  0.00     0.006 A 
ENDBRANCH  40  57
ENDBRANCH  14  15
ENDBRANCH   7   9
ENDBRANCH   6   7
ENDBRANCH   5   6
ENDBRANCH   4   5
ENDBRANCH   3   4
ENDBRANCH   1   3
BRANCH   1  65
ATOM     65  C   UNL     1       1.819   2.251  -2.681  1.00  0.00     0.085 A 
ATOM     66  C   UNL     1       0.481   2.575  -2.033  1.00  0.00     0.044 A 
ATOM     67  C   UNL     1       2.750   3.276  -2.930  1.00  0.00     0.052 A 
ATOM     68  C   UNL     1       0.237   3.798  -1.344  1.00  0.00     0.050 A 
ATOM     69  C   UNL     1       2.232   4.554  -2.619  1.00  0.00     0.029 A 
ATOM     70  C   UNL     1       1.104   4.811  -1.756  1.00  0.00     0.029 A 
BRANCH  67  71
ATOM     71  N   UNL     1       4.027   3.049  -3.436  1.00  0.00    -0.369 N 
ATOM     72  C   UNL     1       4.176   2.047  -4.499  1.00  0.00     0.127 C 
ATOM     73  C   UNL     1       5.377   3.552  -3.046  1.00  0.00     0.127 C 
ATOM     74  C   UNL     1       4.629   2.725  -5.780  1.00  0.00     0.091 C 
ATOM     75  C   UNL     1       5.998   4.432  -4.142  1.00  0.00     0.091 C 
ATOM     76  S   UNL     1       6.300   3.447  -5.649  1.00  0.00    -0.158 SA
ENDBRANCH  67  71
BRANCH  68  77
ATOM     77  N   UNL     1      -0.392   4.017   0.027  1.00  0.00    -0.280 N 
ATOM     78  H   UNL     1      -0.098   4.867   0.427  1.00  0.00     0.180 HD
BRANCH  77  79
ATOM     79  S   UNL     1      -1.490   3.165   1.077  1.00  0.00     0.262 S 
ATOM     80  O   UNL     1      -1.795   4.135   2.114  1.00  0.00    -0.201 OA
ATOM     81  O   UNL     1      -2.550   2.669   0.223  1.00  0.00    -0.201 OA
BRANCH  79  82
ATOM     82  C   UNL     1      -0.841   1.705   2.073  1.00  0.00     0.091 A 
ATOM     83  C   UNL     1      -1.282   0.445   1.617  1.00  0.00     0.026 A 
ATOM     84  C   UNL     1       0.268   1.754   3.051  1.00  0.00     0.072 A 
ATOM     85  C   UNL     1      -0.408  -0.624   1.822  1.00  0.00     0.052 A 
ATOM     86  C   UNL     1       1.290   0.675   3.056  1.00  0.00     0.162 A 
ATOM     87  C   UNL     1       0.930  -0.192   2.034  1.00  0.00     0.161 A 
BRANCH  86  88
ATOM     88  O   UNL     1       2.967   0.855   3.304  1.00  0.00    -0.490 OA
BRANCH  88  89
ATOM     89  C   UNL     1       4.219   1.859   2.259  1.00  0.00     0.233 CG0
ATOM     90  G   UNL     1       3.390   2.347   0.277  1.00  0.00     0.000 G0
ENDBRANCH  88  89
ENDBRANCH  86  88
BRANCH  87  91
ATOM     91  O   UNL     1       0.964   0.527   0.697  1.00  0.00    -0.490 OA
BRANCH  91  92
ATOM     92  C   UNL     1       1.647   1.629   0.071  1.00  0.00     0.233 C 
BRANCH  92  93
ATOM     93  C   UNL     1       3.390   2.347   0.277  1.00  0.00     0.083 CG0
ATOM     94  G   UNL     1       4.219   1.859   2.259  1.00  0.00     0.000 G0
ENDBRANCH  92  93
ENDBRANCH  91  92
ENDBRANCH  87  91
ENDBRANCH  79  82
ENDBRANCH  77  79
ENDBRANCH  68  77
ENDBRANCH   1  65
TORSDOF 15
