REMARK SMILES Cc1ccccc1[C@@H]1[NH2+][C@H](C(=O)OCCOC(=O)c2ccc(-c3c4nc(c(-c5c(F)cccc5F)c5ccc([nH]5)c(-c5c(F)cccc5F)c5nc(c(-c6c(F)cccc6F)c6ccc3[nH]6)C=C5)C=C4)cc2)CC2=c3ccccc3=N[C@H]21
REMARK SMILES IDX 15 1 14 2 13 3 11 4 12 5 10 6 8 7 9 8 82 9 74 12 81 13 73 14
REMARK SMILES IDX 75 15 80 16 76 17 79 18 77 19 78 20 7 21 1 22 2 23 3 24 4 25
REMARK SMILES IDX 6 26 5 27 16 28 17 29 18 30 19 31 20 32 72 33 21 34 71 35
REMARK SMILES IDX 22 36 23 37 24 38 65 39 25 40 70 41 64 42 66 43 26 44 69 45
REMARK SMILES IDX 63 46 62 47 27 49 53 50 36 51 52 52 37 53 40 54 51 55 67 56
REMARK SMILES IDX 38 57 39 58 50 60 68 61 41 62 28 63 29 64 34 65 30 66 31 67
REMARK SMILES IDX 33 68 35 69 32 70 54 71 55 72 60 73 56 74 57 75 59 76 61 77
REMARK SMILES IDX 58 78 42 79 43 80 48 81 44 82 45 83 47 84 49 85 46 86
REMARK H PARENT 9 10 9 11 66 48 40 59
REMARK Flexibility Score: inf
ROOT
ATOM      1  C   UNL     1      -2.392   7.140  -3.302  1.00  0.00     0.275 C 
ENDROOT
BRANCH   1   2
ATOM      2  C   UNL     1      -2.813   6.817  -1.870  1.00  0.00     0.274 C 
BRANCH   2   3
ATOM      3  O   UNL     1      -1.884   5.933  -1.241  1.00  0.00    -0.458 OA
BRANCH   3   4
ATOM      4  C   UNL     1      -2.463   5.120  -0.327  1.00  0.00     0.365 C 
ATOM      5  O   UNL     1      -3.655   5.160  -0.027  1.00  0.00    -0.245 OA
BRANCH   4   6
ATOM      6  C   UNL     1      -1.504   4.261   0.455  1.00  0.00     0.298 C 
ATOM      7  C   UNL     1       0.517   2.891   0.723  1.00  0.00     0.243 C 
ATOM      8  N   UNL     1      -0.298   3.726  -0.232  1.00  0.00    -0.326 N 
ATOM      9  C   UNL     1       0.708   3.464   2.196  1.00  0.00     0.196 C 
ATOM     10  H   UNL     1      -0.589   3.149  -1.021  1.00  0.00     0.347 HD
ATOM     11  H   UNL     1       0.271   4.506  -0.562  1.00  0.00     0.347 HD
ATOM     12  C   UNL     1      -0.541   4.183   2.597  1.00  0.00    -0.024 C 
ATOM     13  N   UNL     1       0.814   2.346   3.189  1.00  0.00    -0.270 NA
ATOM     14  C   UNL     1      -1.090   5.147   1.628  1.00  0.00     0.111 C 
ATOM     15  C   UNL     1      -1.204   3.538   3.546  1.00  0.00     0.002 A 
ATOM     16  C   UNL     1      -0.289   2.438   3.869  1.00  0.00     0.066 A 
ATOM     17  C   UNL     1      -2.565   3.557   3.971  1.00  0.00     0.010 A 
ATOM     18  C   UNL     1      -0.764   1.504   4.908  1.00  0.00     0.028 A 
ATOM     19  C   UNL     1      -2.976   2.583   4.796  1.00  0.00     0.001 A 
ATOM     20  C   UNL     1      -2.044   1.592   5.314  1.00  0.00     0.002 A 
BRANCH   7  21
ATOM     21  C   UNL     1       1.887   2.519   0.157  1.00  0.00     0.015 A 
ATOM     22  C   UNL     1       2.633   4.953  -0.221  1.00  0.00     0.045 C 
ATOM     23  C   UNL     1       2.877   3.469  -0.177  1.00  0.00    -0.042 A 
ATOM     24  C   UNL     1       4.196   3.031  -0.402  1.00  0.00     0.004 A 
ATOM     25  C   UNL     1       4.525   1.677  -0.373  1.00  0.00     0.000 A 
ATOM     26  C   UNL     1       2.229   1.149   0.121  1.00  0.00     0.010 A 
ATOM     27  C   UNL     1       3.535   0.733  -0.144  1.00  0.00     0.001 A 
ENDBRANCH   7  21
ENDBRANCH   4   6
ENDBRANCH   3   4
ENDBRANCH   2   3
ENDBRANCH   1   2
BRANCH   1  28
ATOM     28  O   UNL     1      -1.633   6.139  -4.052  1.00  0.00    -0.458 OA
BRANCH  28  29
ATOM     29  C   UNL     1      -1.683   4.785  -3.998  1.00  0.00     0.338 C 
ATOM     30  O   UNL     1      -0.744   4.077  -4.347  1.00  0.00    -0.246 OA
BRANCH  29  31
ATOM     31  C   UNL     1      -2.919   4.157  -3.511  1.00  0.00     0.060 A 
ATOM     32  C   UNL     1      -2.859   2.990  -2.723  1.00  0.00     0.016 A 
ATOM     33  C   UNL     1      -4.129   4.778  -3.780  1.00  0.00     0.016 A 
ATOM     34  C   UNL     1      -4.009   2.515  -2.094  1.00  0.00     0.010 A 
ATOM     35  C   UNL     1      -5.227   4.399  -3.055  1.00  0.00     0.010 A 
ATOM     36  C   UNL     1      -5.183   3.247  -2.247  1.00  0.00    -0.014 A 
BRANCH  36  37
ATOM     37  C   UNL     1      -6.510   2.777  -1.891  1.00  0.00     0.031 A 
ATOM     38  C   UNL     1      -7.133   2.958  -0.572  1.00  0.00     0.074 A 
ATOM     39  C   UNL     1      -7.216   2.459  -3.000  1.00  0.00     0.049 A 
ATOM     40  N   UNL     1      -8.271   2.442  -0.267  1.00  0.00    -0.248 NA
ATOM     41  C   UNL     1      -6.557   3.709   0.535  1.00  0.00     0.031 C 
ATOM     42  C   UNL     1      -8.645   2.457  -3.238  1.00  0.00     0.029 A 
ATOM     43  N   UNL     1      -6.674   2.021  -4.210  1.00  0.00    -0.354 N 
ATOM     44  C   UNL     1      -8.722   3.031   0.896  1.00  0.00     0.074 A 
ATOM     45  C   UNL     1      -7.572   3.729   1.413  1.00  0.00     0.031 C 
ATOM     46  C   UNL     1      -8.889   1.799  -4.388  1.00  0.00     0.029 A 
ATOM     47  C   UNL     1      -7.629   1.218  -4.830  1.00  0.00     0.049 A 
ATOM     48  H   UNL     1      -5.780   2.240  -4.561  1.00  0.00     0.167 HD
ATOM     49  C   UNL     1     -10.058   2.949   1.173  1.00  0.00     0.037 A 
ATOM     50  C   UNL     1      -7.359  -0.117  -4.931  1.00  0.00     0.037 A 
ATOM     51  C   UNL     1     -10.715   2.143   0.144  1.00  0.00     0.049 A 
ATOM     52  C   UNL     1      -8.309  -0.917  -4.074  1.00  0.00     0.074 A 
ATOM     53  C   UNL     1     -11.417   2.486  -1.000  1.00  0.00     0.029 A 
ATOM     54  N   UNL     1     -10.389   0.799   0.025  1.00  0.00    -0.354 N 
ATOM     55  N   UNL     1      -8.859  -0.478  -2.972  1.00  0.00    -0.248 NA
ATOM     56  C   UNL     1      -8.805  -2.228  -4.468  1.00  0.00     0.031 C 
ATOM     57  C   UNL     1     -11.477   1.337  -1.830  1.00  0.00     0.029 A 
ATOM     58  C   UNL     1     -10.826   0.299  -1.183  1.00  0.00     0.049 A 
ATOM     59  H   UNL     1      -9.912   0.275   0.710  1.00  0.00     0.167 HD
ATOM     60  C   UNL     1      -9.826  -1.364  -2.563  1.00  0.00     0.074 A 
ATOM     61  C   UNL     1      -9.735  -2.449  -3.524  1.00  0.00     0.031 C 
ATOM     62  C   UNL     1     -10.660  -1.111  -1.507  1.00  0.00     0.037 A 
BRANCH  49  63
ATOM     63  C   UNL     1     -10.856   3.752   2.185  1.00  0.00     0.057 A 
ATOM     64  C   UNL     1     -12.262   3.863   2.054  1.00  0.00     0.134 A 
ATOM     65  C   UNL     1     -10.334   4.454   3.283  1.00  0.00     0.134 A 
ATOM     66  F   UNL     1     -12.940   3.204   1.105  1.00  0.00    -0.206 F 
ATOM     67  C   UNL     1     -13.060   4.657   2.889  1.00  0.00     0.040 A 
ATOM     68  C   UNL     1     -11.121   5.266   4.121  1.00  0.00     0.040 A 
ATOM     69  F   UNL     1      -9.047   4.365   3.633  1.00  0.00    -0.206 F 
ATOM     70  C   UNL     1     -12.488   5.379   3.920  1.00  0.00     0.006 A 
ENDBRANCH  49  63
BRANCH  50  71
ATOM     71  C   UNL     1      -5.896  -0.376  -5.148  1.00  0.00     0.057 A 
ATOM     72  C   UNL     1      -5.309   0.164  -6.314  1.00  0.00     0.134 A 
ATOM     73  C   UNL     1      -5.023  -0.694  -4.101  1.00  0.00     0.134 A 
ATOM     74  F   UNL     1      -6.082   0.497  -7.361  1.00  0.00    -0.206 F 
ATOM     75  C   UNL     1      -3.955   0.513  -6.377  1.00  0.00     0.040 A 
ATOM     76  C   UNL     1      -3.657  -0.370  -4.165  1.00  0.00     0.040 A 
ATOM     77  F   UNL     1      -5.488  -1.210  -2.955  1.00  0.00    -0.206 F 
ATOM     78  C   UNL     1      -3.131   0.278  -5.283  1.00  0.00     0.006 A 
ENDBRANCH  50  71
BRANCH  62  79
ATOM     79  C   UNL     1     -11.502  -2.115  -0.740  1.00  0.00     0.057 A 
ATOM     80  C   UNL     1     -11.365  -3.506  -0.829  1.00  0.00     0.134 A 
ATOM     81  C   UNL     1     -12.409  -1.685   0.266  1.00  0.00     0.134 A 
ATOM     82  F   UNL     1     -10.460  -4.083  -1.626  1.00  0.00    -0.206 F 
ATOM     83  C   UNL     1     -12.115  -4.393  -0.044  1.00  0.00     0.040 A 
ATOM     84  C   UNL     1     -13.105  -2.559   1.104  1.00  0.00     0.040 A 
ATOM     85  F   UNL     1     -12.648  -0.390   0.517  1.00  0.00    -0.206 F 
ATOM     86  C   UNL     1     -12.977  -3.924   0.936  1.00  0.00     0.006 A 
ENDBRANCH  62  79
ENDBRANCH  36  37
ENDBRANCH  29  31
ENDBRANCH  28  29
ENDBRANCH   1  28
TORSDOF 12
