REMARK SMILES COc1ccc(/C=C2/SC(=S)N([C@H](C)C(=O)OCCOC(=O)c3ccc(-c4c5nc(c(-c6c(F)cccc6F)c6ccc([nH]6)c(-c6c(F)cccc6F)c6nc(c(-c7c(F)cccc7F)c7ccc4[nH]7)C=C6)C=C5)cc3)C2=O)cc1OC
REMARK SMILES IDX 18 1 17 2 15 3 16 4 13 5 14 6 12 7 7 8 8 9 9 10 77 11 10 12
REMARK SMILES IDX 78 13 11 14 6 15 3 16 4 17 80 18 5 19 79 20 2 21 1 22 81 23
REMARK SMILES IDX 82 24 19 25 20 26 21 27 22 28 23 29 24 30 76 31 25 32 75 33
REMARK SMILES IDX 26 34 27 35 28 36 69 37 29 38 74 39 68 40 70 41 30 42 73 43
REMARK SMILES IDX 67 44 66 45 31 47 57 48 40 49 56 50 41 51 44 52 55 53 71 54
REMARK SMILES IDX 42 55 43 56 54 58 72 59 45 60 32 61 33 62 38 63 34 64 35 65
REMARK SMILES IDX 37 66 39 67 36 68 58 69 59 70 64 71 60 72 61 73 63 74 65 75
REMARK SMILES IDX 62 76 46 77 47 78 52 79 48 80 49 81 51 82 53 83 50 84
REMARK H PARENT 70 46 44 57
REMARK Flexibility Score: inf
ROOT
ATOM      1  C   UNL     1       2.589  -0.822   7.710  1.00  0.00     0.274 C 
ENDROOT
BRANCH   1   2
ATOM      2  O   UNL     1       3.384  -1.612   6.805  1.00  0.00    -0.461 OA
BRANCH   2   3
ATOM      3  C   UNL     1       4.716  -1.724   7.075  1.00  0.00     0.329 C 
ATOM      4  O   UNL     1       5.288  -1.196   8.021  1.00  0.00    -0.250 OA
BRANCH   3   5
ATOM      5  C   UNL     1       5.441  -2.550   6.003  1.00  0.00     0.199 C 
ATOM      6  C   UNL     1       4.511  -3.639   5.435  1.00  0.00     0.044 C 
BRANCH   5   7
ATOM      7  N   UNL     1       6.226  -1.861   4.948  1.00  0.00    -0.279 N 
ATOM      8  C   UNL     1       7.860  -2.484   1.794  1.00  0.00     0.029 C 
ATOM      9  C   UNL     1       7.521  -1.948   2.975  1.00  0.00     0.081 C 
ATOM     10  S   UNL     1       7.387  -0.264   3.267  1.00  0.00    -0.054 SA
ATOM     11  C   UNL     1       7.041  -2.678   4.175  1.00  0.00     0.266 C 
ATOM     12  C   UNL     1       6.286  -0.518   4.636  1.00  0.00     0.149 C 
ATOM     13  O   UNL     1       7.364  -3.825   4.449  1.00  0.00    -0.268 OA
ATOM     14  S   UNL     1       5.515   0.791   5.318  1.00  0.00    -0.052 S 
BRANCH   8  15
ATOM     15  C   UNL     1       7.661  -3.902   1.474  1.00  0.00    -0.020 A 
ATOM     16  C   UNL     1       7.199  -6.626   0.989  1.00  0.00     0.160 A 
ATOM     17  C   UNL     1       8.507  -6.120   1.041  1.00  0.00     0.051 A 
ATOM     18  C   UNL     1       6.108  -5.771   1.176  1.00  0.00     0.161 A 
ATOM     19  C   UNL     1       8.739  -4.760   1.275  1.00  0.00     0.012 A 
ATOM     20  C   UNL     1       6.356  -4.411   1.400  1.00  0.00     0.058 A 
BRANCH  16  21
ATOM     21  O   UNL     1       7.024  -7.977   0.856  1.00  0.00    -0.493 OA
ATOM     22  C   UNL     1       7.403  -8.439  -0.439  1.00  0.00     0.278 C 
ENDBRANCH  16  21
BRANCH  18  23
ATOM     23  O   UNL     1       4.772  -6.068   1.189  1.00  0.00    -0.493 OA
ATOM     24  C   UNL     1       4.364  -7.380   0.840  1.00  0.00     0.278 C 
ENDBRANCH  18  23
ENDBRANCH   8  15
ENDBRANCH   5   7
ENDBRANCH   3   5
ENDBRANCH   2   3
ENDBRANCH   1   2
BRANCH   1  25
ATOM     25  C   UNL     1       1.863  -1.699   8.733  1.00  0.00     0.275 C 
BRANCH  25  26
ATOM     26  O   UNL     1       2.788  -2.279   9.672  1.00  0.00    -0.458 OA
BRANCH  26  27
ATOM     27  C   UNL     1       3.227  -3.516   9.355  1.00  0.00     0.338 C 
ATOM     28  O   UNL     1       2.861  -4.210   8.415  1.00  0.00    -0.246 OA
BRANCH  27  29
ATOM     29  C   UNL     1       4.366  -3.882  10.210  1.00  0.00     0.060 A 
ATOM     30  C   UNL     1       5.549  -4.285   9.582  1.00  0.00     0.016 A 
ATOM     31  C   UNL     1       4.266  -3.883  11.603  1.00  0.00     0.016 A 
ATOM     32  C   UNL     1       6.643  -4.684  10.343  1.00  0.00     0.010 A 
ATOM     33  C   UNL     1       5.361  -4.300  12.367  1.00  0.00     0.010 A 
ATOM     34  C   UNL     1       6.551  -4.710  11.740  1.00  0.00    -0.014 A 
BRANCH  34  35
ATOM     35  C   UNL     1       7.685  -5.241  12.529  1.00  0.00     0.031 A 
ATOM     36  C   UNL     1       7.639  -6.653  13.035  1.00  0.00     0.074 A 
ATOM     37  C   UNL     1       8.768  -4.476  12.750  1.00  0.00     0.049 A 
ATOM     38  N   UNL     1       8.515  -7.302  13.758  1.00  0.00    -0.248 NA
ATOM     39  C   UNL     1       6.450  -7.440  12.674  1.00  0.00     0.031 C 
ATOM     40  C   UNL     1       8.946  -3.106  12.268  1.00  0.00     0.029 A 
ATOM     41  N   UNL     1       9.925  -4.746  13.434  1.00  0.00    -0.354 N 
ATOM     42  C   UNL     1       7.982  -8.570  13.946  1.00  0.00     0.074 A 
ATOM     43  C   UNL     1       6.697  -8.593  13.279  1.00  0.00     0.031 C 
ATOM     44  C   UNL     1      10.145  -2.655  12.672  1.00  0.00     0.029 A 
ATOM     45  C   UNL     1      10.802  -3.691  13.467  1.00  0.00     0.049 A 
ATOM     46  H   UNL     1      10.109  -5.614  13.861  1.00  0.00     0.167 HD
ATOM     47  C   UNL     1       8.520  -9.622  14.609  1.00  0.00     0.037 A 
ATOM     48  C   UNL     1      11.992  -3.570  14.085  1.00  0.00     0.037 A 
ATOM     49  C   UNL     1       9.799  -9.597  15.270  1.00  0.00     0.049 A 
ATOM     50  C   UNL     1      12.537  -4.731  14.869  1.00  0.00     0.074 A 
ATOM     51  C   UNL     1      10.430 -10.613  15.966  1.00  0.00     0.029 A 
ATOM     52  N   UNL     1      10.641  -8.497  15.317  1.00  0.00    -0.354 N 
ATOM     53  N   UNL     1      12.027  -5.927  15.040  1.00  0.00    -0.248 NA
ATOM     54  C   UNL     1      13.824  -4.525  15.549  1.00  0.00     0.031 C 
ATOM     55  C   UNL     1      11.638 -10.115  16.467  1.00  0.00     0.029 A 
ATOM     56  C   UNL     1      11.777  -8.802  16.048  1.00  0.00     0.049 A 
ATOM     57  H   UNL     1      10.458  -7.627  14.893  1.00  0.00     0.167 HD
ATOM     58  C   UNL     1      12.936  -6.620  15.829  1.00  0.00     0.074 A 
ATOM     59  C   UNL     1      14.038  -5.716  16.089  1.00  0.00     0.031 C 
ATOM     60  C   UNL     1      12.864  -7.890  16.297  1.00  0.00     0.037 A 
BRANCH  47  61
ATOM     61  C   UNL     1       7.707 -10.880  14.675  1.00  0.00     0.057 A 
ATOM     62  C   UNL     1       7.553 -11.719  13.564  1.00  0.00     0.134 A 
ATOM     63  C   UNL     1       7.090 -11.268  15.870  1.00  0.00     0.134 A 
ATOM     64  F   UNL     1       8.105 -11.395  12.385  1.00  0.00    -0.206 F 
ATOM     65  C   UNL     1       6.796 -12.890  13.635  1.00  0.00     0.040 A 
ATOM     66  C   UNL     1       6.350 -12.447  15.960  1.00  0.00     0.040 A 
ATOM     67  F   UNL     1       7.202 -10.509  16.971  1.00  0.00    -0.206 F 
ATOM     68  C   UNL     1       6.197 -13.259  14.838  1.00  0.00     0.006 A 
ENDBRANCH  47  61
BRANCH  48  69
ATOM     69  C   UNL     1      12.744  -2.294  14.002  1.00  0.00     0.057 A 
ATOM     70  C   UNL     1      13.937  -2.200  13.276  1.00  0.00     0.134 A 
ATOM     71  C   UNL     1      12.296  -1.142  14.660  1.00  0.00     0.134 A 
ATOM     72  F   UNL     1      14.430  -3.277  12.645  1.00  0.00    -0.206 F 
ATOM     73  C   UNL     1      14.665  -1.011  13.218  1.00  0.00     0.040 A 
ATOM     74  C   UNL     1      13.002   0.060  14.592  1.00  0.00     0.040 A 
ATOM     75  F   UNL     1      11.162  -1.169  15.374  1.00  0.00    -0.206 F 
ATOM     76  C   UNL     1      14.194   0.126  13.873  1.00  0.00     0.006 A 
ENDBRANCH  48  69
BRANCH  60  77
ATOM     77  C   UNL     1      14.020  -8.380  17.118  1.00  0.00     0.057 A 
ATOM     78  C   UNL     1      14.225  -7.949  18.434  1.00  0.00     0.134 A 
ATOM     79  C   UNL     1      14.923  -9.313  16.593  1.00  0.00     0.134 A 
ATOM     80  F   UNL     1      13.402  -7.046  18.990  1.00  0.00    -0.206 F 
ATOM     81  C   UNL     1      15.301  -8.412  19.193  1.00  0.00     0.040 A 
ATOM     82  C   UNL     1      15.990  -9.801  17.350  1.00  0.00     0.040 A 
ATOM     83  F   UNL     1      14.779  -9.772  15.341  1.00  0.00    -0.206 F 
ATOM     84  C   UNL     1      16.184  -9.345  18.652  1.00  0.00     0.006 A 
ENDBRANCH  60  77
ENDBRANCH  34  35
ENDBRANCH  27  29
ENDBRANCH  26  27
ENDBRANCH  25  26
ENDBRANCH   1  25
TORSDOF 15
