REMARK SMILES CCNC(=O)c1cccc(-c2ccc(Cl)c(C(=O)OCCOC(=O)c3ccc(-c4c5nc(c(-c6c(F)cccc6F)c6ccc([nH]6)c(-c6c(F)cccc6F)c6nc(c(-c7c(F)cccc7F)c7ccc4[nH]7)C=C6)C=C5)cc3)c2)c1
REMARK SMILES IDX 20 1 19 2 17 3 18 4 16 5 11 6 12 7 79 8 13 9 14 10 15 11
REMARK SMILES IDX 10 12 6 13 7 14 80 15 8 16 9 17 4 18 3 19 5 21 2 22 1 23
REMARK SMILES IDX 21 24 22 25 23 26 24 27 25 28 26 29 78 30 27 31 77 32 28 33
REMARK SMILES IDX 29 34 30 35 71 36 31 37 76 38 70 39 72 40 32 41 75 42 69 43
REMARK SMILES IDX 68 44 33 46 59 47 42 48 58 49 43 50 46 51 57 52 73 53 44 54
REMARK SMILES IDX 45 55 56 57 74 58 47 59 34 60 35 61 40 62 36 63 37 64 39 65
REMARK SMILES IDX 41 66 38 67 60 68 61 69 66 70 62 71 63 72 65 73 67 74 64 75
REMARK SMILES IDX 48 76 49 77 54 78 50 79 51 80 53 81 55 82 52 83
REMARK H PARENT 3 20 72 45 46 56
REMARK Flexibility Score: inf
ROOT
ATOM      1  C   UNL     1      -3.094  -1.447  -8.629  1.00  0.00     0.275 C 
ENDROOT
BRANCH   1   2
ATOM      2  O   UNL     1      -3.302  -1.258  -7.216  1.00  0.00    -0.458 OA
BRANCH   2   3
ATOM      3  C   UNL     1      -3.015  -0.030  -6.708  1.00  0.00     0.339 C 
ATOM      4  O   UNL     1      -2.543   0.902  -7.334  1.00  0.00    -0.246 OA
BRANCH   3   5
ATOM      5  C   UNL     1      -3.424   0.016  -5.276  1.00  0.00     0.079 A 
ATOM      6  C   UNL     1      -3.759  -1.174  -3.160  1.00  0.00    -0.017 A 
ATOM      7  C   UNL     1      -4.317  -0.013  -2.612  1.00  0.00     0.010 A 
ATOM      8  C   UNL     1      -3.388  -1.166  -4.515  1.00  0.00     0.026 A 
ATOM      9  C   UNL     1      -4.338   1.171  -3.347  1.00  0.00     0.022 A 
ATOM     10  C   UNL     1      -3.826   1.206  -4.650  1.00  0.00     0.055 A 
ATOM     11  Cl  UNL     1      -3.731   2.768  -5.385  1.00  0.00    -0.083 Cl
BRANCH   6  12
ATOM     12  C   UNL     1      -3.317  -2.254  -2.269  1.00  0.00    -0.018 A 
ATOM     13  C   UNL     1      -1.396  -3.281  -1.174  1.00  0.00     0.040 A 
ATOM     14  C   UNL     1      -2.248  -3.980  -0.320  1.00  0.00     0.014 A 
ATOM     15  C   UNL     1      -1.934  -2.483  -2.181  1.00  0.00     0.022 A 
ATOM     16  C   UNL     1      -3.632  -3.817  -0.436  1.00  0.00     0.001 A 
ATOM     17  C   UNL     1      -4.164  -2.941  -1.392  1.00  0.00     0.009 A 
BRANCH  13  18
ATOM     18  C   UNL     1       0.070  -3.398  -1.024  1.00  0.00     0.251 C 
ATOM     19  N   UNL     1       0.873  -2.283  -1.086  1.00  0.00    -0.352 N 
ATOM     20  H   UNL     1       1.837  -2.472  -1.135  1.00  0.00     0.163 HD
ATOM     21  O   UNL     1       0.570  -4.505  -0.843  1.00  0.00    -0.269 OA
BRANCH  19  22
ATOM     22  C   UNL     1       0.529  -0.867  -1.092  1.00  0.00     0.112 C 
ATOM     23  C   UNL     1       1.183  -0.140   0.068  1.00  0.00     0.027 C 
ENDBRANCH  19  22
ENDBRANCH  13  18
ENDBRANCH   6  12
ENDBRANCH   3   5
ENDBRANCH   2   3
ENDBRANCH   1   2
BRANCH   1  24
ATOM     24  C   UNL     1      -4.424  -1.744  -9.327  1.00  0.00     0.275 C 
BRANCH  24  25
ATOM     25  O   UNL     1      -5.306  -0.606  -9.260  1.00  0.00    -0.458 OA
BRANCH  25  26
ATOM     26  C   UNL     1      -6.234  -0.656  -8.274  1.00  0.00     0.338 C 
ATOM     27  O   UNL     1      -6.444  -1.573  -7.499  1.00  0.00    -0.246 OA
BRANCH  26  28
ATOM     28  C   UNL     1      -6.857   0.668  -8.120  1.00  0.00     0.060 A 
ATOM     29  C   UNL     1      -6.575   1.354  -6.941  1.00  0.00     0.016 A 
ATOM     30  C   UNL     1      -7.747   1.206  -9.047  1.00  0.00     0.016 A 
ATOM     31  C   UNL     1      -7.142   2.598  -6.687  1.00  0.00     0.010 A 
ATOM     32  C   UNL     1      -8.337   2.453  -8.785  1.00  0.00     0.010 A 
ATOM     33  C   UNL     1      -8.035   3.158  -7.604  1.00  0.00    -0.014 A 
BRANCH  33  34
ATOM     34  C   UNL     1      -8.701   4.441  -7.265  1.00  0.00     0.031 A 
ATOM     35  C   UNL     1     -10.139   4.441  -6.832  1.00  0.00     0.074 A 
ATOM     36  C   UNL     1      -8.004   5.593  -7.270  1.00  0.00     0.049 A 
ATOM     37  N   UNL     1     -10.922   5.452  -6.553  1.00  0.00    -0.248 NA
ATOM     38  C   UNL     1     -10.778   3.125  -6.686  1.00  0.00     0.031 C 
ATOM     39  C   UNL     1      -6.581   5.719  -7.585  1.00  0.00     0.029 A 
ATOM     40  N   UNL     1      -8.401   6.879  -6.995  1.00  0.00    -0.354 N 
ATOM     41  C   UNL     1     -12.151   4.898  -6.223  1.00  0.00     0.074 A 
ATOM     42  C   UNL     1     -12.014   3.462  -6.347  1.00  0.00     0.031 C 
ATOM     43  C   UNL     1      -6.224   7.011  -7.487  1.00  0.00     0.029 A 
ATOM     44  C   UNL     1      -7.402   7.809  -7.155  1.00  0.00     0.049 A 
ATOM     45  H   UNL     1      -9.314   7.112  -6.711  1.00  0.00     0.167 HD
ATOM     46  C   UNL     1     -13.290   5.530  -5.850  1.00  0.00     0.037 A 
ATOM     47  C   UNL     1      -7.440   9.153  -7.077  1.00  0.00     0.037 A 
ATOM     48  C   UNL     1     -13.420   6.958  -5.712  1.00  0.00     0.049 A 
ATOM     49  C   UNL     1      -8.740   9.837  -6.748  1.00  0.00     0.074 A 
ATOM     50  C   UNL     1     -14.534   7.691  -5.341  1.00  0.00     0.029 A 
ATOM     51  N   UNL     1     -12.402   7.871  -5.942  1.00  0.00    -0.354 N 
ATOM     52  N   UNL     1      -9.905   9.307  -6.462  1.00  0.00    -0.248 NA
ATOM     53  C   UNL     1      -8.733  11.307  -6.741  1.00  0.00     0.031 C 
ATOM     54  C   UNL     1     -14.204   9.049  -5.394  1.00  0.00     0.029 A 
ATOM     55  C   UNL     1     -12.869   9.161  -5.746  1.00  0.00     0.049 A 
ATOM     56  H   UNL     1     -11.482   7.637  -6.206  1.00  0.00     0.167 HD
ATOM     57  C   UNL     1     -10.761  10.375  -6.220  1.00  0.00     0.074 A 
ATOM     58  C   UNL     1      -9.977  11.582  -6.375  1.00  0.00     0.031 C 
ATOM     59  C   UNL     1     -12.078  10.356  -5.899  1.00  0.00     0.037 A 
BRANCH  46  60
ATOM     60  C   UNL     1     -14.502   4.680  -5.607  1.00  0.00     0.057 A 
ATOM     61  C   UNL     1     -14.624   3.857  -4.481  1.00  0.00     0.134 A 
ATOM     62  C   UNL     1     -15.576   4.706  -6.508  1.00  0.00     0.134 A 
ATOM     63  F   UNL     1     -13.627   3.775  -3.587  1.00  0.00    -0.206 F 
ATOM     64  C   UNL     1     -15.761   3.073  -4.270  1.00  0.00     0.040 A 
ATOM     65  C   UNL     1     -16.727   3.947  -6.295  1.00  0.00     0.040 A 
ATOM     66  F   UNL     1     -15.526   5.476  -7.605  1.00  0.00    -0.206 F 
ATOM     67  C   UNL     1     -16.819   3.122  -5.176  1.00  0.00     0.006 A 
ENDBRANCH  46  60
BRANCH  47  68
ATOM     68  C   UNL     1      -6.218   9.951  -7.357  1.00  0.00     0.057 A 
ATOM     69  C   UNL     1      -5.588  10.697  -6.355  1.00  0.00     0.134 A 
ATOM     70  C   UNL     1      -5.669  10.009  -8.645  1.00  0.00     0.134 A 
ATOM     71  F   UNL     1      -6.082  10.706  -5.108  1.00  0.00    -0.206 F 
ATOM     72  C   UNL     1      -4.466  11.483  -6.624  1.00  0.00     0.040 A 
ATOM     73  C   UNL     1      -4.531  10.768  -8.922  1.00  0.00     0.040 A 
ATOM     74  F   UNL     1      -6.229   9.323  -9.652  1.00  0.00    -0.206 F 
ATOM     75  C   UNL     1      -3.931  11.514  -7.911  1.00  0.00     0.006 A 
ENDBRANCH  47  68
BRANCH  59  76
ATOM     76  C   UNL     1     -12.747  11.678  -5.658  1.00  0.00     0.057 A 
ATOM     77  C   UNL     1     -13.034  12.565  -6.703  1.00  0.00     0.134 A 
ATOM     78  C   UNL     1     -13.140  12.053  -4.366  1.00  0.00     0.134 A 
ATOM     79  F   UNL     1     -12.672  12.273  -7.962  1.00  0.00    -0.206 F 
ATOM     80  C   UNL     1     -13.667  13.787  -6.470  1.00  0.00     0.040 A 
ATOM     81  C   UNL     1     -13.798  13.260  -4.124  1.00  0.00     0.040 A 
ATOM     82  F   UNL     1     -12.903  11.247  -3.321  1.00  0.00    -0.206 F 
ATOM     83  C   UNL     1     -14.058  14.134  -5.177  1.00  0.00     0.006 A 
ENDBRANCH  59  76
ENDBRANCH  33  34
ENDBRANCH  26  28
ENDBRANCH  25  26
ENDBRANCH  24  25
ENDBRANCH   1  24
TORSDOF 14
