REMARK SMILES CC(C)=CC(=O)Nc1ccc(C(=O)OCCOC(=O)c2ccc(-c3c4nc(c(-c5c(F)cccc5F)c5ccc([nH]5)c(-c5c(F)cccc5F)c5nc(c(-c6c(F)cccc6F)c6ccc3[nH]6)C=C5)C=C4)cc2)cc1
REMARK SMILES IDX 15 1 14 2 12 3 13 4 11 5 8 6 9 7 75 8 10 9 74 10 7 11 5 12
REMARK SMILES IDX 6 13 4 15 1 16 2 17 3 18 16 19 17 20 18 21 19 22 20 23 21 24
REMARK SMILES IDX 73 25 22 26 72 27 23 28 24 29 25 30 66 31 26 32 71 33 65 34
REMARK SMILES IDX 67 35 27 36 70 37 64 38 63 39 28 41 54 42 37 43 53 44 38 45
REMARK SMILES IDX 41 46 52 47 68 48 39 49 40 50 51 52 69 53 42 54 29 55 30 56
REMARK SMILES IDX 35 57 31 58 32 59 34 60 36 61 33 62 55 63 56 64 61 65 57 66
REMARK SMILES IDX 58 67 60 68 62 69 59 70 43 71 44 72 49 73 45 74 46 75 48 76
REMARK SMILES IDX 50 77 47 78
REMARK H PARENT 7 14 67 40 41 51
REMARK Flexibility Score: inf
ROOT
ATOM      1  C   UNL     1       1.047  -5.455   1.060  1.00  0.00     0.275 C 
ENDROOT
BRANCH   1   2
ATOM      2  O   UNL     1       1.643  -4.170   0.797  1.00  0.00    -0.458 OA
BRANCH   2   3
ATOM      3  C   UNL     1       1.000  -3.122   1.362  1.00  0.00     0.338 C 
ATOM      4  O   UNL     1      -0.019  -3.167   2.036  1.00  0.00    -0.246 OA
BRANCH   3   5
ATOM      5  C   UNL     1       1.688  -1.846   1.080  1.00  0.00     0.060 A 
ATOM      6  C   UNL     1       2.378   0.765   0.422  1.00  0.00     0.041 A 
ATOM      7  C   UNL     1       2.035   0.464   1.738  1.00  0.00     0.027 A 
ATOM      8  C   UNL     1       2.557  -0.264  -0.510  1.00  0.00     0.027 A 
ATOM      9  C   UNL     1       1.640  -0.834   2.049  1.00  0.00     0.018 A 
ATOM     10  C   UNL     1       2.219  -1.578  -0.181  1.00  0.00     0.018 A 
BRANCH   6  11
ATOM     11  N   UNL     1       2.377   2.121   0.069  1.00  0.00    -0.323 N 
ATOM     12  C   UNL     1       1.832   2.709  -1.042  1.00  0.00     0.248 C 
ATOM     13  O   UNL     1       1.961   3.916  -1.238  1.00  0.00    -0.270 OA
ATOM     14  H   UNL     1       2.825   2.729   0.701  1.00  0.00     0.170 HD
BRANCH  12  15
ATOM     15  C   UNL     1       1.051   1.895  -2.012  1.00  0.00     0.070 C 
ATOM     16  C   UNL     1      -0.773   1.098  -0.428  1.00  0.00     0.039 C 
ATOM     17  C   UNL     1      -0.062   1.176  -1.754  1.00  0.00    -0.071 C 
ATOM     18  C   UNL     1      -0.696   0.341  -2.834  1.00  0.00     0.039 C 
ENDBRANCH  12  15
ENDBRANCH   6  11
ENDBRANCH   3   5
ENDBRANCH   2   3
ENDBRANCH   1   2
BRANCH   1  19
ATOM     19  C   UNL     1       1.726  -6.138   2.246  1.00  0.00     0.275 C 
BRANCH  19  20
ATOM     20  O   UNL     1       1.542  -5.354   3.440  1.00  0.00    -0.458 OA
BRANCH  20  21
ATOM     21  C   UNL     1       2.669  -4.973   4.079  1.00  0.00     0.338 C 
ATOM     22  O   UNL     1       3.822  -5.271   3.788  1.00  0.00    -0.246 OA
BRANCH  21  23
ATOM     23  C   UNL     1       2.345  -4.112   5.230  1.00  0.00     0.060 A 
ATOM     24  C   UNL     1       1.523  -2.998   5.073  1.00  0.00     0.016 A 
ATOM     25  C   UNL     1       2.974  -4.337   6.453  1.00  0.00     0.016 A 
ATOM     26  C   UNL     1       1.418  -2.049   6.089  1.00  0.00     0.010 A 
ATOM     27  C   UNL     1       2.779  -3.442   7.510  1.00  0.00     0.010 A 
ATOM     28  C   UNL     1       2.038  -2.260   7.329  1.00  0.00    -0.014 A 
BRANCH  28  29
ATOM     29  C   UNL     1       1.967  -1.236   8.413  1.00  0.00     0.031 A 
ATOM     30  C   UNL     1       3.238  -0.681   9.007  1.00  0.00     0.074 A 
ATOM     31  C   UNL     1       0.783  -0.789   8.877  1.00  0.00     0.049 A 
ATOM     32  N   UNL     1       3.406   0.019  10.101  1.00  0.00    -0.248 NA
ATOM     33  C   UNL     1       4.487  -0.969   8.284  1.00  0.00     0.031 C 
ATOM     34  C   UNL     1      -0.534  -1.184   8.377  1.00  0.00     0.029 A 
ATOM     35  N   UNL     1       0.499   0.106   9.880  1.00  0.00    -0.354 N 
ATOM     36  C   UNL     1       4.779   0.184  10.238  1.00  0.00     0.074 A 
ATOM     37  C   UNL     1       5.399  -0.474   9.108  1.00  0.00     0.031 C 
ATOM     38  C   UNL     1      -1.481  -0.504   9.042  1.00  0.00     0.029 A 
ATOM     39  C   UNL     1      -0.846   0.304  10.078  1.00  0.00     0.049 A 
ATOM     40  H   UNL     1       1.194   0.563  10.408  1.00  0.00     0.167 HD
ATOM     41  C   UNL     1       5.462   0.819  11.222  1.00  0.00     0.037 A 
ATOM     42  C   UNL     1      -1.503   1.018  11.012  1.00  0.00     0.037 A 
ATOM     43  C   UNL     1       4.848   1.545  12.302  1.00  0.00     0.049 A 
ATOM     44  C   UNL     1      -0.728   1.724  12.086  1.00  0.00     0.074 A 
ATOM     45  C   UNL     1       5.457   2.229  13.340  1.00  0.00     0.029 A 
ATOM     46  N   UNL     1       3.481   1.709  12.464  1.00  0.00    -0.354 N 
ATOM     47  N   UNL     1       0.568   1.789  12.262  1.00  0.00    -0.248 NA
ATOM     48  C   UNL     1      -1.511   2.431  13.111  1.00  0.00     0.031 C 
ATOM     49  C   UNL     1       4.458   2.795  14.139  1.00  0.00     0.029 A 
ATOM     50  C   UNL     1       3.228   2.485  13.582  1.00  0.00     0.049 A 
ATOM     51  H   UNL     1       2.792   1.330  11.871  1.00  0.00     0.167 HD
ATOM     52  C   UNL     1       0.758   2.540  13.414  1.00  0.00     0.074 A 
ATOM     53  C   UNL     1      -0.556   2.930  13.883  1.00  0.00     0.031 C 
ATOM     54  C   UNL     1       1.917   2.867  14.034  1.00  0.00     0.037 A 
BRANCH  41  55
ATOM     55  C   UNL     1       6.958   0.729  11.195  1.00  0.00     0.057 A 
ATOM     56  C   UNL     1       7.735   1.477  10.304  1.00  0.00     0.134 A 
ATOM     57  C   UNL     1       7.630  -0.099  12.104  1.00  0.00     0.134 A 
ATOM     58  F   UNL     1       7.151   2.276   9.399  1.00  0.00    -0.206 F 
ATOM     59  C   UNL     1       9.129   1.393  10.308  1.00  0.00     0.040 A 
ATOM     60  C   UNL     1       9.023  -0.176  12.131  1.00  0.00     0.040 A 
ATOM     61  F   UNL     1       6.942  -0.839  12.987  1.00  0.00    -0.206 F 
ATOM     62  C   UNL     1       9.776   0.569  11.228  1.00  0.00     0.006 A 
ENDBRANCH  41  55
BRANCH  42  63
ATOM     63  C   UNL     1      -2.986   1.062  10.998  1.00  0.00     0.057 A 
ATOM     64  C   UNL     1      -3.667   2.227  10.633  1.00  0.00     0.134 A 
ATOM     65  C   UNL     1      -3.753  -0.058  11.339  1.00  0.00     0.134 A 
ATOM     66  F   UNL     1      -2.985   3.339  10.321  1.00  0.00    -0.206 F 
ATOM     67  C   UNL     1      -5.062   2.280  10.609  1.00  0.00     0.040 A 
ATOM     68  C   UNL     1      -5.147  -0.028  11.297  1.00  0.00     0.040 A 
ATOM     69  F   UNL     1      -3.157  -1.204  11.697  1.00  0.00    -0.206 F 
ATOM     70  C   UNL     1      -5.806   1.146  10.934  1.00  0.00     0.006 A 
ENDBRANCH  42  63
BRANCH  54  71
ATOM     71  C   UNL     1       1.813   3.700  15.273  1.00  0.00     0.057 A 
ATOM     72  C   UNL     1       1.434   3.143  16.500  1.00  0.00     0.134 A 
ATOM     73  C   UNL     1       2.122   5.065  15.245  1.00  0.00     0.134 A 
ATOM     74  F   UNL     1       1.113   1.843  16.586  1.00  0.00    -0.206 F 
ATOM     75  C   UNL     1       1.349   3.920  17.656  1.00  0.00     0.040 A 
ATOM     76  C   UNL     1       2.057   5.849  16.397  1.00  0.00     0.040 A 
ATOM     77  F   UNL     1       2.496   5.655  14.100  1.00  0.00    -0.206 F 
ATOM     78  C   UNL     1       1.666   5.277  17.607  1.00  0.00     0.006 A 
ENDBRANCH  54  71
ENDBRANCH  28  29
ENDBRANCH  21  23
ENDBRANCH  20  21
ENDBRANCH  19  20
ENDBRANCH   1  19
TORSDOF 13
