REMARK SMILES CCC(CC)COc1cc2c(cc1Cl)C=C(C(=O)OCCOC(=O)c1ccc(-c3c4nc(c(-c5c(F)cccc5F)c5ccc([nH]5)c(-c5c(F)cccc5F)c5nc(c(-c6c(F)cccc6F)c6ccc3[nH]6)C=C5)C=C4)cc1)[C@@H](C(F)(F)F)O2
REMARK SMILES IDX 20 1 19 2 17 3 18 4 16 5 8 6 9 7 13 8 10 9 12 10 14 11 11 12
REMARK SMILES IDX 84 13 15 14 79 15 7 16 6 17 3 18 2 19 1 20 4 21 5 22 80 23
REMARK SMILES IDX 81 24 82 25 83 26 21 27 22 28 23 29 24 30 25 31 26 32 78 33
REMARK SMILES IDX 27 34 77 35 28 36 29 37 30 38 71 39 31 40 76 41 70 42 72 43
REMARK SMILES IDX 32 44 75 45 69 46 68 47 33 49 59 50 42 51 58 52 43 53 46 54
REMARK SMILES IDX 57 55 73 56 44 57 45 58 56 60 74 61 47 62 34 63 35 64 40 65
REMARK SMILES IDX 36 66 37 67 39 68 41 69 38 70 60 71 61 72 66 73 62 74 63 75
REMARK SMILES IDX 65 76 67 77 64 78 48 79 49 80 54 81 50 82 51 83 53 84 55 85
REMARK SMILES IDX 52 86
REMARK H PARENT 72 48 46 59
REMARK Flexibility Score: inf
ROOT
ATOM      1  C   UNL     1      -3.058   9.166   1.769  1.00  0.00     0.275 C 
ENDROOT
BRANCH   1   2
ATOM      2  O   UNL     1      -2.584   8.292   0.720  1.00  0.00    -0.459 OA
BRANCH   2   3
ATOM      3  C   UNL     1      -1.337   7.797   0.905  1.00  0.00     0.338 C 
ATOM      4  O   UNL     1      -0.621   8.002   1.875  1.00  0.00    -0.246 OA
BRANCH   3   5
ATOM      5  C   UNL     1      -0.943   6.892  -0.193  1.00  0.00     0.087 C 
ATOM      6  C   UNL     1       0.930   3.075  -2.841  1.00  0.00     0.141 A 
ATOM      7  C   UNL     1      -0.080   4.011  -3.097  1.00  0.00     0.095 A 
ATOM      8  C   UNL     1       1.756   3.225  -1.721  1.00  0.00     0.083 A 
ATOM      9  C   UNL     1      -0.339   5.018  -2.164  1.00  0.00     0.131 A 
ATOM     10  C   UNL     1       1.437   4.171  -0.752  1.00  0.00     0.036 A 
ATOM     11  Cl  UNL     1       3.147   2.240  -1.457  1.00  0.00    -0.080 Cl
ATOM     12  C   UNL     1       0.371   5.045  -0.961  1.00  0.00     0.019 A 
ATOM     13  O   UNL     1      -1.331   5.922  -2.449  1.00  0.00    -0.475 OA
ATOM     14  C   UNL     1      -0.043   5.944   0.099  1.00  0.00     0.027 C 
ATOM     15  C   UNL     1      -1.404   7.116  -1.607  1.00  0.00     0.316 C 
BRANCH   6  16
ATOM     16  O   UNL     1       1.128   2.026  -3.700  1.00  0.00    -0.492 OA
BRANCH  16  17
ATOM     17  C   UNL     1       0.166   0.959  -3.521  1.00  0.00     0.233 C 
BRANCH  17  18
ATOM     18  C   UNL     1       0.572  -0.032  -2.397  1.00  0.00     0.026 C 
BRANCH  18  19
ATOM     19  C   UNL     1      -0.060   0.362  -1.040  1.00  0.00     0.003 C 
ATOM     20  C   UNL     1       0.570  -0.352   0.148  1.00  0.00     0.004 C 
ENDBRANCH  18  19
BRANCH  18  21
ATOM     21  C   UNL     1       0.256  -1.497  -2.777  1.00  0.00     0.003 C 
ATOM     22  C   UNL     1      -1.223  -1.840  -2.887  1.00  0.00     0.004 C 
ENDBRANCH  18  21
ENDBRANCH  17  18
ENDBRANCH  16  17
ENDBRANCH   6  16
BRANCH  15  23
ATOM     23  C   UNL     1      -0.598   8.280  -2.213  1.00  0.00     0.430 C 
ATOM     24  F   UNL     1      -0.948   8.525  -3.495  1.00  0.00    -0.167 F 
ATOM     25  F   UNL     1      -0.813   9.428  -1.521  1.00  0.00    -0.167 F 
ATOM     26  F   UNL     1       0.736   8.050  -2.191  1.00  0.00    -0.167 F 
ENDBRANCH  15  23
ENDBRANCH   3   5
ENDBRANCH   2   3
ENDBRANCH   1   2
BRANCH   1  27
ATOM     27  C   UNL     1      -4.029   8.459   2.716  1.00  0.00     0.275 C 
BRANCH  27  28
ATOM     28  O   UNL     1      -3.372   7.384   3.414  1.00  0.00    -0.458 OA
BRANCH  28  29
ATOM     29  C   UNL     1      -3.784   6.139   3.084  1.00  0.00     0.338 C 
ATOM     30  O   UNL     1      -4.657   5.827   2.294  1.00  0.00    -0.246 OA
BRANCH  29  31
ATOM     31  C   UNL     1      -2.933   5.145   3.754  1.00  0.00     0.060 A 
ATOM     32  C   UNL     1      -3.396   4.401   4.834  1.00  0.00     0.016 A 
ATOM     33  C   UNL     1      -1.706   4.842   3.170  1.00  0.00     0.016 A 
ATOM     34  C   UNL     1      -2.602   3.359   5.332  1.00  0.00     0.010 A 
ATOM     35  C   UNL     1      -0.957   3.754   3.611  1.00  0.00     0.010 A 
ATOM     36  C   UNL     1      -1.387   3.000   4.707  1.00  0.00    -0.014 A 
BRANCH  36  37
ATOM     37  C   UNL     1      -0.618   1.804   5.159  1.00  0.00     0.031 A 
ATOM     38  C   UNL     1       0.815   1.904   5.623  1.00  0.00     0.074 A 
ATOM     39  C   UNL     1      -1.208   0.592   5.112  1.00  0.00     0.049 A 
ATOM     40  N   UNL     1       1.580   0.974   6.143  1.00  0.00    -0.248 NA
ATOM     41  C   UNL     1       1.493   3.197   5.443  1.00  0.00     0.031 C 
ATOM     42  C   UNL     1      -2.535   0.318   4.556  1.00  0.00     0.029 A 
ATOM     43  N   UNL     1      -0.780  -0.633   5.561  1.00  0.00    -0.354 N 
ATOM     44  C   UNL     1       2.823   1.566   6.338  1.00  0.00     0.074 A 
ATOM     45  C   UNL     1       2.733   2.910   5.812  1.00  0.00     0.031 C 
ATOM     46  C   UNL     1      -2.849  -0.968   4.777  1.00  0.00     0.029 A 
ATOM     47  C   UNL     1      -1.738  -1.615   5.467  1.00  0.00     0.049 A 
ATOM     48  H   UNL     1       0.125  -0.793   5.915  1.00  0.00     0.167 HD
ATOM     49  C   UNL     1       3.929   1.056   6.937  1.00  0.00     0.037 A 
ATOM     50  C   UNL     1      -1.738  -2.882   5.920  1.00  0.00     0.037 A 
ATOM     51  C   UNL     1       4.011  -0.269   7.495  1.00  0.00     0.049 A 
ATOM     52  C   UNL     1      -0.537  -3.400   6.659  1.00  0.00     0.074 A 
ATOM     53  C   UNL     1       5.052  -0.849   8.201  1.00  0.00     0.029 A 
ATOM     54  N   UNL     1       3.008  -1.222   7.410  1.00  0.00    -0.354 N 
ATOM     55  N   UNL     1       0.586  -2.789   6.946  1.00  0.00    -0.248 NA
ATOM     56  C   UNL     1      -0.614  -4.783   7.149  1.00  0.00     0.031 C 
ATOM     57  C   UNL     1       4.688  -2.164   8.519  1.00  0.00     0.029 A 
ATOM     58  C   UNL     1       3.407  -2.389   8.043  1.00  0.00     0.049 A 
ATOM     59  H   UNL     1       2.140  -1.089   6.966  1.00  0.00     0.167 HD
ATOM     60  C   UNL     1       1.344  -3.706   7.661  1.00  0.00     0.074 A 
ATOM     61  C   UNL     1       0.538  -4.903   7.793  1.00  0.00     0.031 C 
ATOM     62  C   UNL     1       2.599  -3.575   8.156  1.00  0.00     0.037 A 
BRANCH  49  63
ATOM     63  C   UNL     1       5.130   1.955   7.049  1.00  0.00     0.057 A 
ATOM     64  C   UNL     1       6.303   1.689   6.332  1.00  0.00     0.134 A 
ATOM     65  C   UNL     1       5.130   3.079   7.888  1.00  0.00     0.134 A 
ATOM     66  F   UNL     1       6.380   0.624   5.521  1.00  0.00    -0.206 F 
ATOM     67  C   UNL     1       7.426   2.513   6.437  1.00  0.00     0.040 A 
ATOM     68  C   UNL     1       6.236   3.927   7.979  1.00  0.00     0.040 A 
ATOM     69  F   UNL     1       4.037   3.397   8.598  1.00  0.00    -0.206 F 
ATOM     70  C   UNL     1       7.391   3.641   7.255  1.00  0.00     0.006 A 
ENDBRANCH  49  63
BRANCH  50  71
ATOM     71  C   UNL     1      -2.947  -3.729   5.762  1.00  0.00     0.057 A 
ATOM     72  C   UNL     1      -3.332  -4.239   4.518  1.00  0.00     0.134 A 
ATOM     73  C   UNL     1      -3.740  -4.057   6.869  1.00  0.00     0.134 A 
ATOM     74  F   UNL     1      -2.621  -3.952   3.419  1.00  0.00    -0.206 F 
ATOM     75  C   UNL     1      -4.463  -5.046   4.380  1.00  0.00     0.040 A 
ATOM     76  C   UNL     1      -4.858  -4.883   6.750  1.00  0.00     0.040 A 
ATOM     77  F   UNL     1      -3.412  -3.610   8.091  1.00  0.00    -0.206 F 
ATOM     78  C   UNL     1      -5.224  -5.377   5.500  1.00  0.00     0.006 A 
ENDBRANCH  50  71
BRANCH  62  79
ATOM     79  C   UNL     1       3.160  -4.757   8.890  1.00  0.00     0.057 A 
ATOM     80  C   UNL     1       3.314  -4.730  10.281  1.00  0.00     0.134 A 
ATOM     81  C   UNL     1       3.535  -5.929   8.219  1.00  0.00     0.134 A 
ATOM     82  F   UNL     1       2.981  -3.637  10.983  1.00  0.00    -0.206 F 
ATOM     83  C   UNL     1       3.810  -5.831  10.980  1.00  0.00     0.040 A 
ATOM     84  C   UNL     1       4.007  -7.046   8.910  1.00  0.00     0.040 A 
ATOM     85  F   UNL     1       3.396  -6.024   6.887  1.00  0.00    -0.206 F 
ATOM     86  C   UNL     1       4.148  -6.997  10.295  1.00  0.00     0.006 A 
ENDBRANCH  62  79
ENDBRANCH  36  37
ENDBRANCH  29  31
ENDBRANCH  28  29
ENDBRANCH  27  28
ENDBRANCH   1  27
TORSDOF 17
