REMARK SMILES COc1cccc(C(=O)Nc2ccc(NC(=O)[C@@H]3[C@@H](C(=O)OCCOC(=O)c4ccc(-c5c6nc(c(-c7c(F)cccc7F)c7ccc([nH]7)c(-c7c(F)cccc7F)c7nc(c(-c8c(F)cccc8F)c8ccc5[nH]8)C=C7)C=C6)cc4)[C@@H]4C=C[C@H]3C4)cc2)c1
REMARK SMILES IDX 22 1 20 2 21 3 19 4 18 5 85 6 82 7 84 8 86 9 83 10 16 11
REMARK SMILES IDX 15 12 17 14 14 15 11 16 12 17 88 18 13 19 87 20 10 21 8 22
REMARK SMILES IDX 9 23 7 25 3 26 4 27 89 28 5 29 6 30 2 31 1 32 23 33 24 34
REMARK SMILES IDX 25 35 26 36 27 37 28 38 29 39 81 40 30 41 80 42 31 43 32 44
REMARK SMILES IDX 33 45 74 46 34 47 79 48 73 49 75 50 35 51 78 52 72 53 71 54
REMARK SMILES IDX 36 56 62 57 45 58 61 59 46 60 49 61 60 62 76 63 47 64 48 65
REMARK SMILES IDX 59 67 77 68 50 69 37 70 38 71 43 72 39 73 40 74 42 75 44 76
REMARK SMILES IDX 41 77 63 78 64 79 69 80 65 81 66 82 68 83 70 84 67 85 51 86
REMARK SMILES IDX 52 87 57 88 53 89 54 90 56 91 58 92 55 93
REMARK H PARENT 15 13 10 24 75 55 49 66
REMARK Flexibility Score: inf
ROOT
ATOM      1  O   UNL     1       4.881   5.117   1.181  1.00  0.00    -0.462 OA
ENDROOT
BRANCH   1   2
ATOM      2  C   UNL     1       5.859   4.571   0.408  1.00  0.00     0.310 C 
ATOM      3  O   UNL     1       6.859   5.178   0.041  1.00  0.00    -0.252 OA
BRANCH   2   4
ATOM      4  C   UNL     1       5.562   3.124   0.017  1.00  0.00     0.119 C 
ATOM      5  C   UNL     1       5.887   2.110   1.149  1.00  0.00     0.100 C 
ATOM      6  C   UNL     1       7.007   1.212   0.538  1.00  0.00     0.025 C 
ATOM      7  C   UNL     1       6.611   2.724  -1.077  1.00  0.00     0.027 C 
ATOM      8  C   UNL     1       6.580   0.469  -0.698  1.00  0.00    -0.027 C 
ATOM      9  C   UNL     1       7.815   2.275  -0.226  1.00  0.00     0.017 C 
ATOM     10  C   UNL     1       6.295   1.372  -1.649  1.00  0.00    -0.027 C 
BRANCH   5  11
ATOM     11  C   UNL     1       4.756   1.536   2.021  1.00  0.00     0.228 C 
ATOM     12  N   UNL     1       4.255   0.276   1.898  1.00  0.00    -0.326 N 
ATOM     13  H   UNL     1       4.039  -0.175   2.746  1.00  0.00     0.169 HD
ATOM     14  O   UNL     1       4.361   2.204   2.986  1.00  0.00    -0.274 OA
BRANCH  12  15
ATOM     15  C   UNL     1       4.005  -0.469   0.748  1.00  0.00     0.041 A 
ATOM     16  C   UNL     1       3.749  -1.956  -1.598  1.00  0.00     0.041 A 
ATOM     17  C   UNL     1       3.571  -0.575  -1.612  1.00  0.00     0.028 A 
ATOM     18  C   UNL     1       4.037  -2.602  -0.397  1.00  0.00     0.028 A 
ATOM     19  C   UNL     1       3.638   0.159  -0.434  1.00  0.00     0.028 A 
ATOM     20  C   UNL     1       4.125  -1.861   0.789  1.00  0.00     0.028 A 
BRANCH  16  21
ATOM     21  N   UNL     1       3.747  -2.668  -2.800  1.00  0.00    -0.322 N 
ATOM     22  C   UNL     1       2.909  -2.499  -3.886  1.00  0.00     0.255 C 
ATOM     23  O   UNL     1       3.303  -2.733  -5.026  1.00  0.00    -0.269 OA
ATOM     24  H   UNL     1       4.425  -3.377  -2.883  1.00  0.00     0.170 HD
BRANCH  22  25
ATOM     25  C   UNL     1       1.441  -2.402  -3.621  1.00  0.00     0.043 A 
ATOM     26  C   UNL     1      -0.473  -1.595  -2.366  1.00  0.00     0.119 A 
ATOM     27  C   UNL     1      -1.242  -2.635  -2.883  1.00  0.00     0.046 A 
ATOM     28  C   UNL     1       0.843  -1.446  -2.796  1.00  0.00     0.060 A 
ATOM     29  C   UNL     1      -0.689  -3.536  -3.795  1.00  0.00     0.005 A 
ATOM     30  C   UNL     1       0.654  -3.429  -4.152  1.00  0.00     0.014 A 
BRANCH  26  31
ATOM     31  O   UNL     1      -1.090  -0.784  -1.452  1.00  0.00    -0.497 OA
ATOM     32  C   UNL     1      -0.226  -0.065  -0.571  1.00  0.00     0.278 C 
ENDBRANCH  26  31
ENDBRANCH  22  25
ENDBRANCH  16  21
ENDBRANCH  12  15
ENDBRANCH   5  11
ENDBRANCH   2   4
ENDBRANCH   1   2
BRANCH   1  33
ATOM     33  C   UNL     1       5.073   6.517   1.499  1.00  0.00     0.274 C 
BRANCH  33  34
ATOM     34  C   UNL     1       5.656   6.718   2.901  1.00  0.00     0.275 C 
BRANCH  34  35
ATOM     35  O   UNL     1       6.863   5.955   3.037  1.00  0.00    -0.458 OA
BRANCH  35  36
ATOM     36  C   UNL     1       7.248   5.664   4.303  1.00  0.00     0.338 C 
ATOM     37  O   UNL     1       6.769   6.125   5.331  1.00  0.00    -0.246 OA
BRANCH  36  38
ATOM     38  C   UNL     1       8.313   4.627   4.278  1.00  0.00     0.060 A 
ATOM     39  C   UNL     1       8.459   3.806   3.163  1.00  0.00     0.016 A 
ATOM     40  C   UNL     1       9.112   4.384   5.394  1.00  0.00     0.016 A 
ATOM     41  C   UNL     1       9.281   2.681   3.195  1.00  0.00     0.010 A 
ATOM     42  C   UNL     1      10.031   3.321   5.381  1.00  0.00     0.010 A 
ATOM     43  C   UNL     1      10.096   2.423   4.297  1.00  0.00    -0.014 A 
BRANCH  43  44
ATOM     44  C   UNL     1      10.933   1.186   4.356  1.00  0.00     0.031 A 
ATOM     45  C   UNL     1      10.787   0.252   5.530  1.00  0.00     0.074 A 
ATOM     46  C   UNL     1      11.787   0.840   3.369  1.00  0.00     0.049 A 
ATOM     47  N   UNL     1      11.584  -0.703   5.939  1.00  0.00    -0.248 NA
ATOM     48  C   UNL     1       9.584   0.426   6.359  1.00  0.00     0.031 C 
ATOM     49  C   UNL     1      11.972   1.550   2.103  1.00  0.00     0.029 A 
ATOM     50  N   UNL     1      12.662  -0.219   3.279  1.00  0.00    -0.354 N 
ATOM     51  C   UNL     1      11.028  -1.178   7.120  1.00  0.00     0.074 A 
ATOM     52  C   UNL     1       9.814  -0.424   7.349  1.00  0.00     0.031 C 
ATOM     53  C   UNL     1      12.863   0.887   1.349  1.00  0.00     0.029 A 
ATOM     54  C   UNL     1      13.403  -0.226   2.121  1.00  0.00     0.049 A 
ATOM     55  H   UNL     1      12.749  -0.906   3.978  1.00  0.00     0.167 HD
ATOM     56  C   UNL     1      11.495  -2.143   7.947  1.00  0.00     0.037 A 
ATOM     57  C   UNL     1      14.444  -0.995   1.744  1.00  0.00     0.037 A 
ATOM     58  C   UNL     1      12.658  -2.948   7.681  1.00  0.00     0.049 A 
ATOM     59  C   UNL     1      14.991  -2.020   2.698  1.00  0.00     0.074 A 
ATOM     60  C   UNL     1      13.223  -3.938   8.465  1.00  0.00     0.029 A 
ATOM     61  N   UNL     1      13.418  -2.873   6.524  1.00  0.00    -0.354 N 
ATOM     62  N   UNL     1      14.549  -2.367   3.882  1.00  0.00    -0.248 NA
ATOM     63  C   UNL     1      16.208  -2.731   2.279  1.00  0.00     0.031 C 
ATOM     64  C   UNL     1      14.340  -4.447   7.792  1.00  0.00     0.029 A 
ATOM     65  C   UNL     1      14.448  -3.796   6.574  1.00  0.00     0.049 A 
ATOM     66  H   UNL     1      13.249  -2.255   5.777  1.00  0.00     0.167 HD
ATOM     67  C   UNL     1      15.428  -3.337   4.346  1.00  0.00     0.074 A 
ATOM     68  C   UNL     1      16.417  -3.540   3.308  1.00  0.00     0.031 C 
ATOM     69  C   UNL     1      15.422  -3.993   5.532  1.00  0.00     0.037 A 
BRANCH  56  70
ATOM     70  C   UNL     1      10.778  -2.335   9.249  1.00  0.00     0.057 A 
ATOM     71  C   UNL     1       9.530  -2.962   9.336  1.00  0.00     0.134 A 
ATOM     72  C   UNL     1      11.358  -1.879  10.441  1.00  0.00     0.134 A 
ATOM     73  F   UNL     1       8.912  -3.402   8.229  1.00  0.00    -0.206 F 
ATOM     74  C   UNL     1       8.871  -3.104  10.559  1.00  0.00     0.040 A 
ATOM     75  C   UNL     1      10.721  -2.037  11.672  1.00  0.00     0.040 A 
ATOM     76  F   UNL     1      12.555  -1.272  10.427  1.00  0.00    -0.206 F 
ATOM     77  C   UNL     1       9.469  -2.645  11.731  1.00  0.00     0.006 A 
ENDBRANCH  56  70
BRANCH  57  78
ATOM     78  C   UNL     1      15.094  -0.776   0.426  1.00  0.00     0.057 A 
ATOM     79  C   UNL     1      15.006  -1.733  -0.591  1.00  0.00     0.134 A 
ATOM     80  C   UNL     1      15.827   0.386   0.155  1.00  0.00     0.134 A 
ATOM     81  F   UNL     1      14.346  -2.882  -0.381  1.00  0.00    -0.206 F 
ATOM     82  C   UNL     1      15.625  -1.544  -1.828  1.00  0.00     0.040 A 
ATOM     83  C   UNL     1      16.428   0.601  -1.086  1.00  0.00     0.040 A 
ATOM     84  F   UNL     1      15.956   1.339   1.090  1.00  0.00    -0.206 F 
ATOM     85  C   UNL     1      16.331  -0.369  -2.081  1.00  0.00     0.006 A 
ENDBRANCH  57  78
BRANCH  69  86
ATOM     86  C   UNL     1      16.497  -5.012   5.757  1.00  0.00     0.057 A 
ATOM     87  C   UNL     1      17.813  -4.640   6.058  1.00  0.00     0.134 A 
ATOM     88  C   UNL     1      16.205  -6.381   5.707  1.00  0.00     0.134 A 
ATOM     89  F   UNL     1      18.159  -3.344   6.106  1.00  0.00    -0.206 F 
ATOM     90  C   UNL     1      18.805  -5.594   6.286  1.00  0.00     0.040 A 
ATOM     91  C   UNL     1      17.184  -7.344   5.953  1.00  0.00     0.040 A 
ATOM     92  F   UNL     1      14.962  -6.802   5.429  1.00  0.00    -0.206 F 
ATOM     93  C   UNL     1      18.490  -6.951   6.240  1.00  0.00     0.006 A 
ENDBRANCH  69  86
ENDBRANCH  43  44
ENDBRANCH  36  38
ENDBRANCH  35  36
ENDBRANCH  34  35
ENDBRANCH  33  34
ENDBRANCH   1  33
TORSDOF 16
