REMARK SMILES O=C(OCCOC(=O)[C@@H]1CS[C@H](c2cccc([N+](=O)[O-])c2)[NH2+]1)c1ccc(-c2c3nc(c(-c4c(F)cccc4F)c4ccc([nH]4)c(-c4c(F)cccc4F)c4nc(c(-c5c(F)cccc5F)c5ccc2[nH]5)C=C4)C=C3)cc1
REMARK SMILES IDX 4 1 3 2 2 3 1 4 23 5 24 6 76 7 25 8 75 9 26 10 27 11 28 12
REMARK SMILES IDX 69 13 29 14 74 15 68 16 70 17 30 18 73 19 67 20 66 21 31 23
REMARK SMILES IDX 57 24 40 25 56 26 41 27 44 28 55 29 71 30 42 31 43 32 54 34
REMARK SMILES IDX 72 35 45 36 32 37 33 38 38 39 34 40 35 41 37 42 39 43 36 44
REMARK SMILES IDX 58 45 59 46 64 47 60 48 61 49 63 50 65 51 62 52 46 53 47 54
REMARK SMILES IDX 52 55 48 56 49 57 51 58 53 59 50 60 5 61 6 62 7 63 8 64 9 65
REMARK SMILES IDX 10 66 22 67 11 68 12 69 13 72 14 73 21 74 15 75 17 76 16 77
REMARK SMILES IDX 18 78 19 79 20 80
REMARK H PARENT 70 22 44 33 22 70 22 71
REMARK Flexibility Score: inf
ROOT
ATOM      1  C   UNL     1       5.378   0.624  -5.920  1.00  0.00     0.275 C 
ENDROOT
BRANCH   1   2
ATOM      2  O   UNL     1       5.630   0.190  -4.562  1.00  0.00    -0.458 OA
BRANCH   2   3
ATOM      3  C   UNL     1       5.842   0.934  -3.444  1.00  0.00     0.338 C 
ATOM      4  O   UNL     1       6.681   0.551  -2.629  1.00  0.00    -0.246 OA
BRANCH   3   5
ATOM      5  C   UNL     1       4.880   2.000  -2.987  1.00  0.00     0.060 A 
ATOM      6  C   UNL     1       4.280   2.972  -3.785  1.00  0.00     0.016 A 
ATOM      7  C   UNL     1       4.561   2.029  -1.613  1.00  0.00     0.016 A 
ATOM      8  C   UNL     1       3.267   3.824  -3.275  1.00  0.00     0.010 A 
ATOM      9  C   UNL     1       3.576   2.900  -1.094  1.00  0.00     0.010 A 
ATOM     10  C   UNL     1       2.867   3.776  -1.931  1.00  0.00    -0.014 A 
BRANCH  10  11
ATOM     11  C   UNL     1       1.922   4.789  -1.345  1.00  0.00     0.031 A 
ATOM     12  C   UNL     1       2.463   6.147  -1.059  1.00  0.00     0.074 A 
ATOM     13  C   UNL     1       0.610   4.588  -1.087  1.00  0.00     0.049 A 
ATOM     14  N   UNL     1       1.831   7.188  -0.594  1.00  0.00    -0.248 NA
ATOM     15  C   UNL     1       3.864   6.389  -1.431  1.00  0.00     0.031 C 
ATOM     16  C   UNL     1      -0.166   3.523  -1.660  1.00  0.00     0.029 A 
ATOM     17  N   UNL     1      -0.347   5.266  -0.369  1.00  0.00    -0.354 N 
ATOM     18  C   UNL     1       2.748   8.218  -0.631  1.00  0.00     0.074 A 
ATOM     19  C   UNL     1       3.979   7.679  -1.171  1.00  0.00     0.031 C 
ATOM     20  C   UNL     1      -1.391   3.437  -1.139  1.00  0.00     0.029 A 
ATOM     21  C   UNL     1      -1.563   4.604  -0.300  1.00  0.00     0.049 A 
ATOM     22  H   UNL     1      -0.185   6.139   0.056  1.00  0.00     0.167 HD
ATOM     23  C   UNL     1       2.575   9.496  -0.230  1.00  0.00     0.037 A 
ATOM     24  C   UNL     1      -2.751   4.922   0.247  1.00  0.00     0.037 A 
ATOM     25  C   UNL     1       1.371   9.989   0.379  1.00  0.00     0.049 A 
ATOM     26  C   UNL     1      -2.882   6.298   0.798  1.00  0.00     0.074 A 
ATOM     27  C   UNL     1       1.141  11.232   0.938  1.00  0.00     0.029 A 
ATOM     28  N   UNL     1       0.200   9.254   0.540  1.00  0.00    -0.354 N 
ATOM     29  N   UNL     1      -1.984   7.251   0.788  1.00  0.00    -0.248 NA
ATOM     30  C   UNL     1      -4.171   6.672   1.385  1.00  0.00     0.031 C 
ATOM     31  C   UNL     1      -0.139  11.225   1.501  1.00  0.00     0.029 A 
ATOM     32  C   UNL     1      -0.739  10.004   1.230  1.00  0.00     0.049 A 
ATOM     33  H   UNL     1       0.060   8.336   0.212  1.00  0.00     0.167 HD
ATOM     34  C   UNL     1      -2.599   8.351   1.350  1.00  0.00     0.074 A 
ATOM     35  C   UNL     1      -3.956   7.949   1.677  1.00  0.00     0.031 C 
ATOM     36  C   UNL     1      -2.077   9.580   1.568  1.00  0.00     0.037 A 
BRANCH  23  37
ATOM     37  C   UNL     1       3.796  10.356  -0.312  1.00  0.00     0.057 A 
ATOM     38  C   UNL     1       4.333  10.782  -1.535  1.00  0.00     0.134 A 
ATOM     39  C   UNL     1       4.528  10.624   0.851  1.00  0.00     0.134 A 
ATOM     40  F   UNL     1       3.702  10.509  -2.687  1.00  0.00    -0.206 F 
ATOM     41  C   UNL     1       5.585  11.395  -1.601  1.00  0.00     0.040 A 
ATOM     42  C   UNL     1       5.766  11.262   0.799  1.00  0.00     0.040 A 
ATOM     43  F   UNL     1       4.074  10.224   2.048  1.00  0.00    -0.206 F 
ATOM     44  C   UNL     1       6.306  11.632  -0.431  1.00  0.00     0.006 A 
ENDBRANCH  23  37
BRANCH  24  45
ATOM     45  C   UNL     1      -3.888   3.958   0.191  1.00  0.00     0.057 A 
ATOM     46  C   UNL     1      -5.032   4.189  -0.583  1.00  0.00     0.134 A 
ATOM     47  C   UNL     1      -3.817   2.730   0.868  1.00  0.00     0.134 A 
ATOM     48  F   UNL     1      -5.164   5.333  -1.269  1.00  0.00    -0.206 F 
ATOM     49  C   UNL     1      -6.065   3.249  -0.669  1.00  0.00     0.040 A 
ATOM     50  C   UNL     1      -4.830   1.772   0.771  1.00  0.00     0.040 A 
ATOM     51  F   UNL     1      -2.742   2.430   1.611  1.00  0.00    -0.206 F 
ATOM     52  C   UNL     1      -5.963   2.034   0.005  1.00  0.00     0.006 A 
ENDBRANCH  24  45
BRANCH  36  53
ATOM     53  C   UNL     1      -2.977  10.583   2.213  1.00  0.00     0.057 A 
ATOM     54  C   UNL     1      -3.319  10.497   3.568  1.00  0.00     0.134 A 
ATOM     55  C   UNL     1      -3.444  11.684   1.487  1.00  0.00     0.134 A 
ATOM     56  F   UNL     1      -2.917   9.452   4.307  1.00  0.00    -0.206 F 
ATOM     57  C   UNL     1      -4.100  11.475   4.180  1.00  0.00     0.040 A 
ATOM     58  C   UNL     1      -4.202  12.682   2.095  1.00  0.00     0.040 A 
ATOM     59  F   UNL     1      -3.149  11.816   0.185  1.00  0.00    -0.206 F 
ATOM     60  C   UNL     1      -4.532  12.579   3.445  1.00  0.00     0.006 A 
ENDBRANCH  36  53
ENDBRANCH  10  11
ENDBRANCH   3   5
ENDBRANCH   2   3
ENDBRANCH   1   2
BRANCH   1  61
ATOM     61  C   UNL     1       4.315  -0.267  -6.585  1.00  0.00     0.274 C 
BRANCH  61  62
ATOM     62  O   UNL     1       3.110  -0.238  -5.819  1.00  0.00    -0.458 OA
BRANCH  62  63
ATOM     63  C   UNL     1       2.886  -1.249  -4.939  1.00  0.00     0.365 C 
ATOM     64  O   UNL     1       3.341  -2.385  -5.033  1.00  0.00    -0.245 OA
BRANCH  63  65
ATOM     65  C   UNL     1       2.023  -0.770  -3.776  1.00  0.00     0.304 C 
ATOM     66  C   UNL     1       0.590  -1.267  -3.872  1.00  0.00     0.153 C 
ATOM     67  N   UNL     1       2.123   0.697  -3.685  1.00  0.00    -0.319 N 
ATOM     68  S   UNL     1      -0.483   0.173  -3.834  1.00  0.00    -0.087 SA
ATOM     69  C   UNL     1       0.861   1.327  -4.014  1.00  0.00     0.274 C 
ATOM     70  H   UNL     1       2.838   1.023  -4.335  1.00  0.00     0.348 HD
ATOM     71  H   UNL     1       2.369   0.946  -2.727  1.00  0.00     0.348 HD
BRANCH  69  72
ATOM     72  C   UNL     1       0.761   2.280  -5.201  1.00  0.00     0.027 A 
ATOM     73  C   UNL     1      -0.405   3.058  -5.399  1.00  0.00     0.011 A 
ATOM     74  C   UNL     1       1.820   2.524  -6.080  1.00  0.00     0.096 A 
ATOM     75  C   UNL     1      -0.515   3.997  -6.437  1.00  0.00     0.008 A 
ATOM     76  C   UNL     1       1.704   3.452  -7.126  1.00  0.00     0.269 A 
ATOM     77  C   UNL     1       0.539   4.189  -7.321  1.00  0.00     0.085 A 
BRANCH  76  78
ATOM     78  N   UNL     1       2.843   3.664  -8.009  1.00  0.00     0.062 N 
ATOM     79  O   UNL     1       2.611   3.824  -9.214  1.00  0.00    -0.258 OA
ATOM     80  O   UNL     1       3.971   3.657  -7.492  1.00  0.00    -0.258 OA
ENDBRANCH  76  78
ENDBRANCH  69  72
ENDBRANCH  63  65
ENDBRANCH  62  63
ENDBRANCH  61  62
ENDBRANCH   1  61
TORSDOF 13
