REMARK SMILES Cc1ccccc1C(=O)Nc1ccc(OCC(=O)OCCOC(=O)c2ccc(-c3c4nc(c(-c5c(F)cccc5F)c5ccc([nH]5)c(-c5c(F)cccc5F)c5nc(c(-c6c(F)cccc6F)c6ccc3[nH]6)C=C5)C=C4)cc2)c(-c2nc3ccccc3s2)c1
REMARK SMILES IDX 20 1 19 2 17 3 18 4 16 5 15 6 14 7 11 8 12 9 89 10 13 11
REMARK SMILES IDX 79 12 10 13 8 14 9 15 7 17 1 18 2 19 3 20 4 21 6 22 5 23
REMARK SMILES IDX 80 24 81 25 88 26 82 27 87 28 83 29 86 30 84 31 85 32 21 33
REMARK SMILES IDX 22 34 23 35 24 36 25 37 26 38 78 39 27 40 77 41 28 42 29 43
REMARK SMILES IDX 30 44 71 45 31 46 76 47 70 48 72 49 32 50 75 51 69 52 68 53
REMARK SMILES IDX 33 55 59 56 42 57 58 58 43 59 46 60 57 61 73 62 44 63 45 64
REMARK SMILES IDX 56 66 74 67 47 68 34 69 35 70 40 71 36 72 37 73 39 74 41 75
REMARK SMILES IDX 38 76 60 77 61 78 66 79 62 80 63 81 65 82 67 83 64 84 48 85
REMARK SMILES IDX 49 86 54 87 50 88 51 89 53 90 55 91 52 92
REMARK H PARENT 10 16 72 54 46 65
REMARK Flexibility Score: inf
ROOT
ATOM      1  C   UNL     1       2.963  -3.457   2.190  1.00  0.00     0.274 C 
ENDROOT
BRANCH   1   2
ATOM      2  O   UNL     1       3.835  -2.666   1.364  1.00  0.00    -0.460 OA
BRANCH   2   3
ATOM      3  C   UNL     1       5.055  -3.234   1.166  1.00  0.00     0.344 C 
ATOM      4  O   UNL     1       5.449  -4.221   1.784  1.00  0.00    -0.248 OA
BRANCH   3   5
ATOM      5  C   UNL     1       5.926  -2.521   0.115  1.00  0.00     0.352 C 
BRANCH   5   6
ATOM      6  O   UNL     1       5.395  -1.868  -1.034  1.00  0.00    -0.481 OA
BRANCH   6   7
ATOM      7  C   UNL     1       4.870  -0.607  -0.933  1.00  0.00     0.130 A 
ATOM      8  C   UNL     1       3.371   1.715  -0.446  1.00  0.00     0.042 A 
ATOM      9  C   UNL     1       4.489   1.437   0.333  1.00  0.00     0.030 A 
ATOM     10  C   UNL     1       3.129   0.949  -1.576  1.00  0.00     0.041 A 
ATOM     11  C   UNL     1       5.195   0.249   0.128  1.00  0.00     0.049 A 
ATOM     12  C   UNL     1       3.934  -0.171  -1.903  1.00  0.00     0.055 A 
BRANCH   8  13
ATOM     13  N   UNL     1       2.535   2.764  -0.050  1.00  0.00    -0.322 N 
ATOM     14  C   UNL     1       1.160   2.890  -0.064  1.00  0.00     0.255 C 
ATOM     15  O   UNL     1       0.692   4.029   0.025  1.00  0.00    -0.269 OA
ATOM     16  H   UNL     1       3.011   3.551   0.300  1.00  0.00     0.170 HD
BRANCH  14  17
ATOM     17  C   UNL     1       0.195   1.743  -0.004  1.00  0.00     0.043 A 
ATOM     18  C   UNL     1       1.585   0.287   1.585  1.00  0.00     0.045 C 
ATOM     19  C   UNL     1       0.344   0.602   0.803  1.00  0.00    -0.038 A 
ATOM     20  C   UNL     1      -0.733  -0.314   0.892  1.00  0.00     0.004 A 
ATOM     21  C   UNL     1      -1.931  -0.124   0.216  1.00  0.00     0.000 A 
ATOM     22  C   UNL     1      -1.060   1.962  -0.613  1.00  0.00     0.014 A 
ATOM     23  C   UNL     1      -2.107   1.036  -0.515  1.00  0.00     0.001 A 
ENDBRANCH  14  17
ENDBRANCH   8  13
BRANCH  12  24
ATOM     24  C   UNL     1       3.632  -0.799  -3.218  1.00  0.00     0.128 A 
ATOM     25  N   UNL     1       2.537  -0.500  -3.893  1.00  0.00    -0.236 NA
ATOM     26  S   UNL     1       4.685  -1.863  -4.079  1.00  0.00    -0.114 S 
ATOM     27  C   UNL     1       2.355  -1.355  -4.952  1.00  0.00     0.082 A 
ATOM     28  C   UNL     1       3.420  -2.215  -5.208  1.00  0.00     0.055 A 
ATOM     29  C   UNL     1       1.182  -1.450  -5.726  1.00  0.00     0.030 A 
ATOM     30  C   UNL     1       3.340  -3.192  -6.218  1.00  0.00     0.021 A 
ATOM     31  C   UNL     1       1.068  -2.452  -6.690  1.00  0.00     0.002 A 
ATOM     32  C   UNL     1       2.133  -3.317  -6.926  1.00  0.00     0.002 A 
ENDBRANCH  12  24
ENDBRANCH   6   7
ENDBRANCH   5   6
ENDBRANCH   3   5
ENDBRANCH   2   3
ENDBRANCH   1   2
BRANCH   1  33
ATOM     33  C   UNL     1       1.493  -3.092   1.989  1.00  0.00     0.275 C 
BRANCH  33  34
ATOM     34  O   UNL     1       1.154  -2.400   0.748  1.00  0.00    -0.458 OA
BRANCH  34  35
ATOM     35  C   UNL     1       1.503  -2.639  -0.533  1.00  0.00     0.338 C 
ATOM     36  O   UNL     1       1.321  -1.868  -1.465  1.00  0.00    -0.246 OA
BRANCH  35  37
ATOM     37  C   UNL     1       2.036  -3.956  -0.754  1.00  0.00     0.060 A 
ATOM     38  C   UNL     1       3.233  -4.172  -1.448  1.00  0.00     0.016 A 
ATOM     39  C   UNL     1       1.326  -4.963  -0.130  1.00  0.00     0.016 A 
ATOM     40  C   UNL     1       3.734  -5.449  -1.530  1.00  0.00     0.010 A 
ATOM     41  C   UNL     1       1.966  -6.132   0.048  1.00  0.00     0.010 A 
ATOM     42  C   UNL     1       3.050  -6.404  -0.798  1.00  0.00    -0.014 A 
BRANCH  42  43
ATOM     43  C   UNL     1       3.241  -7.821  -0.940  1.00  0.00     0.031 A 
ATOM     44  C   UNL     1       4.441  -8.354  -0.298  1.00  0.00     0.074 A 
ATOM     45  C   UNL     1       2.083  -8.383  -1.366  1.00  0.00     0.049 A 
ATOM     46  N   UNL     1       5.126  -9.365  -0.700  1.00  0.00    -0.248 NA
ATOM     47  C   UNL     1       5.093  -7.659   0.828  1.00  0.00     0.031 C 
ATOM     48  C   UNL     1       1.445  -9.654  -1.108  1.00  0.00     0.029 A 
ATOM     49  N   UNL     1       1.134  -7.741  -2.170  1.00  0.00    -0.354 N 
ATOM     50  C   UNL     1       5.795  -9.762   0.441  1.00  0.00     0.074 A 
ATOM     51  C   UNL     1       6.035  -8.543   1.168  1.00  0.00     0.031 C 
ATOM     52  C   UNL     1       0.422  -9.818  -1.976  1.00  0.00     0.029 A 
ATOM     53  C   UNL     1       0.406  -8.682  -2.887  1.00  0.00     0.049 A 
ATOM     54  H   UNL     1       1.002  -6.767  -2.220  1.00  0.00     0.167 HD
ATOM     55  C   UNL     1       5.593 -11.039   0.891  1.00  0.00     0.037 A 
ATOM     56  C   UNL     1       0.649  -8.712  -4.234  1.00  0.00     0.037 A 
ATOM     57  C   UNL     1       4.629 -11.727   0.011  1.00  0.00     0.049 A 
ATOM     58  C   UNL     1       1.618  -9.823  -4.554  1.00  0.00     0.074 A 
ATOM     59  C   UNL     1       3.322 -12.158   0.180  1.00  0.00     0.029 A 
ATOM     60  N   UNL     1       4.848 -11.739  -1.363  1.00  0.00    -0.354 N 
ATOM     61  N   UNL     1       2.416 -10.388  -3.689  1.00  0.00    -0.248 NA
ATOM     62  C   UNL     1       1.669 -10.454  -5.859  1.00  0.00     0.031 C 
ATOM     63  C   UNL     1       2.783 -12.468  -1.104  1.00  0.00     0.029 A 
ATOM     64  C   UNL     1       3.739 -12.168  -2.059  1.00  0.00     0.049 A 
ATOM     65  H   UNL     1       5.695 -11.473  -1.787  1.00  0.00     0.167 HD
ATOM     66  C   UNL     1       3.002 -11.495  -4.243  1.00  0.00     0.074 A 
ATOM     67  C   UNL     1       2.494 -11.485  -5.606  1.00  0.00     0.031 C 
ATOM     68  C   UNL     1       3.818 -12.323  -3.512  1.00  0.00     0.037 A 
BRANCH  55  69
ATOM     69  C   UNL     1       5.975 -11.571   2.264  1.00  0.00     0.057 A 
ATOM     70  C   UNL     1       5.456 -12.800   2.726  1.00  0.00     0.134 A 
ATOM     71  C   UNL     1       6.883 -10.971   3.159  1.00  0.00     0.134 A 
ATOM     72  F   UNL     1       4.653 -13.559   1.971  1.00  0.00    -0.206 F 
ATOM     73  C   UNL     1       5.758 -13.345   3.981  1.00  0.00     0.040 A 
ATOM     74  C   UNL     1       7.176 -11.494   4.430  1.00  0.00     0.040 A 
ATOM     75  F   UNL     1       7.589  -9.883   2.836  1.00  0.00    -0.206 F 
ATOM     76  C   UNL     1       6.612 -12.687   4.847  1.00  0.00     0.006 A 
ENDBRANCH  55  69
BRANCH  56  77
ATOM     77  C   UNL     1       0.673  -7.316  -4.800  1.00  0.00     0.057 A 
ATOM     78  C   UNL     1      -0.551  -6.611  -4.784  1.00  0.00     0.134 A 
ATOM     79  C   UNL     1       1.837  -6.552  -4.693  1.00  0.00     0.134 A 
ATOM     80  F   UNL     1      -1.706  -7.272  -4.954  1.00  0.00    -0.206 F 
ATOM     81  C   UNL     1      -0.626  -5.262  -4.419  1.00  0.00     0.040 A 
ATOM     82  C   UNL     1       1.762  -5.218  -4.288  1.00  0.00     0.040 A 
ATOM     83  F   UNL     1       3.049  -7.121  -4.765  1.00  0.00    -0.206 F 
ATOM     84  C   UNL     1       0.537  -4.583  -4.091  1.00  0.00     0.006 A 
ENDBRANCH  56  77
BRANCH  68  85
ATOM     85  C   UNL     1       4.749 -13.416  -4.027  1.00  0.00     0.057 A 
ATOM     86  C   UNL     1       5.005 -13.703  -5.372  1.00  0.00     0.134 A 
ATOM     87  C   UNL     1       5.535 -14.188  -3.124  1.00  0.00     0.134 A 
ATOM     88  F   UNL     1       4.459 -13.012  -6.373  1.00  0.00    -0.206 F 
ATOM     89  C   UNL     1       5.899 -14.702  -5.782  1.00  0.00     0.040 A 
ATOM     90  C   UNL     1       6.492 -15.121  -3.523  1.00  0.00     0.040 A 
ATOM     91  F   UNL     1       5.441 -14.079  -1.792  1.00  0.00    -0.206 F 
ATOM     92  C   UNL     1       6.660 -15.402  -4.861  1.00  0.00     0.006 A 
ENDBRANCH  68  85
ENDBRANCH  42  43
ENDBRANCH  35  37
ENDBRANCH  34  35
ENDBRANCH  33  34
ENDBRANCH   1  33
TORSDOF 16
