REMARK SMILES O=C(C[C@@H]1C[N@@H+](CCSc2ccccc2F)CCO1)OCCOC(=O)c1ccc(-c2c3nc(c(-c4c(F)cccc4F)c4ccc([nH]4)c(-c4c(F)cccc4F)c4nc(c(-c5c(F)cccc5F)c5ccc2[nH]5)C=C4)C=C3)cc1
REMARK SMILES IDX 20 1 2 2 1 3 3 4 4 5 5 6 19 7 6 8 18 9 17 10 7 12 8 13 9 14
REMARK SMILES IDX 10 15 11 16 15 17 12 18 14 19 16 20 13 21 21 22 22 23 23 24
REMARK SMILES IDX 24 25 25 26 26 27 27 28 79 29 28 30 78 31 29 32 30 33 31 34
REMARK SMILES IDX 72 35 32 36 77 37 71 38 73 39 33 40 76 41 70 42 69 43 34 45
REMARK SMILES IDX 60 46 43 47 59 48 44 49 47 50 58 51 74 52 45 53 46 54 57 56
REMARK SMILES IDX 75 57 48 58 35 59 36 60 41 61 37 62 38 63 40 64 42 65 39 66
REMARK SMILES IDX 61 67 62 68 67 69 63 70 64 71 66 72 68 73 65 74 49 75 50 76
REMARK SMILES IDX 55 77 51 78 52 79 54 80 56 81 53 82
REMARK H PARENT 6 11 73 44 47 55
REMARK Flexibility Score: inf
ROOT
ATOM      1  O   UNL     1       2.198   1.119  -0.407  1.00  0.00    -0.462 OA
ENDROOT
BRANCH   1   2
ATOM      2  C   UNL     1       1.518   0.056  -0.897  1.00  0.00     0.308 C 
ATOM      3  O   UNL     1       0.680   0.198  -1.784  1.00  0.00    -0.252 OA
BRANCH   2   4
ATOM      4  C   UNL     1       1.657  -1.264  -0.179  1.00  0.00     0.160 C 
BRANCH   4   5
ATOM      5  C   UNL     1       2.927  -2.022  -0.513  1.00  0.00     0.184 C 
ATOM      6  C   UNL     1       2.706  -3.536  -0.679  1.00  0.00     0.295 C 
ATOM      7  O   UNL     1       3.801  -1.795   0.608  1.00  0.00    -0.366 OA
ATOM      8  N   UNL     1       3.966  -4.284  -0.860  1.00  0.00    -0.330 N 
ATOM      9  C   UNL     1       5.056  -2.445   0.440  1.00  0.00     0.222 C 
ATOM     10  C   UNL     1       4.882  -3.953   0.230  1.00  0.00     0.291 C 
ATOM     11  H   UNL     1       3.742  -5.276  -0.787  1.00  0.00     0.348 HD
BRANCH   8  12
ATOM     12  C   UNL     1       4.539  -4.305  -2.218  1.00  0.00     0.273 C 
BRANCH  12  13
ATOM     13  C   UNL     1       5.554  -3.259  -2.762  1.00  0.00     0.136 C 
BRANCH  13  14
ATOM     14  S   UNL     1       7.356  -3.697  -2.754  1.00  0.00    -0.117 SA
BRANCH  14  15
ATOM     15  C   UNL     1       7.939  -3.228  -1.131  1.00  0.00     0.043 A 
ATOM     16  C   UNL     1       8.085  -1.887  -0.751  1.00  0.00     0.018 A 
ATOM     17  C   UNL     1       8.272  -4.218  -0.197  1.00  0.00     0.136 A 
ATOM     18  C   UNL     1       8.429  -1.558   0.569  1.00  0.00     0.001 A 
ATOM     19  C   UNL     1       8.600  -3.897   1.120  1.00  0.00     0.040 A 
ATOM     20  F   UNL     1       8.188  -5.517  -0.525  1.00  0.00    -0.206 F 
ATOM     21  C   UNL     1       8.658  -2.562   1.511  1.00  0.00     0.003 A 
ENDBRANCH  14  15
ENDBRANCH  13  14
ENDBRANCH  12  13
ENDBRANCH   8  12
ENDBRANCH   4   5
ENDBRANCH   2   4
ENDBRANCH   1   2
BRANCH   1  22
ATOM     22  C   UNL     1       3.640   1.158  -0.368  1.00  0.00     0.274 C 
BRANCH  22  23
ATOM     23  C   UNL     1       4.160   1.620   0.995  1.00  0.00     0.275 C 
BRANCH  23  24
ATOM     24  O   UNL     1       3.812   0.690   2.030  1.00  0.00    -0.458 OA
BRANCH  24  25
ATOM     25  C   UNL     1       2.636   0.938   2.651  1.00  0.00     0.338 C 
ATOM     26  O   UNL     1       1.935   1.930   2.530  1.00  0.00    -0.246 OA
BRANCH  25  27
ATOM     27  C   UNL     1       2.213  -0.262   3.402  1.00  0.00     0.060 A 
ATOM     28  C   UNL     1       0.857  -0.608   3.346  1.00  0.00     0.016 A 
ATOM     29  C   UNL     1       3.114  -1.045   4.131  1.00  0.00     0.016 A 
ATOM     30  C   UNL     1       0.396  -1.732   4.022  1.00  0.00     0.010 A 
ATOM     31  C   UNL     1       2.646  -2.157   4.837  1.00  0.00     0.010 A 
ATOM     32  C   UNL     1       1.281  -2.485   4.805  1.00  0.00    -0.014 A 
BRANCH  32  33
ATOM     33  C   UNL     1       0.704  -3.447   5.770  1.00  0.00     0.031 A 
ATOM     34  C   UNL     1       0.319  -2.926   7.125  1.00  0.00     0.074 A 
ATOM     35  C   UNL     1       0.442  -4.720   5.427  1.00  0.00     0.049 A 
ATOM     36  N   UNL     1      -0.330  -3.522   8.090  1.00  0.00    -0.248 NA
ATOM     37  C   UNL     1       0.709  -1.538   7.425  1.00  0.00     0.031 C 
ATOM     38  C   UNL     1       0.745  -5.331   4.135  1.00  0.00     0.029 A 
ATOM     39  N   UNL     1      -0.161  -5.722   6.144  1.00  0.00    -0.354 N 
ATOM     40  C   UNL     1      -0.457  -2.571   9.093  1.00  0.00     0.074 A 
ATOM     41  C   UNL     1       0.229  -1.380   8.648  1.00  0.00     0.031 C 
ATOM     42  C   UNL     1       0.320  -6.607   4.149  1.00  0.00     0.029 A 
ATOM     43  C   UNL     1      -0.282  -6.901   5.450  1.00  0.00     0.049 A 
ATOM     44  H   UNL     1      -0.477  -5.607   7.069  1.00  0.00     0.167 HD
ATOM     45  C   UNL     1      -1.110  -2.672  10.273  1.00  0.00     0.037 A 
ATOM     46  C   UNL     1      -0.827  -8.075   5.824  1.00  0.00     0.037 A 
ATOM     47  C   UNL     1      -1.762  -3.867  10.732  1.00  0.00     0.049 A 
ATOM     48  C   UNL     1      -1.477  -8.192   7.180  1.00  0.00     0.074 A 
ATOM     49  C   UNL     1      -2.427  -4.081  11.925  1.00  0.00     0.029 A 
ATOM     50  N   UNL     1      -1.817  -5.056  10.020  1.00  0.00    -0.354 N 
ATOM     51  N   UNL     1      -1.627  -7.277   8.108  1.00  0.00    -0.248 NA
ATOM     52  C   UNL     1      -2.050  -9.500   7.533  1.00  0.00     0.031 C 
ATOM     53  C   UNL     1      -2.845  -5.415  11.955  1.00  0.00     0.029 A 
ATOM     54  C   UNL     1      -2.491  -6.014  10.756  1.00  0.00     0.049 A 
ATOM     55  H   UNL     1      -1.434  -5.197   9.124  1.00  0.00     0.167 HD
ATOM     56  C   UNL     1      -2.340  -7.886   9.135  1.00  0.00     0.074 A 
ATOM     57  C   UNL     1      -2.596  -9.247   8.714  1.00  0.00     0.031 C 
ATOM     58  C   UNL     1      -2.752  -7.361  10.316  1.00  0.00     0.037 A 
BRANCH  45  59
ATOM     59  C   UNL     1      -1.134  -1.456  11.147  1.00  0.00     0.057 A 
ATOM     60  C   UNL     1      -0.394  -1.411  12.334  1.00  0.00     0.134 A 
ATOM     61  C   UNL     1      -1.905  -0.333  10.819  1.00  0.00     0.134 A 
ATOM     62  F   UNL     1       0.367  -2.452  12.703  1.00  0.00    -0.206 F 
ATOM     63  C   UNL     1      -0.426  -0.293  13.169  1.00  0.00     0.040 A 
ATOM     64  C   UNL     1      -1.925   0.800  11.633  1.00  0.00     0.040 A 
ATOM     65  F   UNL     1      -2.618  -0.306   9.683  1.00  0.00    -0.206 F 
ATOM     66  C   UNL     1      -1.189   0.818  12.816  1.00  0.00     0.006 A 
ENDBRANCH  45  59
BRANCH  46  67
ATOM     67  C   UNL     1      -0.812  -9.228   4.889  1.00  0.00     0.057 A 
ATOM     68  C   UNL     1       0.379  -9.895   4.576  1.00  0.00     0.134 A 
ATOM     69  C   UNL     1      -1.988  -9.694   4.290  1.00  0.00     0.134 A 
ATOM     70  F   UNL     1       1.539  -9.498   5.118  1.00  0.00    -0.206 F 
ATOM     71  C   UNL     1       0.402 -10.976   3.693  1.00  0.00     0.040 A 
ATOM     72  C   UNL     1      -1.983 -10.789   3.423  1.00  0.00     0.040 A 
ATOM     73  F   UNL     1      -3.164  -9.112   4.567  1.00  0.00    -0.206 F 
ATOM     74  C   UNL     1      -0.783 -11.429   3.117  1.00  0.00     0.006 A 
ENDBRANCH  46  67
BRANCH  58  75
ATOM     75  C   UNL     1      -3.560  -8.236  11.230  1.00  0.00     0.057 A 
ATOM     76  C   UNL     1      -4.914  -7.957  11.463  1.00  0.00     0.134 A 
ATOM     77  C   UNL     1      -2.986  -9.290  11.949  1.00  0.00     0.134 A 
ATOM     78  F   UNL     1      -5.523  -6.949  10.818  1.00  0.00    -0.206 F 
ATOM     79  C   UNL     1      -5.663  -8.686  12.387  1.00  0.00     0.040 A 
ATOM     80  C   UNL     1      -3.731 -10.045  12.856  1.00  0.00     0.040 A 
ATOM     81  F   UNL     1      -1.696  -9.613  11.769  1.00  0.00    -0.206 F 
ATOM     82  C   UNL     1      -5.071  -9.736  13.085  1.00  0.00     0.006 A 
ENDBRANCH  58  75
ENDBRANCH  32  33
ENDBRANCH  25  27
ENDBRANCH  24  25
ENDBRANCH  23  24
ENDBRANCH  22  23
ENDBRANCH   1  22
TORSDOF 16
