REMARK SMILES O=C(Cc1csc(NC(=O)[C@H]2CC(=O)N(C3CC3)C2)n1)OCCOC(=O)c1ccc(-c2c3nc(c(-c4c(F)cccc4F)c4ccc([nH]4)c(-c4c(F)cccc4F)c4nc(c(-c5c(F)cccc5F)c5ccc2[nH]5)C=C4)C=C3)cc1
REMARK SMILES IDX 22 1 21 2 2 3 1 4 3 5 4 6 5 7 20 8 6 9 7 10 8 11 9 12 10 14
REMARK SMILES IDX 11 15 12 16 19 17 13 18 15 19 14 20 16 21 17 22 18 23 23 24
REMARK SMILES IDX 24 25 25 26 26 27 27 28 28 29 80 30 29 31 79 32 30 33 31 34
REMARK SMILES IDX 32 35 73 36 33 37 78 38 72 39 74 40 34 41 77 42 71 43 70 44
REMARK SMILES IDX 35 46 61 47 44 48 60 49 45 50 48 51 59 52 75 53 46 54 47 55
REMARK SMILES IDX 58 57 76 58 49 59 36 60 37 61 42 62 38 63 39 64 41 65 43 66
REMARK SMILES IDX 40 67 62 68 63 69 68 70 64 71 65 72 67 73 69 74 66 75 50 76
REMARK SMILES IDX 51 77 56 78 52 79 53 80 55 81 57 82 54 83
REMARK H PARENT 8 13 74 45 48 56
REMARK Flexibility Score: inf
ROOT
ATOM      1  C   UNL     1       1.342   1.317  -0.128  1.00  0.00     0.274 C 
ENDROOT
BRANCH   1   2
ATOM      2  O   UNL     1       2.027   0.043  -0.115  1.00  0.00    -0.462 OA
BRANCH   2   3
ATOM      3  C   UNL     1       2.752  -0.462   0.915  1.00  0.00     0.312 C 
ATOM      4  O   UNL     1       3.613  -1.314   0.701  1.00  0.00    -0.252 OA
BRANCH   3   5
ATOM      5  C   UNL     1       2.457   0.011   2.313  1.00  0.00     0.179 C 
BRANCH   5   6
ATOM      6  C   UNL     1       3.292   1.150   2.781  1.00  0.00     0.065 A 
ATOM      7  C   UNL     1       3.778   2.201   2.026  1.00  0.00     0.093 A 
ATOM      8  N   UNL     1       3.575   1.252   4.144  1.00  0.00    -0.224 NA
ATOM      9  S   UNL     1       4.292   3.443   3.071  1.00  0.00    -0.105 S 
ATOM     10  C   UNL     1       4.309   2.317   4.355  1.00  0.00     0.189 A 
BRANCH  10  11
ATOM     11  N   UNL     1       4.974   2.555   5.530  1.00  0.00    -0.302 N 
ATOM     12  C   UNL     1       6.171   3.193   5.737  1.00  0.00     0.231 C 
ATOM     13  H   UNL     1       4.529   2.220   6.342  1.00  0.00     0.172 HD
ATOM     14  O   UNL     1       6.580   3.326   6.892  1.00  0.00    -0.274 OA
BRANCH  12  15
ATOM     15  C   UNL     1       7.003   3.656   4.563  1.00  0.00     0.107 C 
ATOM     16  C   UNL     1       8.333   4.353   4.837  1.00  0.00     0.115 C 
ATOM     17  C   UNL     1       7.478   2.483   3.722  1.00  0.00     0.133 C 
ATOM     18  C   UNL     1       9.002   4.218   3.475  1.00  0.00     0.223 C 
ATOM     19  N   UNL     1       8.423   3.109   2.844  1.00  0.00    -0.339 N 
ATOM     20  O   UNL     1       9.862   4.969   3.048  1.00  0.00    -0.275 OA
BRANCH  19  21
ATOM     21  C   UNL     1       8.555   2.667   1.492  1.00  0.00     0.085 C 
ATOM     22  C   UNL     1       9.376   3.346   0.437  1.00  0.00     0.027 C 
ATOM     23  C   UNL     1       9.828   2.033   1.011  1.00  0.00     0.027 C 
ENDBRANCH  19  21
ENDBRANCH  12  15
ENDBRANCH  10  11
ENDBRANCH   5   6
ENDBRANCH   3   5
ENDBRANCH   2   3
ENDBRANCH   1   2
BRANCH   1  24
ATOM     24  C   UNL     1      -0.170   1.159  -0.249  1.00  0.00     0.275 C 
BRANCH  24  25
ATOM     25  O   UNL     1      -0.702   0.770   1.030  1.00  0.00    -0.458 OA
BRANCH  25  26
ATOM     26  C   UNL     1      -0.885  -0.564   1.202  1.00  0.00     0.338 C 
ATOM     27  O   UNL     1      -0.784  -1.423   0.354  1.00  0.00    -0.246 OA
BRANCH  26  28
ATOM     28  C   UNL     1      -1.009  -0.848   2.654  1.00  0.00     0.060 A 
ATOM     29  C   UNL     1      -0.483  -2.060   3.118  1.00  0.00     0.016 A 
ATOM     30  C   UNL     1      -1.558   0.071   3.556  1.00  0.00     0.016 A 
ATOM     31  C   UNL     1      -0.526  -2.367   4.478  1.00  0.00     0.010 A 
ATOM     32  C   UNL     1      -1.605  -0.240   4.918  1.00  0.00     0.010 A 
ATOM     33  C   UNL     1      -1.108  -1.469   5.382  1.00  0.00    -0.014 A 
BRANCH  33  34
ATOM     34  C   UNL     1      -1.310  -1.870   6.793  1.00  0.00     0.031 A 
ATOM     35  C   UNL     1      -2.637  -2.443   7.201  1.00  0.00     0.074 A 
ATOM     36  C   UNL     1      -0.324  -1.734   7.698  1.00  0.00     0.049 A 
ATOM     37  N   UNL     1      -3.034  -2.858   8.376  1.00  0.00    -0.248 NA
ATOM     38  C   UNL     1      -3.653  -2.562   6.143  1.00  0.00     0.031 C 
ATOM     39  C   UNL     1       1.012  -1.207   7.426  1.00  0.00     0.029 A 
ATOM     40  N   UNL     1      -0.305  -2.026   9.039  1.00  0.00    -0.354 N 
ATOM     41  C   UNL     1      -4.339  -3.297   8.198  1.00  0.00     0.074 A 
ATOM     42  C   UNL     1      -4.681  -3.066   6.811  1.00  0.00     0.031 C 
ATOM     43  C   UNL     1       1.718  -1.200   8.571  1.00  0.00     0.029 A 
ATOM     44  C   UNL     1       0.877  -1.702   9.657  1.00  0.00     0.049 A 
ATOM     45  H   UNL     1      -1.068  -2.429   9.513  1.00  0.00     0.167 HD
ATOM     46  C   UNL     1      -5.174  -3.855   9.105  1.00  0.00     0.037 A 
ATOM     47  C   UNL     1       1.232  -1.789  10.954  1.00  0.00     0.037 A 
ATOM     48  C   UNL     1      -4.843  -4.082  10.485  1.00  0.00     0.049 A 
ATOM     49  C   UNL     1       0.255  -2.345  11.957  1.00  0.00     0.074 A 
ATOM     50  C   UNL     1      -5.613  -4.676  11.469  1.00  0.00     0.029 A 
ATOM     51  N   UNL     1      -3.647  -3.713  11.079  1.00  0.00    -0.354 N 
ATOM     52  N   UNL     1      -0.954  -2.814  11.765  1.00  0.00    -0.248 NA
ATOM     53  C   UNL     1       0.695  -2.383  13.361  1.00  0.00     0.031 C 
ATOM     54  C   UNL     1      -4.901  -4.624  12.672  1.00  0.00     0.029 A 
ATOM     55  C   UNL     1      -3.671  -4.037  12.425  1.00  0.00     0.049 A 
ATOM     56  H   UNL     1      -2.892  -3.285  10.614  1.00  0.00     0.167 HD
ATOM     57  C   UNL     1      -1.405  -3.228  13.013  1.00  0.00     0.074 A 
ATOM     58  C   UNL     1      -0.338  -2.966  13.954  1.00  0.00     0.031 C 
ATOM     59  C   UNL     1      -2.598  -3.777  13.349  1.00  0.00     0.037 A 
BRANCH  46  60
ATOM     60  C   UNL     1      -6.539  -4.252   8.633  1.00  0.00     0.057 A 
ATOM     61  C   UNL     1      -6.740  -5.389   7.842  1.00  0.00     0.134 A 
ATOM     62  C   UNL     1      -7.668  -3.517   9.016  1.00  0.00     0.134 A 
ATOM     63  F   UNL     1      -5.696  -6.125   7.431  1.00  0.00    -0.206 F 
ATOM     64  C   UNL     1      -8.018  -5.778   7.439  1.00  0.00     0.040 A 
ATOM     65  C   UNL     1      -8.952  -3.907   8.636  1.00  0.00     0.040 A 
ATOM     66  F   UNL     1      -7.540  -2.417   9.774  1.00  0.00    -0.206 F 
ATOM     67  C   UNL     1      -9.130  -5.040   7.843  1.00  0.00     0.006 A 
ENDBRANCH  46  60
BRANCH  47  68
ATOM     68  C   UNL     1       2.570  -1.324  11.398  1.00  0.00     0.057 A 
ATOM     69  C   UNL     1       3.537  -2.226  11.855  1.00  0.00     0.134 A 
ATOM     70  C   UNL     1       2.891   0.038  11.428  1.00  0.00     0.134 A 
ATOM     71  F   UNL     1       3.277  -3.541  11.874  1.00  0.00    -0.206 F 
ATOM     72  C   UNL     1       4.767  -1.789  12.350  1.00  0.00     0.040 A 
ATOM     73  C   UNL     1       4.126   0.488  11.898  1.00  0.00     0.040 A 
ATOM     74  F   UNL     1       2.006   0.953  11.004  1.00  0.00    -0.206 F 
ATOM     75  C   UNL     1       5.064  -0.428  12.370  1.00  0.00     0.006 A 
ENDBRANCH  47  68
BRANCH  59  76
ATOM     76  C   UNL     1      -2.804  -4.155  14.787  1.00  0.00     0.057 A 
ATOM     77  C   UNL     1      -3.019  -3.191  15.779  1.00  0.00     0.134 A 
ATOM     78  C   UNL     1      -2.833  -5.501  15.174  1.00  0.00     0.134 A 
ATOM     79  F   UNL     1      -2.991  -1.885  15.475  1.00  0.00    -0.206 F 
ATOM     80  C   UNL     1      -3.238  -3.551  17.110  1.00  0.00     0.040 A 
ATOM     81  C   UNL     1      -3.075  -5.875  16.497  1.00  0.00     0.040 A 
ATOM     82  F   UNL     1      -2.644  -6.475  14.270  1.00  0.00    -0.206 F 
ATOM     83  C   UNL     1      -3.274  -4.897  17.470  1.00  0.00     0.006 A 
ENDBRANCH  59  76
ENDBRANCH  33  34
ENDBRANCH  26  28
ENDBRANCH  25  26
ENDBRANCH  24  25
ENDBRANCH   1  24
TORSDOF 15
