REMARK SMILES Cc1ccc(F)cc1S(=O)(=O)Nc1ccc(N(C)C)c(C(=O)OCCOC(=O)c2ccc(-c3c4nc(c(-c5c(F)cccc5F)c5ccc([nH]5)c(-c5c(F)cccc5F)c5nc(c(-c6c(F)cccc6F)c6ccc3[nH]6)C=C5)C=C4)cc2)c1
REMARK SMILES IDX 24 1 23 2 21 3 22 4 20 5 13 6 14 7 83 8 15 9 16 10 12 11
REMARK SMILES IDX 9 13 10 14 11 15 8 16 1 17 2 18 3 19 4 20 7 21 5 22 6 23
REMARK SMILES IDX 17 24 18 25 19 26 25 27 26 28 27 29 28 30 29 31 30 32 82 33
REMARK SMILES IDX 31 34 81 35 32 36 33 37 34 38 75 39 35 40 80 41 74 42 76 43
REMARK SMILES IDX 36 44 79 45 73 46 72 47 37 49 63 50 46 51 62 52 47 53 50 54
REMARK SMILES IDX 61 55 77 56 48 57 49 58 60 60 78 61 51 62 38 63 39 64 44 65
REMARK SMILES IDX 40 66 41 67 43 68 45 69 42 70 64 71 65 72 70 73 66 74 67 75
REMARK SMILES IDX 69 76 71 77 68 78 52 79 53 80 58 81 54 82 55 83 57 84 59 85
REMARK SMILES IDX 56 86
REMARK H PARENT 12 12 76 48 50 59
REMARK Flexibility Score: inf
ROOT
ATOM      1  C   UNL     1       2.414   2.715   3.874  1.00  0.00     0.275 C 
ENDROOT
BRANCH   1   2
ATOM      2  O   UNL     1       3.158   1.892   2.959  1.00  0.00    -0.458 OA
BRANCH   2   3
ATOM      3  C   UNL     1       2.966   2.123   1.636  1.00  0.00     0.340 C 
ATOM      4  O   UNL     1       2.197   2.927   1.141  1.00  0.00    -0.246 OA
BRANCH   3   5
ATOM      5  C   UNL     1       3.751   1.115   0.887  1.00  0.00     0.085 A 
ATOM      6  C   UNL     1       3.793  -1.285   0.480  1.00  0.00     0.050 A 
ATOM      7  C   UNL     1       4.854  -1.111  -0.389  1.00  0.00     0.029 A 
ATOM      8  C   UNL     1       3.301  -0.194   1.171  1.00  0.00     0.044 A 
ATOM      9  C   UNL     1       5.333   0.186  -0.640  1.00  0.00     0.029 A 
ATOM     10  C   UNL     1       4.751   1.362  -0.091  1.00  0.00     0.051 A 
BRANCH   6  11
ATOM     11  N   UNL     1       3.106  -2.530   0.604  1.00  0.00    -0.280 N 
ATOM     12  H   UNL     1       3.430  -3.226   1.221  1.00  0.00     0.180 HD
BRANCH  11  13
ATOM     13  S   UNL     1       1.701  -2.786  -0.350  1.00  0.00     0.262 S 
ATOM     14  O   UNL     1       0.973  -3.835   0.338  1.00  0.00    -0.201 OA
ATOM     15  O   UNL     1       2.133  -3.006  -1.713  1.00  0.00    -0.201 OA
BRANCH  13  16
ATOM     16  C   UNL     1       0.697  -1.300  -0.292  1.00  0.00     0.093 A 
ATOM     17  C   UNL     1       2.034   0.008  -2.097  1.00  0.00     0.046 C 
ATOM     18  C   UNL     1       0.958  -0.143  -1.060  1.00  0.00    -0.030 A 
ATOM     19  C   UNL     1       0.122   0.982  -0.890  1.00  0.00     0.008 A 
ATOM     20  C   UNL     1      -0.998   0.934  -0.065  1.00  0.00     0.039 A 
ATOM     21  C   UNL     1      -0.454  -1.347   0.516  1.00  0.00     0.061 A 
ATOM     22  C   UNL     1      -1.292  -0.240   0.605  1.00  0.00     0.124 A 
ATOM     23  F   UNL     1      -2.406  -0.312   1.345  1.00  0.00    -0.207 F 
ENDBRANCH  13  16
ENDBRANCH  11  13
ENDBRANCH   6  11
BRANCH  10  24
ATOM     24  N   UNL     1       5.192   2.610  -0.547  1.00  0.00    -0.377 N 
ATOM     25  C   UNL     1       6.124   2.705  -1.679  1.00  0.00     0.143 C 
ATOM     26  C   UNL     1       4.484   3.853  -0.243  1.00  0.00     0.143 C 
ENDBRANCH  10  24
ENDBRANCH   3   5
ENDBRANCH   2   3
ENDBRANCH   1   2
BRANCH   1  27
ATOM     27  C   UNL     1       3.310   3.095   5.053  1.00  0.00     0.275 C 
BRANCH  27  28
ATOM     28  O   UNL     1       4.464   3.811   4.575  1.00  0.00    -0.458 OA
BRANCH  28  29
ATOM     29  C   UNL     1       5.538   3.029   4.302  1.00  0.00     0.338 C 
ATOM     30  O   UNL     1       5.687   1.849   4.575  1.00  0.00    -0.246 OA
BRANCH  29  31
ATOM     31  C   UNL     1       6.465   3.779   3.437  1.00  0.00     0.060 A 
ATOM     32  C   UNL     1       6.904   3.150   2.271  1.00  0.00     0.016 A 
ATOM     33  C   UNL     1       6.906   5.066   3.756  1.00  0.00     0.016 A 
ATOM     34  C   UNL     1       7.759   3.817   1.399  1.00  0.00     0.010 A 
ATOM     35  C   UNL     1       7.796   5.721   2.897  1.00  0.00     0.010 A 
ATOM     36  C   UNL     1       8.224   5.098   1.713  1.00  0.00    -0.014 A 
BRANCH  36  37
ATOM     37  C   UNL     1       9.274   5.703   0.864  1.00  0.00     0.031 A 
ATOM     38  C   UNL     1      10.702   5.312   1.103  1.00  0.00     0.074 A 
ATOM     39  C   UNL     1       8.961   6.519  -0.158  1.00  0.00     0.049 A 
ATOM     40  N   UNL     1      11.788   5.731   0.507  1.00  0.00    -0.248 NA
ATOM     41  C   UNL     1      10.932   4.290   2.137  1.00  0.00     0.031 C 
ATOM     42  C   UNL     1       7.607   6.873  -0.575  1.00  0.00     0.029 A 
ATOM     43  N   UNL     1       9.771   7.186  -1.043  1.00  0.00    -0.354 N 
ATOM     44  C   UNL     1      12.829   5.019   1.087  1.00  0.00     0.074 A 
ATOM     45  C   UNL     1      12.246   4.143   2.081  1.00  0.00     0.031 C 
ATOM     46  C   UNL     1       7.679   7.692  -1.639  1.00  0.00     0.029 A 
ATOM     47  C   UNL     1       9.083   7.960  -1.945  1.00  0.00     0.049 A 
ATOM     48  H   UNL     1      10.753   7.115  -1.033  1.00  0.00     0.167 HD
ATOM     49  C   UNL     1      14.154   5.096   0.826  1.00  0.00     0.037 A 
ATOM     50  C   UNL     1       9.542   8.812  -2.883  1.00  0.00     0.037 A 
ATOM     51  C   UNL     1      14.740   6.006  -0.119  1.00  0.00     0.049 A 
ATOM     52  C   UNL     1      11.030   9.009  -3.035  1.00  0.00     0.074 A 
ATOM     53  C   UNL     1      16.079   6.226  -0.392  1.00  0.00     0.029 A 
ATOM     54  N   UNL     1      14.018   6.862  -0.937  1.00  0.00    -0.354 N 
ATOM     55  N   UNL     1      12.014   8.377  -2.445  1.00  0.00    -0.248 NA
ATOM     56  C   UNL     1      11.468  10.058  -3.970  1.00  0.00     0.031 C 
ATOM     57  C   UNL     1      16.167   7.249  -1.343  1.00  0.00     0.029 A 
ATOM     58  C   UNL     1      14.882   7.629  -1.698  1.00  0.00     0.049 A 
ATOM     59  H   UNL     1      13.035   6.915  -0.971  1.00  0.00     0.167 HD
ATOM     60  C   UNL     1      13.184   8.930  -2.953  1.00  0.00     0.074 A 
ATOM     61  C   UNL     1      12.788   9.944  -3.907  1.00  0.00     0.031 C 
ATOM     62  C   UNL     1      14.472   8.626  -2.655  1.00  0.00     0.037 A 
BRANCH  49  63
ATOM     63  C   UNL     1      15.050   4.218   1.642  1.00  0.00     0.057 A 
ATOM     64  C   UNL     1      15.133   2.838   1.422  1.00  0.00     0.134 A 
ATOM     65  C   UNL     1      15.810   4.758   2.687  1.00  0.00     0.134 A 
ATOM     66  F   UNL     1      14.408   2.258   0.454  1.00  0.00    -0.206 F 
ATOM     67  C   UNL     1      15.922   2.019   2.232  1.00  0.00     0.040 A 
ATOM     68  C   UNL     1      16.619   3.953   3.489  1.00  0.00     0.040 A 
ATOM     69  F   UNL     1      15.768   6.072   2.952  1.00  0.00    -0.206 F 
ATOM     70  C   UNL     1      16.670   2.578   3.268  1.00  0.00     0.006 A 
ENDBRANCH  49  63
BRANCH  50  71
ATOM     71  C   UNL     1       8.597   9.587  -3.728  1.00  0.00     0.057 A 
ATOM     72  C   UNL     1       8.524   9.381  -5.111  1.00  0.00     0.134 A 
ATOM     73  C   UNL     1       7.785  10.590  -3.183  1.00  0.00     0.134 A 
ATOM     74  F   UNL     1       9.298   8.457  -5.697  1.00  0.00    -0.206 F 
ATOM     75  C   UNL     1       7.690  10.153  -5.923  1.00  0.00     0.040 A 
ATOM     76  C   UNL     1       6.928  11.352  -3.979  1.00  0.00     0.040 A 
ATOM     77  F   UNL     1       7.814  10.845  -1.867  1.00  0.00    -0.206 F 
ATOM     78  C   UNL     1       6.886  11.140  -5.356  1.00  0.00     0.006 A 
ENDBRANCH  50  71
BRANCH  62  79
ATOM     79  C   UNL     1      15.549   9.364  -3.393  1.00  0.00     0.057 A 
ATOM     80  C   UNL     1      15.861  10.699  -3.108  1.00  0.00     0.134 A 
ATOM     81  C   UNL     1      16.328   8.709  -4.356  1.00  0.00     0.134 A 
ATOM     82  F   UNL     1      15.146  11.387  -2.205  1.00  0.00    -0.206 F 
ATOM     83  C   UNL     1      16.902  11.360  -3.763  1.00  0.00     0.040 A 
ATOM     84  C   UNL     1      17.386   9.351  -5.000  1.00  0.00     0.040 A 
ATOM     85  F   UNL     1      16.086   7.427  -4.670  1.00  0.00    -0.206 F 
ATOM     86  C   UNL     1      17.674  10.682  -4.706  1.00  0.00     0.006 A 
ENDBRANCH  62  79
ENDBRANCH  36  37
ENDBRANCH  29  31
ENDBRANCH  28  29
ENDBRANCH  27  28
ENDBRANCH   1  27
TORSDOF 15
