REMARK SMILES COc1ccc(OC)c(N2C(=O)c3ccc(C(=O)OCCOC(=O)c4ccc(-c5c6nc(c(-c7c(F)cccc7F)c7ccc([nH]7)c(-c7c(F)cccc7F)c7nc(c(-c8c(F)cccc8F)c8ccc5[nH]8)C=C7)C=C6)cc4)cc3C2=O)c1
REMARK SMILES IDX 20 1 19 2 17 3 18 4 16 5 10 6 11 7 81 8 12 9 13 10 80 11
REMARK SMILES IDX 82 12 14 13 79 14 15 15 9 16 3 17 4 18 83 19 5 20 6 21 2 22
REMARK SMILES IDX 1 23 7 24 8 25 21 26 22 27 23 28 24 29 25 30 26 31 78 32
REMARK SMILES IDX 27 33 77 34 28 35 29 36 30 37 71 38 31 39 76 40 70 41 72 42
REMARK SMILES IDX 32 43 75 44 69 45 68 46 33 48 59 49 42 50 58 51 43 52 46 53
REMARK SMILES IDX 57 54 73 55 44 56 45 57 56 59 74 60 47 61 34 62 35 63 40 64
REMARK SMILES IDX 36 65 37 66 39 67 41 68 38 69 60 70 61 71 66 72 62 73 63 74
REMARK SMILES IDX 65 75 67 76 64 77 48 78 49 79 54 80 50 81 51 82 53 83 55 84
REMARK SMILES IDX 52 85
REMARK H PARENT 72 47 46 58
REMARK Flexibility Score: inf
ROOT
ATOM      1  C   UNL     1      11.664  -5.375   2.969  1.00  0.00     0.275 C 
ENDROOT
BRANCH   1   2
ATOM      2  O   UNL     1      10.304  -5.027   2.641  1.00  0.00    -0.458 OA
BRANCH   2   3
ATOM      3  C   UNL     1       9.841  -3.925   3.264  1.00  0.00     0.338 C 
ATOM      4  O   UNL     1      10.416  -3.219   4.076  1.00  0.00    -0.246 OA
BRANCH   3   5
ATOM      5  C   UNL     1       8.500  -3.582   2.780  1.00  0.00     0.060 A 
ATOM      6  N   UNL     1       4.075  -2.418   3.074  1.00  0.00    -0.238 N 
ATOM      7  C   UNL     1       4.831  -1.765   2.122  1.00  0.00     0.266 C 
ATOM      8  C   UNL     1       4.861  -3.321   3.761  1.00  0.00     0.266 C 
ATOM      9  O   UNL     1       4.586  -0.836   1.370  1.00  0.00    -0.268 OA
ATOM     10  C   UNL     1       6.157  -2.339   2.158  1.00  0.00     0.053 A 
ATOM     11  C   UNL     1       6.214  -3.208   3.223  1.00  0.00     0.054 A 
ATOM     12  O   UNL     1       4.619  -4.216   4.548  1.00  0.00    -0.268 OA
ATOM     13  C   UNL     1       7.219  -2.120   1.312  1.00  0.00     0.015 A 
ATOM     14  C   UNL     1       7.389  -3.830   3.591  1.00  0.00     0.030 A 
ATOM     15  C   UNL     1       8.396  -2.795   1.612  1.00  0.00     0.016 A 
BRANCH   6  16
ATOM     16  C   UNL     1       2.675  -2.188   3.227  1.00  0.00     0.098 A 
ATOM     17  C   UNL     1       0.627  -1.272   2.208  1.00  0.00     0.121 A 
ATOM     18  C   UNL     1      -0.074  -1.542   3.376  1.00  0.00     0.050 A 
ATOM     19  C   UNL     1       1.969  -1.639   2.135  1.00  0.00     0.077 A 
ATOM     20  C   UNL     1       0.576  -2.131   4.466  1.00  0.00     0.052 A 
ATOM     21  C   UNL     1       1.944  -2.445   4.398  1.00  0.00     0.143 A 
BRANCH  17  22
ATOM     22  O   UNL     1      -0.066  -0.644   1.209  1.00  0.00    -0.497 OA
ATOM     23  C   UNL     1       0.705  -0.163   0.106  1.00  0.00     0.278 C 
ENDBRANCH  17  22
BRANCH  21  24
ATOM     24  O   UNL     1       2.575  -2.805   5.560  1.00  0.00    -0.495 OA
ATOM     25  C   UNL     1       2.251  -4.142   5.952  1.00  0.00     0.278 C 
ENDBRANCH  21  24
ENDBRANCH   6  16
ENDBRANCH   3   5
ENDBRANCH   2   3
ENDBRANCH   1   2
BRANCH   1  26
ATOM     26  C   UNL     1      12.586  -5.077   1.791  1.00  0.00     0.275 C 
BRANCH  26  27
ATOM     27  O   UNL     1      12.577  -3.666   1.494  1.00  0.00    -0.458 OA
BRANCH  27  28
ATOM     28  C   UNL     1      12.025  -3.332   0.308  1.00  0.00     0.338 C 
ATOM     29  O   UNL     1      11.556  -4.082  -0.532  1.00  0.00    -0.246 OA
BRANCH  28  30
ATOM     30  C   UNL     1      12.001  -1.870   0.133  1.00  0.00     0.060 A 
ATOM     31  C   UNL     1      11.256  -1.079   1.005  1.00  0.00     0.016 A 
ATOM     32  C   UNL     1      12.544  -1.316  -1.026  1.00  0.00     0.016 A 
ATOM     33  C   UNL     1      10.929   0.226   0.641  1.00  0.00     0.010 A 
ATOM     34  C   UNL     1      12.335   0.037  -1.311  1.00  0.00     0.010 A 
ATOM     35  C   UNL     1      11.488   0.817  -0.506  1.00  0.00    -0.014 A 
BRANCH  35  36
ATOM     36  C   UNL     1      11.201   2.241  -0.852  1.00  0.00     0.031 A 
ATOM     37  C   UNL     1      10.668   2.619  -2.214  1.00  0.00     0.074 A 
ATOM     38  C   UNL     1      11.437   3.214   0.053  1.00  0.00     0.049 A 
ATOM     39  N   UNL     1      10.562   3.805  -2.761  1.00  0.00    -0.248 NA
ATOM     40  C   UNL     1      10.209   1.521  -3.080  1.00  0.00     0.031 C 
ATOM     41  C   UNL     1      11.929   3.006   1.416  1.00  0.00     0.029 A 
ATOM     42  N   UNL     1      11.295   4.578  -0.038  1.00  0.00    -0.354 N 
ATOM     43  C   UNL     1      10.085   3.592  -4.050  1.00  0.00     0.074 A 
ATOM     44  C   UNL     1       9.916   2.163  -4.204  1.00  0.00     0.031 C 
ATOM     45  C   UNL     1      12.004   4.186   2.046  1.00  0.00     0.029 A 
ATOM     46  C   UNL     1      11.671   5.245   1.103  1.00  0.00     0.049 A 
ATOM     47  H   UNL     1      10.957   5.033  -0.843  1.00  0.00     0.167 HD
ATOM     48  C   UNL     1       9.818   4.506  -5.015  1.00  0.00     0.037 A 
ATOM     49  C   UNL     1      11.793   6.561   1.358  1.00  0.00     0.037 A 
ATOM     50  C   UNL     1       9.925   5.932  -4.840  1.00  0.00     0.049 A 
ATOM     51  C   UNL     1      11.507   7.549   0.268  1.00  0.00     0.074 A 
ATOM     52  C   UNL     1       9.645   6.936  -5.753  1.00  0.00     0.029 A 
ATOM     53  N   UNL     1      10.326   6.558  -3.671  1.00  0.00    -0.354 N 
ATOM     54  N   UNL     1      11.111   7.329  -0.962  1.00  0.00    -0.248 NA
ATOM     55  C   UNL     1      11.712   8.967   0.592  1.00  0.00     0.031 C 
ATOM     56  C   UNL     1       9.908   8.169  -5.145  1.00  0.00     0.029 A 
ATOM     57  C   UNL     1      10.314   7.933  -3.843  1.00  0.00     0.049 A 
ATOM     58  H   UNL     1      10.581   6.095  -2.841  1.00  0.00     0.167 HD
ATOM     59  C   UNL     1      11.013   8.579  -1.556  1.00  0.00     0.074 A 
ATOM     60  C   UNL     1      11.368   9.554  -0.545  1.00  0.00     0.031 C 
ATOM     61  C   UNL     1      10.670   8.890  -2.829  1.00  0.00     0.037 A 
BRANCH  48  62
ATOM     62  C   UNL     1       9.405   4.001  -6.368  1.00  0.00     0.057 A 
ATOM     63  C   UNL     1       8.124   3.495  -6.617  1.00  0.00     0.134 A 
ATOM     64  C   UNL     1      10.284   4.096  -7.456  1.00  0.00     0.134 A 
ATOM     65  F   UNL     1       7.237   3.369  -5.618  1.00  0.00    -0.206 F 
ATOM     66  C   UNL     1       7.735   3.092  -7.897  1.00  0.00     0.040 A 
ATOM     67  C   UNL     1       9.900   3.717  -8.743  1.00  0.00     0.040 A 
ATOM     68  F   UNL     1      11.524   4.581  -7.288  1.00  0.00    -0.206 F 
ATOM     69  C   UNL     1       8.622   3.211  -8.966  1.00  0.00     0.006 A 
ENDBRANCH  48  62
BRANCH  49  70
ATOM     70  C   UNL     1      12.265   7.013   2.690  1.00  0.00     0.057 A 
ATOM     71  C   UNL     1      11.411   7.681   3.573  1.00  0.00     0.134 A 
ATOM     72  C   UNL     1      13.581   6.781   3.114  1.00  0.00     0.134 A 
ATOM     73  F   UNL     1      10.148   7.953   3.214  1.00  0.00    -0.206 F 
ATOM     74  C   UNL     1      11.848   8.109   4.828  1.00  0.00     0.040 A 
ATOM     75  C   UNL     1      14.022   7.177   4.376  1.00  0.00     0.040 A 
ATOM     76  F   UNL     1      14.447   6.142   2.314  1.00  0.00    -0.206 F 
ATOM     77  C   UNL     1      13.155   7.849   5.235  1.00  0.00     0.006 A 
ENDBRANCH  49  70
BRANCH  61  78
ATOM     78  C   UNL     1      10.642  10.345  -3.185  1.00  0.00     0.057 A 
ATOM     79  C   UNL     1      11.820  11.076  -3.380  1.00  0.00     0.134 A 
ATOM     80  C   UNL     1       9.425  11.017  -3.347  1.00  0.00     0.134 A 
ATOM     81  F   UNL     1      13.017  10.492  -3.222  1.00  0.00    -0.206 F 
ATOM     82  C   UNL     1      11.788  12.434  -3.701  1.00  0.00     0.040 A 
ATOM     83  C   UNL     1       9.380  12.369  -3.690  1.00  0.00     0.040 A 
ATOM     84  F   UNL     1       8.261  10.370  -3.179  1.00  0.00    -0.206 F 
ATOM     85  C   UNL     1      10.565  13.082  -3.861  1.00  0.00     0.006 A 
ENDBRANCH  61  78
ENDBRANCH  35  36
ENDBRANCH  28  30
ENDBRANCH  27  28
ENDBRANCH  26  27
ENDBRANCH   1  26
TORSDOF 14
