REMARK SMILES CO[C@H]1C[C@@H](C(=O)OCCOC(=O)c2ccc(-c3c4nc(c(-c5c(F)cccc5F)c5ccc([nH]5)c(-c5c(F)cccc5F)c5nc(c(-c6c(F)cccc6F)c6ccc3[nH]6)C=C5)C=C4)cc2)N(C(=O)Nc2cc(C)cc(F)c2)C1
REMARK SMILES IDX 9 1 8 2 6 3 7 4 5 5 3 6 4 7 80 8 68 9 2 10 1 11 69 12 70 13
REMARK SMILES IDX 71 14 72 16 73 17 79 18 74 19 77 20 75 21 76 22 78 23 10 24
REMARK SMILES IDX 11 25 12 26 13 27 14 28 15 29 67 30 16 31 66 32 17 33 18 34
REMARK SMILES IDX 19 35 60 36 20 37 65 38 59 39 61 40 21 41 64 42 58 43 57 44
REMARK SMILES IDX 22 46 48 47 31 48 47 49 32 50 35 51 46 52 62 53 33 54 34 55
REMARK SMILES IDX 45 57 63 58 36 59 23 60 24 61 29 62 25 63 26 64 28 65 30 66
REMARK SMILES IDX 27 67 49 68 50 69 55 70 51 71 52 72 54 73 56 74 53 75 37 76
REMARK SMILES IDX 38 77 43 78 39 79 40 80 42 81 44 82 41 83
REMARK H PARENT 71 15 61 45 35 56
REMARK Flexibility Score: inf
ROOT
ATOM      1  C   UNL     1       6.001  -1.595   1.171  1.00  0.00     0.274 C 
ENDROOT
BRANCH   1   2
ATOM      2  O   UNL     1       4.581  -1.474   1.373  1.00  0.00    -0.461 OA
BRANCH   2   3
ATOM      3  C   UNL     1       4.076  -0.217   1.262  1.00  0.00     0.329 C 
ATOM      4  O   UNL     1       4.742   0.804   1.410  1.00  0.00    -0.250 OA
BRANCH   3   5
ATOM      5  C   UNL     1       2.552  -0.176   0.983  1.00  0.00     0.199 C 
ATOM      6  C   UNL     1       0.506  -1.000   1.977  1.00  0.00     0.140 C 
ATOM      7  C   UNL     1       1.869  -0.426   2.327  1.00  0.00     0.071 C 
ATOM      8  C   UNL     1       0.811  -1.815   0.720  1.00  0.00     0.154 C 
ATOM      9  N   UNL     1       1.903  -1.122   0.046  1.00  0.00    -0.308 N 
BRANCH   6  10
ATOM     10  O   UNL     1       0.078  -1.768   3.096  1.00  0.00    -0.380 OA
ATOM     11  C   UNL     1      -1.263  -2.219   3.010  1.00  0.00     0.195 C 
ENDBRANCH   6  10
BRANCH   9  12
ATOM     12  C   UNL     1       2.715  -1.827  -0.800  1.00  0.00     0.322 C 
ATOM     13  O   UNL     1       3.353  -2.783  -0.395  1.00  0.00    -0.248 OA
ATOM     14  N   UNL     1       2.728  -1.468  -2.118  1.00  0.00    -0.308 N 
ATOM     15  H   UNL     1       1.889  -1.473  -2.634  1.00  0.00     0.171 HD
BRANCH  14  16
ATOM     16  C   UNL     1       3.941  -1.090  -2.749  1.00  0.00     0.046 A 
ATOM     17  C   UNL     1       4.234  -1.461  -4.067  1.00  0.00     0.029 A 
ATOM     18  C   UNL     1       4.841  -0.275  -2.069  1.00  0.00     0.065 A 
ATOM     19  C   UNL     1       5.418  -1.003  -4.688  1.00  0.00    -0.046 A 
ATOM     20  C   UNL     1       6.009   0.162  -2.670  1.00  0.00     0.125 A 
ATOM     21  C   UNL     1       5.765  -1.394  -6.095  1.00  0.00     0.044 C 
ATOM     22  C   UNL     1       6.305  -0.189  -3.973  1.00  0.00     0.042 A 
ATOM     23  F   UNL     1       6.845   0.951  -1.984  1.00  0.00    -0.207 F 
ENDBRANCH  14  16
ENDBRANCH   9  12
ENDBRANCH   3   5
ENDBRANCH   2   3
ENDBRANCH   1   2
BRANCH   1  24
ATOM     24  C   UNL     1       6.427  -3.071   1.060  1.00  0.00     0.275 C 
BRANCH  24  25
ATOM     25  O   UNL     1       5.765  -3.775  -0.016  1.00  0.00    -0.458 OA
BRANCH  25  26
ATOM     26  C   UNL     1       5.254  -4.994   0.313  1.00  0.00     0.338 C 
ATOM     27  O   UNL     1       5.425  -5.601   1.356  1.00  0.00    -0.246 OA
BRANCH  26  28
ATOM     28  C   UNL     1       4.395  -5.552  -0.760  1.00  0.00     0.060 A 
ATOM     29  C   UNL     1       3.006  -5.413  -0.651  1.00  0.00     0.016 A 
ATOM     30  C   UNL     1       4.927  -6.356  -1.771  1.00  0.00     0.016 A 
ATOM     31  C   UNL     1       2.151  -5.980  -1.593  1.00  0.00     0.010 A 
ATOM     32  C   UNL     1       4.062  -7.004  -2.670  1.00  0.00     0.010 A 
ATOM     33  C   UNL     1       2.671  -6.822  -2.580  1.00  0.00    -0.014 A 
BRANCH  33  34
ATOM     34  C   UNL     1       1.717  -7.661  -3.346  1.00  0.00     0.031 A 
ATOM     35  C   UNL     1       1.173  -8.899  -2.688  1.00  0.00     0.074 A 
ATOM     36  C   UNL     1       1.259  -7.282  -4.551  1.00  0.00     0.049 A 
ATOM     37  N   UNL     1       0.310  -9.772  -3.138  1.00  0.00    -0.248 NA
ATOM     38  C   UNL     1       1.651  -9.169  -1.322  1.00  0.00     0.031 C 
ATOM     39  C   UNL     1       1.624  -6.048  -5.241  1.00  0.00     0.029 A 
ATOM     40  N   UNL     1       0.374  -7.898  -5.402  1.00  0.00    -0.354 N 
ATOM     41  C   UNL     1       0.136 -10.690  -2.109  1.00  0.00     0.074 A 
ATOM     42  C   UNL     1       0.979 -10.266  -1.013  1.00  0.00     0.031 C 
ATOM     43  C   UNL     1       0.979  -6.003  -6.420  1.00  0.00     0.029 A 
ATOM     44  C   UNL     1       0.188  -7.223  -6.583  1.00  0.00     0.049 A 
ATOM     45  H   UNL     1      -0.084  -8.742  -5.185  1.00  0.00     0.167 HD
ATOM     46  C   UNL     1      -0.640 -11.800  -2.086  1.00  0.00     0.037 A 
ATOM     47  C   UNL     1      -0.513  -7.571  -7.681  1.00  0.00     0.037 A 
ATOM     48  C   UNL     1      -1.425 -12.254  -3.201  1.00  0.00     0.049 A 
ATOM     49  C   UNL     1      -1.272  -8.873  -7.686  1.00  0.00     0.074 A 
ATOM     50  C   UNL     1      -2.190 -13.401  -3.312  1.00  0.00     0.029 A 
ATOM     51  N   UNL     1      -1.522 -11.587  -4.414  1.00  0.00    -0.354 N 
ATOM     52  N   UNL     1      -1.408  -9.752  -6.722  1.00  0.00    -0.248 NA
ATOM     53  C   UNL     1      -1.965  -9.237  -8.930  1.00  0.00     0.031 C 
ATOM     54  C   UNL     1      -2.706 -13.454  -4.613  1.00  0.00     0.029 A 
ATOM     55  C   UNL     1      -2.307 -12.313  -5.293  1.00  0.00     0.049 A 
ATOM     56  H   UNL     1      -1.094 -10.724  -4.620  1.00  0.00     0.167 HD
ATOM     57  C   UNL     1      -2.203 -10.769  -7.238  1.00  0.00     0.074 A 
ATOM     58  C   UNL     1      -2.537 -10.386  -8.595  1.00  0.00     0.031 C 
ATOM     59  C   UNL     1      -2.616 -11.917  -6.645  1.00  0.00     0.037 A 
BRANCH  46  60
ATOM     60  C   UNL     1      -0.580 -12.631  -0.838  1.00  0.00     0.057 A 
ATOM     61  C   UNL     1      -1.164 -12.214   0.365  1.00  0.00     0.134 A 
ATOM     62  C   UNL     1       0.133 -13.837  -0.827  1.00  0.00     0.134 A 
ATOM     63  F   UNL     1      -1.839 -11.056   0.428  1.00  0.00    -0.206 F 
ATOM     64  C   UNL     1      -1.006 -12.946   1.544  1.00  0.00     0.040 A 
ATOM     65  C   UNL     1       0.278 -14.589   0.340  1.00  0.00     0.040 A 
ATOM     66  F   UNL     1       0.720 -14.291  -1.944  1.00  0.00    -0.206 F 
ATOM     67  C   UNL     1      -0.282 -14.137   1.533  1.00  0.00     0.006 A 
ENDBRANCH  46  60
BRANCH  47  68
ATOM     68  C   UNL     1      -0.478  -6.697  -8.884  1.00  0.00     0.057 A 
ATOM     69  C   UNL     1      -1.609  -6.000  -9.322  1.00  0.00     0.134 A 
ATOM     70  C   UNL     1       0.703  -6.532  -9.620  1.00  0.00     0.134 A 
ATOM     71  F   UNL     1      -2.778  -6.136  -8.680  1.00  0.00    -0.206 F 
ATOM     72  C   UNL     1      -1.566  -5.168 -10.444  1.00  0.00     0.040 A 
ATOM     73  C   UNL     1       0.767  -5.685 -10.727  1.00  0.00     0.040 A 
ATOM     74  F   UNL     1       1.822  -7.178  -9.258  1.00  0.00    -0.206 F 
ATOM     75  C   UNL     1      -0.371  -5.000 -11.144  1.00  0.00     0.006 A 
ENDBRANCH  47  68
BRANCH  59  76
ATOM     76  C   UNL     1      -3.479 -12.839  -7.457  1.00  0.00     0.057 A 
ATOM     77  C   UNL     1      -2.952 -13.620  -8.492  1.00  0.00     0.134 A 
ATOM     78  C   UNL     1      -4.840 -12.989  -7.159  1.00  0.00     0.134 A 
ATOM     79  F   UNL     1      -1.659 -13.515  -8.833  1.00  0.00    -0.206 F 
ATOM     80  C   UNL     1      -3.752 -14.508  -9.215  1.00  0.00     0.040 A 
ATOM     81  C   UNL     1      -5.644 -13.891  -7.858  1.00  0.00     0.040 A 
ATOM     82  F   UNL     1      -5.404 -12.277  -6.172  1.00  0.00    -0.206 F 
ATOM     83  C   UNL     1      -5.100 -14.650  -8.892  1.00  0.00     0.006 A 
ENDBRANCH  59  76
ENDBRANCH  33  34
ENDBRANCH  26  28
ENDBRANCH  25  26
ENDBRANCH  24  25
ENDBRANCH   1  24
TORSDOF 14
