REMARK SMILES CCCCCn1c(SCC(=O)OCCOC(=O)c2ccc(-c3c4nc(c(-c5c(F)cccc5F)c5ccc([nH]5)c(-c5c(F)cccc5F)c5nc(c(-c6c(F)cccc6F)c6ccc3[nH]6)C=C5)C=C4)cc2)nc2ccccc2c1=O
REMARK SMILES IDX 10 1 11 2 9 3 8 4 7 5 6 6 79 7 72 8 78 9 80 10 73 11 77 12
REMARK SMILES IDX 74 13 76 14 75 15 5 16 4 17 3 18 2 19 1 20 12 21 13 22 14 23
REMARK SMILES IDX 15 24 16 25 17 26 18 27 19 28 71 29 20 30 70 31 21 32 22 33
REMARK SMILES IDX 23 34 64 35 24 36 69 37 63 38 65 39 25 40 68 41 62 42 61 43
REMARK SMILES IDX 26 45 52 46 35 47 51 48 36 49 39 50 50 51 66 52 37 53 38 54
REMARK SMILES IDX 49 56 67 57 40 58 27 59 28 60 33 61 29 62 30 63 32 64 34 65
REMARK SMILES IDX 31 66 53 67 54 68 59 69 55 70 56 71 58 72 60 73 57 74 41 75
REMARK SMILES IDX 42 76 47 77 43 78 44 79 46 80 48 81 45 82
REMARK H PARENT 65 44 39 55
REMARK Flexibility Score: inf
ROOT
ATOM      1  C   UNL     1      -2.527   0.124  -0.392  1.00  0.00     0.316 C 
ATOM      2  O   UNL     1      -2.091  -0.858   0.205  1.00  0.00    -0.251 OA
ENDROOT
BRANCH   1   3
ATOM      3  C   UNL     1      -1.649   1.305  -0.655  1.00  0.00     0.200 C 
BRANCH   3   4
ATOM      4  S   UNL     1      -1.659   2.152  -2.212  1.00  0.00    -0.076 SA
BRANCH   4   5
ATOM      5  C   UNL     1      -1.662   1.121  -3.618  1.00  0.00     0.171 A 
ATOM      6  N   UNL     1      -0.920  -0.036  -3.783  1.00  0.00    -0.287 N 
ATOM      7  C   UNL     1      -1.079  -0.804  -4.954  1.00  0.00     0.262 A 
ATOM      8  N   UNL     1      -2.357   1.653  -4.575  1.00  0.00    -0.224 NA
ATOM      9  C   UNL     1      -1.834  -0.200  -6.058  1.00  0.00     0.066 A 
ATOM     10  O   UNL     1      -0.583  -1.918  -5.129  1.00  0.00    -0.269 OA
ATOM     11  C   UNL     1      -2.388   1.049  -5.830  1.00  0.00     0.079 A 
ATOM     12  C   UNL     1      -1.909  -0.809  -7.317  1.00  0.00     0.016 A 
ATOM     13  C   UNL     1      -2.972   1.730  -6.902  1.00  0.00     0.029 A 
ATOM     14  C   UNL     1      -2.512  -0.130  -8.376  1.00  0.00     0.001 A 
ATOM     15  C   UNL     1      -3.026   1.149  -8.172  1.00  0.00     0.002 A 
BRANCH   6  16
ATOM     16  C   UNL     1       0.033  -0.604  -2.841  1.00  0.00     0.128 C 
BRANCH  16  17
ATOM     17  C   UNL     1       1.507  -0.422  -3.215  1.00  0.00     0.022 C 
BRANCH  17  18
ATOM     18  C   UNL     1       2.123   0.934  -2.880  1.00  0.00     0.002 C 
BRANCH  18  19
ATOM     19  C   UNL     1       2.138   1.355  -1.407  1.00  0.00    -0.003 C 
ATOM     20  C   UNL     1       2.415   0.247  -0.401  1.00  0.00     0.004 C 
ENDBRANCH  18  19
ENDBRANCH  17  18
ENDBRANCH  16  17
ENDBRANCH   6  16
ENDBRANCH   4   5
ENDBRANCH   3   4
ENDBRANCH   1   3
BRANCH   1  21
ATOM     21  O   UNL     1      -3.840   0.331  -0.655  1.00  0.00    -0.461 OA
BRANCH  21  22
ATOM     22  C   UNL     1      -4.743  -0.574   0.016  1.00  0.00     0.274 C 
BRANCH  22  23
ATOM     23  C   UNL     1      -5.120  -1.796  -0.821  1.00  0.00     0.275 C 
BRANCH  23  24
ATOM     24  O   UNL     1      -4.034  -2.734  -0.939  1.00  0.00    -0.458 OA
BRANCH  24  25
ATOM     25  C   UNL     1      -3.337  -2.650  -2.095  1.00  0.00     0.338 C 
ATOM     26  O   UNL     1      -3.509  -1.855  -3.002  1.00  0.00    -0.246 OA
BRANCH  25  27
ATOM     27  C   UNL     1      -2.284  -3.677  -2.134  1.00  0.00     0.060 A 
ATOM     28  C   UNL     1      -2.400  -4.745  -3.021  1.00  0.00     0.016 A 
ATOM     29  C   UNL     1      -1.093  -3.467  -1.441  1.00  0.00     0.016 A 
ATOM     30  C   UNL     1      -1.311  -5.603  -3.213  1.00  0.00     0.010 A 
ATOM     31  C   UNL     1       0.025  -4.252  -1.728  1.00  0.00     0.010 A 
ATOM     32  C   UNL     1      -0.072  -5.347  -2.596  1.00  0.00    -0.014 A 
BRANCH  32  33
ATOM     33  C   UNL     1       1.102  -6.232  -2.843  1.00  0.00     0.031 A 
ATOM     34  C   UNL     1       1.772  -6.956  -1.701  1.00  0.00     0.074 A 
ATOM     35  C   UNL     1       1.595  -6.384  -4.090  1.00  0.00     0.049 A 
ATOM     36  N   UNL     1       2.744  -7.836  -1.735  1.00  0.00    -0.248 NA
ATOM     37  C   UNL     1       1.323  -6.622  -0.340  1.00  0.00     0.031 C 
ATOM     38  C   UNL     1       1.138  -5.668  -5.283  1.00  0.00     0.029 A 
ATOM     39  N   UNL     1       2.584  -7.215  -4.562  1.00  0.00    -0.354 N 
ATOM     40  C   UNL     1       3.030  -8.135  -0.409  1.00  0.00     0.074 A 
ATOM     41  C   UNL     1       2.186  -7.293   0.406  1.00  0.00     0.031 C 
ATOM     42  C   UNL     1       1.793  -6.141  -6.357  1.00  0.00     0.029 A 
ATOM     43  C   UNL     1       2.724  -7.181  -5.929  1.00  0.00     0.049 A 
ATOM     44  H   UNL     1       3.138  -7.779  -3.977  1.00  0.00     0.167 HD
ATOM     45  C   UNL     1       3.882  -9.059   0.096  1.00  0.00     0.037 A 
ATOM     46  C   UNL     1       3.489  -7.930  -6.746  1.00  0.00     0.037 A 
ATOM     47  C   UNL     1       4.676  -9.954  -0.696  1.00  0.00     0.049 A 
ATOM     48  C   UNL     1       4.366  -9.009  -6.173  1.00  0.00     0.074 A 
ATOM     49  C   UNL     1       5.485 -10.995  -0.276  1.00  0.00     0.029 A 
ATOM     50  N   UNL     1       4.750  -9.919  -2.078  1.00  0.00    -0.354 N 
ATOM     51  N   UNL     1       4.532  -9.367  -4.924  1.00  0.00    -0.248 NA
ATOM     52  C   UNL     1       5.152  -9.802  -7.133  1.00  0.00     0.031 C 
ATOM     53  C   UNL     1       6.061 -11.585  -1.408  1.00  0.00     0.029 A 
ATOM     54  C   UNL     1       5.596 -10.918  -2.529  1.00  0.00     0.049 A 
ATOM     55  H   UNL     1       4.273  -9.279  -2.654  1.00  0.00     0.167 HD
ATOM     56  C   UNL     1       5.411 -10.441  -4.950  1.00  0.00     0.074 A 
ATOM     57  C   UNL     1       5.743 -10.683  -6.338  1.00  0.00     0.031 C 
ATOM     58  C   UNL     1       5.898 -11.164  -3.913  1.00  0.00     0.037 A 
BRANCH  45  59
ATOM     59  C   UNL     1       3.953  -9.164   1.589  1.00  0.00     0.057 A 
ATOM     60  C   UNL     1       5.059  -8.676   2.293  1.00  0.00     0.134 A 
ATOM     61  C   UNL     1       2.907  -9.730   2.331  1.00  0.00     0.134 A 
ATOM     62  F   UNL     1       6.094  -8.125   1.642  1.00  0.00    -0.206 F 
ATOM     63  C   UNL     1       5.115  -8.734   3.687  1.00  0.00     0.040 A 
ATOM     64  C   UNL     1       2.942  -9.773   3.724  1.00  0.00     0.040 A 
ATOM     65  F   UNL     1       1.812 -10.198   1.712  1.00  0.00    -0.206 F 
ATOM     66  C   UNL     1       4.050  -9.274   4.406  1.00  0.00     0.006 A 
ENDBRANCH  45  59
BRANCH  46  67
ATOM     67  C   UNL     1       3.403  -7.755  -8.216  1.00  0.00     0.057 A 
ATOM     68  C   UNL     1       4.043  -6.698  -8.869  1.00  0.00     0.134 A 
ATOM     69  C   UNL     1       2.707  -8.681  -9.003  1.00  0.00     0.134 A 
ATOM     70  F   UNL     1       4.728  -5.784  -8.168  1.00  0.00    -0.206 F 
ATOM     71  C   UNL     1       3.998  -6.569 -10.259  1.00  0.00     0.040 A 
ATOM     72  C   UNL     1       2.667  -8.573 -10.393  1.00  0.00     0.040 A 
ATOM     73  F   UNL     1       2.095  -9.728  -8.430  1.00  0.00    -0.206 F 
ATOM     74  C   UNL     1       3.314  -7.513 -11.025  1.00  0.00     0.006 A 
ENDBRANCH  46  67
BRANCH  58  75
ATOM     75  C   UNL     1       6.807 -12.308  -4.239  1.00  0.00     0.057 A 
ATOM     76  C   UNL     1       6.347 -13.628  -4.162  1.00  0.00     0.134 A 
ATOM     77  C   UNL     1       8.147 -12.105  -4.588  1.00  0.00     0.134 A 
ATOM     78  F   UNL     1       5.073 -13.887  -3.829  1.00  0.00    -0.206 F 
ATOM     79  C   UNL     1       7.191 -14.709  -4.416  1.00  0.00     0.040 A 
ATOM     80  C   UNL     1       8.998 -13.178  -4.860  1.00  0.00     0.040 A 
ATOM     81  F   UNL     1       8.642 -10.863  -4.691  1.00  0.00    -0.206 F 
ATOM     82  C   UNL     1       8.521 -14.485  -4.769  1.00  0.00     0.006 A 
ENDBRANCH  58  75
ENDBRANCH  32  33
ENDBRANCH  25  27
ENDBRANCH  24  25
ENDBRANCH  23  24
ENDBRANCH  22  23
ENDBRANCH  21  22
ENDBRANCH   1  21
TORSDOF 17
