REMARK SMILES O=C(CCc1nnc(CSc2ccccc2)o1)OCCOC(=O)c1ccc(-c2c3nc(c(-c4c(F)cccc4F)c4ccc([nH]4)c(-c4c(F)cccc4F)c4nc(c(-c5c(F)cccc5F)c5ccc2[nH]5)C=C4)C=C3)cc1
REMARK SMILES IDX 18 1 2 2 1 3 3 4 4 5 5 6 6 7 17 8 7 9 8 10 9 11 10 12 11 13
REMARK SMILES IDX 12 14 16 15 13 16 15 17 14 18 19 19 20 20 21 21 22 22 23 23
REMARK SMILES IDX 24 24 25 25 77 26 26 27 76 28 27 29 28 30 29 31 70 32 30 33
REMARK SMILES IDX 75 34 69 35 71 36 31 37 74 38 68 39 67 40 32 42 58 43 41 44
REMARK SMILES IDX 57 45 42 46 45 47 56 48 72 49 43 50 44 51 55 53 73 54 46 55
REMARK SMILES IDX 33 56 34 57 39 58 35 59 36 60 38 61 40 62 37 63 59 64 60 65
REMARK SMILES IDX 65 66 61 67 62 68 64 69 66 70 63 71 47 72 48 73 53 74 49 75
REMARK SMILES IDX 50 76 52 77 54 78 51 79
REMARK H PARENT 71 41 45 52
REMARK Flexibility Score: inf
ROOT
ATOM      1  O   UNL     1       2.449   0.352   0.753  1.00  0.00    -0.462 OA
ENDROOT
BRANCH   1   2
ATOM      2  C   UNL     1       2.441   0.953  -0.462  1.00  0.00     0.306 C 
ATOM      3  O   UNL     1       1.540   1.730  -0.769  1.00  0.00    -0.252 OA
BRANCH   2   4
ATOM      4  C   UNL     1       3.473   0.536  -1.485  1.00  0.00     0.132 C 
BRANCH   4   5
ATOM      5  C   UNL     1       4.284   1.716  -2.014  1.00  0.00     0.111 C 
BRANCH   5   6
ATOM      6  C   UNL     1       5.273   2.187  -1.016  1.00  0.00     0.217 A 
ATOM      7  N   UNL     1       5.350   3.338  -0.387  1.00  0.00    -0.113 NA
ATOM      8  O   UNL     1       6.170   1.265  -0.543  1.00  0.00    -0.424 OA
ATOM      9  N   UNL     1       6.310   3.185   0.593  1.00  0.00    -0.112 NA
ATOM     10  C   UNL     1       6.759   1.952   0.489  1.00  0.00     0.226 A 
BRANCH  10  11
ATOM     11  C   UNL     1       7.595   1.165   1.428  1.00  0.00     0.174 C 
BRANCH  11  12
ATOM     12  S   UNL     1       9.360   1.579   1.371  1.00  0.00    -0.116 SA
BRANCH  12  13
ATOM     13  C   UNL     1       9.744   1.074  -0.293  1.00  0.00     0.008 A 
ATOM     14  C   UNL     1       9.608  -0.254  -0.709  1.00  0.00     0.015 A 
ATOM     15  C   UNL     1      10.211   2.034  -1.194  1.00  0.00     0.015 A 
ATOM     16  C   UNL     1       9.917  -0.612  -2.023  1.00  0.00     0.001 A 
ATOM     17  C   UNL     1      10.522   1.675  -2.506  1.00  0.00     0.001 A 
ATOM     18  C   UNL     1      10.371   0.353  -2.921  1.00  0.00     0.000 A 
ENDBRANCH  12  13
ENDBRANCH  11  12
ENDBRANCH  10  11
ENDBRANCH   5   6
ENDBRANCH   4   5
ENDBRANCH   2   4
ENDBRANCH   1   2
BRANCH   1  19
ATOM     19  C   UNL     1       3.658  -0.029   1.436  1.00  0.00     0.274 C 
BRANCH  19  20
ATOM     20  C   UNL     1       3.827  -1.542   1.574  1.00  0.00     0.275 C 
BRANCH  20  21
ATOM     21  O   UNL     1       3.651  -2.190   0.307  1.00  0.00    -0.458 OA
BRANCH  21  22
ATOM     22  C   UNL     1       2.377  -2.593   0.070  1.00  0.00     0.338 C 
ATOM     23  O   UNL     1       1.450  -2.601   0.862  1.00  0.00    -0.246 OA
BRANCH  22  24
ATOM     24  C   UNL     1       2.216  -2.873  -1.368  1.00  0.00     0.060 A 
ATOM     25  C   UNL     1       1.052  -2.413  -1.995  1.00  0.00     0.016 A 
ATOM     26  C   UNL     1       3.175  -3.592  -2.087  1.00  0.00     0.016 A 
ATOM     27  C   UNL     1       0.820  -2.710  -3.337  1.00  0.00     0.010 A 
ATOM     28  C   UNL     1       2.940  -3.892  -3.429  1.00  0.00     0.010 A 
ATOM     29  C   UNL     1       1.747  -3.481  -4.049  1.00  0.00    -0.014 A 
BRANCH  29  30
ATOM     30  C   UNL     1       1.412  -3.999  -5.394  1.00  0.00     0.031 A 
ATOM     31  C   UNL     1       0.886  -5.400  -5.515  1.00  0.00     0.074 A 
ATOM     32  C   UNL     1       1.609  -3.252  -6.493  1.00  0.00     0.049 A 
ATOM     33  N   UNL     1       0.618  -6.097  -6.588  1.00  0.00    -0.248 NA
ATOM     34  C   UNL     1       0.644  -6.116  -4.252  1.00  0.00     0.031 C 
ATOM     35  C   UNL     1       2.097  -1.875  -6.503  1.00  0.00     0.029 A 
ATOM     36  N   UNL     1       1.443  -3.565  -7.819  1.00  0.00    -0.354 N 
ATOM     37  C   UNL     1       0.184  -7.334  -6.133  1.00  0.00     0.074 A 
ATOM     38  C   UNL     1       0.252  -7.304  -4.688  1.00  0.00     0.031 C 
ATOM     39  C   UNL     1       2.224  -1.471  -7.779  1.00  0.00     0.029 A 
ATOM     40  C   UNL     1       1.850  -2.568  -8.670  1.00  0.00     0.049 A 
ATOM     41  H   UNL     1       1.070  -4.421  -8.129  1.00  0.00     0.167 HD
ATOM     42  C   UNL     1      -0.237  -8.399  -6.854  1.00  0.00     0.037 A 
ATOM     43  C   UNL     1       1.937  -2.557 -10.014  1.00  0.00     0.037 A 
ATOM     44  C   UNL     1      -0.304  -8.429  -8.290  1.00  0.00     0.049 A 
ATOM     45  C   UNL     1       1.513  -3.769 -10.798  1.00  0.00     0.074 A 
ATOM     46  C   UNL     1      -0.760  -9.445  -9.111  1.00  0.00     0.029 A 
ATOM     47  N   UNL     1       0.112  -7.399  -9.118  1.00  0.00    -0.354 N 
ATOM     48  N   UNL     1       1.054  -4.917 -10.361  1.00  0.00    -0.248 NA
ATOM     49  C   UNL     1       1.616  -3.685 -12.263  1.00  0.00     0.031 C 
ATOM     50  C   UNL     1      -0.574  -9.048 -10.439  1.00  0.00     0.029 A 
ATOM     51  C   UNL     1      -0.046  -7.766 -10.444  1.00  0.00     0.049 A 
ATOM     52  H   UNL     1       0.467  -6.534  -8.810  1.00  0.00     0.167 HD
ATOM     53  C   UNL     1       0.790  -5.680 -11.492  1.00  0.00     0.074 A 
ATOM     54  C   UNL     1       1.137  -4.864 -12.637  1.00  0.00     0.031 C 
ATOM     55  C   UNL     1       0.298  -6.941 -11.573  1.00  0.00     0.037 A 
BRANCH  42  56
ATOM     56  C   UNL     1      -0.628  -9.629  -6.091  1.00  0.00     0.057 A 
ATOM     57  C   UNL     1      -1.807  -9.690  -5.337  1.00  0.00     0.134 A 
ATOM     58  C   UNL     1       0.187 -10.768  -6.114  1.00  0.00     0.134 A 
ATOM     59  F   UNL     1      -2.621  -8.627  -5.262  1.00  0.00    -0.206 F 
ATOM     60  C   UNL     1      -2.147 -10.831  -4.608  1.00  0.00     0.040 A 
ATOM     61  C   UNL     1      -0.155 -11.922  -5.408  1.00  0.00     0.040 A 
ATOM     62  F   UNL     1       1.329 -10.775  -6.818  1.00  0.00    -0.206 F 
ATOM     63  C   UNL     1      -1.321 -11.953  -4.646  1.00  0.00     0.006 A 
ENDBRANCH  42  56
BRANCH  43  64
ATOM     64  C   UNL     1       2.470  -1.356 -10.702  1.00  0.00     0.057 A 
ATOM     65  C   UNL     1       1.634  -0.509 -11.438  1.00  0.00     0.134 A 
ATOM     66  C   UNL     1       3.829  -1.025 -10.634  1.00  0.00     0.134 A 
ATOM     67  F   UNL     1       0.328  -0.788 -11.556  1.00  0.00    -0.206 F 
ATOM     68  C   UNL     1       2.131   0.620 -12.089  1.00  0.00     0.040 A 
ATOM     69  C   UNL     1       4.336   0.113 -11.264  1.00  0.00     0.040 A 
ATOM     70  F   UNL     1       4.680  -1.796  -9.942  1.00  0.00    -0.206 F 
ATOM     71  C   UNL     1       3.486   0.937 -11.998  1.00  0.00     0.006 A 
ENDBRANCH  43  64
BRANCH  55  72
ATOM     72  C   UNL     1       0.074  -7.514 -12.941  1.00  0.00     0.057 A 
ATOM     73  C   UNL     1       1.135  -7.966 -13.735  1.00  0.00     0.134 A 
ATOM     74  C   UNL     1      -1.225  -7.686 -13.436  1.00  0.00     0.134 A 
ATOM     75  F   UNL     1       2.403  -7.819 -13.322  1.00  0.00    -0.206 F 
ATOM     76  C   UNL     1       0.912  -8.564 -14.976  1.00  0.00     0.040 A 
ATOM     77  C   UNL     1      -1.462  -8.303 -14.665  1.00  0.00     0.040 A 
ATOM     78  F   UNL     1      -2.285  -7.282 -12.720  1.00  0.00    -0.206 F 
ATOM     79  C   UNL     1      -0.391  -8.743 -15.440  1.00  0.00     0.006 A 
ENDBRANCH  55  72
ENDBRANCH  29  30
ENDBRANCH  22  24
ENDBRANCH  21  22
ENDBRANCH  20  21
ENDBRANCH  19  20
ENDBRANCH   1  19
TORSDOF 16
