REMARK SMILES C[C@](NC(=O)CSCc1cccs1)(C(=O)OCCOC(=O)c1ccc(-c2c3nc(c(-c4c(F)cccc4F)c4ccc([nH]4)c(-c4c(F)cccc4F)c4nc(c(-c5c(F)cccc5F)c5ccc2[nH]5)C=C4)C=C3)cc1)C(F)(F)F
REMARK SMILES IDX 16 1 14 2 15 3 2 4 1 5 76 6 77 7 78 8 79 9 3 10 4 11 5 13
REMARK SMILES IDX 6 14 7 15 8 16 9 17 10 18 13 19 11 20 12 21 17 22 18 23
REMARK SMILES IDX 19 24 20 25 21 26 22 27 23 28 75 29 24 30 74 31 25 32 26 33
REMARK SMILES IDX 27 34 68 35 28 36 73 37 67 38 69 39 29 40 72 41 66 42 65 43
REMARK SMILES IDX 30 45 56 46 39 47 55 48 40 49 43 50 54 51 70 52 41 53 42 54
REMARK SMILES IDX 53 56 71 57 44 58 31 59 32 60 37 61 33 62 34 63 36 64 38 65
REMARK SMILES IDX 35 66 57 67 58 68 63 69 59 70 60 71 62 72 64 73 61 74 45 75
REMARK SMILES IDX 46 76 51 77 47 78 48 79 50 80 52 81 49 82
REMARK H PARENT 3 12 69 44 43 55
REMARK Flexibility Score: inf
ROOT
ATOM      1  O   UNL     1      -1.538  -0.054   0.922  1.00  0.00    -0.460 OA
ENDROOT
BRANCH   1   2
ATOM      2  C   UNL     1      -1.077  -1.049   1.740  1.00  0.00     0.341 C 
ATOM      3  O   UNL     1      -1.801  -1.702   2.482  1.00  0.00    -0.249 OA
BRANCH   2   4
ATOM      4  C   UNL     1       0.459  -1.210   1.680  1.00  0.00     0.231 C 
ATOM      5  C   UNL     1       0.945  -0.944   3.109  1.00  0.00     0.058 C 
BRANCH   4   6
ATOM      6  C   UNL     1       0.673  -2.674   1.268  1.00  0.00     0.422 C 
ATOM      7  F   UNL     1       0.631  -2.787  -0.082  1.00  0.00    -0.168 F 
ATOM      8  F   UNL     1       1.874  -3.150   1.655  1.00  0.00    -0.168 F 
ATOM      9  F   UNL     1      -0.235  -3.539   1.764  1.00  0.00    -0.168 F 
ENDBRANCH   4   6
BRANCH   4  10
ATOM     10  N   UNL     1       1.023  -0.162   0.757  1.00  0.00    -0.332 N 
ATOM     11  C   UNL     1       2.196  -0.004   0.089  1.00  0.00     0.231 C 
ATOM     12  H   UNL     1       0.397   0.582   0.602  1.00  0.00     0.164 HD
ATOM     13  O   UNL     1       2.396   1.105  -0.418  1.00  0.00    -0.274 OA
BRANCH  11  14
ATOM     14  C   UNL     1       3.206  -1.119  -0.106  1.00  0.00     0.169 C 
BRANCH  14  15
ATOM     15  S   UNL     1       4.173  -1.449   1.390  1.00  0.00    -0.146 SA
BRANCH  15  16
ATOM     16  C   UNL     1       5.299  -0.029   1.365  1.00  0.00     0.116 C 
BRANCH  16  17
ATOM     17  C   UNL     1       6.616  -0.346   0.721  1.00  0.00     0.014 A 
ATOM     18  C   UNL     1       6.917  -1.158  -0.359  1.00  0.00     0.016 A 
ATOM     19  S   UNL     1       8.034   0.401   1.342  1.00  0.00    -0.148 S 
ATOM     20  C   UNL     1       8.309  -1.176  -0.661  1.00  0.00     0.012 A 
ATOM     21  C   UNL     1       9.030  -0.370   0.189  1.00  0.00     0.065 A 
ENDBRANCH  16  17
ENDBRANCH  15  16
ENDBRANCH  14  15
ENDBRANCH  11  14
ENDBRANCH   4  10
ENDBRANCH   2   4
ENDBRANCH   1   2
BRANCH   1  22
ATOM     22  C   UNL     1      -2.971   0.157   0.916  1.00  0.00     0.274 C 
BRANCH  22  23
ATOM     23  C   UNL     1      -3.543  -0.172  -0.462  1.00  0.00     0.275 C 
BRANCH  23  24
ATOM     24  O   UNL     1      -3.196  -1.529  -0.780  1.00  0.00    -0.458 OA
BRANCH  24  25
ATOM     25  C   UNL     1      -3.024  -1.806  -2.097  1.00  0.00     0.338 C 
ATOM     26  O   UNL     1      -3.272  -1.064  -3.031  1.00  0.00    -0.246 OA
BRANCH  25  27
ATOM     27  C   UNL     1      -2.416  -3.154  -2.247  1.00  0.00     0.060 A 
ATOM     28  C   UNL     1      -1.702  -3.729  -1.199  1.00  0.00     0.016 A 
ATOM     29  C   UNL     1      -2.474  -3.822  -3.470  1.00  0.00     0.016 A 
ATOM     30  C   UNL     1      -0.963  -4.897  -1.397  1.00  0.00     0.010 A 
ATOM     31  C   UNL     1      -1.834  -5.064  -3.624  1.00  0.00     0.010 A 
ATOM     32  C   UNL     1      -1.043  -5.613  -2.597  1.00  0.00    -0.014 A 
BRANCH  32  33
ATOM     33  C   UNL     1      -0.299  -6.902  -2.783  1.00  0.00     0.031 A 
ATOM     34  C   UNL     1       0.544  -7.130  -4.015  1.00  0.00     0.074 A 
ATOM     35  C   UNL     1      -0.359  -7.892  -1.865  1.00  0.00     0.049 A 
ATOM     36  N   UNL     1       1.003  -8.254  -4.508  1.00  0.00    -0.248 NA
ATOM     37  C   UNL     1       0.902  -5.943  -4.806  1.00  0.00     0.031 C 
ATOM     38  C   UNL     1      -1.073  -7.838  -0.587  1.00  0.00     0.029 A 
ATOM     39  N   UNL     1       0.201  -9.150  -1.867  1.00  0.00    -0.354 N 
ATOM     40  C   UNL     1       1.616  -7.922  -5.710  1.00  0.00     0.074 A 
ATOM     41  C   UNL     1       1.499  -6.487  -5.859  1.00  0.00     0.031 C 
ATOM     42  C   UNL     1      -0.858  -8.974   0.091  1.00  0.00     0.029 A 
ATOM     43  C   UNL     1      -0.104  -9.893  -0.751  1.00  0.00     0.049 A 
ATOM     44  H   UNL     1       0.767  -9.486  -2.600  1.00  0.00     0.167 HD
ATOM     45  C   UNL     1       2.210  -8.741  -6.612  1.00  0.00     0.037 A 
ATOM     46  C   UNL     1       0.126 -11.186  -0.452  1.00  0.00     0.037 A 
ATOM     47  C   UNL     1       2.424 -10.152  -6.421  1.00  0.00     0.049 A 
ATOM     48  C   UNL     1       0.781 -12.078  -1.465  1.00  0.00     0.074 A 
ATOM     49  C   UNL     1       3.043 -11.054  -7.272  1.00  0.00     0.029 A 
ATOM     50  N   UNL     1       2.062 -10.861  -5.287  1.00  0.00    -0.354 N 
ATOM     51  N   UNL     1       1.241 -11.777  -2.654  1.00  0.00    -0.248 NA
ATOM     52  C   UNL     1       0.906 -13.500  -1.112  1.00  0.00     0.031 C 
ATOM     53  C   UNL     1       3.036 -12.313  -6.662  1.00  0.00     0.029 A 
ATOM     54  C   UNL     1       2.439 -12.188  -5.419  1.00  0.00     0.049 A 
ATOM     55  H   UNL     1       1.603 -10.478  -4.504  1.00  0.00     0.167 HD
ATOM     56  C   UNL     1       1.696 -12.971  -3.195  1.00  0.00     0.074 A 
ATOM     57  C   UNL     1       1.490 -13.996  -2.193  1.00  0.00     0.031 C 
ATOM     58  C   UNL     1       2.221 -13.200  -4.422  1.00  0.00     0.037 A 
BRANCH  45  59
ATOM     59  C   UNL     1       2.646  -8.148  -7.918  1.00  0.00     0.057 A 
ATOM     60  C   UNL     1       3.809  -7.381  -8.043  1.00  0.00     0.134 A 
ATOM     61  C   UNL     1       1.921  -8.422  -9.087  1.00  0.00     0.134 A 
ATOM     62  F   UNL     1       4.540  -7.074  -6.961  1.00  0.00    -0.206 F 
ATOM     63  C   UNL     1       4.234  -6.902  -9.284  1.00  0.00     0.040 A 
ATOM     64  C   UNL     1       2.346  -7.967 -10.335  1.00  0.00     0.040 A 
ATOM     65  F   UNL     1       0.800  -9.159  -9.036  1.00  0.00    -0.206 F 
ATOM     66  C   UNL     1       3.507  -7.203 -10.436  1.00  0.00     0.006 A 
ENDBRANCH  45  59
BRANCH  46  67
ATOM     67  C   UNL     1      -0.357 -11.744   0.837  1.00  0.00     0.057 A 
ATOM     68  C   UNL     1       0.539 -12.133   1.838  1.00  0.00     0.134 A 
ATOM     69  C   UNL     1      -1.725 -11.903   1.095  1.00  0.00     0.134 A 
ATOM     70  F   UNL     1       1.861 -12.036   1.636  1.00  0.00    -0.206 F 
ATOM     71  C   UNL     1       0.092 -12.660   3.051  1.00  0.00     0.040 A 
ATOM     72  C   UNL     1      -2.186 -12.401   2.314  1.00  0.00     0.040 A 
ATOM     73  F   UNL     1      -2.633 -11.554   0.173  1.00  0.00    -0.206 F 
ATOM     74  C   UNL     1      -1.274 -12.786   3.295  1.00  0.00     0.006 A 
ENDBRANCH  46  67
BRANCH  58  75
ATOM     75  C   UNL     1       2.612 -14.610  -4.741  1.00  0.00     0.057 A 
ATOM     76  C   UNL     1       1.652 -15.578  -5.060  1.00  0.00     0.134 A 
ATOM     77  C   UNL     1       3.956 -15.000  -4.741  1.00  0.00     0.134 A 
ATOM     78  F   UNL     1       0.347 -15.268  -5.061  1.00  0.00    -0.206 F 
ATOM     79  C   UNL     1       2.016 -16.894  -5.351  1.00  0.00     0.040 A 
ATOM     80  C   UNL     1       4.333 -16.309  -5.047  1.00  0.00     0.040 A 
ATOM     81  F   UNL     1       4.922 -14.118  -4.447  1.00  0.00    -0.206 F 
ATOM     82  C   UNL     1       3.360 -17.261  -5.348  1.00  0.00     0.006 A 
ENDBRANCH  58  75
ENDBRANCH  32  33
ENDBRANCH  25  27
ENDBRANCH  24  25
ENDBRANCH  23  24
ENDBRANCH  22  23
ENDBRANCH   1  22
TORSDOF 17
