REMARK SMILES Cc1cc(C[N@@H+]2C[C@@H](C(=O)OCCOC(=O)c3ccc(-c4c5nc(c(-c6c(F)cccc6F)c6ccc([nH]6)c(-c6c(F)cccc6F)c6nc(c(-c7c(F)cccc7F)c7ccc4[nH]7)C=C6)C=C5)cc3)[C@H](C3CC3)C2)on1
REMARK SMILES IDX 12 1 11 2 9 3 10 4 8 5 6 6 7 7 75 8 71 10 5 11 4 12 1 13
REMARK SMILES IDX 2 14 3 15 77 16 76 17 72 18 73 19 74 20 13 21 14 22 15 23
REMARK SMILES IDX 16 24 17 25 18 26 70 27 19 28 69 29 20 30 21 31 22 32 63 33
REMARK SMILES IDX 23 34 68 35 62 36 64 37 24 38 67 39 61 40 60 41 25 43 51 44
REMARK SMILES IDX 34 45 50 46 35 47 38 48 49 49 65 50 36 51 37 52 48 54 66 55
REMARK SMILES IDX 39 56 26 57 27 58 32 59 28 60 29 61 31 62 33 63 30 64 52 65
REMARK SMILES IDX 53 66 58 67 54 68 55 69 57 70 59 71 56 72 40 73 41 74 46 75
REMARK SMILES IDX 42 76 43 77 45 78 47 79 44 80
REMARK H PARENT 6 9 64 42 38 53
REMARK Flexibility Score: inf
ROOT
ATOM      1  C   UNL     1      -4.486   3.768   2.626  1.00  0.00     0.274 C 
ENDROOT
BRANCH   1   2
ATOM      2  O   UNL     1      -4.125   2.440   2.184  1.00  0.00    -0.462 OA
BRANCH   2   3
ATOM      3  C   UNL     1      -2.797   2.245   1.970  1.00  0.00     0.315 C 
ATOM      4  O   UNL     1      -1.947   3.084   2.247  1.00  0.00    -0.252 OA
BRANCH   3   5
ATOM      5  C   UNL     1      -2.442   0.904   1.347  1.00  0.00     0.163 C 
ATOM      6  N   UNL     1      -3.163  -1.269   0.659  1.00  0.00    -0.328 N 
ATOM      7  C   UNL     1      -3.595   0.135   0.713  1.00  0.00     0.278 C 
ATOM      8  C   UNL     1      -2.337  -1.483   1.848  1.00  0.00     0.267 C 
ATOM      9  H   UNL     1      -3.982  -1.876   0.668  1.00  0.00     0.348 HD
ATOM     10  C   UNL     1      -1.892  -0.095   2.364  1.00  0.00     0.067 C 
BRANCH   6  11
ATOM     11  C   UNL     1      -2.539  -1.702  -0.604  1.00  0.00     0.341 C 
BRANCH  11  12
ATOM     12  C   UNL     1      -1.199  -1.149  -0.938  1.00  0.00     0.191 A 
ATOM     13  C   UNL     1       2.356  -0.308  -1.118  1.00  0.00     0.070 C 
ATOM     14  C   UNL     1       0.892  -0.511  -1.238  1.00  0.00     0.081 A 
ATOM     15  C   UNL     1       0.095  -1.530  -0.666  1.00  0.00     0.078 A 
ATOM     16  N   UNL     1       0.136   0.390  -1.878  1.00  0.00    -0.085 NA
ATOM     17  O   UNL     1      -1.174  -0.020  -1.698  1.00  0.00    -0.355 OA
ENDBRANCH  11  12
ENDBRANCH   6  11
BRANCH  10  18
ATOM     18  C   UNL     1      -0.413  -0.093   2.678  1.00  0.00    -0.001 C 
ATOM     19  C   UNL     1       0.633   0.529   1.787  1.00  0.00     0.004 C 
ATOM     20  C   UNL     1       0.365   1.126   3.123  1.00  0.00     0.004 C 
ENDBRANCH  10  18
ENDBRANCH   3   5
ENDBRANCH   2   3
ENDBRANCH   1   2
BRANCH   1  21
ATOM     21  C   UNL     1      -4.761   3.845   4.132  1.00  0.00     0.275 C 
BRANCH  21  22
ATOM     22  O   UNL     1      -3.573   3.625   4.925  1.00  0.00    -0.458 OA
BRANCH  22  23
ATOM     23  C   UNL     1      -3.505   2.421   5.540  1.00  0.00     0.338 C 
ATOM     24  O   UNL     1      -4.357   1.540   5.505  1.00  0.00    -0.246 OA
BRANCH  23  25
ATOM     25  C   UNL     1      -2.166   2.183   6.123  1.00  0.00     0.060 A 
ATOM     26  C   UNL     1      -1.576   0.965   5.795  1.00  0.00     0.016 A 
ATOM     27  C   UNL     1      -1.489   3.058   6.978  1.00  0.00     0.016 A 
ATOM     28  C   UNL     1      -0.278   0.668   6.186  1.00  0.00     0.010 A 
ATOM     29  C   UNL     1      -0.195   2.727   7.436  1.00  0.00     0.010 A 
ATOM     30  C   UNL     1       0.434   1.547   7.004  1.00  0.00    -0.014 A 
BRANCH  30  31
ATOM     31  C   UNL     1       1.793   1.113   7.420  1.00  0.00     0.031 A 
ATOM     32  C   UNL     1       1.926   0.023   8.447  1.00  0.00     0.074 A 
ATOM     33  C   UNL     1       2.887   1.520   6.747  1.00  0.00     0.049 A 
ATOM     34  N   UNL     1       3.003  -0.564   8.904  1.00  0.00    -0.248 NA
ATOM     35  C   UNL     1       0.670  -0.501   9.005  1.00  0.00     0.031 C 
ATOM     36  C   UNL     1       2.890   2.442   5.614  1.00  0.00     0.029 A 
ATOM     37  N   UNL     1       4.209   1.169   6.895  1.00  0.00    -0.354 N 
ATOM     38  C   UNL     1       2.556  -1.522   9.804  1.00  0.00     0.074 A 
ATOM     39  C   UNL     1       1.111  -1.452   9.814  1.00  0.00     0.031 C 
ATOM     40  C   UNL     1       4.149   2.573   5.160  1.00  0.00     0.029 A 
ATOM     41  C   UNL     1       5.051   1.796   6.008  1.00  0.00     0.049 A 
ATOM     42  H   UNL     1       4.523   0.528   7.573  1.00  0.00     0.167 HD
ATOM     43  C   UNL     1       3.283  -2.366  10.573  1.00  0.00     0.037 A 
ATOM     44  C   UNL     1       6.397   1.774   5.915  1.00  0.00     0.037 A 
ATOM     45  C   UNL     1       4.721  -2.411  10.600  1.00  0.00     0.049 A 
ATOM     46  C   UNL     1       7.190   0.942   6.894  1.00  0.00     0.074 A 
ATOM     47  C   UNL     1       5.545  -3.172  11.411  1.00  0.00     0.029 A 
ATOM     48  N   UNL     1       5.551  -1.654   9.787  1.00  0.00    -0.354 N 
ATOM     49  N   UNL     1       6.766   0.095   7.801  1.00  0.00    -0.248 NA
ATOM     50  C   UNL     1       8.654   1.081   6.847  1.00  0.00     0.031 C 
ATOM     51  C   UNL     1       6.873  -2.831  11.129  1.00  0.00     0.029 A 
ATOM     52  C   UNL     1       6.878  -1.908  10.096  1.00  0.00     0.049 A 
ATOM     53  H   UNL     1       5.242  -1.028   9.093  1.00  0.00     0.167 HD
ATOM     54  C   UNL     1       7.907  -0.412   8.415  1.00  0.00     0.074 A 
ATOM     55  C   UNL     1       9.041   0.200   7.758  1.00  0.00     0.031 C 
ATOM     56  C   UNL     1       8.005  -1.298   9.437  1.00  0.00     0.037 A 
BRANCH  43  57
ATOM     57  C   UNL     1       2.520  -3.236  11.526  1.00  0.00     0.057 A 
ATOM     58  C   UNL     1       1.771  -4.340  11.100  1.00  0.00     0.134 A 
ATOM     59  C   UNL     1       2.525  -2.945  12.896  1.00  0.00     0.134 A 
ATOM     60  F   UNL     1       1.703  -4.655   9.798  1.00  0.00    -0.206 F 
ATOM     61  C   UNL     1       1.034  -5.110  12.003  1.00  0.00     0.040 A 
ATOM     62  C   UNL     1       1.814  -3.723  13.810  1.00  0.00     0.040 A 
ATOM     63  F   UNL     1       3.219  -1.898  13.368  1.00  0.00    -0.206 F 
ATOM     64  C   UNL     1       1.059  -4.804  13.363  1.00  0.00     0.006 A 
ENDBRANCH  43  57
BRANCH  44  65
ATOM     65  C   UNL     1       7.109   2.626   4.922  1.00  0.00     0.057 A 
ATOM     66  C   UNL     1       7.924   2.073   3.926  1.00  0.00     0.134 A 
ATOM     67  C   UNL     1       7.064   4.024   5.008  1.00  0.00     0.134 A 
ATOM     68  F   UNL     1       8.043   0.742   3.812  1.00  0.00    -0.206 F 
ATOM     69  C   UNL     1       8.687   2.875   3.073  1.00  0.00     0.040 A 
ATOM     70  C   UNL     1       7.794   4.838   4.140  1.00  0.00     0.040 A 
ATOM     71  F   UNL     1       6.319   4.622   5.949  1.00  0.00    -0.206 F 
ATOM     72  C   UNL     1       8.620   4.263   3.177  1.00  0.00     0.006 A 
ENDBRANCH  44  65
BRANCH  56  73
ATOM     73  C   UNL     1       9.387  -1.689   9.883  1.00  0.00     0.057 A 
ATOM     74  C   UNL     1      10.242  -0.792  10.537  1.00  0.00     0.134 A 
ATOM     75  C   UNL     1       9.864  -2.990   9.668  1.00  0.00     0.134 A 
ATOM     76  F   UNL     1       9.856   0.472  10.767  1.00  0.00    -0.206 F 
ATOM     77  C   UNL     1      11.532  -1.161  10.926  1.00  0.00     0.040 A 
ATOM     78  C   UNL     1      11.139  -3.381  10.083  1.00  0.00     0.040 A 
ATOM     79  F   UNL     1       9.096  -3.906   9.060  1.00  0.00    -0.206 F 
ATOM     80  C   UNL     1      11.981  -2.462  10.704  1.00  0.00     0.006 A 
ENDBRANCH  56  73
ENDBRANCH  30  31
ENDBRANCH  23  25
ENDBRANCH  22  23
ENDBRANCH  21  22
ENDBRANCH   1  21
TORSDOF 14
