REMARK SMILES CC1=C(CC(=O)OCCOC(=O)c2ccc(-c3c4nc(c(-c5c(F)cccc5F)c5ccc([nH]5)c(-c5c(F)cccc5F)c5nc(c(-c6c(F)cccc6F)c6ccc3[nH]6)C=C5)C=C4)cc2)c2cc(F)ccc2/C1=C\c1ccc([S@@+](C)[O-])cc1
REMARK SMILES IDX 8 1 7 2 5 3 6 4 4 5 3 6 1 7 2 8 74 9 67 10 73 11 75 12 68 13
REMARK SMILES IDX 72 14 69 15 71 16 70 17 76 18 77 19 84 20 78 21 83 22 79 23
REMARK SMILES IDX 80 24 81 25 82 26 9 27 10 28 11 29 12 30 13 31 14 32 66 33
REMARK SMILES IDX 15 34 65 35 16 36 17 37 18 38 59 39 19 40 64 41 58 42 60 43
REMARK SMILES IDX 20 44 63 45 57 46 56 47 21 49 47 50 30 51 46 52 31 53 34 54
REMARK SMILES IDX 45 55 61 56 32 57 33 58 44 60 62 61 35 62 22 63 23 64 28 65
REMARK SMILES IDX 24 66 25 67 27 68 29 69 26 70 48 71 49 72 54 73 50 74 51 75
REMARK SMILES IDX 53 76 55 77 52 78 36 79 37 80 42 81 38 82 39 83 41 84 43 85
REMARK SMILES IDX 40 86
REMARK H PARENT 60 48 34 59
REMARK Flexibility Score: inf
ROOT
ATOM      1  C   UNL     1      -3.726  -0.971  -2.035  1.00  0.00     0.274 C 
ENDROOT
BRANCH   1   2
ATOM      2  O   UNL     1      -2.343  -0.559  -2.009  1.00  0.00    -0.462 OA
BRANCH   2   3
ATOM      3  C   UNL     1      -1.428  -1.545  -2.200  1.00  0.00     0.310 C 
ATOM      4  O   UNL     1      -1.707  -2.731  -2.359  1.00  0.00    -0.252 OA
BRANCH   3   5
ATOM      5  C   UNL     1       0.017  -1.068  -2.233  1.00  0.00     0.159 C 
BRANCH   5   6
ATOM      6  C   UNL     1       0.264   0.391  -2.040  1.00  0.00    -0.025 C 
ATOM      7  C   UNL     1       0.868   0.454   0.435  1.00  0.00     0.045 C 
ATOM      8  C   UNL     1       0.635   1.044  -0.915  1.00  0.00    -0.039 C 
ATOM      9  C   UNL     1       0.822   2.474  -1.212  1.00  0.00    -0.014 C 
ATOM     10  C   UNL     1       0.255   1.366  -3.143  1.00  0.00    -0.011 A 
ATOM     11  C   UNL     1       0.590   2.643  -2.662  1.00  0.00    -0.010 A 
ATOM     12  C   UNL     1       1.145   3.404  -0.292  1.00  0.00     0.017 C 
ATOM     13  C   UNL     1       0.022   1.166  -4.496  1.00  0.00     0.048 A 
ATOM     14  C   UNL     1       0.681   3.721  -3.537  1.00  0.00     0.012 A 
ATOM     15  C   UNL     1       0.089   2.255  -5.359  1.00  0.00     0.123 A 
ATOM     16  C   UNL     1       0.410   3.527  -4.893  1.00  0.00     0.040 A 
ATOM     17  F   UNL     1      -0.131   2.073  -6.668  1.00  0.00    -0.207 F 
BRANCH  12  18
ATOM     18  C   UNL     1       1.330   4.826  -0.580  1.00  0.00    -0.025 A 
ATOM     19  C   UNL     1       0.223   5.646  -0.820  1.00  0.00     0.013 A 
ATOM     20  C   UNL     1       2.620   5.331  -0.762  1.00  0.00     0.013 A 
ATOM     21  C   UNL     1       0.402   6.927  -1.352  1.00  0.00     0.061 A 
ATOM     22  C   UNL     1       2.797   6.620  -1.271  1.00  0.00     0.061 A 
ATOM     23  C   UNL     1       1.691   7.413  -1.605  1.00  0.00     0.152 A 
BRANCH  23  24
ATOM     24  S   UNL     1       1.948   8.954  -2.519  1.00  0.00    -0.018 S 
ATOM     25  C   UNL     1       0.862  10.049  -1.585  1.00  0.00     0.346 C 
ATOM     26  O   UNL     1       3.430   9.402  -2.256  1.00  0.00    -0.612 OA
ENDBRANCH  23  24
ENDBRANCH  12  18
ENDBRANCH   5   6
ENDBRANCH   3   5
ENDBRANCH   2   3
ENDBRANCH   1   2
BRANCH   1  27
ATOM     27  C   UNL     1      -4.360  -0.648  -3.385  1.00  0.00     0.275 C 
BRANCH  27  28
ATOM     28  O   UNL     1      -3.617  -1.297  -4.431  1.00  0.00    -0.458 OA
BRANCH  28  29
ATOM     29  C   UNL     1      -3.123  -0.478  -5.387  1.00  0.00     0.338 C 
ATOM     30  O   UNL     1      -3.298   0.722  -5.502  1.00  0.00    -0.246 OA
BRANCH  29  31
ATOM     31  C   UNL     1      -2.316  -1.266  -6.335  1.00  0.00     0.060 A 
ATOM     32  C   UNL     1      -2.564  -1.127  -7.699  1.00  0.00     0.016 A 
ATOM     33  C   UNL     1      -1.258  -2.061  -5.887  1.00  0.00     0.016 A 
ATOM     34  C   UNL     1      -1.775  -1.822  -8.615  1.00  0.00     0.010 A 
ATOM     35  C   UNL     1      -0.410  -2.675  -6.806  1.00  0.00     0.010 A 
ATOM     36  C   UNL     1      -0.684  -2.594  -8.178  1.00  0.00    -0.014 A 
BRANCH  36  37
ATOM     37  C   UNL     1       0.141  -3.347  -9.155  1.00  0.00     0.031 A 
ATOM     38  C   UNL     1       0.145  -4.851  -9.138  1.00  0.00     0.074 A 
ATOM     39  C   UNL     1       0.892  -2.682 -10.052  1.00  0.00     0.049 A 
ATOM     40  N   UNL     1       0.751  -5.686  -9.945  1.00  0.00    -0.248 NA
ATOM     41  C   UNL     1      -0.612  -5.507  -8.060  1.00  0.00     0.031 C 
ATOM     42  C   UNL     1       1.027  -1.226 -10.130  1.00  0.00     0.029 A 
ATOM     43  N   UNL     1       1.681  -3.146 -11.074  1.00  0.00    -0.354 N 
ATOM     44  C   UNL     1       0.449  -6.956  -9.472  1.00  0.00     0.074 A 
ATOM     45  C   UNL     1      -0.337  -6.784  -8.270  1.00  0.00     0.031 C 
ATOM     46  C   UNL     1       1.829  -0.915 -11.162  1.00  0.00     0.029 A 
ATOM     47  C   UNL     1       2.279  -2.147 -11.803  1.00  0.00     0.049 A 
ATOM     48  H   UNL     1       1.808  -4.103 -11.266  1.00  0.00     0.167 HD
ATOM     49  C   UNL     1       0.767  -8.159 -10.006  1.00  0.00     0.037 A 
ATOM     50  C   UNL     1       3.096  -2.219 -12.871  1.00  0.00     0.037 A 
ATOM     51  C   UNL     1       1.533  -8.330 -11.211  1.00  0.00     0.049 A 
ATOM     52  C   UNL     1       3.447  -3.564 -13.441  1.00  0.00     0.074 A 
ATOM     53  C   UNL     1       1.831  -9.499 -11.887  1.00  0.00     0.029 A 
ATOM     54  N   UNL     1       2.135  -7.296 -11.912  1.00  0.00    -0.354 N 
ATOM     55  N   UNL     1       3.061  -4.754 -13.049  1.00  0.00    -0.248 NA
ATOM     56  C   UNL     1       4.346  -3.576 -14.604  1.00  0.00     0.031 C 
ATOM     57  C   UNL     1       2.654  -9.177 -12.973  1.00  0.00     0.029 A 
ATOM     58  C   UNL     1       2.837  -7.803 -12.992  1.00  0.00     0.049 A 
ATOM     59  H   UNL     1       2.072  -6.342 -11.676  1.00  0.00     0.167 HD
ATOM     60  C   UNL     1       3.665  -5.655 -13.916  1.00  0.00     0.074 A 
ATOM     61  C   UNL     1       4.421  -4.872 -14.872  1.00  0.00     0.031 C 
ATOM     62  C   UNL     1       3.604  -7.009 -13.918  1.00  0.00     0.037 A 
BRANCH  49  63
ATOM     63  C   UNL     1       0.276  -9.379  -9.283  1.00  0.00     0.057 A 
ATOM     64  C   UNL     1       1.167 -10.216  -8.602  1.00  0.00     0.134 A 
ATOM     65  C   UNL     1      -1.083  -9.722  -9.255  1.00  0.00     0.134 A 
ATOM     66  F   UNL     1       2.482  -9.949  -8.592  1.00  0.00    -0.206 F 
ATOM     67  C   UNL     1       0.724 -11.345  -7.911  1.00  0.00     0.040 A 
ATOM     68  C   UNL     1      -1.542 -10.833  -8.546  1.00  0.00     0.040 A 
ATOM     69  F   UNL     1      -1.991  -8.954  -9.876  1.00  0.00    -0.206 F 
ATOM     70  C   UNL     1      -0.636 -11.651  -7.873  1.00  0.00     0.006 A 
ENDBRANCH  49  63
BRANCH  50  71
ATOM     71  C   UNL     1       3.628  -0.974 -13.477  1.00  0.00     0.057 A 
ATOM     72  C   UNL     1       4.605  -0.210 -12.827  1.00  0.00     0.134 A 
ATOM     73  C   UNL     1       3.171  -0.519 -14.719  1.00  0.00     0.134 A 
ATOM     74  F   UNL     1       5.080  -0.593 -11.633  1.00  0.00    -0.206 F 
ATOM     75  C   UNL     1       5.101   0.968 -13.386  1.00  0.00     0.040 A 
ATOM     76  C   UNL     1       3.675   0.646 -15.299  1.00  0.00     0.040 A 
ATOM     77  F   UNL     1       2.252  -1.221 -15.398  1.00  0.00    -0.206 F 
ATOM     78  C   UNL     1       4.639   1.397 -14.629  1.00  0.00     0.006 A 
ENDBRANCH  50  71
BRANCH  62  79
ATOM     79  C   UNL     1       4.391  -7.724 -14.974  1.00  0.00     0.057 A 
ATOM     80  C   UNL     1       3.752  -8.344 -16.054  1.00  0.00     0.134 A 
ATOM     81  C   UNL     1       5.787  -7.823 -14.902  1.00  0.00     0.134 A 
ATOM     82  F   UNL     1       2.417  -8.291 -16.178  1.00  0.00    -0.206 F 
ATOM     83  C   UNL     1       4.473  -9.043 -17.023  1.00  0.00     0.040 A 
ATOM     84  C   UNL     1       6.520  -8.500 -15.877  1.00  0.00     0.040 A 
ATOM     85  F   UNL     1       6.458  -7.237 -13.899  1.00  0.00    -0.206 F 
ATOM     86  C   UNL     1       5.862  -9.118 -16.938  1.00  0.00     0.006 A 
ENDBRANCH  62  79
ENDBRANCH  36  37
ENDBRANCH  29  31
ENDBRANCH  28  29
ENDBRANCH  27  28
ENDBRANCH   1  27
TORSDOF 14
