REMARK SMILES CS(=O)(=O)c1ccc(NS(=O)(=O)c2ccc(F)c(C(=O)OCCOC(=O)c3ccc(-c4c5nc(c(-c6c(F)cccc6F)c6ccc([nH]6)c(-c6c(F)cccc6F)c6nc(c(-c7c(F)cccc7F)c7ccc4[nH]7)C=C6)C=C5)cc3)c2)cc1
REMARK SMILES IDX 22 1 21 2 19 3 20 4 18 5 13 6 14 7 81 8 15 9 16 10 17 11
REMARK SMILES IDX 10 12 11 13 12 14 9 15 8 17 5 18 6 19 83 20 7 21 82 22 2 23
REMARK SMILES IDX 1 24 3 25 4 26 23 27 24 28 25 29 26 30 27 31 28 32 80 33
REMARK SMILES IDX 29 34 79 35 30 36 31 37 32 38 73 39 33 40 78 41 72 42 74 43
REMARK SMILES IDX 34 44 77 45 71 46 70 47 35 49 61 50 44 51 60 52 45 53 48 54
REMARK SMILES IDX 59 55 75 56 46 57 47 58 58 60 76 61 49 62 36 63 37 64 42 65
REMARK SMILES IDX 38 66 39 67 41 68 43 69 40 70 62 71 63 72 68 73 64 74 65 75
REMARK SMILES IDX 67 76 69 77 66 78 50 79 51 80 56 81 52 82 53 83 55 84 57 85
REMARK SMILES IDX 54 86
REMARK H PARENT 9 16 74 48 48 59
REMARK Flexibility Score: inf
ROOT
ATOM      1  C   UNL     1      -1.095   3.015   7.814  1.00  0.00     0.275 C 
ENDROOT
BRANCH   1   2
ATOM      2  O   UNL     1      -0.113   3.497   6.869  1.00  0.00    -0.458 OA
BRANCH   2   3
ATOM      3  C   UNL     1       1.163   3.070   7.050  1.00  0.00     0.341 C 
ATOM      4  O   UNL     1       1.542   2.298   7.916  1.00  0.00    -0.246 OA
BRANCH   3   5
ATOM      5  C   UNL     1       2.040   3.595   5.973  1.00  0.00     0.097 A 
ATOM      6  C   UNL     1       2.574   5.179   4.220  1.00  0.00     0.088 A 
ATOM      7  C   UNL     1       3.672   4.403   3.828  1.00  0.00     0.025 A 
ATOM      8  C   UNL     1       1.765   4.797   5.304  1.00  0.00     0.041 A 
ATOM      9  C   UNL     1       3.955   3.225   4.510  1.00  0.00     0.041 A 
ATOM     10  C   UNL     1       3.154   2.839   5.583  1.00  0.00     0.137 A 
ATOM     11  F   UNL     1       3.461   1.685   6.192  1.00  0.00    -0.206 F 
BRANCH   6  12
ATOM     12  S   UNL     1       2.229   6.676   3.334  1.00  0.00     0.261 S 
ATOM     13  O   UNL     1       3.421   7.035   2.595  1.00  0.00    -0.201 OA
ATOM     14  O   UNL     1       1.648   7.608   4.277  1.00  0.00    -0.201 OA
BRANCH  12  15
ATOM     15  N   UNL     1       1.026   6.334   2.185  1.00  0.00    -0.280 N 
ATOM     16  H   UNL     1       0.290   6.975   2.059  1.00  0.00     0.180 HD
BRANCH  15  17
ATOM     17  C   UNL     1       1.051   5.136   1.391  1.00  0.00     0.049 A 
ATOM     18  C   UNL     1       0.684   2.832  -0.175  1.00  0.00     0.067 A 
ATOM     19  C   UNL     1       0.731   2.727   1.211  1.00  0.00     0.022 A 
ATOM     20  C   UNL     1       0.824   4.082  -0.789  1.00  0.00     0.022 A 
ATOM     21  C   UNL     1       0.875   3.883   1.980  1.00  0.00     0.028 A 
ATOM     22  C   UNL     1       1.008   5.230  -0.005  1.00  0.00     0.028 A 
BRANCH  18  23
ATOM     23  S   UNL     1       0.346   1.407  -1.182  1.00  0.00     0.175 S 
ATOM     24  C   UNL     1       0.982   0.000  -0.310  1.00  0.00     0.163 C 
ATOM     25  O   UNL     1       1.135   1.552  -2.391  1.00  0.00    -0.224 OA
ATOM     26  O   UNL     1      -1.097   1.282  -1.238  1.00  0.00    -0.224 OA
ENDBRANCH  18  23
ENDBRANCH  15  17
ENDBRANCH  12  15
ENDBRANCH   6  12
ENDBRANCH   3   5
ENDBRANCH   2   3
ENDBRANCH   1   2
BRANCH   1  27
ATOM     27  C   UNL     1      -2.110   2.080   7.148  1.00  0.00     0.275 C 
BRANCH  27  28
ATOM     28  O   UNL     1      -1.495   0.840   6.750  1.00  0.00    -0.458 OA
BRANCH  28  29
ATOM     29  C   UNL     1      -1.132   0.771   5.450  1.00  0.00     0.338 C 
ATOM     30  O   UNL     1      -1.300   1.607   4.577  1.00  0.00    -0.246 OA
BRANCH  29  31
ATOM     31  C   UNL     1      -0.287  -0.410   5.237  1.00  0.00     0.060 A 
ATOM     32  C   UNL     1       1.085  -0.187   5.223  1.00  0.00     0.016 A 
ATOM     33  C   UNL     1      -0.798  -1.667   4.925  1.00  0.00     0.016 A 
ATOM     34  C   UNL     1       1.964  -1.196   4.858  1.00  0.00     0.010 A 
ATOM     35  C   UNL     1       0.093  -2.706   4.611  1.00  0.00     0.010 A 
ATOM     36  C   UNL     1       1.483  -2.476   4.559  1.00  0.00    -0.014 A 
BRANCH  36  37
ATOM     37  C   UNL     1       2.447  -3.545   4.178  1.00  0.00     0.031 A 
ATOM     38  C   UNL     1       2.393  -4.170   2.810  1.00  0.00     0.074 A 
ATOM     39  C   UNL     1       3.407  -3.925   5.045  1.00  0.00     0.049 A 
ATOM     40  N   UNL     1       3.086  -5.171   2.328  1.00  0.00    -0.248 NA
ATOM     41  C   UNL     1       1.434  -3.591   1.856  1.00  0.00     0.031 C 
ATOM     42  C   UNL     1       3.612  -3.361   6.381  1.00  0.00     0.029 A 
ATOM     43  N   UNL     1       4.397  -4.870   4.931  1.00  0.00    -0.354 N 
ATOM     44  C   UNL     1       2.623  -5.367   1.033  1.00  0.00     0.074 A 
ATOM     45  C   UNL     1       1.582  -4.387   0.806  1.00  0.00     0.031 C 
ATOM     46  C   UNL     1       4.674  -3.951   6.950  1.00  0.00     0.029 A 
ATOM     47  C   UNL     1       5.172  -4.992   6.060  1.00  0.00     0.049 A 
ATOM     48  H   UNL     1       4.539  -5.409   4.119  1.00  0.00     0.167 HD
ATOM     49  C   UNL     1       3.029  -6.282   0.119  1.00  0.00     0.037 A 
ATOM     50  C   UNL     1       6.143  -5.873   6.369  1.00  0.00     0.037 A 
ATOM     51  C   UNL     1       4.078  -7.245   0.345  1.00  0.00     0.049 A 
ATOM     52  C   UNL     1       6.516  -6.931   5.369  1.00  0.00     0.074 A 
ATOM     53  C   UNL     1       4.567  -8.206  -0.524  1.00  0.00     0.029 A 
ATOM     54  N   UNL     1       4.797  -7.374   1.524  1.00  0.00    -0.354 N 
ATOM     55  N   UNL     1       6.058  -7.119   4.155  1.00  0.00    -0.248 NA
ATOM     56  C   UNL     1       7.530  -7.908   5.787  1.00  0.00     0.031 C 
ATOM     57  C   UNL     1       5.539  -8.953   0.149  1.00  0.00     0.029 A 
ATOM     58  C   UNL     1       5.703  -8.417   1.416  1.00  0.00     0.049 A 
ATOM     59  H   UNL     1       4.681  -6.807   2.321  1.00  0.00     0.167 HD
ATOM     60  C   UNL     1       6.741  -8.221   3.658  1.00  0.00     0.074 A 
ATOM     61  C   UNL     1       7.660  -8.645   4.694  1.00  0.00     0.031 C 
ATOM     62  C   UNL     1       6.615  -8.830   2.453  1.00  0.00     0.037 A 
BRANCH  49  63
ATOM     63  C   UNL     1       2.306  -6.319  -1.198  1.00  0.00     0.057 A 
ATOM     64  C   UNL     1       2.447  -5.308  -2.158  1.00  0.00     0.134 A 
ATOM     65  C   UNL     1       1.484  -7.406  -1.525  1.00  0.00     0.134 A 
ATOM     66  F   UNL     1       3.204  -4.230  -1.904  1.00  0.00    -0.206 F 
ATOM     67  C   UNL     1       1.778  -5.365  -3.383  1.00  0.00     0.040 A 
ATOM     68  C   UNL     1       0.833  -7.489  -2.756  1.00  0.00     0.040 A 
ATOM     69  F   UNL     1       1.308  -8.412  -0.655  1.00  0.00    -0.206 F 
ATOM     70  C   UNL     1       0.974  -6.463  -3.688  1.00  0.00     0.006 A 
ENDBRANCH  49  63
BRANCH  50  71
ATOM     71  C   UNL     1       6.794  -5.828   7.705  1.00  0.00     0.057 A 
ATOM     72  C   UNL     1       8.149  -5.509   7.845  1.00  0.00     0.134 A 
ATOM     73  C   UNL     1       6.078  -6.119   8.874  1.00  0.00     0.134 A 
ATOM     74  F   UNL     1       8.896  -5.245   6.763  1.00  0.00    -0.206 F 
ATOM     75  C   UNL     1       8.772  -5.497   9.094  1.00  0.00     0.040 A 
ATOM     76  C   UNL     1       6.679  -6.078  10.132  1.00  0.00     0.040 A 
ATOM     77  F   UNL     1       4.775  -6.433   8.810  1.00  0.00    -0.206 F 
ATOM     78  C   UNL     1       8.034  -5.774  10.243  1.00  0.00     0.006 A 
ENDBRANCH  50  71
BRANCH  62  79
ATOM     79  C   UNL     1       7.518  -9.998   2.178  1.00  0.00     0.057 A 
ATOM     80  C   UNL     1       7.356 -11.231   2.822  1.00  0.00     0.134 A 
ATOM     81  C   UNL     1       8.549  -9.893   1.234  1.00  0.00     0.134 A 
ATOM     82  F   UNL     1       6.399 -11.393   3.748  1.00  0.00    -0.206 F 
ATOM     83  C   UNL     1       8.203 -12.309   2.559  1.00  0.00     0.040 A 
ATOM     84  C   UNL     1       9.382 -10.973   0.939  1.00  0.00     0.040 A 
ATOM     85  F   UNL     1       8.755  -8.744   0.574  1.00  0.00    -0.206 F 
ATOM     86  C   UNL     1       9.215 -12.184   1.609  1.00  0.00     0.006 A 
ENDBRANCH  62  79
ENDBRANCH  36  37
ENDBRANCH  29  31
ENDBRANCH  28  29
ENDBRANCH  27  28
ENDBRANCH   1  27
TORSDOF 15
