REMARK SMILES COC(=O)c1ccc(NC(=O)[C@@H]2CC=CC[C@@H]2C(=O)OCCOC(=O)c2ccc(-c3c4nc(c(-c5c(F)cccc5F)c5ccc([nH]5)c(-c5c(F)cccc5F)c5nc(c(-c6c(F)cccc6F)c6ccc3[nH]6)C=C5)C=C4)cc2)c(C)c1
REMARK SMILES IDX 21 1 20 2 18 3 19 4 17 5 12 6 13 7 14 8 16 9 15 10 10 11
REMARK SMILES IDX 9 12 11 14 8 15 5 16 6 17 82 18 7 19 80 20 81 21 3 22 4 23
REMARK SMILES IDX 2 24 1 25 22 26 23 27 24 28 25 29 26 30 27 31 79 32 28 33
REMARK SMILES IDX 78 34 29 35 30 36 31 37 72 38 32 39 77 40 71 41 73 42 33 43
REMARK SMILES IDX 76 44 70 45 69 46 34 48 60 49 43 50 59 51 44 52 47 53 58 54
REMARK SMILES IDX 74 55 45 56 46 57 57 59 75 60 48 61 35 62 36 63 41 64 37 65
REMARK SMILES IDX 38 66 40 67 42 68 39 69 61 70 62 71 67 72 63 73 64 74 66 75
REMARK SMILES IDX 68 76 65 77 49 78 50 79 55 80 51 81 52 82 54 83 56 84 53 85
REMARK H PARENT 9 13 73 47 47 58
REMARK Flexibility Score: inf
ROOT
ATOM      1  C   UNL     1       2.676   2.874  -7.617  1.00  0.00     0.274 C 
ENDROOT
BRANCH   1   2
ATOM      2  O   UNL     1       4.030   3.034  -7.184  1.00  0.00    -0.462 OA
BRANCH   2   3
ATOM      3  C   UNL     1       4.715   1.869  -7.013  1.00  0.00     0.310 C 
ATOM      4  O   UNL     1       4.282   0.799  -7.378  1.00  0.00    -0.252 OA
BRANCH   3   5
ATOM      5  C   UNL     1       5.991   2.019  -6.171  1.00  0.00     0.116 C 
ATOM      6  C   UNL     1       5.638   2.684  -4.821  1.00  0.00     0.097 C 
ATOM      7  C   UNL     1       5.302   4.182  -5.069  1.00  0.00     0.041 C 
ATOM      8  C   UNL     1       6.191   4.863  -6.076  1.00  0.00    -0.030 C 
ATOM      9  C   UNL     1       7.181   2.716  -6.832  1.00  0.00     0.043 C 
ATOM     10  C   UNL     1       7.074   4.208  -6.839  1.00  0.00    -0.030 C 
BRANCH   6  11
ATOM     11  C   UNL     1       4.588   1.778  -4.134  1.00  0.00     0.228 C 
ATOM     12  N   UNL     1       3.770   2.200  -3.137  1.00  0.00    -0.326 N 
ATOM     13  H   UNL     1       3.057   1.573  -2.879  1.00  0.00     0.169 HD
ATOM     14  O   UNL     1       4.445   0.598  -4.469  1.00  0.00    -0.274 OA
BRANCH  12  15
ATOM     15  C   UNL     1       3.802   3.397  -2.432  1.00  0.00     0.044 A 
ATOM     16  C   UNL     1       3.944   6.006  -1.531  1.00  0.00     0.060 A 
ATOM     17  C   UNL     1       5.101   5.230  -1.553  1.00  0.00     0.018 A 
ATOM     18  C   UNL     1       2.700   5.447  -1.861  1.00  0.00     0.021 A 
ATOM     19  C   UNL     1       5.023   3.912  -1.984  1.00  0.00     0.027 A 
ATOM     20  C   UNL     1       2.607   4.110  -2.265  1.00  0.00    -0.027 A 
ATOM     21  C   UNL     1       1.268   3.546  -2.657  1.00  0.00     0.046 C 
BRANCH  16  22
ATOM     22  C   UNL     1       4.074   7.450  -1.238  1.00  0.00     0.337 C 
ATOM     23  O   UNL     1       4.960   8.118  -1.750  1.00  0.00    -0.246 OA
BRANCH  22  24
ATOM     24  O   UNL     1       3.113   7.970  -0.438  1.00  0.00    -0.465 OA
ATOM     25  C   UNL     1       2.750   7.234   0.738  1.00  0.00     0.282 C 
ENDBRANCH  22  24
ENDBRANCH  16  22
ENDBRANCH  12  15
ENDBRANCH   6  11
ENDBRANCH   3   5
ENDBRANCH   2   3
ENDBRANCH   1   2
BRANCH   1  26
ATOM     26  C   UNL     1       2.102   4.150  -8.246  1.00  0.00     0.275 C 
BRANCH  26  27
ATOM     27  O   UNL     1       3.017   5.161  -8.757  1.00  0.00    -0.458 OA
BRANCH  27  28
ATOM     28  C   UNL     1       4.078   5.033  -9.591  1.00  0.00     0.338 C 
ATOM     29  O   UNL     1       4.801   5.977  -9.885  1.00  0.00    -0.246 OA
BRANCH  28  30
ATOM     30  C   UNL     1       4.398   3.687 -10.081  1.00  0.00     0.060 A 
ATOM     31  C   UNL     1       5.702   3.202  -9.912  1.00  0.00     0.016 A 
ATOM     32  C   UNL     1       3.395   2.879 -10.598  1.00  0.00     0.016 A 
ATOM     33  C   UNL     1       5.975   1.852 -10.127  1.00  0.00     0.010 A 
ATOM     34  C   UNL     1       3.636   1.525 -10.709  1.00  0.00     0.010 A 
ATOM     35  C   UNL     1       4.926   1.006 -10.482  1.00  0.00    -0.014 A 
BRANCH  35  36
ATOM     36  C   UNL     1       5.139  -0.322 -11.044  1.00  0.00     0.031 A 
ATOM     37  C   UNL     1       5.279  -1.590 -10.297  1.00  0.00     0.074 A 
ATOM     38  C   UNL     1       5.072  -0.275 -12.392  1.00  0.00     0.049 A 
ATOM     39  N   UNL     1       5.627  -2.697 -10.862  1.00  0.00    -0.248 NA
ATOM     40  C   UNL     1       5.072  -1.763  -8.866  1.00  0.00     0.031 C 
ATOM     41  C   UNL     1       4.911  -1.332 -13.368  1.00  0.00     0.029 A 
ATOM     42  N   UNL     1       5.328   0.872 -13.160  1.00  0.00    -0.354 N 
ATOM     43  C   UNL     1       5.430  -3.733  -9.971  1.00  0.00     0.074 A 
ATOM     44  C   UNL     1       5.125  -3.093  -8.721  1.00  0.00     0.031 C 
ATOM     45  C   UNL     1       5.346  -0.875 -14.557  1.00  0.00     0.029 A 
ATOM     46  C   UNL     1       5.956   0.430 -14.320  1.00  0.00     0.049 A 
ATOM     47  H   UNL     1       5.106   1.802 -12.925  1.00  0.00     0.167 HD
ATOM     48  C   UNL     1       5.434  -5.011 -10.446  1.00  0.00     0.037 A 
ATOM     49  C   UNL     1       7.275   0.733 -14.504  1.00  0.00     0.037 A 
ATOM     50  C   UNL     1       5.870  -5.021 -11.837  1.00  0.00     0.049 A 
ATOM     51  C   UNL     1       8.105  -0.520 -14.602  1.00  0.00     0.074 A 
ATOM     52  C   UNL     1       5.169  -4.991 -13.031  1.00  0.00     0.029 A 
ATOM     53  N   UNL     1       7.180  -4.660 -12.134  1.00  0.00    -0.354 N 
ATOM     54  N   UNL     1       7.853  -1.622 -13.948  1.00  0.00    -0.248 NA
ATOM     55  C   UNL     1       9.232  -0.642 -15.518  1.00  0.00     0.031 C 
ATOM     56  C   UNL     1       6.048  -4.521 -14.038  1.00  0.00     0.029 A 
ATOM     57  C   UNL     1       7.288  -4.300 -13.461  1.00  0.00     0.049 A 
ATOM     58  H   UNL     1       7.924  -4.660 -11.489  1.00  0.00     0.167 HD
ATOM     59  C   UNL     1       8.683  -2.610 -14.412  1.00  0.00     0.074 A 
ATOM     60  C   UNL     1       9.548  -1.939 -15.367  1.00  0.00     0.031 C 
ATOM     61  C   UNL     1       8.568  -3.916 -14.030  1.00  0.00     0.037 A 
BRANCH  48  62
ATOM     62  C   UNL     1       4.771  -6.185  -9.760  1.00  0.00     0.057 A 
ATOM     63  C   UNL     1       4.131  -7.188 -10.522  1.00  0.00     0.134 A 
ATOM     64  C   UNL     1       4.663  -6.361  -8.371  1.00  0.00     0.134 A 
ATOM     65  F   UNL     1       4.204  -7.214 -11.859  1.00  0.00    -0.206 F 
ATOM     66  C   UNL     1       3.365  -8.215  -9.955  1.00  0.00     0.040 A 
ATOM     67  C   UNL     1       3.871  -7.366  -7.789  1.00  0.00     0.040 A 
ATOM     68  F   UNL     1       5.353  -5.597  -7.516  1.00  0.00    -0.206 F 
ATOM     69  C   UNL     1       3.204  -8.290  -8.582  1.00  0.00     0.006 A 
ENDBRANCH  48  62
BRANCH  49  70
ATOM     70  C   UNL     1       7.722   2.027 -13.894  1.00  0.00     0.057 A 
ATOM     71  C   UNL     1       7.032   3.216 -14.216  1.00  0.00     0.134 A 
ATOM     72  C   UNL     1       8.625   2.109 -12.829  1.00  0.00     0.134 A 
ATOM     73  F   UNL     1       6.145   3.228 -15.226  1.00  0.00    -0.206 F 
ATOM     74  C   UNL     1       7.165   4.392 -13.470  1.00  0.00     0.040 A 
ATOM     75  C   UNL     1       8.783   3.291 -12.084  1.00  0.00     0.040 A 
ATOM     76  F   UNL     1       9.324   1.035 -12.439  1.00  0.00    -0.206 F 
ATOM     77  C   UNL     1       8.034   4.427 -12.386  1.00  0.00     0.006 A 
ENDBRANCH  49  70
BRANCH  61  78
ATOM     78  C   UNL     1       9.589  -5.002 -14.265  1.00  0.00     0.057 A 
ATOM     79  C   UNL     1      10.961  -4.764 -14.415  1.00  0.00     0.134 A 
ATOM     80  C   UNL     1       9.226  -6.366 -14.167  1.00  0.00     0.134 A 
ATOM     81  F   UNL     1      11.466  -3.523 -14.409  1.00  0.00    -0.206 F 
ATOM     82  C   UNL     1      11.896  -5.802 -14.516  1.00  0.00     0.040 A 
ATOM     83  C   UNL     1      10.155  -7.406 -14.204  1.00  0.00     0.040 A 
ATOM     84  F   UNL     1       7.953  -6.755 -13.997  1.00  0.00    -0.206 F 
ATOM     85  C   UNL     1      11.497  -7.127 -14.394  1.00  0.00     0.006 A 
ENDBRANCH  61  78
ENDBRANCH  35  36
ENDBRANCH  28  30
ENDBRANCH  27  28
ENDBRANCH  26  27
ENDBRANCH   1  26
TORSDOF 15
