REMARK SMILES CCOc1ccccc1[C@H](C(=O)OCCOC(=O)c1ccc(-c2c3nc(c(-c4c(F)cccc4F)c4ccc([nH]4)c(-c4c(F)cccc4F)c4nc(c(-c5c(F)cccc5F)c5ccc2[nH]5)C=C4)C=C3)cc1)[NH+]1CCC([NH+]2CCSCC2)CC1
REMARK SMILES IDX 14 1 13 2 11 3 12 4 10 5 9 6 4 7 5 8 6 9 8 10 7 11 3 12 2 13
REMARK SMILES IDX 1 14 73 15 74 16 84 17 75 19 83 20 76 21 77 22 78 23 82 24
REMARK SMILES IDX 79 26 81 27 80 28 15 29 16 30 17 31 18 32 19 33 20 34 72 35
REMARK SMILES IDX 21 36 71 37 22 38 23 39 24 40 65 41 25 42 70 43 64 44 66 45
REMARK SMILES IDX 26 46 69 47 63 48 62 49 27 51 53 52 36 53 52 54 37 55 40 56
REMARK SMILES IDX 51 57 67 58 38 59 39 60 50 62 68 63 41 64 28 65 29 66 34 67
REMARK SMILES IDX 30 68 31 69 33 70 35 71 32 72 54 73 55 74 60 75 56 76 57 77
REMARK SMILES IDX 59 78 61 79 58 80 42 81 43 82 48 83 44 84 45 85 47 86 49 87
REMARK SMILES IDX 46 88
REMARK H PARENT 73 18 77 25 66 50 40 61
REMARK Flexibility Score: inf
ROOT
ATOM      1  C   UNL     1       2.544  -3.555  -1.747  1.00  0.00     0.274 C 
ENDROOT
BRANCH   1   2
ATOM      2  O   UNL     1       2.076  -2.526  -0.851  1.00  0.00    -0.457 OA
BRANCH   2   3
ATOM      3  C   UNL     1       2.857  -1.394  -0.797  1.00  0.00     0.370 C 
ATOM      4  O   UNL     1       3.621  -1.064  -1.698  1.00  0.00    -0.245 OA
BRANCH   3   5
ATOM      5  C   UNL     1       2.639  -0.640   0.549  1.00  0.00     0.330 C 
BRANCH   5   6
ATOM      6  C   UNL     1       2.905  -1.516   1.785  1.00  0.00     0.063 A 
ATOM      7  C   UNL     1       3.863  -2.550   1.808  1.00  0.00     0.129 A 
ATOM      8  C   UNL     1       4.134  -3.248   2.988  1.00  0.00     0.047 A 
ATOM      9  C   UNL     1       3.490  -2.893   4.172  1.00  0.00     0.004 A 
ATOM     10  C   UNL     1       2.267  -1.174   2.994  1.00  0.00     0.014 A 
ATOM     11  C   UNL     1       2.561  -1.855   4.177  1.00  0.00     0.001 A 
BRANCH   7  12
ATOM     12  O   UNL     1       4.482  -2.910   0.642  1.00  0.00    -0.493 OA
BRANCH  12  13
ATOM     13  C   UNL     1       5.908  -2.809   0.669  1.00  0.00     0.226 C 
ATOM     14  C   UNL     1       6.382  -2.479  -0.739  1.00  0.00     0.049 C 
ENDBRANCH  12  13
ENDBRANCH   7  12
ENDBRANCH   5   6
BRANCH   5  15
ATOM     15  N   UNL     1       3.333   0.701   0.684  1.00  0.00    -0.319 N 
ATOM     16  C   UNL     1       4.752   0.604   1.031  1.00  0.00     0.269 C 
ATOM     17  C   UNL     1       3.104   1.603  -0.450  1.00  0.00     0.269 C 
ATOM     18  H   UNL     1       2.877   1.133   1.488  1.00  0.00     0.349 HD
ATOM     19  C   UNL     1       5.395   1.970   1.282  1.00  0.00     0.126 C 
ATOM     20  C   UNL     1       3.752   2.983  -0.272  1.00  0.00     0.126 C 
ATOM     21  C   UNL     1       5.255   2.852   0.037  1.00  0.00     0.195 C 
BRANCH  21  22
ATOM     22  N   UNL     1       5.973   4.152   0.083  1.00  0.00    -0.331 N 
ATOM     23  C   UNL     1       7.430   3.959   0.254  1.00  0.00     0.273 C 
ATOM     24  C   UNL     1       5.446   5.106   1.077  1.00  0.00     0.273 C 
ATOM     25  H   UNL     1       5.800   4.582  -0.826  1.00  0.00     0.348 HD
ATOM     26  C   UNL     1       8.268   5.227   0.045  1.00  0.00     0.131 C 
ATOM     27  C   UNL     1       6.054   6.512   0.963  1.00  0.00     0.131 C 
ATOM     28  S   UNL     1       7.849   6.524   1.245  1.00  0.00    -0.150 SA
ENDBRANCH  21  22
ENDBRANCH   5  15
ENDBRANCH   3   5
ENDBRANCH   2   3
ENDBRANCH   1   2
BRANCH   1  29
ATOM     29  C   UNL     1       1.746  -3.657  -3.047  1.00  0.00     0.275 C 
BRANCH  29  30
ATOM     30  O   UNL     1       1.772  -2.415  -3.762  1.00  0.00    -0.458 OA
BRANCH  30  31
ATOM     31  C   UNL     1       0.716  -1.614  -3.494  1.00  0.00     0.338 C 
ATOM     32  O   UNL     1      -0.299  -1.908  -2.885  1.00  0.00    -0.246 OA
BRANCH  31  33
ATOM     33  C   UNL     1       1.035  -0.229  -3.872  1.00  0.00     0.060 A 
ATOM     34  C   UNL     1       0.761   0.754  -2.917  1.00  0.00     0.016 A 
ATOM     35  C   UNL     1       1.538   0.116  -5.129  1.00  0.00     0.016 A 
ATOM     36  C   UNL     1       0.978   2.093  -3.216  1.00  0.00     0.010 A 
ATOM     37  C   UNL     1       1.722   1.467  -5.442  1.00  0.00     0.010 A 
ATOM     38  C   UNL     1       1.422   2.457  -4.492  1.00  0.00    -0.014 A 
BRANCH  38  39
ATOM     39  C   UNL     1       1.364   3.885  -4.867  1.00  0.00     0.031 A 
ATOM     40  C   UNL     1       0.036   4.452  -5.282  1.00  0.00     0.074 A 
ATOM     41  C   UNL     1       2.445   4.677  -4.765  1.00  0.00     0.049 A 
ATOM     42  N   UNL     1      -0.273   5.674  -5.630  1.00  0.00    -0.248 NA
ATOM     43  C   UNL     1      -1.103   3.518  -5.279  1.00  0.00     0.031 C 
ATOM     44  C   UNL     1       3.760   4.260  -4.284  1.00  0.00     0.029 A 
ATOM     45  N   UNL     1       2.595   6.009  -5.053  1.00  0.00    -0.354 N 
ATOM     46  C   UNL     1      -1.641   5.660  -5.864  1.00  0.00     0.074 A 
ATOM     47  C   UNL     1      -2.104   4.309  -5.633  1.00  0.00     0.031 C 
ATOM     48  C   UNL     1       4.591   5.318  -4.321  1.00  0.00     0.029 A 
ATOM     49  C   UNL     1       3.873   6.472  -4.859  1.00  0.00     0.049 A 
ATOM     50  H   UNL     1       1.857   6.579  -5.369  1.00  0.00     0.167 HD
ATOM     51  C   UNL     1      -2.443   6.681  -6.244  1.00  0.00     0.037 A 
ATOM     52  C   UNL     1       4.398   7.685  -5.116  1.00  0.00     0.037 A 
ATOM     53  C   UNL     1      -1.975   8.006  -6.536  1.00  0.00     0.049 A 
ATOM     54  C   UNL     1       3.513   8.765  -5.685  1.00  0.00     0.074 A 
ATOM     55  C   UNL     1      -2.693   9.095  -6.996  1.00  0.00     0.029 A 
ATOM     56  N   UNL     1      -0.656   8.415  -6.414  1.00  0.00    -0.354 N 
ATOM     57  N   UNL     1       2.223   8.742  -5.918  1.00  0.00    -0.248 NA
ATOM     58  C   UNL     1       4.163  10.036  -6.038  1.00  0.00     0.031 C 
ATOM     59  C   UNL     1      -1.798  10.152  -7.193  1.00  0.00     0.029 A 
ATOM     60  C   UNL     1      -0.533   9.733  -6.814  1.00  0.00     0.049 A 
ATOM     61  H   UNL     1       0.083   7.851  -6.090  1.00  0.00     0.167 HD
ATOM     62  C   UNL     1       1.903   9.998  -6.420  1.00  0.00     0.074 A 
ATOM     63  C   UNL     1       3.132  10.763  -6.449  1.00  0.00     0.031 C 
ATOM     64  C   UNL     1       0.701  10.477  -6.824  1.00  0.00     0.037 A 
BRANCH  51  65
ATOM     65  C   UNL     1      -3.897   6.371  -6.415  1.00  0.00     0.057 A 
ATOM     66  C   UNL     1      -4.748   6.211  -5.314  1.00  0.00     0.134 A 
ATOM     67  C   UNL     1      -4.449   6.220  -7.692  1.00  0.00     0.134 A 
ATOM     68  F   UNL     1      -4.271   6.319  -4.065  1.00  0.00    -0.206 F 
ATOM     69  C   UNL     1      -6.097   5.895  -5.478  1.00  0.00     0.040 A 
ATOM     70  C   UNL     1      -5.800   5.921  -7.869  1.00  0.00     0.040 A 
ATOM     71  F   UNL     1      -3.683   6.353  -8.785  1.00  0.00    -0.206 F 
ATOM     72  C   UNL     1      -6.627   5.753  -6.760  1.00  0.00     0.006 A 
ENDBRANCH  51  65
BRANCH  52  73
ATOM     73  C   UNL     1       5.842   7.944  -4.887  1.00  0.00     0.057 A 
ATOM     74  C   UNL     1       6.274   8.834  -3.898  1.00  0.00     0.134 A 
ATOM     75  C   UNL     1       6.822   7.350  -5.693  1.00  0.00     0.134 A 
ATOM     76  F   UNL     1       5.382   9.457  -3.115  1.00  0.00    -0.206 F 
ATOM     77  C   UNL     1       7.626   9.141  -3.731  1.00  0.00     0.040 A 
ATOM     78  C   UNL     1       8.178   7.630  -5.523  1.00  0.00     0.040 A 
ATOM     79  F   UNL     1       6.472   6.494  -6.665  1.00  0.00    -0.206 F 
ATOM     80  C   UNL     1       8.583   8.536  -4.545  1.00  0.00     0.006 A 
ENDBRANCH  52  73
BRANCH  64  81
ATOM     81  C   UNL     1       0.649  11.897  -7.301  1.00  0.00     0.057 A 
ATOM     82  C   UNL     1       1.145  12.271  -8.556  1.00  0.00     0.134 A 
ATOM     83  C   UNL     1       0.044  12.889  -6.519  1.00  0.00     0.134 A 
ATOM     84  F   UNL     1       1.745  11.368  -9.347  1.00  0.00    -0.206 F 
ATOM     85  C   UNL     1       1.055  13.588  -9.011  1.00  0.00     0.040 A 
ATOM     86  C   UNL     1      -0.072  14.203  -6.972  1.00  0.00     0.040 A 
ATOM     87  F   UNL     1      -0.459  12.592  -5.312  1.00  0.00    -0.206 F 
ATOM     88  C   UNL     1       0.438  14.556  -8.220  1.00  0.00     0.006 A 
ENDBRANCH  64  81
ENDBRANCH  38  39
ENDBRANCH  31  33
ENDBRANCH  30  31
ENDBRANCH  29  30
ENDBRANCH   1  29
TORSDOF 16
