REMARK SMILES O=C(CCCCC(=O)N1CCC(CO)CC1)OCCOC(=O)c1ccc(-c2c3nc(c(-c4c(F)cccc4F)c4ccc([nH]4)c(-c4c(F)cccc4F)c4nc(c(-c5c(F)cccc5F)c5ccc2[nH]5)C=C4)C=C3)cc1
REMARK SMILES IDX 1 1 2 2 3 3 4 4 5 5 6 6 7 7 8 8 9 9 10 10 16 11 11 12 15 13
REMARK SMILES IDX 12 14 13 15 14 16 17 18 18 19 19 20 20 21 21 22 22 23 23 24
REMARK SMILES IDX 24 25 76 26 25 27 75 28 26 29 27 30 28 31 69 32 29 33 74 34
REMARK SMILES IDX 68 35 70 36 30 37 73 38 67 39 66 40 31 42 57 43 40 44 56 45
REMARK SMILES IDX 41 46 44 47 55 48 71 49 42 50 43 51 54 53 72 54 45 55 32 56
REMARK SMILES IDX 33 57 38 58 34 59 35 60 37 61 39 62 36 63 58 64 59 65 64 66
REMARK SMILES IDX 60 67 61 68 63 69 65 70 62 71 46 72 47 73 52 74 48 75 49 76
REMARK SMILES IDX 51 77 53 78 50 79
REMARK H PARENT 14 17 70 41 44 52
REMARK Flexibility Score: inf
ROOT
ATOM      1  O   UNL     1       1.337   0.540   1.608  1.00  0.00    -0.252 OA
ATOM      2  C   UNL     1       2.276   0.163   0.910  1.00  0.00     0.305 C 
ENDROOT
BRANCH   2   3
ATOM      3  C   UNL     1       3.097   1.163   0.127  1.00  0.00     0.123 C 
BRANCH   3   4
ATOM      4  C   UNL     1       4.007   2.044   0.979  1.00  0.00     0.012 C 
BRANCH   4   5
ATOM      5  C   UNL     1       5.534   1.801   0.953  1.00  0.00     0.010 C 
BRANCH   5   6
ATOM      6  C   UNL     1       6.187   1.032  -0.195  1.00  0.00     0.100 C 
BRANCH   6   7
ATOM      7  C   UNL     1       6.895   1.766  -1.324  1.00  0.00     0.222 C 
ATOM      8  O   UNL     1       8.124   1.767  -1.395  1.00  0.00    -0.275 OA
ATOM      9  N   UNL     1       6.093   2.177  -2.374  1.00  0.00    -0.343 N 
ATOM     10  C   UNL     1       6.572   2.008  -3.739  1.00  0.00     0.120 C 
ATOM     11  C   UNL     1       5.031   3.150  -2.201  1.00  0.00     0.120 C 
ATOM     12  C   UNL     1       7.016   3.328  -4.351  1.00  0.00     0.027 C 
ATOM     13  C   UNL     1       5.468   4.507  -2.749  1.00  0.00     0.027 C 
ATOM     14  C   UNL     1       5.919   4.398  -4.213  1.00  0.00     0.018 C 
BRANCH  14  15
ATOM     15  C   UNL     1       6.403   5.755  -4.720  1.00  0.00     0.159 C 
BRANCH  15  16
ATOM     16  O   UNL     1       6.638   5.711  -6.119  1.00  0.00    -0.396 OA
ATOM     17  H   UNL     1       7.322   5.051  -6.312  1.00  0.00     0.210 HD
ENDBRANCH  15  16
ENDBRANCH  14  15
ENDBRANCH   6   7
ENDBRANCH   5   6
ENDBRANCH   4   5
ENDBRANCH   3   4
ENDBRANCH   2   3
BRANCH   2  18
ATOM     18  O   UNL     1       2.531  -1.157   0.761  1.00  0.00    -0.462 OA
BRANCH  18  19
ATOM     19  C   UNL     1       3.830  -1.687   0.447  1.00  0.00     0.274 C 
BRANCH  19  20
ATOM     20  C   UNL     1       3.912  -2.264  -0.971  1.00  0.00     0.275 C 
BRANCH  20  21
ATOM     21  O   UNL     1       3.628  -1.278  -1.982  1.00  0.00    -0.458 OA
BRANCH  21  22
ATOM     22  C   UNL     1       2.336  -1.230  -2.394  1.00  0.00     0.338 C 
ATOM     23  O   UNL     1       1.429  -1.965  -2.043  1.00  0.00    -0.246 OA
BRANCH  22  24
ATOM     24  C   UNL     1       2.123  -0.036  -3.243  1.00  0.00     0.060 A 
ATOM     25  C   UNL     1       0.987   0.747  -3.005  1.00  0.00     0.016 A 
ATOM     26  C   UNL     1       3.002   0.303  -4.274  1.00  0.00     0.016 A 
ATOM     27  C   UNL     1       0.722   1.865  -3.802  1.00  0.00     0.010 A 
ATOM     28  C   UNL     1       2.731   1.420  -5.077  1.00  0.00     0.010 A 
ATOM     29  C   UNL     1       1.583   2.201  -4.855  1.00  0.00    -0.014 A 
BRANCH  29  30
ATOM     30  C   UNL     1       1.246   3.311  -5.784  1.00  0.00     0.031 A 
ATOM     31  C   UNL     1       0.645   2.996  -7.127  1.00  0.00     0.074 A 
ATOM     32  C   UNL     1       1.492   4.593  -5.453  1.00  0.00     0.049 A 
ATOM     33  N   UNL     1       0.348   3.806  -8.111  1.00  0.00    -0.248 NA
ATOM     34  C   UNL     1       0.333   1.583  -7.394  1.00  0.00     0.031 C 
ATOM     35  C   UNL     1       2.038   5.051  -4.177  1.00  0.00     0.029 A 
ATOM     36  N   UNL     1       1.337   5.747  -6.182  1.00  0.00    -0.354 N 
ATOM     37  C   UNL     1      -0.185   3.005  -9.113  1.00  0.00     0.074 A 
ATOM     38  C   UNL     1      -0.148   1.641  -8.629  1.00  0.00     0.031 C 
ATOM     39  C   UNL     1       2.220   6.383  -4.231  1.00  0.00     0.029 A 
ATOM     40  C   UNL     1       1.811   6.870  -5.547  1.00  0.00     0.049 A 
ATOM     41  H   UNL     1       0.924   5.769  -7.076  1.00  0.00     0.167 HD
ATOM     42  C   UNL     1      -0.673   3.374 -10.320  1.00  0.00     0.037 A 
ATOM     43  C   UNL     1       1.929   8.139  -5.985  1.00  0.00     0.037 A 
ATOM     44  C   UNL     1      -0.729   4.728 -10.804  1.00  0.00     0.049 A 
ATOM     45  C   UNL     1       1.470   8.502  -7.369  1.00  0.00     0.074 A 
ATOM     46  C   UNL     1      -1.287   5.197 -11.982  1.00  0.00     0.029 A 
ATOM     47  N   UNL     1      -0.194   5.824 -10.150  1.00  0.00    -0.354 N 
ATOM     48  N   UNL     1       0.908   7.747  -8.279  1.00  0.00    -0.248 NA
ATOM     49  C   UNL     1       1.663   9.901  -7.784  1.00  0.00     0.031 C 
ATOM     50  C   UNL     1      -1.042   6.571 -12.066  1.00  0.00     0.029 A 
ATOM     51  C   UNL     1      -0.368   6.962 -10.921  1.00  0.00     0.049 A 
ATOM     52  H   UNL     1       0.245   5.799  -9.269  1.00  0.00     0.167 HD
ATOM     53  C   UNL     1       0.666   8.579  -9.365  1.00  0.00     0.074 A 
ATOM     54  C   UNL     1       1.131   9.899  -8.998  1.00  0.00     0.031 C 
ATOM     55  C   UNL     1       0.103   8.272 -10.558  1.00  0.00     0.037 A 
BRANCH  42  56
ATOM     56  C   UNL     1      -1.190   2.296 -11.222  1.00  0.00     0.057 A 
ATOM     57  C   UNL     1      -2.437   1.697 -11.012  1.00  0.00     0.134 A 
ATOM     58  C   UNL     1      -0.468   1.916 -12.360  1.00  0.00     0.134 A 
ATOM     59  F   UNL     1      -3.171   2.015  -9.935  1.00  0.00    -0.206 F 
ATOM     60  C   UNL     1      -2.948   0.751 -11.902  1.00  0.00     0.040 A 
ATOM     61  C   UNL     1      -0.975   0.985 -13.266  1.00  0.00     0.040 A 
ATOM     62  F   UNL     1       0.732   2.459 -12.618  1.00  0.00    -0.206 F 
ATOM     63  C   UNL     1      -2.220   0.401 -13.038  1.00  0.00     0.006 A 
ENDBRANCH  42  56
BRANCH  43  64
ATOM     64  C   UNL     1       2.560   9.173  -5.131  1.00  0.00     0.057 A 
ATOM     65  C   UNL     1       1.804  10.166  -4.501  1.00  0.00     0.134 A 
ATOM     66  C   UNL     1       3.950   9.232  -4.994  1.00  0.00     0.134 A 
ATOM     67  F   UNL     1       0.471  10.190  -4.641  1.00  0.00    -0.206 F 
ATOM     68  C   UNL     1       2.413  11.185  -3.765  1.00  0.00     0.040 A 
ATOM     69  C   UNL     1       4.571  10.228  -4.240  1.00  0.00     0.040 A 
ATOM     70  F   UNL     1       4.725   8.339  -5.620  1.00  0.00    -0.206 F 
ATOM     71  C   UNL     1       3.800  11.213  -3.627  1.00  0.00     0.006 A 
ENDBRANCH  43  64
BRANCH  55  72
ATOM     72  C   UNL     1      -0.058   9.382 -11.551  1.00  0.00     0.057 A 
ATOM     73  C   UNL     1       1.033   9.888 -12.269  1.00  0.00     0.134 A 
ATOM     74  C   UNL     1      -1.321   9.922 -11.824  1.00  0.00     0.134 A 
ATOM     75  F   UNL     1       2.271   9.424 -12.042  1.00  0.00    -0.206 F 
ATOM     76  C   UNL     1       0.874  10.901 -13.216  1.00  0.00     0.040 A 
ATOM     77  C   UNL     1      -1.495  10.920 -12.784  1.00  0.00     0.040 A 
ATOM     78  F   UNL     1      -2.406   9.477 -11.174  1.00  0.00    -0.206 F 
ATOM     79  C   UNL     1      -0.395  11.414 -13.481  1.00  0.00     0.006 A 
ENDBRANCH  55  72
ENDBRANCH  29  30
ENDBRANCH  22  24
ENDBRANCH  21  22
ENDBRANCH  20  21
ENDBRANCH  19  20
ENDBRANCH  18  19
ENDBRANCH   2  18
TORSDOF 17
