REMARK SMILES O=C(OCCOC(=O)[C@@H]1CCCN(C(=O)/C=C/c2c(F)cccc2Cl)C1)c1ccc(-c2c3nc(c(-c4c(F)cccc4F)c4ccc([nH]4)c(-c4c(F)cccc4F)c4nc(c(-c5c(F)cccc5F)c5ccc2[nH]5)C=C4)C=C3)cc1
REMARK SMILES IDX 5 1 4 2 3 3 2 4 1 5 27 6 28 7 80 8 29 9 79 10 30 11 31 12
REMARK SMILES IDX 32 13 73 14 33 15 78 16 72 17 74 18 34 19 77 20 71 21 70 22
REMARK SMILES IDX 35 24 61 25 44 26 60 27 45 28 48 29 59 30 75 31 46 32 47 33
REMARK SMILES IDX 58 35 76 36 49 37 36 38 37 39 42 40 38 41 39 42 41 43 43 44
REMARK SMILES IDX 40 45 62 46 63 47 68 48 64 49 65 50 67 51 69 52 66 53 50 54
REMARK SMILES IDX 51 55 56 56 52 57 53 58 55 59 57 60 54 61 6 62 7 63 8 64
REMARK SMILES IDX 9 65 10 66 26 67 11 68 13 69 12 70 14 71 15 72 16 73 17 74
REMARK SMILES IDX 18 75 19 76 24 77 20 78 21 79 23 80 25 81 22 82
REMARK H PARENT 74 23 48 34
REMARK Flexibility Score: inf
ROOT
ATOM      1  C   UNL     1       4.142  -1.136   1.696  1.00  0.00     0.274 C 
ENDROOT
BRANCH   1   2
ATOM      2  C   UNL     1       4.425   0.352   1.485  1.00  0.00     0.275 C 
BRANCH   2   3
ATOM      3  O   UNL     1       3.382   1.049   0.774  1.00  0.00    -0.458 OA
BRANCH   3   4
ATOM      4  C   UNL     1       3.163   1.208  -0.553  1.00  0.00     0.338 C 
ATOM      5  O   UNL     1       2.261   1.970  -0.902  1.00  0.00    -0.246 OA
BRANCH   4   6
ATOM      6  C   UNL     1       3.848   0.426  -1.640  1.00  0.00     0.060 A 
ATOM      7  C   UNL     1       5.094  -0.200  -1.562  1.00  0.00     0.016 A 
ATOM      8  C   UNL     1       3.127   0.284  -2.846  1.00  0.00     0.016 A 
ATOM      9  C   UNL     1       5.577  -1.000  -2.609  1.00  0.00     0.010 A 
ATOM     10  C   UNL     1       3.596  -0.522  -3.889  1.00  0.00     0.010 A 
ATOM     11  C   UNL     1       4.832  -1.171  -3.775  1.00  0.00    -0.014 A 
BRANCH  11  12
ATOM     12  C   UNL     1       5.420  -1.855  -4.950  1.00  0.00     0.031 A 
ATOM     13  C   UNL     1       6.013  -0.994  -6.022  1.00  0.00     0.074 A 
ATOM     14  C   UNL     1       5.435  -3.197  -5.070  1.00  0.00     0.049 A 
ATOM     15  N   UNL     1       6.590  -1.347  -7.138  1.00  0.00    -0.248 NA
ATOM     16  C   UNL     1       5.988   0.461  -5.786  1.00  0.00     0.031 C 
ATOM     17  C   UNL     1       5.017  -4.142  -4.045  1.00  0.00     0.029 A 
ATOM     18  N   UNL     1       5.800  -4.004  -6.118  1.00  0.00    -0.354 N 
ATOM     19  C   UNL     1       7.032  -0.167  -7.714  1.00  0.00     0.074 A 
ATOM     20  C   UNL     1       6.601   0.920  -6.864  1.00  0.00     0.031 C 
ATOM     21  C   UNL     1       5.029  -5.389  -4.541  1.00  0.00     0.029 A 
ATOM     22  C   UNL     1       5.515  -5.335  -5.912  1.00  0.00     0.049 A 
ATOM     23  H   UNL     1       6.225  -3.664  -6.939  1.00  0.00     0.167 HD
ATOM     24  C   UNL     1       7.763  -0.012  -8.839  1.00  0.00     0.037 A 
ATOM     25  C   UNL     1       5.646  -6.394  -6.733  1.00  0.00     0.037 A 
ATOM     26  C   UNL     1       8.159  -1.102  -9.686  1.00  0.00     0.049 A 
ATOM     27  C   UNL     1       6.327  -6.179  -8.054  1.00  0.00     0.074 A 
ATOM     28  C   UNL     1       8.911  -1.064 -10.844  1.00  0.00     0.029 A 
ATOM     29  N   UNL     1       7.806  -2.428  -9.474  1.00  0.00    -0.354 N 
ATOM     30  N   UNL     1       6.814  -5.067  -8.553  1.00  0.00    -0.248 NA
ATOM     31  C   UNL     1       6.526  -7.359  -8.904  1.00  0.00     0.031 C 
ATOM     32  C   UNL     1       8.957  -2.360 -11.369  1.00  0.00     0.029 A 
ATOM     33  C   UNL     1       8.280  -3.212 -10.510  1.00  0.00     0.049 A 
ATOM     34  H   UNL     1       7.295  -2.760  -8.701  1.00  0.00     0.167 HD
ATOM     35  C   UNL     1       7.419  -5.420  -9.749  1.00  0.00     0.074 A 
ATOM     36  C   UNL     1       7.237  -6.850  -9.901  1.00  0.00     0.031 C 
ATOM     37  C   UNL     1       8.078  -4.634 -10.635  1.00  0.00     0.037 A 
BRANCH  24  38
ATOM     38  C   UNL     1       8.139   1.388  -9.216  1.00  0.00     0.057 A 
ATOM     39  C   UNL     1       9.092   2.118  -8.493  1.00  0.00     0.134 A 
ATOM     40  C   UNL     1       7.522   2.021 -10.300  1.00  0.00     0.134 A 
ATOM     41  F   UNL     1       9.698   1.577  -7.425  1.00  0.00    -0.206 F 
ATOM     42  C   UNL     1       9.402   3.439  -8.823  1.00  0.00     0.040 A 
ATOM     43  C   UNL     1       7.839   3.332 -10.654  1.00  0.00     0.040 A 
ATOM     44  F   UNL     1       6.593   1.379 -11.024  1.00  0.00    -0.206 F 
ATOM     45  C   UNL     1       8.777   4.047  -9.911  1.00  0.00     0.006 A 
ENDBRANCH  24  38
BRANCH  25  46
ATOM     46  C   UNL     1       5.158  -7.737  -6.320  1.00  0.00     0.057 A 
ATOM     47  C   UNL     1       6.039  -8.788  -6.045  1.00  0.00     0.134 A 
ATOM     48  C   UNL     1       3.786  -8.007  -6.214  1.00  0.00     0.134 A 
ATOM     49  F   UNL     1       7.363  -8.601  -6.141  1.00  0.00    -0.206 F 
ATOM     50  C   UNL     1       5.578 -10.063  -5.706  1.00  0.00     0.040 A 
ATOM     51  C   UNL     1       3.311  -9.271  -5.856  1.00  0.00     0.040 A 
ATOM     52  F   UNL     1       2.885  -7.044  -6.459  1.00  0.00    -0.206 F 
ATOM     53  C   UNL     1       4.209 -10.307  -5.610  1.00  0.00     0.006 A 
ENDBRANCH  25  46
BRANCH  37  54
ATOM     54  C   UNL     1       8.657  -5.307 -11.841  1.00  0.00     0.057 A 
ATOM     55  C   UNL     1       7.845  -5.767 -12.885  1.00  0.00     0.134 A 
ATOM     56  C   UNL     1      10.043  -5.434 -11.989  1.00  0.00     0.134 A 
ATOM     57  F   UNL     1       6.509  -5.686 -12.794  1.00  0.00    -0.206 F 
ATOM     58  C   UNL     1       8.393  -6.343 -14.030  1.00  0.00     0.040 A 
ATOM     59  C   UNL     1      10.604  -5.981 -13.142  1.00  0.00     0.040 A 
ATOM     60  F   UNL     1      10.874  -5.004 -11.027  1.00  0.00    -0.206 F 
ATOM     61  C   UNL     1       9.777  -6.441 -14.165  1.00  0.00     0.006 A 
ENDBRANCH  37  54
ENDBRANCH  11  12
ENDBRANCH   4   6
ENDBRANCH   3   4
ENDBRANCH   2   3
ENDBRANCH   1   2
BRANCH   1  62
ATOM     62  O   UNL     1       3.592  -1.713   0.508  1.00  0.00    -0.462 OA
BRANCH  62  63
ATOM     63  C   UNL     1       2.273  -2.068   0.518  1.00  0.00     0.310 C 
ATOM     64  O   UNL     1       1.546  -2.050   1.497  1.00  0.00    -0.252 OA
BRANCH  63  65
ATOM     65  C   UNL     1       1.818  -2.353  -0.905  1.00  0.00     0.119 C 
ATOM     66  C   UNL     1       0.371  -2.831  -1.042  1.00  0.00     0.019 C 
ATOM     67  C   UNL     1       2.775  -3.313  -1.593  1.00  0.00     0.135 C 
ATOM     68  C   UNL     1       0.191  -4.311  -0.699  1.00  0.00     0.022 C 
ATOM     69  N   UNL     1       2.572  -4.674  -1.121  1.00  0.00    -0.338 N 
ATOM     70  C   UNL     1       1.232  -5.188  -1.393  1.00  0.00     0.120 C 
BRANCH  69  71
ATOM     71  C   UNL     1       3.605  -5.313  -0.461  1.00  0.00     0.246 C 
ATOM     72  O   UNL     1       4.757  -4.881  -0.431  1.00  0.00    -0.270 OA
BRANCH  71  73
ATOM     73  C   UNL     1       3.334  -6.586   0.243  1.00  0.00     0.072 C 
ATOM     74  C   UNL     1       2.344  -6.694   1.140  1.00  0.00     0.018 C 
BRANCH  74  75
ATOM     75  C   UNL     1       2.113  -7.915   1.914  1.00  0.00     0.029 A 
ATOM     76  C   UNL     1       2.598  -7.973   3.225  1.00  0.00     0.131 A 
ATOM     77  C   UNL     1       1.405  -9.021   1.418  1.00  0.00     0.051 A 
ATOM     78  F   UNL     1       3.276  -6.935   3.739  1.00  0.00    -0.206 F 
ATOM     79  C   UNL     1       2.390  -9.090   4.030  1.00  0.00     0.040 A 
ATOM     80  C   UNL     1       1.190 -10.145   2.225  1.00  0.00     0.021 A 
ATOM     81  Cl  UNL     1       0.752  -9.052  -0.183  1.00  0.00    -0.084 Cl
ATOM     82  C   UNL     1       1.682 -10.179   3.530  1.00  0.00     0.005 A 
ENDBRANCH  74  75
ENDBRANCH  71  73
ENDBRANCH  69  71
ENDBRANCH  63  65
ENDBRANCH  62  63
ENDBRANCH   1  62
TORSDOF 14
