REMARK SMILES Cc1ccnc(C(=O)c2[nH]c3cc(Cl)c(F)cc3c2CC(=O)OCCOC(=O)c2ccc(-c3c4nc(c(-c5c(F)cccc5F)c5ccc([nH]5)c(-c5c(F)cccc5F)c5nc(c(-c6c(F)cccc6F)c6ccc3[nH]6)C=C5)C=C4)cc2)c1
REMARK SMILES IDX 24 1 23 2 21 3 22 4 20 5 19 6 9 7 10 8 11 9 18 11 12 12
REMARK SMILES IDX 17 13 13 14 15 15 14 16 16 17 7 18 8 19 6 20 1 21 2 22 3 23
REMARK SMILES IDX 83 24 4 25 5 26 25 27 26 28 27 29 28 30 29 31 30 32 82 33
REMARK SMILES IDX 31 34 81 35 32 36 33 37 34 38 75 39 35 40 80 41 74 42 76 43
REMARK SMILES IDX 36 44 79 45 73 46 72 47 37 49 63 50 46 51 62 52 47 53 50 54
REMARK SMILES IDX 61 55 77 56 48 57 49 58 60 60 78 61 51 62 38 63 39 64 44 65
REMARK SMILES IDX 40 66 41 67 43 68 45 69 42 70 64 71 65 72 70 73 66 74 67 75
REMARK SMILES IDX 69 76 71 77 68 78 52 79 53 80 58 81 54 82 55 83 57 84 59 85
REMARK SMILES IDX 56 86
REMARK H PARENT 10 10 76 48 50 59
REMARK Flexibility Score: inf
ROOT
ATOM      1  C   UNL     1      -2.685  -0.593  -1.659  1.00  0.00     0.274 C 
ENDROOT
BRANCH   1   2
ATOM      2  O   UNL     1      -1.957  -1.773  -1.217  1.00  0.00    -0.462 OA
BRANCH   2   3
ATOM      3  C   UNL     1      -1.461  -2.517  -2.232  1.00  0.00     0.310 C 
ATOM      4  O   UNL     1      -1.634  -2.216  -3.414  1.00  0.00    -0.252 OA
BRANCH   3   5
ATOM      5  C   UNL     1      -0.788  -3.820  -1.912  1.00  0.00     0.161 C 
BRANCH   5   6
ATOM      6  C   UNL     1      -0.328  -4.354  -0.575  1.00  0.00     0.000 A 
ATOM      7  C   UNL     1       0.648  -3.957   0.353  1.00  0.00     0.093 A 
ATOM      8  N   UNL     1       0.862  -5.018   1.207  1.00  0.00    -0.351 N 
ATOM      9  C   UNL     1       0.055  -6.076   0.913  1.00  0.00     0.048 A 
ATOM     10  H   UNL     1       1.519  -5.012   1.941  1.00  0.00     0.167 HD
ATOM     11  C   UNL     1      -0.692  -5.712  -0.200  1.00  0.00     0.007 A 
ATOM     12  C   UNL     1      -0.023  -7.335   1.520  1.00  0.00     0.050 A 
ATOM     13  C   UNL     1      -1.537  -6.690  -0.772  1.00  0.00     0.051 A 
ATOM     14  C   UNL     1      -0.893  -8.268   0.953  1.00  0.00     0.078 A 
ATOM     15  C   UNL     1      -1.627  -7.951  -0.183  1.00  0.00     0.142 A 
ATOM     16  Cl  UNL     1      -1.032  -9.824   1.676  1.00  0.00    -0.081 Cl
ATOM     17  F   UNL     1      -2.438  -8.857  -0.750  1.00  0.00    -0.205 F 
BRANCH   7  18
ATOM     18  C   UNL     1       1.526  -2.806   0.543  1.00  0.00     0.227 C 
ATOM     19  O   UNL     1       2.713  -2.882   0.234  1.00  0.00    -0.285 OA
BRANCH  18  20
ATOM     20  C   UNL     1       1.004  -1.606   1.296  1.00  0.00     0.113 A 
ATOM     21  C   UNL     1      -2.380  -0.191   2.153  1.00  0.00     0.044 C 
ATOM     22  C   UNL     1      -0.899  -0.311   1.970  1.00  0.00    -0.047 A 
ATOM     23  C   UNL     1      -0.075   0.818   1.951  1.00  0.00     0.023 A 
ATOM     24  C   UNL     1      -0.338  -1.551   1.664  1.00  0.00     0.036 A 
ATOM     25  C   UNL     1       1.278   0.652   1.678  1.00  0.00     0.112 A 
ATOM     26  N   UNL     1       1.849  -0.540   1.393  1.00  0.00    -0.253 NA
ENDBRANCH  18  20
ENDBRANCH   7  18
ENDBRANCH   5   6
ENDBRANCH   3   5
ENDBRANCH   2   3
ENDBRANCH   1   2
BRANCH   1  27
ATOM     27  C   UNL     1      -1.874   0.717  -1.614  1.00  0.00     0.275 C 
BRANCH  27  28
ATOM     28  O   UNL     1      -0.756   0.732  -2.510  1.00  0.00    -0.458 OA
BRANCH  28  29
ATOM     29  C   UNL     1       0.339   0.092  -2.036  1.00  0.00     0.338 C 
ATOM     30  O   UNL     1       0.445  -0.346  -0.909  1.00  0.00    -0.246 OA
BRANCH  29  31
ATOM     31  C   UNL     1       1.194  -0.397  -3.119  1.00  0.00     0.060 A 
ATOM     32  C   UNL     1       0.952   0.117  -4.378  1.00  0.00     0.016 A 
ATOM     33  C   UNL     1       1.712  -1.690  -2.932  1.00  0.00     0.016 A 
ATOM     34  C   UNL     1       0.813  -0.800  -5.389  1.00  0.00     0.010 A 
ATOM     35  C   UNL     1       1.620  -2.598  -3.966  1.00  0.00     0.010 A 
ATOM     36  C   UNL     1       1.034  -2.174  -5.145  1.00  0.00    -0.014 A 
BRANCH  36  37
ATOM     37  C   UNL     1       0.970  -3.041  -6.301  1.00  0.00     0.031 A 
ATOM     38  C   UNL     1       2.120  -2.723  -7.162  1.00  0.00     0.074 A 
ATOM     39  C   UNL     1       0.026  -3.914  -6.688  1.00  0.00     0.049 A 
ATOM     40  N   UNL     1       2.085  -1.880  -8.135  1.00  0.00    -0.248 NA
ATOM     41  C   UNL     1       3.462  -3.103  -6.710  1.00  0.00     0.031 C 
ATOM     42  C   UNL     1      -1.073  -4.552  -5.972  1.00  0.00     0.029 A 
ATOM     43  N   UNL     1      -0.106  -4.409  -7.952  1.00  0.00    -0.354 N 
ATOM     44  C   UNL     1       3.397  -1.707  -8.520  1.00  0.00     0.074 A 
ATOM     45  C   UNL     1       4.209  -2.351  -7.519  1.00  0.00     0.031 C 
ATOM     46  C   UNL     1      -1.638  -5.499  -6.768  1.00  0.00     0.029 A 
ATOM     47  C   UNL     1      -1.059  -5.401  -8.100  1.00  0.00     0.049 A 
ATOM     48  H   UNL     1       0.438  -4.083  -8.705  1.00  0.00     0.167 HD
ATOM     49  C   UNL     1       3.671  -1.229  -9.757  1.00  0.00     0.037 A 
ATOM     50  C   UNL     1      -1.332  -6.066  -9.253  1.00  0.00     0.037 A 
ATOM     51  C   UNL     1       2.542  -0.501 -10.295  1.00  0.00     0.049 A 
ATOM     52  C   UNL     1      -0.915  -5.185 -10.376  1.00  0.00     0.074 A 
ATOM     53  C   UNL     1       1.859   0.641  -9.913  1.00  0.00     0.029 A 
ATOM     54  N   UNL     1       1.695  -1.167 -11.149  1.00  0.00    -0.354 N 
ATOM     55  N   UNL     1      -1.533  -4.083 -10.696  1.00  0.00    -0.248 NA
ATOM     56  C   UNL     1       0.454  -5.297 -10.857  1.00  0.00     0.031 C 
ATOM     57  C   UNL     1       0.484   0.367 -10.181  1.00  0.00     0.029 A 
ATOM     58  C   UNL     1       0.407  -0.902 -10.755  1.00  0.00     0.049 A 
ATOM     59  H   UNL     1       1.964  -1.733 -11.909  1.00  0.00     0.167 HD
ATOM     60  C   UNL     1      -0.520  -3.194 -11.023  1.00  0.00     0.074 A 
ATOM     61  C   UNL     1       0.676  -4.019 -11.179  1.00  0.00     0.031 C 
ATOM     62  C   UNL     1      -0.682  -1.847 -10.871  1.00  0.00     0.037 A 
BRANCH  49  63
ATOM     63  C   UNL     1       4.769  -1.814 -10.598  1.00  0.00     0.057 A 
ATOM     64  C   UNL     1       5.002  -1.273 -11.871  1.00  0.00     0.134 A 
ATOM     65  C   UNL     1       5.396  -3.054 -10.345  1.00  0.00     0.134 A 
ATOM     66  F   UNL     1       4.457  -0.103 -12.233  1.00  0.00    -0.206 F 
ATOM     67  C   UNL     1       5.727  -1.961 -12.849  1.00  0.00     0.040 A 
ATOM     68  C   UNL     1       6.160  -3.725 -11.298  1.00  0.00     0.040 A 
ATOM     69  F   UNL     1       5.227  -3.742  -9.211  1.00  0.00    -0.206 F 
ATOM     70  C   UNL     1       6.298  -3.196 -12.568  1.00  0.00     0.006 A 
ENDBRANCH  49  63
BRANCH  50  71
ATOM     71  C   UNL     1      -1.550  -7.517  -9.461  1.00  0.00     0.057 A 
ATOM     72  C   UNL     1      -1.978  -8.006 -10.707  1.00  0.00     0.134 A 
ATOM     73  C   UNL     1      -1.032  -8.470  -8.570  1.00  0.00     0.134 A 
ATOM     74  F   UNL     1      -2.455  -7.169 -11.640  1.00  0.00    -0.206 F 
ATOM     75  C   UNL     1      -1.852  -9.355 -11.064  1.00  0.00     0.040 A 
ATOM     76  C   UNL     1      -0.902  -9.821  -8.914  1.00  0.00     0.040 A 
ATOM     77  F   UNL     1      -0.543  -8.106  -7.376  1.00  0.00    -0.206 F 
ATOM     78  C   UNL     1      -1.295 -10.265 -10.171  1.00  0.00     0.006 A 
ENDBRANCH  50  71
BRANCH  62  79
ATOM     79  C   UNL     1      -2.067  -1.336 -10.576  1.00  0.00     0.057 A 
ATOM     80  C   UNL     1      -2.796  -1.646  -9.417  1.00  0.00     0.134 A 
ATOM     81  C   UNL     1      -2.623  -0.379 -11.433  1.00  0.00     0.134 A 
ATOM     82  F   UNL     1      -2.310  -2.489  -8.495  1.00  0.00    -0.206 F 
ATOM     83  C   UNL     1      -4.033  -1.051  -9.142  1.00  0.00     0.040 A 
ATOM     84  C   UNL     1      -3.842   0.245 -11.154  1.00  0.00     0.040 A 
ATOM     85  F   UNL     1      -1.966   0.001 -12.540  1.00  0.00    -0.206 F 
ATOM     86  C   UNL     1      -4.555  -0.095 -10.008  1.00  0.00     0.006 A 
ENDBRANCH  62  79
ENDBRANCH  36  37
ENDBRANCH  29  31
ENDBRANCH  28  29
ENDBRANCH  27  28
ENDBRANCH   1  27
TORSDOF 14
