REMARK SMILES Cc1cc(OC(F)(F)F)cc2c1O[C@@H](C(F)(F)F)C(C(=O)OCCOC(=O)c1ccc(-c3c4nc(c(-c5c(F)cccc5F)c5ccc([nH]5)c(-c5c(F)cccc5F)c5nc(c(-c6c(F)cccc6F)c6ccc3[nH]6)C=C5)C=C4)cc1)=C2
REMARK SMILES IDX 23 1 22 2 20 3 21 4 19 5 1 6 2 7 3 8 12 9 4 10 11 11 13 12
REMARK SMILES IDX 10 13 82 14 14 15 5 16 6 17 7 18 8 19 9 20 15 21 16 22 17 23
REMARK SMILES IDX 18 24 24 25 25 26 26 27 27 28 28 29 29 30 81 31 30 32 80 33
REMARK SMILES IDX 31 34 32 35 33 36 74 37 34 38 79 39 73 40 75 41 35 42 78 43
REMARK SMILES IDX 72 44 71 45 36 47 62 48 45 49 61 50 46 51 49 52 60 53 76 54
REMARK SMILES IDX 47 55 48 56 59 58 77 59 50 60 37 61 38 62 43 63 39 64 40 65
REMARK SMILES IDX 42 66 44 67 41 68 63 69 64 70 69 71 65 72 66 73 68 74 70 75
REMARK SMILES IDX 67 76 51 77 52 78 57 79 53 80 54 81 56 82 58 83 55 84
REMARK H PARENT 75 46 49 57
REMARK Flexibility Score: inf
ROOT
ATOM      1  C   UNL     1      -5.936   1.516   4.490  1.00  0.00     0.275 C 
ENDROOT
BRANCH   1   2
ATOM      2  O   UNL     1      -4.716   1.215   3.781  1.00  0.00    -0.459 OA
BRANCH   2   3
ATOM      3  C   UNL     1      -4.434   2.002   2.721  1.00  0.00     0.338 C 
ATOM      4  O   UNL     1      -5.174   2.837   2.233  1.00  0.00    -0.246 OA
BRANCH   3   5
ATOM      5  C   UNL     1      -3.047   1.780   2.265  1.00  0.00     0.087 C 
ATOM      6  C   UNL     1       1.116  -0.270   0.068  1.00  0.00     0.048 C 
ATOM      7  C   UNL     1       0.626   1.115   0.380  1.00  0.00    -0.005 A 
ATOM      8  C   UNL     1       1.408   2.229   0.010  1.00  0.00     0.054 A 
ATOM      9  C   UNL     1      -0.625   1.325   0.975  1.00  0.00     0.131 A 
ATOM     10  C   UNL     1       0.957   3.531   0.240  1.00  0.00     0.130 A 
ATOM     11  C   UNL     1      -1.085   2.626   1.187  1.00  0.00     0.021 A 
ATOM     12  O   UNL     1      -1.402   0.231   1.273  1.00  0.00    -0.475 OA
ATOM     13  C   UNL     1      -0.290   3.721   0.836  1.00  0.00     0.058 A 
ATOM     14  C   UNL     1      -2.427   2.826   1.702  1.00  0.00     0.027 C 
ATOM     15  C   UNL     1      -2.408   0.417   2.321  1.00  0.00     0.316 C 
BRANCH  10  16
ATOM     16  O   UNL     1       1.612   4.689  -0.066  1.00  0.00    -0.406 OA
BRANCH  16  17
ATOM     17  C   UNL     1       2.780   4.602  -0.863  1.00  0.00     0.573 C 
ATOM     18  F   UNL     1       3.764   3.948  -0.210  1.00  0.00    -0.132 F 
ATOM     19  F   UNL     1       2.525   3.978  -2.033  1.00  0.00    -0.132 F 
ATOM     20  F   UNL     1       3.214   5.851  -1.139  1.00  0.00    -0.132 F 
ENDBRANCH  16  17
ENDBRANCH  10  16
BRANCH  15  21
ATOM     21  C   UNL     1      -1.806   0.018   3.680  1.00  0.00     0.430 C 
ATOM     22  F   UNL     1      -2.727  -0.036   4.667  1.00  0.00    -0.167 F 
ATOM     23  F   UNL     1      -1.262  -1.226   3.607  1.00  0.00    -0.167 F 
ATOM     24  F   UNL     1      -0.826   0.859   4.080  1.00  0.00    -0.167 F 
ENDBRANCH  15  21
ENDBRANCH   3   5
ENDBRANCH   2   3
ENDBRANCH   1   2
BRANCH   1  25
ATOM     25  C   UNL     1      -5.632   2.332   5.747  1.00  0.00     0.275 C 
BRANCH  25  26
ATOM     26  O   UNL     1      -5.184   3.651   5.377  1.00  0.00    -0.458 OA
BRANCH  26  27
ATOM     27  C   UNL     1      -3.898   3.939   5.665  1.00  0.00     0.338 C 
ATOM     28  O   UNL     1      -3.081   3.224   6.229  1.00  0.00    -0.246 OA
BRANCH  27  29
ATOM     29  C   UNL     1      -3.556   5.279   5.165  1.00  0.00     0.060 A 
ATOM     30  C   UNL     1      -3.606   5.535   3.796  1.00  0.00     0.016 A 
ATOM     31  C   UNL     1      -3.032   6.231   6.038  1.00  0.00     0.016 A 
ATOM     32  C   UNL     1      -3.018   6.688   3.280  1.00  0.00     0.010 A 
ATOM     33  C   UNL     1      -2.539   7.436   5.527  1.00  0.00     0.010 A 
ATOM     34  C   UNL     1      -2.475   7.654   4.139  1.00  0.00    -0.014 A 
BRANCH  34  35
ATOM     35  C   UNL     1      -1.776   8.850   3.592  1.00  0.00     0.031 A 
ATOM     36  C   UNL     1      -0.321   9.082   3.916  1.00  0.00     0.074 A 
ATOM     37  C   UNL     1      -2.420   9.720   2.790  1.00  0.00     0.049 A 
ATOM     38  N   UNL     1       0.424  10.136   3.689  1.00  0.00    -0.248 NA
ATOM     39  C   UNL     1       0.387   7.984   4.593  1.00  0.00     0.031 C 
ATOM     40  C   UNL     1      -3.806   9.594   2.338  1.00  0.00     0.029 A 
ATOM     41  N   UNL     1      -1.986  10.885   2.206  1.00  0.00    -0.354 N 
ATOM     42  C   UNL     1       1.668   9.846   4.236  1.00  0.00     0.074 A 
ATOM     43  C   UNL     1       1.576   8.524   4.817  1.00  0.00     0.031 C 
ATOM     44  C   UNL     1      -4.098  10.620   1.523  1.00  0.00     0.029 A 
ATOM     45  C   UNL     1      -2.950  11.518   1.460  1.00  0.00     0.049 A 
ATOM     46  H   UNL     1      -1.071  11.233   2.312  1.00  0.00     0.167 HD
ATOM     47  C   UNL     1       2.788  10.610   4.251  1.00  0.00     0.037 A 
ATOM     48  C   UNL     1      -2.930  12.708   0.831  1.00  0.00     0.037 A 
ATOM     49  C   UNL     1       2.896  11.907   3.636  1.00  0.00     0.049 A 
ATOM     50  C   UNL     1      -1.700  13.566   0.917  1.00  0.00     0.074 A 
ATOM     51  C   UNL     1       3.986  12.760   3.600  1.00  0.00     0.029 A 
ATOM     52  N   UNL     1       1.877  12.531   2.933  1.00  0.00    -0.354 N 
ATOM     53  N   UNL     1      -0.551  13.311   1.496  1.00  0.00    -0.248 NA
ATOM     54  C   UNL     1      -1.774  14.890   0.283  1.00  0.00     0.031 C 
ATOM     55  C   UNL     1       3.616  13.915   2.900  1.00  0.00     0.029 A 
ATOM     56  C   UNL     1       2.308  13.763   2.469  1.00  0.00     0.049 A 
ATOM     57  H   UNL     1       0.980  12.154   2.785  1.00  0.00     0.167 HD
ATOM     58  C   UNL     1       0.238  14.433   1.282  1.00  0.00     0.074 A 
ATOM     59  C   UNL     1      -0.556  15.364   0.506  1.00  0.00     0.031 C 
ATOM     60  C   UNL     1       1.506  14.674   1.694  1.00  0.00     0.037 A 
BRANCH  47  61
ATOM     61  C   UNL     1       3.979  10.068   4.988  1.00  0.00     0.057 A 
ATOM     62  C   UNL     1       4.364  10.619   6.217  1.00  0.00     0.134 A 
ATOM     63  C   UNL     1       4.749   9.012   4.484  1.00  0.00     0.134 A 
ATOM     64  F   UNL     1       3.673  11.636   6.754  1.00  0.00    -0.206 F 
ATOM     65  C   UNL     1       5.468  10.136   6.921  1.00  0.00     0.040 A 
ATOM     66  C   UNL     1       5.842   8.505   5.190  1.00  0.00     0.040 A 
ATOM     67  F   UNL     1       4.424   8.430   3.320  1.00  0.00    -0.206 F 
ATOM     68  C   UNL     1       6.206   9.070   6.411  1.00  0.00     0.006 A 
ENDBRANCH  47  61
BRANCH  48  69
ATOM     69  C   UNL     1      -4.129  13.183   0.096  1.00  0.00     0.057 A 
ATOM     70  C   UNL     1      -5.298  13.558   0.768  1.00  0.00     0.134 A 
ATOM     71  C   UNL     1      -4.123  13.292  -1.299  1.00  0.00     0.134 A 
ATOM     72  F   UNL     1      -5.366  13.478   2.105  1.00  0.00    -0.206 F 
ATOM     73  C   UNL     1      -6.424  14.010   0.080  1.00  0.00     0.040 A 
ATOM     74  C   UNL     1      -5.233  13.767  -1.999  1.00  0.00     0.040 A 
ATOM     75  F   UNL     1      -3.022  12.973  -1.996  1.00  0.00    -0.206 F 
ATOM     76  C   UNL     1      -6.391  14.123  -1.309  1.00  0.00     0.006 A 
ENDBRANCH  48  69
BRANCH  60  77
ATOM     77  C   UNL     1       2.117  15.980   1.283  1.00  0.00     0.057 A 
ATOM     78  C   UNL     1       3.094  16.025   0.281  1.00  0.00     0.134 A 
ATOM     79  C   UNL     1       1.748  17.189   1.885  1.00  0.00     0.134 A 
ATOM     80  F   UNL     1       3.494  14.901  -0.332  1.00  0.00    -0.206 F 
ATOM     81  C   UNL     1       3.682  17.229  -0.108  1.00  0.00     0.040 A 
ATOM     82  C   UNL     1       2.313  18.402   1.489  1.00  0.00     0.040 A 
ATOM     83  F   UNL     1       0.804  17.213   2.839  1.00  0.00    -0.206 F 
ATOM     84  C   UNL     1       3.287  18.423   0.492  1.00  0.00     0.006 A 
ENDBRANCH  60  77
ENDBRANCH  34  35
ENDBRANCH  27  29
ENDBRANCH  26  27
ENDBRANCH  25  26
ENDBRANCH   1  25
TORSDOF 14
