REMARK SMILES Cc1ccc(NC(=O)C[C@@H](C(=O)OCCOC(=O)c2ccc(-c3c4nc(c(-c5c(F)cccc5F)c5ccc([nH]5)c(-c5c(F)cccc5F)c5nc(c(-c6c(F)cccc6F)c6ccc3[nH]6)C=C5)C=C4)cc2)[C@@H](C)c2ccccc2)cc1Br
REMARK SMILES IDX 14 1 13 2 11 3 12 4 10 5 9 6 7 7 6 8 8 10 5 11 1 12 2 13
REMARK SMILES IDX 3 14 82 15 4 16 81 17 83 18 73 19 74 20 75 21 76 22 80 23
REMARK SMILES IDX 77 24 79 25 78 26 15 27 16 28 17 29 18 30 19 31 20 32 72 33
REMARK SMILES IDX 21 34 71 35 22 36 23 37 24 38 65 39 25 40 70 41 64 42 66 43
REMARK SMILES IDX 26 44 69 45 63 46 62 47 27 49 53 50 36 51 52 52 37 53 40 54
REMARK SMILES IDX 51 55 67 56 38 57 39 58 50 60 68 61 41 62 28 63 29 64 34 65
REMARK SMILES IDX 30 66 31 67 33 68 35 69 32 70 54 71 55 72 60 73 56 74 57 75
REMARK SMILES IDX 59 76 61 77 58 78 42 79 43 80 48 81 44 82 45 83 47 84 49 85
REMARK SMILES IDX 46 86
REMARK H PARENT 6 9 66 48 40 59
REMARK Flexibility Score: inf
ROOT
ATOM      1  C   UNL     1       2.328   0.149  -1.166  1.00  0.00     0.274 C 
ENDROOT
BRANCH   1   2
ATOM      2  O   UNL     1       2.308   1.701  -1.837  1.00  0.00    -0.462 OA
BRANCH   2   3
ATOM      3  C   UNL     1       1.415   2.229  -2.705  1.00  0.00     0.310 C 
ATOM      4  O   UNL     1       1.244   1.729  -3.808  1.00  0.00    -0.252 OA
BRANCH   3   5
ATOM      5  C   UNL     1       0.695   3.541  -2.202  1.00  0.00     0.116 C 
BRANCH   5   6
ATOM      6  C   UNL     1       1.104   4.121  -0.812  1.00  0.00     0.116 C 
BRANCH   6   7
ATOM      7  C   UNL     1       2.502   4.018  -0.275  1.00  0.00     0.225 C 
ATOM      8  N   UNL     1       2.925   2.911   0.390  1.00  0.00    -0.326 N 
ATOM      9  H   UNL     1       3.689   3.051   0.996  1.00  0.00     0.169 HD
ATOM     10  O   UNL     1       3.280   4.969  -0.385  1.00  0.00    -0.275 OA
BRANCH   8  11
ATOM     11  C   UNL     1       2.434   1.597   0.340  1.00  0.00     0.042 A 
ATOM     12  C   UNL     1       1.478  -3.312  -0.621  1.00  0.00     0.045 C 
ATOM     13  C   UNL     1       1.801  -1.846  -0.571  1.00  0.00    -0.037 A 
ATOM     14  C   UNL     1       3.433  -1.333  -0.049  1.00  0.00     0.007 A 
ATOM     15  C   UNL     1       0.464  -0.663  -0.674  1.00  0.00     0.022 A 
ATOM     16  C   UNL     1       3.750   0.368   0.408  1.00  0.00     0.026 A 
ATOM     17  C   UNL     1       0.775   1.069  -0.214  1.00  0.00     0.042 A 
ATOM     18  Br  UNL     1      -1.237  -1.329  -1.185  1.00  0.00    -0.050 Br
ENDBRANCH   8  11
ENDBRANCH   6   7
ENDBRANCH   5   6
BRANCH   5  19
ATOM     19  C   UNL     1      -0.907   3.507  -2.202  1.00  0.00     0.031 C 
ATOM     20  C   UNL     1      -1.529   4.898  -1.915  1.00  0.00     0.013 C 
BRANCH  19  21
ATOM     21  C   UNL     1      -1.636   2.780  -3.324  1.00  0.00    -0.044 A 
ATOM     22  C   UNL     1      -2.518   3.387  -4.224  1.00  0.00     0.004 A 
ATOM     23  C   UNL     1      -1.528   1.386  -3.388  1.00  0.00     0.004 A 
ATOM     24  C   UNL     1      -3.244   2.619  -5.146  1.00  0.00     0.000 A 
ATOM     25  C   UNL     1      -2.225   0.616  -4.314  1.00  0.00     0.000 A 
ATOM     26  C   UNL     1      -3.093   1.236  -5.194  1.00  0.00     0.000 A 
ENDBRANCH  19  21
ENDBRANCH   5  19
ENDBRANCH   3   5
ENDBRANCH   2   3
ENDBRANCH   1   2
BRANCH   1  27
ATOM     27  C   UNL     1       1.806  -0.305   0.917  1.00  0.00     0.275 C 
BRANCH  27  28
ATOM     28  O   UNL     1       0.317  -0.434   1.557  1.00  0.00    -0.458 OA
BRANCH  28  29
ATOM     29  C   UNL     1      -0.312   0.573   2.223  1.00  0.00     0.338 C 
ATOM     30  O   UNL     1       0.201   1.561   2.717  1.00  0.00    -0.246 OA
BRANCH  29  31
ATOM     31  C   UNL     1      -1.747   0.477   1.832  1.00  0.00     0.060 A 
ATOM     32  C   UNL     1      -2.307   1.546   1.110  1.00  0.00     0.016 A 
ATOM     33  C   UNL     1      -2.472  -0.705   1.999  1.00  0.00     0.016 A 
ATOM     34  C   UNL     1      -3.561   1.423   0.508  1.00  0.00     0.010 A 
ATOM     35  C   UNL     1      -3.751  -0.812   1.438  1.00  0.00     0.010 A 
ATOM     36  C   UNL     1      -4.307   0.255   0.702  1.00  0.00    -0.014 A 
BRANCH  36  37
ATOM     37  C   UNL     1      -5.772   0.288   0.462  1.00  0.00     0.031 A 
ATOM     38  C   UNL     1      -6.624   0.621   1.657  1.00  0.00     0.074 A 
ATOM     39  C   UNL     1      -6.339   0.079  -0.740  1.00  0.00     0.049 A 
ATOM     40  N   UNL     1      -7.921   0.596   1.800  1.00  0.00    -0.248 NA
ATOM     41  C   UNL     1      -5.892   1.031   2.869  1.00  0.00     0.031 C 
ATOM     42  C   UNL     1      -5.628  -0.150  -1.996  1.00  0.00     0.029 A 
ATOM     43  N   UNL     1      -7.667   0.024  -1.093  1.00  0.00    -0.354 N 
ATOM     44  C   UNL     1      -8.153   0.953   3.123  1.00  0.00     0.074 A 
ATOM     45  C   UNL     1      -6.869   1.163   3.747  1.00  0.00     0.031 C 
ATOM     46  C   UNL     1      -6.529  -0.333  -2.981  1.00  0.00     0.029 A 
ATOM     47  C   UNL     1      -7.878  -0.278  -2.418  1.00  0.00     0.049 A 
ATOM     48  H   UNL     1      -8.400   0.186  -0.456  1.00  0.00     0.167 HD
ATOM     49  C   UNL     1      -9.334   1.097   3.764  1.00  0.00     0.037 A 
ATOM     50  C   UNL     1      -9.031  -0.508  -3.080  1.00  0.00     0.037 A 
ATOM     51  C   UNL     1     -10.608   0.898   3.135  1.00  0.00     0.049 A 
ATOM     52  C   UNL     1     -10.338  -0.432  -2.323  1.00  0.00     0.074 A 
ATOM     53  C   UNL     1     -11.869   1.004   3.688  1.00  0.00     0.029 A 
ATOM     54  N   UNL     1     -10.776   0.549   1.803  1.00  0.00    -0.354 N 
ATOM     55  N   UNL     1     -10.554  -0.120  -1.067  1.00  0.00    -0.248 NA
ATOM     56  C   UNL     1     -11.563  -0.747  -3.076  1.00  0.00     0.031 C 
ATOM     57  C   UNL     1     -12.801   0.665   2.703  1.00  0.00     0.029 A 
ATOM     58  C   UNL     1     -12.122   0.412   1.520  1.00  0.00     0.049 A 
ATOM     59  H   UNL     1     -10.046   0.418   1.155  1.00  0.00     0.167 HD
ATOM     60  C   UNL     1     -11.933  -0.166  -0.889  1.00  0.00     0.074 A 
ATOM     61  C   UNL     1     -12.505  -0.527  -2.169  1.00  0.00     0.031 C 
ATOM     62  C   UNL     1     -12.665   0.070   0.230  1.00  0.00     0.037 A 
BRANCH  49  63
ATOM     63  C   UNL     1      -9.277   1.428   5.226  1.00  0.00     0.057 A 
ATOM     64  C   UNL     1      -8.831   2.671   5.697  1.00  0.00     0.134 A 
ATOM     65  C   UNL     1      -9.639   0.469   6.180  1.00  0.00     0.134 A 
ATOM     66  F   UNL     1      -8.437   3.623   4.836  1.00  0.00    -0.206 F 
ATOM     67  C   UNL     1      -8.711   2.933   7.062  1.00  0.00     0.040 A 
ATOM     68  C   UNL     1      -9.556   0.732   7.548  1.00  0.00     0.040 A 
ATOM     69  F   UNL     1     -10.069  -0.744   5.799  1.00  0.00    -0.206 F 
ATOM     70  C   UNL     1      -9.080   1.963   7.992  1.00  0.00     0.006 A 
ENDBRANCH  49  63
BRANCH  50  71
ATOM     71  C   UNL     1      -9.023  -0.864  -4.527  1.00  0.00     0.057 A 
ATOM     72  C   UNL     1      -9.595  -0.022  -5.490  1.00  0.00     0.134 A 
ATOM     73  C   UNL     1      -8.494  -2.080  -4.979  1.00  0.00     0.134 A 
ATOM     74  F   UNL     1     -10.150   1.142  -5.123  1.00  0.00    -0.206 F 
ATOM     75  C   UNL     1      -9.658  -0.381  -6.839  1.00  0.00     0.040 A 
ATOM     76  C   UNL     1      -8.525  -2.440  -6.329  1.00  0.00     0.040 A 
ATOM     77  F   UNL     1      -7.942  -2.943  -4.114  1.00  0.00    -0.206 F 
ATOM     78  C   UNL     1      -9.117  -1.593  -7.263  1.00  0.00     0.006 A 
ENDBRANCH  50  71
BRANCH  62  79
ATOM     79  C   UNL     1     -14.160  -0.000   0.112  1.00  0.00     0.057 A 
ATOM     80  C   UNL     1     -14.839  -1.214  -0.046  1.00  0.00     0.134 A 
ATOM     81  C   UNL     1     -14.933   1.163   0.230  1.00  0.00     0.134 A 
ATOM     82  F   UNL     1     -14.158  -2.364  -0.172  1.00  0.00    -0.206 F 
ATOM     83  C   UNL     1     -16.233  -1.267  -0.105  1.00  0.00     0.040 A 
ATOM     84  C   UNL     1     -16.327   1.119   0.204  1.00  0.00     0.040 A 
ATOM     85  F   UNL     1     -14.346   2.357   0.399  1.00  0.00    -0.206 F 
ATOM     86  C   UNL     1     -16.981  -0.098   0.030  1.00  0.00     0.006 A 
ENDBRANCH  62  79
ENDBRANCH  36  37
ENDBRANCH  29  31
ENDBRANCH  28  29
ENDBRANCH  27  28
ENDBRANCH   1  27
TORSDOF 16
