REMARK SMILES O=C(OCCOC(=O)c1cncc(Nc2cccnc2)n1)c1ccc(-c2c3nc(c(-c4c(F)cccc4F)c4ccc([nH]4)c(-c4c(F)cccc4F)c4nc(c(-c5c(F)cccc5F)c5ccc2[nH]5)C=C4)C=C3)cc1
REMARK SMILES IDX 4 1 3 2 2 3 1 4 22 5 23 6 75 7 24 8 74 9 25 10 26 11 27 12
REMARK SMILES IDX 68 13 28 14 73 15 67 16 69 17 29 18 72 19 66 20 65 21 30 23
REMARK SMILES IDX 56 24 39 25 55 26 40 27 43 28 54 29 70 30 41 31 42 32 53 34
REMARK SMILES IDX 71 35 44 36 31 37 32 38 37 39 33 40 34 41 36 42 38 43 35 44
REMARK SMILES IDX 57 45 58 46 63 47 59 48 60 49 62 50 64 51 61 52 45 53 46 54
REMARK SMILES IDX 51 55 47 56 48 57 50 58 52 59 49 60 5 61 6 62 7 63 8 64 9 65
REMARK SMILES IDX 10 66 21 67 11 68 13 69 12 70 14 71 15 73 16 74 20 75 17 76
REMARK SMILES IDX 19 77 18 78
REMARK H PARENT 69 22 43 33 14 72
REMARK Flexibility Score: inf
ROOT
ATOM      1  C   UNL     1       4.215  -1.208   0.886  1.00  0.00     0.275 C 
ENDROOT
BRANCH   1   2
ATOM      2  O   UNL     1       3.135  -0.301   1.158  1.00  0.00    -0.458 OA
BRANCH   2   3
ATOM      3  C   UNL     1       2.917   0.955   0.707  1.00  0.00     0.338 C 
ATOM      4  O   UNL     1       2.095   1.659   1.293  1.00  0.00    -0.246 OA
BRANCH   3   5
ATOM      5  C   UNL     1       3.533   1.515  -0.540  1.00  0.00     0.060 A 
ATOM      6  C   UNL     1       4.781   1.180  -1.075  1.00  0.00     0.016 A 
ATOM      7  C   UNL     1       2.780   2.499  -1.207  1.00  0.00     0.016 A 
ATOM      8  C   UNL     1       5.249   1.767  -2.255  1.00  0.00     0.010 A 
ATOM      9  C   UNL     1       3.243   3.097  -2.381  1.00  0.00     0.010 A 
ATOM     10  C   UNL     1       4.490   2.738  -2.904  1.00  0.00    -0.014 A 
BRANCH  10  11
ATOM     11  C   UNL     1       5.071   3.523  -4.011  1.00  0.00     0.031 A 
ATOM     12  C   UNL     1       5.607   4.883  -3.696  1.00  0.00     0.074 A 
ATOM     13  C   UNL     1       5.105   3.043  -5.264  1.00  0.00     0.049 A 
ATOM     14  N   UNL     1       6.085   5.790  -4.502  1.00  0.00    -0.248 NA
ATOM     15  C   UNL     1       5.623   5.261  -2.273  1.00  0.00     0.031 C 
ATOM     16  C   UNL     1       4.701   1.700  -5.658  1.00  0.00     0.029 A 
ATOM     17  N   UNL     1       5.453   3.647  -6.445  1.00  0.00    -0.354 N 
ATOM     18  C   UNL     1       6.479   6.838  -3.684  1.00  0.00     0.074 A 
ATOM     19  C   UNL     1       6.131   6.481  -2.327  1.00  0.00     0.031 C 
ATOM     20  C   UNL     1       4.716   1.609  -6.997  1.00  0.00     0.029 A 
ATOM     21  C   UNL     1       5.144   2.889  -7.549  1.00  0.00     0.049 A 
ATOM     22  H   UNL     1       5.881   4.532  -6.496  1.00  0.00     0.167 HD
ATOM     23  C   UNL     1       7.096   7.988  -4.037  1.00  0.00     0.037 A 
ATOM     24  C   UNL     1       5.173   3.212  -8.855  1.00  0.00     0.037 A 
ATOM     25  C   UNL     1       7.389   8.341  -5.399  1.00  0.00     0.049 A 
ATOM     26  C   UNL     1       5.722   4.555  -9.246  1.00  0.00     0.074 A 
ATOM     27  C   UNL     1       8.010   9.475  -5.885  1.00  0.00     0.029 A 
ATOM     28  N   UNL     1       7.047   7.563  -6.498  1.00  0.00    -0.354 N 
ATOM     29  N   UNL     1       6.145   5.524  -8.469  1.00  0.00    -0.248 NA
ATOM     30  C   UNL     1       5.835   4.841 -10.681  1.00  0.00     0.031 C 
ATOM     31  C   UNL     1       7.992   9.409  -7.283  1.00  0.00     0.029 A 
ATOM     32  C   UNL     1       7.413   8.207  -7.665  1.00  0.00     0.049 A 
ATOM     33  H   UNL     1       6.608   6.683  -6.452  1.00  0.00     0.167 HD
ATOM     34  C   UNL     1       6.626   6.513  -9.316  1.00  0.00     0.074 A 
ATOM     35  C   UNL     1       6.420   6.033 -10.669  1.00  0.00     0.031 C 
ATOM     36  C   UNL     1       7.207   7.696  -9.000  1.00  0.00     0.037 A 
BRANCH  23  37
ATOM     37  C   UNL     1       7.434   8.934  -2.925  1.00  0.00     0.057 A 
ATOM     38  C   UNL     1       8.414   8.630  -1.968  1.00  0.00     0.134 A 
ATOM     39  C   UNL     1       6.720  10.126  -2.762  1.00  0.00     0.134 A 
ATOM     40  F   UNL     1       9.117   7.490  -2.052  1.00  0.00    -0.206 F 
ATOM     41  C   UNL     1       8.636   9.454  -0.864  1.00  0.00     0.040 A 
ATOM     42  C   UNL     1       6.952  10.972  -1.677  1.00  0.00     0.040 A 
ATOM     43  F   UNL     1       5.767  10.475  -3.639  1.00  0.00    -0.206 F 
ATOM     44  C   UNL     1       7.902  10.629  -0.716  1.00  0.00     0.006 A 
ENDBRANCH  23  37
BRANCH  24  45
ATOM     45  C   UNL     1       4.671   2.244  -9.861  1.00  0.00     0.057 A 
ATOM     46  C   UNL     1       5.542   1.538 -10.697  1.00  0.00     0.134 A 
ATOM     47  C   UNL     1       3.301   1.970  -9.979  1.00  0.00     0.134 A 
ATOM     48  F   UNL     1       6.862   1.762 -10.639  1.00  0.00    -0.206 F 
ATOM     49  C   UNL     1       5.071   0.599 -11.618  1.00  0.00     0.040 A 
ATOM     50  C   UNL     1       2.818   1.023 -10.884  1.00  0.00     0.040 A 
ATOM     51  F   UNL     1       2.413   2.606  -9.200  1.00  0.00    -0.206 F 
ATOM     52  C   UNL     1       3.705   0.335 -11.709  1.00  0.00     0.006 A 
ENDBRANCH  24  45
BRANCH  36  53
ATOM     53  C   UNL     1       7.719   8.536 -10.130  1.00  0.00     0.057 A 
ATOM     54  C   UNL     1       6.863   9.277 -10.951  1.00  0.00     0.134 A 
ATOM     55  C   UNL     1       9.099   8.678 -10.329  1.00  0.00     0.134 A 
ATOM     56  F   UNL     1       5.532   9.172 -10.818  1.00  0.00    -0.206 F 
ATOM     57  C   UNL     1       7.362  10.134 -11.932  1.00  0.00     0.040 A 
ATOM     58  C   UNL     1       9.610   9.550 -11.290  1.00  0.00     0.040 A 
ATOM     59  F   UNL     1       9.971   7.998  -9.569  1.00  0.00    -0.206 F 
ATOM     60  C   UNL     1       8.739  10.282 -12.094  1.00  0.00     0.006 A 
ENDBRANCH  36  53
ENDBRANCH  10  11
ENDBRANCH   3   5
ENDBRANCH   2   3
ENDBRANCH   1   2
BRANCH   1  61
ATOM     61  C   UNL     1       3.959  -2.156  -0.288  1.00  0.00     0.275 C 
BRANCH  61  62
ATOM     62  O   UNL     1       3.491  -1.497  -1.474  1.00  0.00    -0.457 OA
BRANCH  62  63
ATOM     63  C   UNL     1       2.132  -1.431  -1.610  1.00  0.00     0.358 C 
ATOM     64  O   UNL     1       1.308  -1.887  -0.849  1.00  0.00    -0.244 OA
BRANCH  63  65
ATOM     65  C   UNL     1       1.820  -0.664  -2.839  1.00  0.00     0.169 A 
ATOM     66  C   UNL     1       2.429  -1.016  -4.031  1.00  0.00     0.147 A 
ATOM     67  N   UNL     1       0.950   0.380  -2.731  1.00  0.00    -0.220 NA
ATOM     68  N   UNL     1       2.210  -0.330  -5.172  1.00  0.00    -0.258 NA
ATOM     69  C   UNL     1       0.743   1.104  -3.853  1.00  0.00     0.149 A 
ATOM     70  C   UNL     1       1.385   0.743  -5.044  1.00  0.00     0.158 A 
BRANCH  69  71
ATOM     71  N   UNL     1      -0.059   2.242  -3.735  1.00  0.00    -0.338 N 
ATOM     72  H   UNL     1      -0.275   2.497  -2.809  1.00  0.00     0.168 HD
BRANCH  71  73
ATOM     73  C   UNL     1      -0.607   3.079  -4.713  1.00  0.00     0.058 A 
ATOM     74  C   UNL     1      -1.107   2.588  -5.922  1.00  0.00     0.029 A 
ATOM     75  C   UNL     1      -0.606   4.466  -4.565  1.00  0.00     0.137 A 
ATOM     76  C   UNL     1      -1.544   3.462  -6.915  1.00  0.00     0.022 A 
ATOM     77  N   UNL     1      -1.029   5.345  -5.507  1.00  0.00    -0.263 NA
ATOM     78  C   UNL     1      -1.475   4.821  -6.667  1.00  0.00     0.111 A 
ENDBRANCH  71  73
ENDBRANCH  69  71
ENDBRANCH  63  65
ENDBRANCH  62  63
ENDBRANCH  61  62
ENDBRANCH   1  61
TORSDOF 13
