REMARK SMILES CCc1cc(C[NH+]2CCC(C(=O)OCCOC(=O)c3ccc(-c4c5nc(c(-c6c(F)cccc6F)c6ccc([nH]6)c(-c6c(F)cccc6F)c6nc(c(-c7c(F)cccc7F)c7ccc4[nH]7)C=C6)C=C5)cc3)(n3ccc(-c4ccco4)n3)CC2)on1
REMARK SMILES IDX 14 1 13 2 11 3 12 4 10 5 7 6 8 7 84 8 9 10 83 11 6 12 5 13
REMARK SMILES IDX 3 14 4 15 86 16 85 17 2 18 1 19 73 20 74 21 82 22 75 23
REMARK SMILES IDX 76 24 77 25 78 26 81 27 79 28 80 29 15 30 16 31 17 32 18 33
REMARK SMILES IDX 19 34 20 35 72 36 21 37 71 38 22 39 23 40 24 41 65 42 25 43
REMARK SMILES IDX 70 44 64 45 66 46 26 47 69 48 63 49 62 50 27 52 53 53 36 54
REMARK SMILES IDX 52 55 37 56 40 57 51 58 67 59 38 60 39 61 50 63 68 64 41 65
REMARK SMILES IDX 28 66 29 67 34 68 30 69 31 70 33 71 35 72 32 73 54 74 55 75
REMARK SMILES IDX 60 76 56 77 57 78 59 79 61 80 58 81 42 82 43 83 48 84 44 85
REMARK SMILES IDX 45 86 47 87 49 88 46 89
REMARK H PARENT 7 9 66 51 40 62
REMARK Flexibility Score: inf
ROOT
ATOM      1  C   UNL     1      -2.533  -5.884   8.786  1.00  0.00     0.274 C 
ENDROOT
BRANCH   1   2
ATOM      2  O   UNL     1      -1.569  -5.314   7.870  1.00  0.00    -0.460 OA
BRANCH   2   3
ATOM      3  C   UNL     1      -1.791  -5.589   6.547  1.00  0.00     0.334 C 
ATOM      4  O   UNL     1      -2.762  -6.252   6.198  1.00  0.00    -0.249 OA
BRANCH   3   5
ATOM      5  C   UNL     1      -0.695  -4.993   5.611  1.00  0.00     0.170 C 
ATOM      6  N   UNL     1       1.981  -3.864   5.043  1.00  0.00    -0.328 N 
ATOM      7  C   UNL     1       0.880  -2.958   5.357  1.00  0.00     0.265 C 
ATOM      8  C   UNL     1       1.666  -5.272   4.793  1.00  0.00     0.265 C 
ATOM      9  H   UNL     1       2.468  -3.908   5.938  1.00  0.00     0.348 HD
ATOM     10  C   UNL     1      -0.338  -3.562   6.064  1.00  0.00     0.104 C 
ATOM     11  C   UNL     1       0.594  -5.824   5.734  1.00  0.00     0.104 C 
BRANCH   6  12
ATOM     12  C   UNL     1       2.897  -3.311   4.013  1.00  0.00     0.341 C 
BRANCH  12  13
ATOM     13  C   UNL     1       2.282  -2.989   2.687  1.00  0.00     0.191 A 
ATOM     14  C   UNL     1       1.356  -2.232   0.824  1.00  0.00     0.084 A 
ATOM     15  C   UNL     1       1.836  -1.829   2.093  1.00  0.00     0.078 A 
ATOM     16  N   UNL     1       1.522  -3.550   0.652  1.00  0.00    -0.085 NA
ATOM     17  O   UNL     1       2.110  -4.018   1.813  1.00  0.00    -0.355 OA
BRANCH  14  18
ATOM     18  C   UNL     1       0.712  -1.427  -0.258  1.00  0.00     0.056 C 
ATOM     19  C   UNL     1       1.042   0.058  -0.222  1.00  0.00     0.011 C 
ENDBRANCH  14  18
ENDBRANCH  12  13
ENDBRANCH   6  12
BRANCH   5  20
ATOM     20  N   UNL     1      -1.181  -5.079   4.217  1.00  0.00    -0.254 N 
ATOM     21  C   UNL     1      -1.253  -4.132   3.228  1.00  0.00     0.111 A 
ATOM     22  N   UNL     1      -1.621  -6.275   3.775  1.00  0.00    -0.168 NA
ATOM     23  C   UNL     1      -1.868  -4.725   2.149  1.00  0.00     0.054 A 
ATOM     24  C   UNL     1      -2.253  -5.979   2.640  1.00  0.00     0.128 A 
BRANCH  24  25
ATOM     25  C   UNL     1      -3.392  -6.774   2.133  1.00  0.00     0.154 A 
ATOM     26  C   UNL     1      -4.050  -7.746   2.861  1.00  0.00     0.052 A 
ATOM     27  O   UNL     1      -4.080  -6.501   0.989  1.00  0.00    -0.463 OA
ATOM     28  C   UNL     1      -5.233  -8.039   2.151  1.00  0.00     0.043 A 
ATOM     29  C   UNL     1      -5.195  -7.270   1.010  1.00  0.00     0.196 A 
ENDBRANCH  24  25
ENDBRANCH   5  20
ENDBRANCH   3   5
ENDBRANCH   2   3
ENDBRANCH   1   2
BRANCH   1  30
ATOM     30  C   UNL     1      -3.732  -4.964   9.066  1.00  0.00     0.275 C 
BRANCH  30  31
ATOM     31  O   UNL     1      -4.695  -4.924   7.992  1.00  0.00    -0.458 OA
BRANCH  31  32
ATOM     32  C   UNL     1      -4.500  -3.953   7.072  1.00  0.00     0.338 C 
ATOM     33  O   UNL     1      -3.603  -3.114   7.082  1.00  0.00    -0.246 OA
BRANCH  32  34
ATOM     34  C   UNL     1      -5.441  -4.085   5.941  1.00  0.00     0.060 A 
ATOM     35  C   UNL     1      -4.894  -4.076   4.657  1.00  0.00     0.016 A 
ATOM     36  C   UNL     1      -6.829  -4.133   6.105  1.00  0.00     0.016 A 
ATOM     37  C   UNL     1      -5.720  -4.122   3.537  1.00  0.00     0.010 A 
ATOM     38  C   UNL     1      -7.665  -4.149   4.973  1.00  0.00     0.010 A 
ATOM     39  C   UNL     1      -7.114  -4.136   3.682  1.00  0.00    -0.014 A 
BRANCH  39  40
ATOM     40  C   UNL     1      -7.934  -4.068   2.445  1.00  0.00     0.031 A 
ATOM     41  C   UNL     1      -8.127  -2.747   1.762  1.00  0.00     0.074 A 
ATOM     42  C   UNL     1      -8.377  -5.195   1.859  1.00  0.00     0.049 A 
ATOM     43  N   UNL     1      -8.669  -2.489   0.600  1.00  0.00    -0.248 NA
ATOM     44  C   UNL     1      -7.679  -1.556   2.499  1.00  0.00     0.031 C 
ATOM     45  C   UNL     1      -8.261  -6.531   2.431  1.00  0.00     0.029 A 
ATOM     46  N   UNL     1      -8.916  -5.410   0.611  1.00  0.00    -0.354 N 
ATOM     47  C   UNL     1      -8.712  -1.105   0.505  1.00  0.00     0.074 A 
ATOM     48  C   UNL     1      -8.065  -0.580   1.690  1.00  0.00     0.031 C 
ATOM     49  C   UNL     1      -8.555  -7.434   1.481  1.00  0.00     0.029 A 
ATOM     50  C   UNL     1      -8.902  -6.740   0.246  1.00  0.00     0.049 A 
ATOM     51  H   UNL     1      -9.273  -4.692   0.040  1.00  0.00     0.167 HD
ATOM     52  C   UNL     1      -9.308  -0.351  -0.450  1.00  0.00     0.037 A 
ATOM     53  C   UNL     1      -9.075  -7.308  -0.965  1.00  0.00     0.037 A 
ATOM     54  C   UNL     1      -9.956  -0.891  -1.617  1.00  0.00     0.049 A 
ATOM     55  C   UNL     1      -9.565  -6.442  -2.096  1.00  0.00     0.074 A 
ATOM     56  C   UNL     1     -10.694  -0.234  -2.586  1.00  0.00     0.029 A 
ATOM     57  N   UNL     1      -9.929  -2.230  -1.976  1.00  0.00    -0.354 N 
ATOM     58  N   UNL     1      -9.688  -5.139  -2.147  1.00  0.00    -0.248 NA
ATOM     59  C   UNL     1     -10.019  -7.138  -3.310  1.00  0.00     0.031 C 
ATOM     60  C   UNL     1     -11.141  -1.183  -3.515  1.00  0.00     0.029 A 
ATOM     61  C   UNL     1     -10.643  -2.422  -3.148  1.00  0.00     0.049 A 
ATOM     62  H   UNL     1      -9.470  -2.941  -1.473  1.00  0.00     0.167 HD
ATOM     63  C   UNL     1     -10.304  -4.866  -3.360  1.00  0.00     0.074 A 
ATOM     64  C   UNL     1     -10.429  -6.127  -4.062  1.00  0.00     0.031 C 
ATOM     65  C   UNL     1     -10.787  -3.687  -3.820  1.00  0.00     0.037 A 
BRANCH  52  66
ATOM     66  C   UNL     1      -9.409   1.119  -0.182  1.00  0.00     0.057 A 
ATOM     67  C   UNL     1      -8.320   1.989  -0.303  1.00  0.00     0.134 A 
ATOM     68  C   UNL     1     -10.631   1.664   0.238  1.00  0.00     0.134 A 
ATOM     69  F   UNL     1      -7.117   1.526  -0.673  1.00  0.00    -0.206 F 
ATOM     70  C   UNL     1      -8.437   3.346   0.009  1.00  0.00     0.040 A 
ATOM     71  C   UNL     1     -10.766   3.021   0.530  1.00  0.00     0.040 A 
ATOM     72  F   UNL     1     -11.712   0.883   0.379  1.00  0.00    -0.206 F 
ATOM     73  C   UNL     1      -9.664   3.865   0.424  1.00  0.00     0.006 A 
ENDBRANCH  52  66
BRANCH  53  74
ATOM     74  C   UNL     1      -8.756  -8.743  -1.214  1.00  0.00     0.057 A 
ATOM     75  C   UNL     1      -7.769  -9.092  -2.151  1.00  0.00     0.134 A 
ATOM     76  C   UNL     1      -9.424  -9.795  -0.579  1.00  0.00     0.134 A 
ATOM     77  F   UNL     1      -7.106  -8.136  -2.819  1.00  0.00    -0.206 F 
ATOM     78  C   UNL     1      -7.473 -10.423  -2.454  1.00  0.00     0.040 A 
ATOM     79  C   UNL     1      -9.111 -11.131  -0.845  1.00  0.00     0.040 A 
ATOM     80  F   UNL     1     -10.391  -9.544   0.314  1.00  0.00    -0.206 F 
ATOM     81  C   UNL     1      -8.140 -11.449  -1.792  1.00  0.00     0.006 A 
ENDBRANCH  53  74
BRANCH  65  82
ATOM     82  C   UNL     1     -11.570  -3.725  -5.098  1.00  0.00     0.057 A 
ATOM     83  C   UNL     1     -12.858  -4.278  -5.136  1.00  0.00     0.134 A 
ATOM     84  C   UNL     1     -11.064  -3.177  -6.280  1.00  0.00     0.134 A 
ATOM     85  F   UNL     1     -13.396  -4.827  -4.036  1.00  0.00    -0.206 F 
ATOM     86  C   UNL     1     -13.608  -4.301  -6.312  1.00  0.00     0.040 A 
ATOM     87  C   UNL     1     -11.813  -3.176  -7.458  1.00  0.00     0.040 A 
ATOM     88  F   UNL     1      -9.841  -2.627  -6.308  1.00  0.00    -0.206 F 
ATOM     89  C   UNL     1     -13.087  -3.743  -7.477  1.00  0.00     0.006 A 
ENDBRANCH  65  82
ENDBRANCH  39  40
ENDBRANCH  32  34
ENDBRANCH  31  32
ENDBRANCH  30  31
ENDBRANCH   1  30
TORSDOF 16
