REMARK SMILES C=CC[C@@](CC)(C(=O)OCCOC(=O)c1ccc(-c2c3nc(c(-c4c(F)cccc4F)c4ccc([nH]4)c(-c4c(F)cccc4F)c4nc(c(-c5c(F)cccc5F)c5ccc2[nH]5)C=C4)C=C3)cc1)c1ccccc1
REMARK SMILES IDX 10 1 9 2 7 3 8 4 4 5 3 6 2 7 1 8 5 9 6 10 69 11 70 12 74 13
REMARK SMILES IDX 71 14 73 15 72 16 11 17 12 18 13 19 14 20 15 21 16 22 68 23
REMARK SMILES IDX 17 24 67 25 18 26 19 27 20 28 61 29 21 30 66 31 60 32 62 33
REMARK SMILES IDX 22 34 65 35 59 36 58 37 23 39 49 40 32 41 48 42 33 43 36 44
REMARK SMILES IDX 47 45 63 46 34 47 35 48 46 50 64 51 37 52 24 53 25 54 30 55
REMARK SMILES IDX 26 56 27 57 29 58 31 59 28 60 50 61 51 62 56 63 52 64 53 65
REMARK SMILES IDX 55 66 57 67 54 68 38 69 39 70 44 71 40 72 41 73 43 74 45 75
REMARK SMILES IDX 42 76
REMARK H PARENT 62 38 36 49
REMARK Flexibility Score: inf
ROOT
ATOM      1  C   UNL     1      -5.028   2.204   0.616  1.00  0.00     0.274 C 
ENDROOT
BRANCH   1   2
ATOM      2  O   UNL     1      -3.597   2.042   0.502  1.00  0.00    -0.461 OA
BRANCH   2   3
ATOM      3  C   UNL     1      -2.862   2.189   1.643  1.00  0.00     0.316 C 
ATOM      4  O   UNL     1      -3.354   2.452   2.736  1.00  0.00    -0.251 OA
BRANCH   3   5
ATOM      5  C   UNL     1      -1.333   2.104   1.381  1.00  0.00     0.096 C 
BRANCH   5   6
ATOM      6  C   UNL     1      -1.049   1.469  -0.028  1.00  0.00     0.050 C 
BRANCH   6   7
ATOM      7  C   UNL     1       0.406   1.397  -0.436  1.00  0.00    -0.033 C 
ATOM      8  C   UNL     1       1.040   0.270  -0.787  1.00  0.00     0.004 C 
ENDBRANCH   6   7
ENDBRANCH   5   6
BRANCH   5   9
ATOM      9  C   UNL     1      -0.832   3.593   1.415  1.00  0.00     0.020 C 
ATOM     10  C   UNL     1      -1.294   4.485   0.265  1.00  0.00     0.005 C 
ENDBRANCH   5   9
BRANCH   5  11
ATOM     11  C   UNL     1      -0.668   1.285   2.538  1.00  0.00    -0.030 A 
ATOM     12  C   UNL     1      -0.314  -0.071   2.395  1.00  0.00     0.005 A 
ATOM     13  C   UNL     1      -0.416   1.867   3.797  1.00  0.00     0.005 A 
ATOM     14  C   UNL     1       0.335  -0.778   3.416  1.00  0.00     0.000 A 
ATOM     15  C   UNL     1       0.215   1.157   4.826  1.00  0.00     0.000 A 
ATOM     16  C   UNL     1       0.606  -0.161   4.630  1.00  0.00     0.000 A 
ENDBRANCH   5  11
ENDBRANCH   3   5
ENDBRANCH   2   3
ENDBRANCH   1   2
BRANCH   1  17
ATOM     17  C   UNL     1      -5.714   0.843   0.563  1.00  0.00     0.275 C 
BRANCH  17  18
ATOM     18  O   UNL     1      -5.311   0.091   1.718  1.00  0.00    -0.458 OA
BRANCH  18  19
ATOM     19  C   UNL     1      -5.081  -1.227   1.526  1.00  0.00     0.338 C 
ATOM     20  O   UNL     1      -5.302  -1.873   0.516  1.00  0.00    -0.246 OA
BRANCH  19  21
ATOM     21  C   UNL     1      -4.464  -1.797   2.744  1.00  0.00     0.060 A 
ATOM     22  C   UNL     1      -3.543  -1.054   3.477  1.00  0.00     0.016 A 
ATOM     23  C   UNL     1      -4.718  -3.123   3.101  1.00  0.00     0.016 A 
ATOM     24  C   UNL     1      -2.810  -1.661   4.494  1.00  0.00     0.010 A 
ATOM     25  C   UNL     1      -4.033  -3.703   4.179  1.00  0.00     0.010 A 
ATOM     26  C   UNL     1      -3.022  -2.998   4.855  1.00  0.00    -0.014 A 
BRANCH  26  27
ATOM     27  C   UNL     1      -2.111  -3.664   5.839  1.00  0.00     0.031 A 
ATOM     28  C   UNL     1      -1.376  -4.930   5.461  1.00  0.00     0.074 A 
ATOM     29  C   UNL     1      -1.849  -3.113   7.044  1.00  0.00     0.049 A 
ATOM     30  N   UNL     1      -0.679  -5.743   6.218  1.00  0.00    -0.248 NA
ATOM     31  C   UNL     1      -1.443  -5.348   4.051  1.00  0.00     0.031 C 
ATOM     32  C   UNL     1      -2.421  -1.867   7.556  1.00  0.00     0.029 A 
ATOM     33  N   UNL     1      -0.995  -3.515   8.044  1.00  0.00    -0.354 N 
ATOM     34  C   UNL     1      -0.310  -6.806   5.402  1.00  0.00     0.074 A 
ATOM     35  C   UNL     1      -0.839  -6.527   4.084  1.00  0.00     0.031 C 
ATOM     36  C   UNL     1      -1.835  -1.560   8.724  1.00  0.00     0.029 A 
ATOM     37  C   UNL     1      -0.919  -2.632   9.095  1.00  0.00     0.049 A 
ATOM     38  H   UNL     1      -0.486  -4.357   8.011  1.00  0.00     0.167 HD
ATOM     39  C   UNL     1       0.399  -7.916   5.719  1.00  0.00     0.037 A 
ATOM     40  C   UNL     1      -0.213  -2.684  10.240  1.00  0.00     0.037 A 
ATOM     41  C   UNL     1       1.015  -8.157   6.997  1.00  0.00     0.049 A 
ATOM     42  C   UNL     1       0.620  -3.894  10.549  1.00  0.00     0.074 A 
ATOM     43  C   UNL     1       1.716  -9.273   7.424  1.00  0.00     0.029 A 
ATOM     44  N   UNL     1       1.051  -7.243   8.037  1.00  0.00    -0.354 N 
ATOM     45  N   UNL     1       0.825  -4.964   9.822  1.00  0.00    -0.248 NA
ATOM     46  C   UNL     1       1.291  -3.920  11.859  1.00  0.00     0.031 C 
ATOM     47  C   UNL     1       2.177  -9.033   8.724  1.00  0.00     0.029 A 
ATOM     48  C   UNL     1       1.780  -7.760   9.095  1.00  0.00     0.049 A 
ATOM     49  H   UNL     1       0.621  -6.358   8.026  1.00  0.00     0.167 HD
ATOM     50  C   UNL     1       1.621  -5.799  10.594  1.00  0.00     0.074 A 
ATOM     51  C   UNL     1       1.908  -5.092  11.823  1.00  0.00     0.031 C 
ATOM     52  C   UNL     1       2.051  -7.054  10.318  1.00  0.00     0.037 A 
BRANCH  39  53
ATOM     53  C   UNL     1       0.523  -8.980   4.670  1.00  0.00     0.057 A 
ATOM     54  C   UNL     1       1.405  -8.864   3.591  1.00  0.00     0.134 A 
ATOM     55  C   UNL     1      -0.228 -10.159   4.772  1.00  0.00     0.134 A 
ATOM     56  F   UNL     1       2.137  -7.752   3.428  1.00  0.00    -0.206 F 
ATOM     57  C   UNL     1       1.527  -9.879   2.639  1.00  0.00     0.040 A 
ATOM     58  C   UNL     1      -0.099 -11.189   3.840  1.00  0.00     0.040 A 
ATOM     59  F   UNL     1      -1.087 -10.333   5.787  1.00  0.00    -0.206 F 
ATOM     60  C   UNL     1       0.778 -11.049   2.767  1.00  0.00     0.006 A 
ENDBRANCH  39  53
BRANCH  40  61
ATOM     61  C   UNL     1      -0.290  -1.563  11.210  1.00  0.00     0.057 A 
ATOM     62  C   UNL     1       0.804  -0.716  11.418  1.00  0.00     0.134 A 
ATOM     63  C   UNL     1      -1.449  -1.320  11.956  1.00  0.00     0.134 A 
ATOM     64  F   UNL     1       1.951  -0.919  10.753  1.00  0.00    -0.206 F 
ATOM     65  C   UNL     1       0.751   0.332  12.338  1.00  0.00     0.040 A 
ATOM     66  C   UNL     1      -1.525  -0.261  12.861  1.00  0.00     0.040 A 
ATOM     67  F   UNL     1      -2.529  -2.100  11.804  1.00  0.00    -0.206 F 
ATOM     68  C   UNL     1      -0.420   0.566  13.058  1.00  0.00     0.006 A 
ENDBRANCH  40  61
BRANCH  52  69
ATOM     69  C   UNL     1       2.860  -7.741  11.374  1.00  0.00     0.057 A 
ATOM     70  C   UNL     1       2.256  -8.274  12.520  1.00  0.00     0.134 A 
ATOM     71  C   UNL     1       4.246  -7.881  11.244  1.00  0.00     0.134 A 
ATOM     72  F   UNL     1       0.932  -8.159  12.706  1.00  0.00    -0.206 F 
ATOM     73  C   UNL     1       3.007  -8.904  13.512  1.00  0.00     0.040 A 
ATOM     74  C   UNL     1       5.006  -8.524  12.223  1.00  0.00     0.040 A 
ATOM     75  F   UNL     1       4.883  -7.394  10.168  1.00  0.00    -0.206 F 
ATOM     76  C   UNL     1       4.387  -9.033  13.364  1.00  0.00     0.006 A 
ENDBRANCH  52  69
ENDBRANCH  26  27
ENDBRANCH  19  21
ENDBRANCH  18  19
ENDBRANCH  17  18
ENDBRANCH   1  17
TORSDOF 15
