REMARK SMILES Cc1cc(C(=O)N2[C@@H](C(=O)OCCOC(=O)c3ccc(-c4c5nc(c(-c6c(F)cccc6F)c6ccc([nH]6)c(-c6c(F)cccc6F)c6nc(c(-c7c(F)cccc7F)c7ccc4[nH]7)C=C6)C=C5)cc3)C[C@H]3CCCC[C@H]32)c(C)s1
REMARK SMILES IDX 12 1 11 2 9 3 10 4 8 5 7 6 77 7 71 8 72 9 76 10 73 11 75 12
REMARK SMILES IDX 74 13 5 14 6 15 4 16 1 17 2 18 3 19 80 20 78 21 79 22 13 23
REMARK SMILES IDX 14 24 15 25 16 26 17 27 18 28 70 29 19 30 69 31 20 32 21 33
REMARK SMILES IDX 22 34 63 35 23 36 68 37 62 38 64 39 24 40 67 41 61 42 60 43
REMARK SMILES IDX 25 45 51 46 34 47 50 48 35 49 38 50 49 51 65 52 36 53 37 54
REMARK SMILES IDX 48 56 66 57 39 58 26 59 27 60 32 61 28 62 29 63 31 64 33 65
REMARK SMILES IDX 30 66 52 67 53 68 58 69 54 70 55 71 57 72 59 73 56 74 40 75
REMARK SMILES IDX 41 76 46 77 42 78 43 79 45 80 47 81 44 82
REMARK H PARENT 64 44 38 55
REMARK Flexibility Score: inf
ROOT
ATOM      1  C   UNL     1       2.319  -4.105  -3.631  1.00  0.00     0.274 C 
ENDROOT
BRANCH   1   2
ATOM      2  O   UNL     1       1.812  -4.147  -2.281  1.00  0.00    -0.461 OA
BRANCH   2   3
ATOM      3  C   UNL     1       0.514  -3.771  -2.117  1.00  0.00     0.329 C 
ATOM      4  O   UNL     1      -0.225  -3.414  -3.029  1.00  0.00    -0.250 OA
BRANCH   3   5
ATOM      5  C   UNL     1      -0.004  -3.999  -0.689  1.00  0.00     0.196 C 
ATOM      6  N   UNL     1       0.994  -3.825   0.377  1.00  0.00    -0.322 N 
ATOM      7  C   UNL     1       1.199  -5.064   1.123  1.00  0.00     0.089 C 
ATOM      8  C   UNL     1      -0.510  -5.438  -0.493  1.00  0.00     0.043 C 
ATOM      9  C   UNL     1      -0.165  -5.742   0.968  1.00  0.00     0.014 C 
ATOM     10  C   UNL     1       2.354  -5.910   0.570  1.00  0.00     0.025 C 
ATOM     11  C   UNL     1      -0.200  -7.218   1.341  1.00  0.00     0.006 C 
ATOM     12  C   UNL     1       2.305  -7.343   1.096  1.00  0.00     0.002 C 
ATOM     13  C   UNL     1       0.971  -8.013   0.778  1.00  0.00     0.000 C 
BRANCH   6  14
ATOM     14  C   UNL     1       1.499  -2.620   0.845  1.00  0.00     0.255 C 
ATOM     15  O   UNL     1       2.472  -2.570   1.592  1.00  0.00    -0.269 OA
BRANCH  14  16
ATOM     16  C   UNL     1       0.773  -1.402   0.460  1.00  0.00     0.053 A 
ATOM     17  C   UNL     1      -2.482   0.517   0.042  1.00  0.00     0.056 C 
ATOM     18  C   UNL     1      -1.082   0.013   0.128  1.00  0.00     0.003 A 
ATOM     19  C   UNL     1      -0.643  -1.192   0.627  1.00  0.00     0.029 A 
ATOM     20  S   UNL     1       0.225   0.972  -0.395  1.00  0.00    -0.145 S 
ATOM     21  C   UNL     1       1.374  -0.243  -0.006  1.00  0.00     0.014 A 
ATOM     22  C   UNL     1       2.826   0.054  -0.192  1.00  0.00     0.057 C 
ENDBRANCH  14  16
ENDBRANCH   6  14
ENDBRANCH   3   5
ENDBRANCH   2   3
ENDBRANCH   1   2
BRANCH   1  23
ATOM     23  C   UNL     1       2.136  -5.450  -4.338  1.00  0.00     0.275 C 
BRANCH  23  24
ATOM     24  O   UNL     1       0.735  -5.716  -4.530  1.00  0.00    -0.458 OA
BRANCH  24  25
ATOM     25  C   UNL     1       0.299  -6.934  -4.138  1.00  0.00     0.338 C 
ATOM     26  O   UNL     1       0.960  -7.854  -3.690  1.00  0.00    -0.246 OA
BRANCH  25  27
ATOM     27  C   UNL     1      -1.163  -7.006  -4.298  1.00  0.00     0.060 A 
ATOM     28  C   UNL     1      -1.982  -6.170  -3.540  1.00  0.00     0.016 A 
ATOM     29  C   UNL     1      -1.728  -7.992  -5.105  1.00  0.00     0.016 A 
ATOM     30  C   UNL     1      -3.359  -6.361  -3.519  1.00  0.00     0.010 A 
ATOM     31  C   UNL     1      -3.119  -8.128  -5.151  1.00  0.00     0.010 A 
ATOM     32  C   UNL     1      -3.944  -7.335  -4.334  1.00  0.00    -0.014 A 
BRANCH  32  33
ATOM     33  C   UNL     1      -5.413  -7.543  -4.300  1.00  0.00     0.031 A 
ATOM     34  C   UNL     1      -5.973  -8.851  -3.818  1.00  0.00     0.074 A 
ATOM     35  C   UNL     1      -6.244  -6.557  -4.686  1.00  0.00     0.049 A 
ATOM     36  N   UNL     1      -7.206  -9.288  -3.859  1.00  0.00    -0.248 NA
ATOM     37  C   UNL     1      -5.020  -9.796  -3.215  1.00  0.00     0.031 C 
ATOM     38  C   UNL     1      -5.831  -5.223  -5.125  1.00  0.00     0.029 A 
ATOM     39  N   UNL     1      -7.613  -6.526  -4.771  1.00  0.00    -0.354 N 
ATOM     40  C   UNL     1      -7.168 -10.574  -3.338  1.00  0.00     0.074 A 
ATOM     41  C   UNL     1      -5.792 -10.848  -2.982  1.00  0.00     0.031 C 
ATOM     42  C   UNL     1      -6.922  -4.500  -5.420  1.00  0.00     0.029 A 
ATOM     43  C   UNL     1      -8.104  -5.340  -5.259  1.00  0.00     0.049 A 
ATOM     44  H   UNL     1      -8.188  -7.281  -4.509  1.00  0.00     0.167 HD
ATOM     45  C   UNL     1      -8.190 -11.448  -3.177  1.00  0.00     0.037 A 
ATOM     46  C   UNL     1      -9.360  -4.981  -5.582  1.00  0.00     0.037 A 
ATOM     47  C   UNL     1      -9.564 -11.156  -3.490  1.00  0.00     0.049 A 
ATOM     48  C   UNL     1     -10.472  -5.977  -5.421  1.00  0.00     0.074 A 
ATOM     49  C   UNL     1     -10.674 -11.969  -3.344  1.00  0.00     0.029 A 
ATOM     50  N   UNL     1     -10.015  -9.950  -4.002  1.00  0.00    -0.354 N 
ATOM     51  N   UNL     1     -10.418  -7.206  -4.971  1.00  0.00    -0.248 NA
ATOM     52  C   UNL     1     -11.814  -5.542  -5.832  1.00  0.00     0.031 C 
ATOM     53  C   UNL     1     -11.795 -11.262  -3.794  1.00  0.00     0.029 A 
ATOM     54  C   UNL     1     -11.386  -9.999  -4.190  1.00  0.00     0.049 A 
ATOM     55  H   UNL     1      -9.445  -9.172  -4.202  1.00  0.00     0.167 HD
ATOM     56  C   UNL     1     -11.716  -7.691  -5.038  1.00  0.00     0.074 A 
ATOM     57  C   UNL     1     -12.539  -6.617  -5.555  1.00  0.00     0.031 C 
ATOM     58  C   UNL     1     -12.185  -8.919  -4.707  1.00  0.00     0.037 A 
BRANCH  45  59
ATOM     59  C   UNL     1      -7.851 -12.818  -2.672  1.00  0.00     0.057 A 
ATOM     60  C   UNL     1      -7.541 -13.061  -1.329  1.00  0.00     0.134 A 
ATOM     61  C   UNL     1      -7.859 -13.914  -3.544  1.00  0.00     0.134 A 
ATOM     62  F   UNL     1      -7.499 -12.050  -0.447  1.00  0.00    -0.206 F 
ATOM     63  C   UNL     1      -7.233 -14.345  -0.874  1.00  0.00     0.040 A 
ATOM     64  C   UNL     1      -7.572 -15.205  -3.098  1.00  0.00     0.040 A 
ATOM     65  F   UNL     1      -8.149 -13.748  -4.843  1.00  0.00    -0.206 F 
ATOM     66  C   UNL     1      -7.254 -15.422  -1.759  1.00  0.00     0.006 A 
ENDBRANCH  45  59
BRANCH  46  67
ATOM     67  C   UNL     1      -9.620  -3.630  -6.133  1.00  0.00     0.057 A 
ATOM     68  C   UNL     1     -10.283  -2.656  -5.380  1.00  0.00     0.134 A 
ATOM     69  C   UNL     1      -9.197  -3.277  -7.421  1.00  0.00     0.134 A 
ATOM     70  F   UNL     1     -10.730  -2.943  -4.149  1.00  0.00    -0.206 F 
ATOM     71  C   UNL     1     -10.521  -1.378  -5.889  1.00  0.00     0.040 A 
ATOM     72  C   UNL     1      -9.408  -1.997  -7.934  1.00  0.00     0.040 A 
ATOM     73  F   UNL     1      -8.553  -4.167  -8.190  1.00  0.00    -0.206 F 
ATOM     74  C   UNL     1     -10.076  -1.044  -7.168  1.00  0.00     0.006 A 
ENDBRANCH  46  67
BRANCH  58  75
ATOM     75  C   UNL     1     -13.653  -9.154  -4.880  1.00  0.00     0.057 A 
ATOM     76  C   UNL     1     -14.216  -9.374  -6.143  1.00  0.00     0.134 A 
ATOM     77  C   UNL     1     -14.507  -9.188  -3.771  1.00  0.00     0.134 A 
ATOM     78  F   UNL     1     -13.450  -9.338  -7.244  1.00  0.00    -0.206 F 
ATOM     79  C   UNL     1     -15.583  -9.607  -6.298  1.00  0.00     0.040 A 
ATOM     80  C   UNL     1     -15.872  -9.437  -3.912  1.00  0.00     0.040 A 
ATOM     81  F   UNL     1     -14.026  -8.988  -2.535  1.00  0.00    -0.206 F 
ATOM     82  C   UNL     1     -16.414  -9.644  -5.180  1.00  0.00     0.006 A 
ENDBRANCH  58  75
ENDBRANCH  32  33
ENDBRANCH  25  27
ENDBRANCH  24  25
ENDBRANCH  23  24
ENDBRANCH   1  23
TORSDOF 13
