REMARK SMILES C[NH2+][C@@]1(C(=O)OCCOC(=O)c2ccc(-c3c4nc(c(-c5c(F)cccc5F)c5ccc([nH]5)c(-c5c(F)cccc5F)c5nc(c(-c6c(F)cccc6F)c6ccc3[nH]6)C=C5)C=C4)cc2)CC[C@H](Sc2ccc(C)c(C)c2)C1
REMARK SMILES IDX 7 1 6 2 4 3 5 4 3 5 66 6 78 7 67 8 68 9 2 10 1 11 69 14
REMARK SMILES IDX 70 15 71 16 77 17 72 18 75 19 73 20 76 21 74 22 8 23 9 24
REMARK SMILES IDX 10 25 11 26 12 27 13 28 65 29 14 30 64 31 15 32 16 33 17 34
REMARK SMILES IDX 58 35 18 36 63 37 57 38 59 39 19 40 62 41 56 42 55 43 20 45
REMARK SMILES IDX 46 46 29 47 45 48 30 49 33 50 44 51 60 52 31 53 32 54 43 56
REMARK SMILES IDX 61 57 34 58 21 59 22 60 27 61 23 62 24 63 26 64 28 65 25 66
REMARK SMILES IDX 47 67 48 68 53 69 49 70 50 71 52 72 54 73 51 74 35 75 36 76
REMARK SMILES IDX 41 77 37 78 38 79 40 80 42 81 39 82
REMARK H PARENT 2 12 2 13 59 44 33 55
REMARK Flexibility Score: inf
ROOT
ATOM      1  C   UNL     1      -2.611  -0.860   3.842  1.00  0.00     0.274 C 
ENDROOT
BRANCH   1   2
ATOM      2  O   UNL     1      -2.248  -1.145   2.477  1.00  0.00    -0.457 OA
BRANCH   2   3
ATOM      3  C   UNL     1      -1.350  -0.322   1.873  1.00  0.00     0.368 C 
ATOM      4  O   UNL     1      -0.824   0.642   2.421  1.00  0.00    -0.245 OA
BRANCH   3   5
ATOM      5  C   UNL     1      -1.121  -0.699   0.365  1.00  0.00     0.195 C 
ATOM      6  C   UNL     1      -1.899   0.322  -0.473  1.00  0.00     0.082 C 
ATOM      7  C   UNL     1      -1.776  -2.033  -0.059  1.00  0.00     0.096 C 
ATOM      8  C   UNL     1      -3.339  -0.172  -0.363  1.00  0.00     0.022 C 
ATOM      9  C   UNL     1      -3.222  -1.695  -0.492  1.00  0.00     0.059 C 
BRANCH   5  10
ATOM     10  N   UNL     1       0.339  -0.790   0.122  1.00  0.00    -0.335 N 
ATOM     11  C   UNL     1       0.988   0.435  -0.311  1.00  0.00     0.331 C 
ATOM     12  H   UNL     1       0.782  -1.088   0.991  1.00  0.00     0.347 HD
ATOM     13  H   UNL     1       0.449  -1.448  -0.649  1.00  0.00     0.347 HD
ENDBRANCH   5  10
BRANCH   9  14
ATOM     14  S   UNL     1      -4.389  -2.693   0.498  1.00  0.00    -0.122 SA
BRANCH  14  15
ATOM     15  C   UNL     1      -6.011  -2.089   0.085  1.00  0.00     0.008 A 
ATOM     16  C   UNL     1      -6.331  -1.342  -1.044  1.00  0.00     0.015 A 
ATOM     17  C   UNL     1      -7.037  -2.422   0.978  1.00  0.00     0.018 A 
ATOM     18  C   UNL     1      -7.635  -0.877  -1.237  1.00  0.00     0.005 A 
ATOM     19  C   UNL     1      -8.361  -1.991   0.785  1.00  0.00    -0.047 A 
ATOM     20  C   UNL     1      -8.661  -1.193  -0.332  1.00  0.00    -0.048 A 
ATOM     21  C   UNL     1      -9.409  -2.413   1.776  1.00  0.00     0.044 C 
ATOM     22  C   UNL     1     -10.027  -0.619  -0.583  1.00  0.00     0.044 C 
ENDBRANCH  14  15
ENDBRANCH   9  14
ENDBRANCH   3   5
ENDBRANCH   2   3
ENDBRANCH   1   2
BRANCH   1  23
ATOM     23  C   UNL     1      -2.119  -1.978   4.754  1.00  0.00     0.275 C 
BRANCH  23  24
ATOM     24  O   UNL     1      -0.682  -1.993   4.734  1.00  0.00    -0.458 OA
BRANCH  24  25
ATOM     25  C   UNL     1      -0.116  -3.073   4.152  1.00  0.00     0.338 C 
ATOM     26  O   UNL     1      -0.655  -4.092   3.763  1.00  0.00    -0.246 OA
BRANCH  25  27
ATOM     27  C   UNL     1       1.322  -2.818   4.003  1.00  0.00     0.060 A 
ATOM     28  C   UNL     1       1.746  -1.930   3.017  1.00  0.00     0.016 A 
ATOM     29  C   UNL     1       2.248  -3.536   4.755  1.00  0.00     0.016 A 
ATOM     30  C   UNL     1       3.099  -1.800   2.727  1.00  0.00     0.010 A 
ATOM     31  C   UNL     1       3.612  -3.351   4.513  1.00  0.00     0.010 A 
ATOM     32  C   UNL     1       4.049  -2.505   3.476  1.00  0.00    -0.014 A 
BRANCH  32  33
ATOM     33  C   UNL     1       5.492  -2.405   3.136  1.00  0.00     0.031 A 
ATOM     34  C   UNL     1       6.236  -3.625   2.670  1.00  0.00     0.074 A 
ATOM     35  C   UNL     1       6.134  -1.224   3.225  1.00  0.00     0.049 A 
ATOM     36  N   UNL     1       7.521  -3.796   2.496  1.00  0.00    -0.248 NA
ATOM     37  C   UNL     1       5.425  -4.816   2.369  1.00  0.00     0.031 C 
ATOM     38  C   UNL     1       5.521   0.049   3.606  1.00  0.00     0.029 A 
ATOM     39  N   UNL     1       7.449  -0.905   2.997  1.00  0.00    -0.354 N 
ATOM     40  C   UNL     1       7.678  -5.124   2.121  1.00  0.00     0.074 A 
ATOM     41  C   UNL     1       6.357  -5.714   2.087  1.00  0.00     0.031 C 
ATOM     42  C   UNL     1       6.452   1.015   3.561  1.00  0.00     0.029 A 
ATOM     43  C   UNL     1       7.740   0.418   3.222  1.00  0.00     0.049 A 
ATOM     44  H   UNL     1       8.120  -1.562   2.701  1.00  0.00     0.167 HD
ATOM     45  C   UNL     1       8.822  -5.790   1.835  1.00  0.00     0.037 A 
ATOM     46  C   UNL     1       8.917   1.070   3.197  1.00  0.00     0.037 A 
ATOM     47  C   UNL     1      10.129  -5.187   1.818  1.00  0.00     0.049 A 
ATOM     48  C   UNL     1      10.175   0.306   2.900  1.00  0.00     0.074 A 
ATOM     49  C   UNL     1      11.350  -5.777   1.538  1.00  0.00     0.029 A 
ATOM     50  N   UNL     1      10.381  -3.848   2.075  1.00  0.00    -0.354 N 
ATOM     51  N   UNL     1      10.321  -0.964   2.614  1.00  0.00    -0.248 NA
ATOM     52  C   UNL     1      11.434   1.063   2.945  1.00  0.00     0.031 C 
ATOM     53  C   UNL     1      12.344  -4.798   1.647  1.00  0.00     0.029 A 
ATOM     54  C   UNL     1      11.738  -3.594   1.965  1.00  0.00     0.049 A 
ATOM     55  H   UNL     1       9.697  -3.178   2.302  1.00  0.00     0.167 HD
ATOM     56  C   UNL     1      11.684  -1.160   2.441  1.00  0.00     0.074 A 
ATOM     57  C   UNL     1      12.320   0.127   2.632  1.00  0.00     0.031 C 
ATOM     58  C   UNL     1      12.350  -2.305   2.158  1.00  0.00     0.037 A 
BRANCH  45  59
ATOM     59  C   UNL     1       8.713  -7.257   1.552  1.00  0.00     0.057 A 
ATOM     60  C   UNL     1       8.221  -7.746   0.337  1.00  0.00     0.134 A 
ATOM     61  C   UNL     1       9.132  -8.194   2.506  1.00  0.00     0.134 A 
ATOM     62  F   UNL     1       7.788  -6.901  -0.611  1.00  0.00    -0.206 F 
ATOM     63  C   UNL     1       8.131  -9.117   0.086  1.00  0.00     0.040 A 
ATOM     64  C   UNL     1       9.067  -9.566   2.260  1.00  0.00     0.040 A 
ATOM     65  F   UNL     1       9.616  -7.790   3.691  1.00  0.00    -0.206 F 
ATOM     66  C   UNL     1       8.561 -10.031   1.048  1.00  0.00     0.006 A 
ENDBRANCH  45  59
BRANCH  46  67
ATOM     67  C   UNL     1       8.963   2.521   3.502  1.00  0.00     0.057 A 
ATOM     68  C   UNL     1       9.231   3.461   2.502  1.00  0.00     0.134 A 
ATOM     69  C   UNL     1       8.733   3.001   4.797  1.00  0.00     0.134 A 
ATOM     70  F   UNL     1       9.483   3.059   1.248  1.00  0.00    -0.206 F 
ATOM     71  C   UNL     1       9.273   4.829   2.779  1.00  0.00     0.040 A 
ATOM     72  C   UNL     1       8.748   4.366   5.083  1.00  0.00     0.040 A 
ATOM     73  F   UNL     1       8.471   2.149   5.799  1.00  0.00    -0.206 F 
ATOM     74  C   UNL     1       9.024   5.285   4.072  1.00  0.00     0.006 A 
ENDBRANCH  46  67
BRANCH  58  75
ATOM     75  C   UNL     1      13.838  -2.208   2.020  1.00  0.00     0.057 A 
ATOM     76  C   UNL     1      14.672  -2.103   3.139  1.00  0.00     0.134 A 
ATOM     77  C   UNL     1      14.443  -2.249   0.758  1.00  0.00     0.134 A 
ATOM     78  F   UNL     1      14.150  -2.045   4.373  1.00  0.00    -0.206 F 
ATOM     79  C   UNL     1      16.059  -2.025   3.007  1.00  0.00     0.040 A 
ATOM     80  C   UNL     1      15.829  -2.190   0.614  1.00  0.00     0.040 A 
ATOM     81  F   UNL     1      13.697  -2.354  -0.352  1.00  0.00    -0.206 F 
ATOM     82  C   UNL     1      16.641  -2.073   1.741  1.00  0.00     0.006 A 
ENDBRANCH  58  75
ENDBRANCH  32  33
ENDBRANCH  25  27
ENDBRANCH  24  25
ENDBRANCH  23  24
ENDBRANCH   1  23
TORSDOF 14
