REMARK SMILES O=C(CCCN1C(=O)C(=O)/C(=C(/[O-])c2ccc(Cl)cc2)[C@@H]1c1ccccc1[N+](=O)[O-])OCCOC(=O)c1ccc(-c2c3nc(c(-c4c(F)cccc4F)c4ccc([nH]4)c(-c4c(F)cccc4F)c4nc(c(-c5c(F)cccc5F)c5ccc2[nH]5)C=C4)C=C3)cc1
REMARK SMILES IDX 31 1 2 2 1 3 3 4 4 5 5 6 6 7 7 8 21 9 8 10 9 11 11 12 10 13
REMARK SMILES IDX 12 14 13 15 22 16 23 17 27 18 24 19 26 20 25 21 28 22 29 23
REMARK SMILES IDX 30 24 14 25 15 26 20 27 16 28 19 29 17 30 18 31 32 32 33 33
REMARK SMILES IDX 34 34 35 35 36 36 37 37 38 38 90 39 39 40 89 41 40 42 41 43
REMARK SMILES IDX 42 44 83 45 43 46 88 47 82 48 84 49 44 50 87 51 81 52 80 53
REMARK SMILES IDX 45 55 71 56 54 57 70 58 55 59 58 60 69 61 85 62 56 63 57 64
REMARK SMILES IDX 68 66 86 67 59 68 46 69 47 70 52 71 48 72 49 73 51 74 53 75
REMARK SMILES IDX 50 76 72 77 73 78 78 79 74 80 75 81 77 82 79 83 76 84 60 85
REMARK SMILES IDX 61 86 66 87 62 88 63 89 65 90 67 91 64 92
REMARK H PARENT 84 54 58 65
REMARK Flexibility Score: inf
ROOT
ATOM      1  O   UNL     1       2.294   1.135   0.996  1.00  0.00    -0.462 OA
ENDROOT
BRANCH   1   2
ATOM      2  C   UNL     1       2.664   2.401   1.252  1.00  0.00     0.305 C 
ATOM      3  O   UNL     1       2.037   3.085   2.050  1.00  0.00    -0.252 OA
BRANCH   2   4
ATOM      4  C   UNL     1       3.711   2.968   0.319  1.00  0.00     0.124 C 
BRANCH   4   5
ATOM      5  C   UNL     1       5.218   2.550   0.247  1.00  0.00     0.033 C 
BRANCH   5   6
ATOM      6  C   UNL     1       5.962   1.246   0.860  1.00  0.00     0.121 C 
BRANCH   6   7
ATOM      7  N   UNL     1       5.977  -0.011  -0.046  1.00  0.00    -0.324 N 
ATOM      8  C   UNL     1       6.868   0.178  -1.110  1.00  0.00     0.295 C 
ATOM      9  C   UNL     1       5.589  -1.597   0.080  1.00  0.00     0.157 C 
ATOM     10  O   UNL     1       7.589   1.147  -1.335  1.00  0.00    -0.265 OA
ATOM     11  C   UNL     1       6.827  -1.014  -1.993  1.00  0.00     0.248 C 
ATOM     12  C   UNL     1       6.343  -2.164  -1.197  1.00  0.00     0.025 C 
ATOM     13  O   UNL     1       7.177  -0.944  -3.166  1.00  0.00    -0.283 OA
ATOM     14  C   UNL     1       6.786  -3.390  -1.552  1.00  0.00    -0.092 C 
ATOM     15  O   UNL     1       6.687  -4.457  -0.692  1.00  0.00    -0.872 OA
BRANCH   9  16
ATOM     16  C   UNL     1       4.169  -2.570   0.483  1.00  0.00     0.057 A 
ATOM     17  C   UNL     1       4.694  -3.753   1.101  1.00  0.00     0.013 A 
ATOM     18  C   UNL     1       2.665  -2.718   0.300  1.00  0.00     0.275 A 
ATOM     19  C   UNL     1       3.963  -4.917   1.434  1.00  0.00     0.001 A 
ATOM     20  C   UNL     1       1.991  -3.947   0.603  1.00  0.00     0.086 A 
ATOM     21  C   UNL     1       2.616  -5.017   1.187  1.00  0.00     0.007 A 
BRANCH  18  22
ATOM     22  N   UNL     1       1.457  -1.739   0.210  1.00  0.00     0.063 N 
ATOM     23  O   UNL     1       1.309  -0.962  -0.728  1.00  0.00    -0.258 OA
ATOM     24  O   UNL     1       0.593  -1.829   1.100  1.00  0.00    -0.258 OA
ENDBRANCH  18  22
ENDBRANCH   9  16
BRANCH  14  25
ATOM     25  C   UNL     1       7.187  -3.796  -2.929  1.00  0.00    -0.033 A 
ATOM     26  C   UNL     1       8.366  -3.417  -3.590  1.00  0.00     0.009 A 
ATOM     27  C   UNL     1       6.236  -4.544  -3.647  1.00  0.00     0.009 A 
ATOM     28  C   UNL     1       8.541  -3.705  -4.956  1.00  0.00     0.021 A 
ATOM     29  C   UNL     1       6.420  -4.853  -4.997  1.00  0.00     0.021 A 
ATOM     30  C   UNL     1       7.563  -4.412  -5.654  1.00  0.00     0.041 A 
ATOM     31  Cl  UNL     1       7.752  -4.725  -7.336  1.00  0.00    -0.084 Cl
ENDBRANCH  14  25
ENDBRANCH   6   7
ENDBRANCH   5   6
ENDBRANCH   4   5
ENDBRANCH   2   4
ENDBRANCH   1   2
BRANCH   1  32
ATOM     32  C   UNL     1       3.304   0.317   0.458  1.00  0.00     0.274 C 
BRANCH  32  33
ATOM     33  C   UNL     1       3.492   0.379  -1.111  1.00  0.00     0.275 C 
BRANCH  33  34
ATOM     34  O   UNL     1       3.569  -0.912  -1.789  1.00  0.00    -0.458 OA
BRANCH  34  35
ATOM     35  C   UNL     1       2.711  -1.244  -2.804  1.00  0.00     0.338 C 
ATOM     36  O   UNL     1       2.362  -2.390  -3.041  1.00  0.00    -0.246 OA
BRANCH  35  37
ATOM     37  C   UNL     1       2.264  -0.111  -3.619  1.00  0.00     0.060 A 
ATOM     38  C   UNL     1       1.046   0.535  -3.359  1.00  0.00     0.016 A 
ATOM     39  C   UNL     1       3.137   0.338  -4.604  1.00  0.00     0.016 A 
ATOM     40  C   UNL     1       0.721   1.685  -4.065  1.00  0.00     0.010 A 
ATOM     41  C   UNL     1       2.793   1.466  -5.333  1.00  0.00     0.010 A 
ATOM     42  C   UNL     1       1.588   2.139  -5.063  1.00  0.00    -0.014 A 
BRANCH  42  43
ATOM     43  C   UNL     1       1.182   3.246  -5.942  1.00  0.00     0.031 A 
ATOM     44  C   UNL     1       0.535   2.905  -7.247  1.00  0.00     0.074 A 
ATOM     45  C   UNL     1       1.443   4.515  -5.589  1.00  0.00     0.049 A 
ATOM     46  N   UNL     1       0.217   3.692  -8.238  1.00  0.00    -0.248 NA
ATOM     47  C   UNL     1       0.210   1.485  -7.469  1.00  0.00     0.031 C 
ATOM     48  C   UNL     1       2.037   4.937  -4.321  1.00  0.00     0.029 A 
ATOM     49  N   UNL     1       1.267   5.681  -6.286  1.00  0.00    -0.354 N 
ATOM     50  C   UNL     1      -0.331   2.864  -9.207  1.00  0.00     0.074 A 
ATOM     51  C   UNL     1      -0.295   1.514  -8.693  1.00  0.00     0.031 C 
ATOM     52  C   UNL     1       2.213   6.270  -4.347  1.00  0.00     0.029 A 
ATOM     53  C   UNL     1       1.780   6.781  -5.645  1.00  0.00     0.049 A 
ATOM     54  H   UNL     1       0.816   5.726  -7.160  1.00  0.00     0.167 HD
ATOM     55  C   UNL     1      -0.813   3.212 -10.420  1.00  0.00     0.037 A 
ATOM     56  C   UNL     1       1.922   8.046  -6.087  1.00  0.00     0.037 A 
ATOM     57  C   UNL     1      -0.834   4.561 -10.912  1.00  0.00     0.049 A 
ATOM     58  C   UNL     1       1.442   8.385  -7.476  1.00  0.00     0.074 A 
ATOM     59  C   UNL     1      -1.345   5.031 -12.108  1.00  0.00     0.029 A 
ATOM     60  N   UNL     1      -0.302   5.652 -10.242  1.00  0.00    -0.354 N 
ATOM     61  N   UNL     1       0.861   7.613  -8.364  1.00  0.00    -0.248 NA
ATOM     62  C   UNL     1       1.641   9.769  -7.927  1.00  0.00     0.031 C 
ATOM     63  C   UNL     1      -1.058   6.396 -12.193  1.00  0.00     0.029 A 
ATOM     64  C   UNL     1      -0.427   6.788 -11.022  1.00  0.00     0.049 A 
ATOM     65  H   UNL     1       0.105   5.623  -9.346  1.00  0.00     0.167 HD
ATOM     66  C   UNL     1       0.604   8.422  -9.464  1.00  0.00     0.074 A 
ATOM     67  C   UNL     1       1.072   9.749  -9.123  1.00  0.00     0.031 C 
ATOM     68  C   UNL     1       0.039   8.099 -10.653  1.00  0.00     0.037 A 
BRANCH  55  69
ATOM     69  C   UNL     1      -1.319   2.122 -11.313  1.00  0.00     0.057 A 
ATOM     70  C   UNL     1      -2.530   1.463 -11.071  1.00  0.00     0.134 A 
ATOM     71  C   UNL     1      -0.613   1.778 -12.473  1.00  0.00     0.134 A 
ATOM     72  F   UNL     1      -3.244   1.735  -9.969  1.00  0.00    -0.206 F 
ATOM     73  C   UNL     1      -3.020   0.497 -11.951  1.00  0.00     0.040 A 
ATOM     74  C   UNL     1      -1.105   0.832 -13.372  1.00  0.00     0.040 A 
ATOM     75  F   UNL     1       0.556   2.371 -12.760  1.00  0.00    -0.206 F 
ATOM     76  C   UNL     1      -2.312   0.189 -13.112  1.00  0.00     0.006 A 
ENDBRANCH  55  69
BRANCH  56  77
ATOM     77  C   UNL     1       2.589   9.072  -5.245  1.00  0.00     0.057 A 
ATOM     78  C   UNL     1       1.897  10.198  -4.784  1.00  0.00     0.134 A 
ATOM     79  C   UNL     1       3.952   8.986  -4.934  1.00  0.00     0.134 A 
ATOM     80  F   UNL     1       0.594  10.351  -5.065  1.00  0.00    -0.206 F 
ATOM     81  C   UNL     1       2.542  11.218  -4.081  1.00  0.00     0.040 A 
ATOM     82  C   UNL     1       4.603   9.982  -4.204  1.00  0.00     0.040 A 
ATOM     83  F   UNL     1       4.676   7.932  -5.340  1.00  0.00    -0.206 F 
ATOM     84  C   UNL     1       3.900  11.110  -3.788  1.00  0.00     0.006 A 
ENDBRANCH  56  77
BRANCH  68  85
ATOM     85  C   UNL     1      -0.129   9.200 -11.660  1.00  0.00     0.057 A 
ATOM     86  C   UNL     1       0.964   9.744 -12.346  1.00  0.00     0.134 A 
ATOM     87  C   UNL     1      -1.405   9.669 -11.996  1.00  0.00     0.134 A 
ATOM     88  F   UNL     1       2.213   9.345 -12.061  1.00  0.00    -0.206 F 
ATOM     89  C   UNL     1       0.794  10.729 -13.319  1.00  0.00     0.040 A 
ATOM     90  C   UNL     1      -1.590  10.631 -12.989  1.00  0.00     0.040 A 
ATOM     91  F   UNL     1      -2.495   9.180 -11.385  1.00  0.00    -0.206 F 
ATOM     92  C   UNL     1      -0.487  11.167 -13.650  1.00  0.00     0.006 A 
ENDBRANCH  68  85
ENDBRANCH  42  43
ENDBRANCH  35  37
ENDBRANCH  34  35
ENDBRANCH  33  34
ENDBRANCH  32  33
ENDBRANCH   1  32
TORSDOF 17
