REMARK SMILES C[C@@H](Oc1ccc(-c2ccccc2)cc1)C(=O)N1CCC[C@H](C(=O)OCCOC(=O)c2ccc(-c3c4nc(c(-c5c(F)cccc5F)c5ccc([nH]5)c(-c5c(F)cccc5F)c5nc(c(-c6c(F)cccc6F)c6ccc3[nH]6)C=C5)C=C4)cc2)C1
REMARK SMILES IDX 25 1 23 2 24 3 22 4 18 5 19 6 85 7 20 8 21 9 16 10 17 11
REMARK SMILES IDX 2 12 1 13 3 14 4 15 5 16 15 17 6 18 14 19 7 20 8 21 9 22
REMARK SMILES IDX 13 23 10 24 12 25 11 26 26 27 27 28 28 29 29 30 30 31 31 32
REMARK SMILES IDX 32 33 84 34 33 35 83 36 34 37 35 38 36 39 77 40 37 41 82 42
REMARK SMILES IDX 76 43 78 44 38 45 81 46 75 47 74 48 39 50 65 51 48 52 64 53
REMARK SMILES IDX 49 54 52 55 63 56 79 57 50 58 51 59 62 61 80 62 53 63 40 64
REMARK SMILES IDX 41 65 46 66 42 67 43 68 45 69 47 70 44 71 66 72 67 73 72 74
REMARK SMILES IDX 68 75 69 76 71 77 73 78 70 79 54 80 55 81 60 82 56 83 57 84
REMARK SMILES IDX 59 85 61 86 58 87
REMARK H PARENT 78 49 52 60
REMARK Flexibility Score: inf
ROOT
ATOM      1  O   UNL     1      -3.286   0.876  -0.513  1.00  0.00    -0.462 OA
ENDROOT
BRANCH   1   2
ATOM      2  C   UNL     1      -2.396   1.255   0.436  1.00  0.00     0.310 C 
ATOM      3  O   UNL     1      -1.523   2.100   0.274  1.00  0.00    -0.252 OA
BRANCH   2   4
ATOM      4  C   UNL     1      -2.549   0.487   1.741  1.00  0.00     0.119 C 
ATOM      5  N   UNL     1      -1.777  -1.689   0.927  1.00  0.00    -0.339 N 
ATOM      6  C   UNL     1      -3.047  -2.356   1.204  1.00  0.00     0.119 C 
ATOM      7  C   UNL     1      -1.465  -0.581   1.826  1.00  0.00     0.134 C 
ATOM      8  C   UNL     1      -4.221  -1.382   1.200  1.00  0.00     0.022 C 
ATOM      9  C   UNL     1      -3.937  -0.110   2.005  1.00  0.00     0.019 C 
BRANCH   5  10
ATOM     10  C   UNL     1      -0.991  -2.118  -0.137  1.00  0.00     0.263 C 
ATOM     11  O   UNL     1      -1.456  -2.850  -1.018  1.00  0.00    -0.271 OA
BRANCH  10  12
ATOM     12  C   UNL     1       0.492  -1.696  -0.219  1.00  0.00     0.259 C 
ATOM     13  C   UNL     1       0.670  -0.287  -0.781  1.00  0.00     0.064 C 
BRANCH  12  14
ATOM     14  O   UNL     1       1.062  -1.825   1.089  1.00  0.00    -0.481 OA
BRANCH  14  15
ATOM     15  C   UNL     1       2.387  -2.139   1.074  1.00  0.00     0.120 A 
ATOM     16  C   UNL     1       2.786  -3.472   1.094  1.00  0.00     0.047 A 
ATOM     17  C   UNL     1       3.318  -1.117   1.204  1.00  0.00     0.047 A 
ATOM     18  C   UNL     1       4.141  -3.783   1.245  1.00  0.00     0.012 A 
ATOM     19  C   UNL     1       4.668  -1.431   1.348  1.00  0.00     0.012 A 
ATOM     20  C   UNL     1       5.103  -2.768   1.393  1.00  0.00    -0.018 A 
BRANCH  20  21
ATOM     21  C   UNL     1       6.519  -3.080   1.643  1.00  0.00    -0.018 A 
ATOM     22  C   UNL     1       7.240  -3.952   0.813  1.00  0.00     0.009 A 
ATOM     23  C   UNL     1       7.194  -2.499   2.732  1.00  0.00     0.009 A 
ATOM     24  C   UNL     1       8.590  -4.222   1.056  1.00  0.00     0.001 A 
ATOM     25  C   UNL     1       8.542  -2.766   2.977  1.00  0.00     0.001 A 
ATOM     26  C   UNL     1       9.241  -3.627   2.136  1.00  0.00     0.000 A 
ENDBRANCH  20  21
ENDBRANCH  14  15
ENDBRANCH  12  14
ENDBRANCH  10  12
ENDBRANCH   5  10
ENDBRANCH   2   4
ENDBRANCH   1   2
BRANCH   1  27
ATOM     27  C   UNL     1      -3.196   1.500  -1.808  1.00  0.00     0.274 C 
BRANCH  27  28
ATOM     28  C   UNL     1      -4.316   2.522  -2.005  1.00  0.00     0.275 C 
BRANCH  28  29
ATOM     29  O   UNL     1      -4.132   3.658  -1.139  1.00  0.00    -0.458 OA
BRANCH  29  30
ATOM     30  C   UNL     1      -4.779   3.577   0.046  1.00  0.00     0.338 C 
ATOM     31  O   UNL     1      -5.555   2.712   0.413  1.00  0.00    -0.246 OA
BRANCH  30  32
ATOM     32  C   UNL     1      -4.285   4.626   0.947  1.00  0.00     0.060 A 
ATOM     33  C   UNL     1      -3.622   4.215   2.106  1.00  0.00     0.016 A 
ATOM     34  C   UNL     1      -4.549   5.976   0.718  1.00  0.00     0.016 A 
ATOM     35  C   UNL     1      -3.231   5.149   3.055  1.00  0.00     0.010 A 
ATOM     36  C   UNL     1      -4.163   6.918   1.678  1.00  0.00     0.010 A 
ATOM     37  C   UNL     1      -3.522   6.504   2.860  1.00  0.00    -0.014 A 
BRANCH  37  38
ATOM     38  C   UNL     1      -3.248   7.454   3.962  1.00  0.00     0.031 A 
ATOM     39  C   UNL     1      -4.380   7.915   4.835  1.00  0.00     0.074 A 
ATOM     40  C   UNL     1      -1.986   7.832   4.228  1.00  0.00     0.049 A 
ATOM     41  N   UNL     1      -4.361   8.742   5.849  1.00  0.00    -0.248 NA
ATOM     42  C   UNL     1      -5.712   7.370   4.526  1.00  0.00     0.031 C 
ATOM     43  C   UNL     1      -0.802   7.404   3.484  1.00  0.00     0.029 A 
ATOM     44  N   UNL     1      -1.491   8.653   5.209  1.00  0.00    -0.354 N 
ATOM     45  C   UNL     1      -5.675   8.830   6.288  1.00  0.00     0.074 A 
ATOM     46  C   UNL     1      -6.470   7.986   5.421  1.00  0.00     0.031 C 
ATOM     47  C   UNL     1       0.287   7.960   4.042  1.00  0.00     0.029 A 
ATOM     48  C   UNL     1      -0.128   8.806   5.158  1.00  0.00     0.049 A 
ATOM     49  H   UNL     1      -2.058   9.090   5.884  1.00  0.00     0.167 HD
ATOM     50  C   UNL     1      -6.172   9.545   7.324  1.00  0.00     0.037 A 
ATOM     51  C   UNL     1       0.689   9.557   5.920  1.00  0.00     0.037 A 
ATOM     52  C   UNL     1      -5.378  10.371   8.195  1.00  0.00     0.049 A 
ATOM     53  C   UNL     1       0.106  10.374   7.039  1.00  0.00     0.074 A 
ATOM     54  C   UNL     1      -5.788  11.138   9.271  1.00  0.00     0.029 A 
ATOM     55  N   UNL     1      -4.004  10.531   8.089  1.00  0.00    -0.354 N 
ATOM     56  N   UNL     1      -1.141  10.463   7.435  1.00  0.00    -0.248 NA
ATOM     57  C   UNL     1       1.044  11.197   7.815  1.00  0.00     0.031 C 
ATOM     58  C   UNL     1      -4.666  11.787   9.798  1.00  0.00     0.029 A 
ATOM     59  C   UNL     1      -3.552  11.396   9.073  1.00  0.00     0.049 A 
ATOM     60  H   UNL     1      -3.435  10.096   7.415  1.00  0.00     0.167 HD
ATOM     61  C   UNL     1      -1.136  11.339   8.513  1.00  0.00     0.074 A 
ATOM     62  C   UNL     1       0.242  11.737   8.721  1.00  0.00     0.031 C 
ATOM     63  C   UNL     1      -2.177  11.780   9.261  1.00  0.00     0.037 A 
BRANCH  50  64
ATOM     64  C   UNL     1      -7.653   9.486   7.548  1.00  0.00     0.057 A 
ATOM     65  C   UNL     1      -8.274   8.359   8.100  1.00  0.00     0.134 A 
ATOM     66  C   UNL     1      -8.466  10.578   7.219  1.00  0.00     0.134 A 
ATOM     67  F   UNL     1      -7.554   7.273   8.418  1.00  0.00    -0.206 F 
ATOM     68  C   UNL     1      -9.656   8.312   8.297  1.00  0.00     0.040 A 
ATOM     69  C   UNL     1      -9.845  10.551   7.431  1.00  0.00     0.040 A 
ATOM     70  F   UNL     1      -7.932  11.688   6.688  1.00  0.00    -0.206 F 
ATOM     71  C   UNL     1     -10.444   9.413   7.966  1.00  0.00     0.006 A 
ENDBRANCH  50  64
BRANCH  51  72
ATOM     72  C   UNL     1       2.146   9.582   5.643  1.00  0.00     0.057 A 
ATOM     73  C   UNL     1       3.062   8.991   6.519  1.00  0.00     0.134 A 
ATOM     74  C   UNL     1       2.656  10.211   4.501  1.00  0.00     0.134 A 
ATOM     75  F   UNL     1       2.635   8.394   7.641  1.00  0.00    -0.206 F 
ATOM     76  C   UNL     1       4.436   9.034   6.277  1.00  0.00     0.040 A 
ATOM     77  C   UNL     1       4.025  10.242   4.234  1.00  0.00     0.040 A 
ATOM     78  F   UNL     1       1.828  10.796   3.623  1.00  0.00    -0.206 F 
ATOM     79  C   UNL     1       4.920   9.657   5.128  1.00  0.00     0.006 A 
ENDBRANCH  51  72
BRANCH  63  80
ATOM     80  C   UNL     1      -1.856  12.723  10.380  1.00  0.00     0.057 A 
ATOM     81  C   UNL     1      -1.518  14.061  10.140  1.00  0.00     0.134 A 
ATOM     82  C   UNL     1      -1.901  12.294  11.712  1.00  0.00     0.134 A 
ATOM     83  F   UNL     1      -1.444  14.529   8.885  1.00  0.00    -0.206 F 
ATOM     84  C   UNL     1      -1.211  14.933  11.185  1.00  0.00     0.040 A 
ATOM     85  C   UNL     1      -1.618  13.162  12.767  1.00  0.00     0.040 A 
ATOM     86  F   UNL     1      -2.225  11.027  12.009  1.00  0.00    -0.206 F 
ATOM     87  C   UNL     1      -1.264  14.485  12.504  1.00  0.00     0.006 A 
ENDBRANCH  63  80
ENDBRANCH  37  38
ENDBRANCH  30  32
ENDBRANCH  29  30
ENDBRANCH  28  29
ENDBRANCH  27  28
ENDBRANCH   1  27
TORSDOF 16
