REMARK SMILES CC(C)CN(C)S(=O)(=O)c1ccc(C(=O)OCCOC(=O)c2ccc(-c3c4nc(c(-c5c(F)cccc5F)c5ccc([nH]5)c(-c5c(F)cccc5F)c5nc(c(-c6c(F)cccc6F)c6ccc3[nH]6)C=C5)C=C4)cc2)cc1
REMARK SMILES IDX 17 1 16 2 14 3 15 4 13 5 10 6 11 7 77 8 12 9 76 10 7 11 8 12
REMARK SMILES IDX 9 13 5 14 6 15 4 16 2 17 1 18 3 19 18 20 19 21 20 22 21 23
REMARK SMILES IDX 22 24 23 25 75 26 24 27 74 28 25 29 26 30 27 31 68 32 28 33
REMARK SMILES IDX 73 34 67 35 69 36 29 37 72 38 66 39 65 40 30 42 56 43 39 44
REMARK SMILES IDX 55 45 40 46 43 47 54 48 70 49 41 50 42 51 53 53 71 54 44 55
REMARK SMILES IDX 31 56 32 57 37 58 33 59 34 60 36 61 38 62 35 63 57 64 58 65
REMARK SMILES IDX 63 66 59 67 60 68 62 69 64 70 61 71 45 72 46 73 51 74 47 75
REMARK SMILES IDX 48 76 50 77 52 78 49 79
REMARK H PARENT 69 41 43 52
REMARK Flexibility Score: inf
ROOT
ATOM      1  C   UNL     1      -3.142   6.438   6.646  1.00  0.00     0.275 C 
ENDROOT
BRANCH   1   2
ATOM      2  O   UNL     1      -2.816   5.277   5.855  1.00  0.00    -0.458 OA
BRANCH   2   3
ATOM      3  C   UNL     1      -3.147   5.337   4.543  1.00  0.00     0.338 C 
ATOM      4  O   UNL     1      -3.692   6.264   3.967  1.00  0.00    -0.246 OA
BRANCH   3   5
ATOM      5  C   UNL     1      -2.672   4.124   3.835  1.00  0.00     0.060 A 
ATOM      6  C   UNL     1      -1.806   1.887   2.409  1.00  0.00     0.082 A 
ATOM      7  C   UNL     1      -1.669   3.151   1.844  1.00  0.00     0.022 A 
ATOM      8  C   UNL     1      -2.358   1.732   3.689  1.00  0.00     0.022 A 
ATOM      9  C   UNL     1      -2.150   4.258   2.540  1.00  0.00     0.017 A 
ATOM     10  C   UNL     1      -2.771   2.855   4.413  1.00  0.00     0.017 A 
BRANCH   6  11
ATOM     11  S   UNL     1      -1.338   0.428   1.510  1.00  0.00     0.242 S 
ATOM     12  O   UNL     1      -2.378  -0.558   1.727  1.00  0.00    -0.207 OA
ATOM     13  O   UNL     1       0.032   0.160   1.875  1.00  0.00    -0.207 OA
BRANCH  11  14
ATOM     14  N   UNL     1      -1.409   0.858  -0.171  1.00  0.00    -0.201 NA
ATOM     15  C   UNL     1      -2.785   1.246  -0.614  1.00  0.00     0.124 C 
BRANCH  14  16
ATOM     16  C   UNL     1      -0.888  -0.237  -1.071  1.00  0.00     0.105 C 
BRANCH  16  17
ATOM     17  C   UNL     1       0.519   0.041  -1.628  1.00  0.00    -0.002 C 
ATOM     18  C   UNL     1       1.627  -0.145  -0.591  1.00  0.00     0.009 C 
ATOM     19  C   UNL     1       0.783  -0.914  -2.801  1.00  0.00     0.009 C 
ENDBRANCH  16  17
ENDBRANCH  14  16
ENDBRANCH  11  14
ENDBRANCH   6  11
ENDBRANCH   3   5
ENDBRANCH   2   3
ENDBRANCH   1   2
BRANCH   1  20
ATOM     20  C   UNL     1      -1.919   7.329   6.866  1.00  0.00     0.275 C 
BRANCH  20  21
ATOM     21  O   UNL     1      -1.526   7.966   5.637  1.00  0.00    -0.458 OA
BRANCH  21  22
ATOM     22  C   UNL     1      -0.387   7.498   5.081  1.00  0.00     0.338 C 
ATOM     23  O   UNL     1       0.353   6.628   5.508  1.00  0.00    -0.246 OA
BRANCH  22  24
ATOM     24  C   UNL     1      -0.154   8.166   3.794  1.00  0.00     0.060 A 
ATOM     25  C   UNL     1      -0.868   7.731   2.682  1.00  0.00     0.016 A 
ATOM     26  C   UNL     1       0.866   9.102   3.648  1.00  0.00     0.016 A 
ATOM     27  C   UNL     1      -0.502   8.140   1.404  1.00  0.00     0.010 A 
ATOM     28  C   UNL     1       1.160   9.598   2.373  1.00  0.00     0.010 A 
ATOM     29  C   UNL     1       0.504   9.097   1.231  1.00  0.00    -0.014 A 
BRANCH  29  30
ATOM     30  C   UNL     1       0.891   9.564  -0.130  1.00  0.00     0.031 A 
ATOM     31  C   UNL     1       2.320   9.440  -0.588  1.00  0.00     0.074 A 
ATOM     32  C   UNL     1      -0.022  10.115  -0.955  1.00  0.00     0.049 A 
ATOM     33  N   UNL     1       2.919  10.011  -1.602  1.00  0.00    -0.248 NA
ATOM     34  C   UNL     1       3.195   8.567   0.211  1.00  0.00     0.031 C 
ATOM     35  C   UNL     1      -1.454  10.241  -0.678  1.00  0.00     0.029 A 
ATOM     36  N   UNL     1       0.124  10.686  -2.196  1.00  0.00    -0.354 N 
ATOM     37  C   UNL     1       4.251   9.622  -1.523  1.00  0.00     0.074 A 
ATOM     38  C   UNL     1       4.372   8.759  -0.368  1.00  0.00     0.031 C 
ATOM     39  C   UNL     1      -2.056  10.829  -1.722  1.00  0.00     0.029 A 
ATOM     40  C   UNL     1      -1.042  11.217  -2.695  1.00  0.00     0.049 A 
ATOM     41  H   UNL     1       0.980  10.713  -2.681  1.00  0.00     0.167 HD
ATOM     42  C   UNL     1       5.278   9.963  -2.338  1.00  0.00     0.037 A 
ATOM     43  C   UNL     1      -1.267  11.986  -3.777  1.00  0.00     0.037 A 
ATOM     44  C   UNL     1       5.137  10.776  -3.519  1.00  0.00     0.049 A 
ATOM     45  C   UNL     1      -0.107  12.396  -4.638  1.00  0.00     0.074 A 
ATOM     46  C   UNL     1       6.113  11.169  -4.418  1.00  0.00     0.029 A 
ATOM     47  N   UNL     1       3.938  11.306  -3.972  1.00  0.00    -0.354 N 
ATOM     48  N   UNL     1       1.159  12.083  -4.518  1.00  0.00    -0.248 NA
ATOM     49  C   UNL     1      -0.403  13.286  -5.770  1.00  0.00     0.031 C 
ATOM     50  C   UNL     1       5.510  11.965  -5.397  1.00  0.00     0.029 A 
ATOM     51  C   UNL     1       4.152  12.032  -5.131  1.00  0.00     0.049 A 
ATOM     52  H   UNL     1       3.065  11.184  -3.534  1.00  0.00     0.167 HD
ATOM     53  C   UNL     1       1.809  12.719  -5.567  1.00  0.00     0.074 A 
ATOM     54  C   UNL     1       0.795  13.430  -6.319  1.00  0.00     0.031 C 
ATOM     55  C   UNL     1       3.127  12.715  -5.878  1.00  0.00     0.037 A 
BRANCH  42  56
ATOM     56  C   UNL     1       6.653   9.493  -1.964  1.00  0.00     0.057 A 
ATOM     57  C   UNL     1       7.053   8.160  -2.106  1.00  0.00     0.134 A 
ATOM     58  C   UNL     1       7.606  10.406  -1.491  1.00  0.00     0.134 A 
ATOM     59  F   UNL     1       6.187   7.233  -2.542  1.00  0.00    -0.206 F 
ATOM     60  C   UNL     1       8.345   7.746  -1.771  1.00  0.00     0.040 A 
ATOM     61  C   UNL     1       8.907  10.010  -1.177  1.00  0.00     0.040 A 
ATOM     62  F   UNL     1       7.292  11.702  -1.339  1.00  0.00    -0.206 F 
ATOM     63  C   UNL     1       9.278   8.675  -1.312  1.00  0.00     0.006 A 
ENDBRANCH  42  56
BRANCH  43  64
ATOM     64  C   UNL     1      -2.642  12.466  -4.069  1.00  0.00     0.057 A 
ATOM     65  C   UNL     1      -3.353  11.991  -5.175  1.00  0.00     0.134 A 
ATOM     66  C   UNL     1      -3.282  13.396  -3.240  1.00  0.00     0.134 A 
ATOM     67  F   UNL     1      -2.785  11.117  -6.019  1.00  0.00    -0.206 F 
ATOM     68  C   UNL     1      -4.651  12.427  -5.450  1.00  0.00     0.040 A 
ATOM     69  C   UNL     1      -4.589  13.819  -3.486  1.00  0.00     0.040 A 
ATOM     70  F   UNL     1      -2.654  13.887  -2.161  1.00  0.00    -0.206 F 
ATOM     71  C   UNL     1      -5.276  13.336  -4.598  1.00  0.00     0.006 A 
ENDBRANCH  43  64
BRANCH  55  72
ATOM     72  C   UNL     1       3.545  13.457  -7.110  1.00  0.00     0.057 A 
ATOM     73  C   UNL     1       3.643  14.852  -7.135  1.00  0.00     0.134 A 
ATOM     74  C   UNL     1       3.913  12.758  -8.267  1.00  0.00     0.134 A 
ATOM     75  F   UNL     1       3.291  15.578  -6.062  1.00  0.00    -0.206 F 
ATOM     76  C   UNL     1       4.086  15.529  -8.272  1.00  0.00     0.040 A 
ATOM     77  C   UNL     1       4.376  13.422  -9.402  1.00  0.00     0.040 A 
ATOM     78  F   UNL     1       3.846  11.418  -8.303  1.00  0.00    -0.206 F 
ATOM     79  C   UNL     1       4.462  14.812  -9.407  1.00  0.00     0.006 A 
ENDBRANCH  55  72
ENDBRANCH  29  30
ENDBRANCH  22  24
ENDBRANCH  21  22
ENDBRANCH  20  21
ENDBRANCH   1  20
TORSDOF 15
