REMARK SMILES Cc1c[nH]c(C[N@@H+](C)[C@@H](C(=O)OCCOC(=O)c2ccc(-c3c4nc(c(-c5c(F)cccc5F)c5ccc([nH]5)c(-c5c(F)cccc5F)c5nc(c(-c6c(F)cccc6F)c6ccc3[nH]6)C=C5)C=C4)cc2)c2ccc(NC(=O)N3CCCC3)cc2)n1
REMARK SMILES IDX 13 1 12 2 10 3 11 4 9 5 7 6 8 7 6 9 5 10 1 11 2 12 3 13
REMARK SMILES IDX 86 14 4 15 72 17 73 18 85 19 74 20 84 21 75 22 76 23 77 24
REMARK SMILES IDX 78 26 79 27 80 28 83 29 81 30 82 31 14 32 15 33 16 34 17 35
REMARK SMILES IDX 18 36 19 37 71 38 20 39 70 40 21 41 22 42 23 43 64 44 24 45
REMARK SMILES IDX 69 46 63 47 65 48 25 49 68 50 62 51 61 52 26 54 52 55 35 56
REMARK SMILES IDX 51 57 36 58 39 59 50 60 66 61 37 62 38 63 49 65 67 66 40 67
REMARK SMILES IDX 27 68 28 69 33 70 29 71 30 72 32 73 34 74 31 75 53 76 54 77
REMARK SMILES IDX 59 78 55 79 56 80 58 81 60 82 57 83 41 84 42 85 47 86 43 87
REMARK SMILES IDX 44 88 46 89 48 90 45 91
REMARK H PARENT 7 8 4 16 76 25 65 53 39 64
REMARK Flexibility Score: inf
ROOT
ATOM      1  C   UNL     1      -5.658   0.413   1.913  1.00  0.00     0.274 C 
ENDROOT
BRANCH   1   2
ATOM      2  O   UNL     1      -4.388   1.063   1.756  1.00  0.00    -0.457 OA
BRANCH   2   3
ATOM      3  C   UNL     1      -4.181   2.119   2.592  1.00  0.00     0.370 C 
ATOM      4  O   UNL     1      -5.045   2.561   3.347  1.00  0.00    -0.245 OA
BRANCH   3   5
ATOM      5  C   UNL     1      -2.714   2.626   2.589  1.00  0.00     0.326 C 
BRANCH   5   6
ATOM      6  N   UNL     1      -2.281   3.252   1.287  1.00  0.00    -0.316 N 
ATOM      7  C   UNL     1      -3.184   4.394   1.027  1.00  0.00     0.334 C 
ATOM      8  H   UNL     1      -1.299   3.485   1.435  1.00  0.00     0.349 HD
BRANCH   6   9
ATOM      9  C   UNL     1      -2.276   2.409   0.070  1.00  0.00     0.339 C 
BRANCH   9  10
ATOM     10  C   UNL     1      -0.998   1.741  -0.355  1.00  0.00     0.161 A 
ATOM     11  C   UNL     1       2.391   0.627  -0.240  1.00  0.00     0.068 C 
ATOM     12  C   UNL     1       0.989   0.928  -0.603  1.00  0.00     0.056 A 
ATOM     13  C   UNL     1       0.243   0.401  -1.633  1.00  0.00     0.107 A 
ATOM     14  N   UNL     1       0.220   1.794   0.147  1.00  0.00    -0.233 NA
ATOM     15  N   UNL     1      -1.007   0.926  -1.472  1.00  0.00    -0.344 N 
ATOM     16  H   UNL     1      -1.784   0.754  -2.053  1.00  0.00     0.167 HD
ENDBRANCH   9  10
ENDBRANCH   6   9
ENDBRANCH   5   6
BRANCH   5  17
ATOM     17  C   UNL     1      -1.780   1.707   3.381  1.00  0.00     0.021 A 
ATOM     18  C   UNL     1      -2.329   0.909   4.411  1.00  0.00     0.012 A 
ATOM     19  C   UNL     1      -0.384   1.722   3.255  1.00  0.00     0.012 A 
ATOM     20  C   UNL     1      -1.548   0.054   5.176  1.00  0.00     0.027 A 
ATOM     21  C   UNL     1       0.416   0.841   4.004  1.00  0.00     0.027 A 
ATOM     22  C   UNL     1      -0.192  -0.052   4.903  1.00  0.00     0.042 A 
BRANCH  22  23
ATOM     23  N   UNL     1       0.373  -1.358   5.085  1.00  0.00    -0.308 N 
ATOM     24  C   UNL     1      -0.162  -2.173   4.115  1.00  0.00     0.321 C 
ATOM     25  H   UNL     1       1.022  -1.622   5.776  1.00  0.00     0.171 HD
ATOM     26  O   UNL     1       0.083  -1.872   2.948  1.00  0.00    -0.248 OA
ATOM     27  N   UNL     1      -1.189  -3.004   4.452  1.00  0.00    -0.325 N 
ATOM     28  C   UNL     1      -2.282  -3.136   3.521  1.00  0.00     0.121 C 
ATOM     29  C   UNL     1      -1.104  -4.183   5.292  1.00  0.00     0.121 C 
ATOM     30  C   UNL     1      -3.274  -4.005   4.253  1.00  0.00     0.023 C 
ATOM     31  C   UNL     1      -2.351  -5.005   4.938  1.00  0.00     0.023 C 
ENDBRANCH  22  23
ENDBRANCH   5  17
ENDBRANCH   3   5
ENDBRANCH   2   3
ENDBRANCH   1   2
BRANCH   1  32
ATOM     32  C   UNL     1      -5.855  -0.642   0.822  1.00  0.00     0.275 C 
BRANCH  32  33
ATOM     33  O   UNL     1      -4.772  -1.598   0.812  1.00  0.00    -0.458 OA
BRANCH  33  34
ATOM     34  C   UNL     1      -3.820  -1.385  -0.134  1.00  0.00     0.338 C 
ATOM     35  O   UNL     1      -3.813  -0.523  -0.997  1.00  0.00    -0.246 OA
BRANCH  34  36
ATOM     36  C   UNL     1      -2.682  -2.307   0.064  1.00  0.00     0.060 A 
ATOM     37  C   UNL     1      -1.442  -1.749   0.359  1.00  0.00     0.016 A 
ATOM     38  C   UNL     1      -2.781  -3.685  -0.112  1.00  0.00     0.016 A 
ATOM     39  C   UNL     1      -0.287  -2.540   0.428  1.00  0.00     0.010 A 
ATOM     40  C   UNL     1      -1.632  -4.488   0.050  1.00  0.00     0.010 A 
ATOM     41  C   UNL     1      -0.369  -3.925   0.346  1.00  0.00    -0.014 A 
BRANCH  41  42
ATOM     42  C   UNL     1       0.830  -4.805   0.445  1.00  0.00     0.031 A 
ATOM     43  C   UNL     1       1.559  -5.145  -0.800  1.00  0.00     0.074 A 
ATOM     44  C   UNL     1       1.457  -5.178   1.579  1.00  0.00     0.049 A 
ATOM     45  N   UNL     1       2.642  -5.860  -0.917  1.00  0.00    -0.248 NA
ATOM     46  C   UNL     1       1.112  -4.482  -2.031  1.00  0.00     0.031 C 
ATOM     47  C   UNL     1       1.470  -4.428   2.808  1.00  0.00     0.029 A 
ATOM     48  N   UNL     1       2.256  -6.253   1.893  1.00  0.00    -0.354 N 
ATOM     49  C   UNL     1       3.070  -5.656  -2.207  1.00  0.00     0.074 A 
ATOM     50  C   UNL     1       2.085  -4.819  -2.864  1.00  0.00     0.031 C 
ATOM     51  C   UNL     1       1.970  -5.154   3.816  1.00  0.00     0.029 A 
ATOM     52  C   UNL     1       2.431  -6.403   3.255  1.00  0.00     0.049 A 
ATOM     53  H   UNL     1       2.658  -6.849   1.221  1.00  0.00     0.167 HD
ATOM     54  C   UNL     1       4.217  -6.100  -2.761  1.00  0.00     0.037 A 
ATOM     55  C   UNL     1       3.006  -7.365   3.995  1.00  0.00     0.037 A 
ATOM     56  C   UNL     1       5.158  -6.963  -2.096  1.00  0.00     0.049 A 
ATOM     57  C   UNL     1       4.040  -8.159   3.280  1.00  0.00     0.074 A 
ATOM     58  C   UNL     1       6.268  -7.587  -2.633  1.00  0.00     0.029 A 
ATOM     59  N   UNL     1       5.093  -7.343  -0.757  1.00  0.00    -0.354 N 
ATOM     60  N   UNL     1       4.401  -8.035   2.029  1.00  0.00    -0.248 NA
ATOM     61  C   UNL     1       4.865  -9.073   4.072  1.00  0.00     0.031 C 
ATOM     62  C   UNL     1       6.835  -8.399  -1.645  1.00  0.00     0.029 A 
ATOM     63  C   UNL     1       6.110  -8.248  -0.473  1.00  0.00     0.049 A 
ATOM     64  H   UNL     1       4.427  -7.020  -0.109  1.00  0.00     0.167 HD
ATOM     65  C   UNL     1       5.560  -8.764   1.899  1.00  0.00     0.074 A 
ATOM     66  C   UNL     1       5.822  -9.360   3.198  1.00  0.00     0.031 C 
ATOM     67  C   UNL     1       6.348  -8.878   0.805  1.00  0.00     0.037 A 
BRANCH  54  68
ATOM     68  C   UNL     1       4.413  -5.722  -4.189  1.00  0.00     0.057 A 
ATOM     69  C   UNL     1       4.807  -4.434  -4.572  1.00  0.00     0.134 A 
ATOM     70  C   UNL     1       4.082  -6.635  -5.195  1.00  0.00     0.134 A 
ATOM     71  F   UNL     1       5.083  -3.501  -3.647  1.00  0.00    -0.206 F 
ATOM     72  C   UNL     1       4.846  -4.061  -5.915  1.00  0.00     0.040 A 
ATOM     73  C   UNL     1       4.133  -6.278  -6.540  1.00  0.00     0.040 A 
ATOM     74  F   UNL     1       3.665  -7.870  -4.881  1.00  0.00    -0.206 F 
ATOM     75  C   UNL     1       4.508  -4.986  -6.903  1.00  0.00     0.006 A 
ENDBRANCH  54  68
BRANCH  55  76
ATOM     76  C   UNL     1       2.793  -7.442   5.463  1.00  0.00     0.057 A 
ATOM     77  C   UNL     1       3.769  -7.064   6.390  1.00  0.00     0.134 A 
ATOM     78  C   UNL     1       1.573  -7.909   5.977  1.00  0.00     0.134 A 
ATOM     79  F   UNL     1       4.954  -6.601   5.968  1.00  0.00    -0.206 F 
ATOM     80  C   UNL     1       3.556  -7.173   7.768  1.00  0.00     0.040 A 
ATOM     81  C   UNL     1       1.342  -8.015   7.353  1.00  0.00     0.040 A 
ATOM     82  F   UNL     1       0.585  -8.281   5.148  1.00  0.00    -0.206 F 
ATOM     83  C   UNL     1       2.340  -7.652   8.253  1.00  0.00     0.006 A 
ENDBRANCH  55  76
BRANCH  67  84
ATOM     84  C   UNL     1       7.558  -9.742   0.963  1.00  0.00     0.057 A 
ATOM     85  C   UNL     1       7.439 -11.129   1.111  1.00  0.00     0.134 A 
ATOM     86  C   UNL     1       8.844  -9.192   0.961  1.00  0.00     0.134 A 
ATOM     87  F   UNL     1       6.229 -11.708   1.143  1.00  0.00    -0.206 F 
ATOM     88  C   UNL     1       8.559 -11.940   1.281  1.00  0.00     0.040 A 
ATOM     89  C   UNL     1       9.975  -9.997   1.099  1.00  0.00     0.040 A 
ATOM     90  F   UNL     1       9.024  -7.870   0.824  1.00  0.00    -0.206 F 
ATOM     91  C   UNL     1       9.832 -11.374   1.267  1.00  0.00     0.006 A 
ENDBRANCH  67  84
ENDBRANCH  41  42
ENDBRANCH  34  36
ENDBRANCH  33  34
ENDBRANCH  32  33
ENDBRANCH   1  32
TORSDOF 16
