REMARK SMILES O=C(OCCOC(=O)[C@H]1C=C[C@H](NS(=O)(=O)c2ccc3c(c2)CCO3)C1)c1ccc(-c2c3nc(c(-c4c(F)cccc4F)c4ccc([nH]4)c(-c4c(F)cccc4F)c4nc(c(-c5c(F)cccc5F)c5ccc2[nH]5)C=C4)C=C3)cc1
REMARK SMILES IDX 5 1 4 2 3 3 2 4 1 5 27 6 28 7 80 8 29 9 79 10 30 11 31 12
REMARK SMILES IDX 32 13 73 14 33 15 78 16 72 17 74 18 34 19 77 20 71 21 70 22
REMARK SMILES IDX 35 24 61 25 44 26 60 27 45 28 48 29 59 30 75 31 46 32 47 33
REMARK SMILES IDX 58 35 76 36 49 37 36 38 37 39 42 40 38 41 39 42 41 43 43 44
REMARK SMILES IDX 40 45 62 46 63 47 68 48 64 49 65 50 67 51 69 52 66 53 50 54
REMARK SMILES IDX 51 55 56 56 52 57 53 58 55 59 57 60 54 61 6 62 7 63 8 64
REMARK SMILES IDX 9 65 10 66 26 67 11 68 12 69 13 70 14 72 15 73 16 74 17 75
REMARK SMILES IDX 18 76 22 77 19 78 21 79 20 80 23 81 25 82 24 83
REMARK H PARENT 74 23 48 34 13 71
REMARK Flexibility Score: inf
ROOT
ATOM      1  C   UNL     1       3.970   2.089  -0.401  1.00  0.00     0.274 C 
ENDROOT
BRANCH   1   2
ATOM      2  C   UNL     1       4.189   0.922  -1.375  1.00  0.00     0.275 C 
BRANCH   2   3
ATOM      3  O   UNL     1       3.191  -0.102  -1.326  1.00  0.00    -0.458 OA
BRANCH   3   4
ATOM      4  C   UNL     1       2.987  -1.060  -0.397  1.00  0.00     0.338 C 
ATOM      5  O   UNL     1       1.982  -1.762  -0.502  1.00  0.00    -0.246 OA
BRANCH   4   6
ATOM      6  C   UNL     1       3.861  -1.274   0.808  1.00  0.00     0.060 A 
ATOM      7  C   UNL     1       5.117  -0.711   1.069  1.00  0.00     0.016 A 
ATOM      8  C   UNL     1       3.308  -2.089   1.804  1.00  0.00     0.016 A 
ATOM      9  C   UNL     1       5.738  -0.842   2.317  1.00  0.00     0.010 A 
ATOM     10  C   UNL     1       3.896  -2.179   3.064  1.00  0.00     0.010 A 
ATOM     11  C   UNL     1       5.097  -1.514   3.351  1.00  0.00    -0.014 A 
BRANCH  11  12
ATOM     12  C   UNL     1       5.651  -1.604   4.724  1.00  0.00     0.031 A 
ATOM     13  C   UNL     1       6.159  -2.941   5.161  1.00  0.00     0.074 A 
ATOM     14  C   UNL     1       5.756  -0.489   5.503  1.00  0.00     0.049 A 
ATOM     15  N   UNL     1       6.836  -3.264   6.227  1.00  0.00    -0.248 NA
ATOM     16  C   UNL     1       5.974  -4.050   4.202  1.00  0.00     0.031 C 
ATOM     17  C   UNL     1       5.883   1.225   4.668  1.00  0.00     0.029 A 
ATOM     18  N   UNL     1       6.333  -0.332   7.239  1.00  0.00    -0.354 N 
ATOM     19  C   UNL     1       7.174  -4.599   6.048  1.00  0.00     0.074 A 
ATOM     20  C   UNL     1       6.548  -5.056   4.832  1.00  0.00     0.031 C 
ATOM     21  C   UNL     1       6.606   2.320   5.706  1.00  0.00     0.029 A 
ATOM     22  C   UNL     1       7.007   1.397   7.598  1.00  0.00     0.049 A 
ATOM     23  H   UNL     1       6.295  -1.059   7.902  1.00  0.00     0.167 HD
ATOM     24  C   UNL     1       8.009  -5.361   6.786  1.00  0.00     0.037 A 
ATOM     25  C   UNL     1       6.808   1.655   9.066  1.00  0.00     0.037 A 
ATOM     26  C   UNL     1       8.601  -4.916   8.014  1.00  0.00     0.049 A 
ATOM     27  C   UNL     1       7.462   0.526   9.866  1.00  0.00     0.074 A 
ATOM     28  C   UNL     1       9.423  -5.626   8.863  1.00  0.00     0.029 A 
ATOM     29  N   UNL     1       8.408  -3.657   8.585  1.00  0.00    -0.354 N 
ATOM     30  N   UNL     1       7.777  -0.703   9.516  1.00  0.00    -0.248 NA
ATOM     31  C   UNL     1       7.938   0.911  11.197  1.00  0.00     0.031 C 
ATOM     32  C   UNL     1       9.673  -4.824   9.978  1.00  0.00     0.029 A 
ATOM     33  C   UNL     1       9.075  -3.580   9.796  1.00  0.00     0.049 A 
ATOM     34  H   UNL     1       7.876  -2.931   8.185  1.00  0.00     0.167 HD
ATOM     35  C   UNL     1       8.534  -1.228  10.556  1.00  0.00     0.074 A 
ATOM     36  C   UNL     1       8.639  -0.161  11.541  1.00  0.00     0.031 C 
ATOM     37  C   UNL     1       9.129  -2.444  10.696  1.00  0.00     0.037 A 
BRANCH  24  38
ATOM     38  C   UNL     1       8.286  -6.740   6.252  1.00  0.00     0.057 A 
ATOM     39  C   UNL     1       9.027  -6.937   5.074  1.00  0.00     0.134 A 
ATOM     40  C   UNL     1       7.718  -7.870   6.849  1.00  0.00     0.134 A 
ATOM     41  F   UNL     1       9.561  -5.891   4.423  1.00  0.00    -0.206 F 
ATOM     42  C   UNL     1       9.155  -8.199   4.489  1.00  0.00     0.040 A 
ATOM     43  C   UNL     1       7.864  -9.141   6.289  1.00  0.00     0.040 A 
ATOM     44  F   UNL     1       6.984  -7.753   7.965  1.00  0.00    -0.206 F 
ATOM     45  C   UNL     1       8.572  -9.307   5.099  1.00  0.00     0.006 A 
ENDBRANCH  24  38
BRANCH  25  46
ATOM     46  C   UNL     1       6.122   2.933  10.011  1.00  0.00     0.057 A 
ATOM     47  C   UNL     1       6.567   4.268  10.394  1.00  0.00     0.134 A 
ATOM     48  C   UNL     1       4.807   2.730  10.476  1.00  0.00     0.134 A 
ATOM     49  F   UNL     1       7.768   4.823  10.188  1.00  0.00    -0.206 F 
ATOM     50  C   UNL     1       5.800   5.244  11.059  1.00  0.00     0.040 A 
ATOM     51  C   UNL     1       3.995   3.751  11.059  1.00  0.00     0.040 A 
ATOM     52  F   UNL     1       4.266   1.511  10.419  1.00  0.00    -0.206 F 
ATOM     53  C   UNL     1       4.487   5.014  11.352  1.00  0.00     0.006 A 
ENDBRANCH  25  46
BRANCH  37  54
ATOM     54  C   UNL     1       9.993  -2.618  11.919  1.00  0.00     0.057 A 
ATOM     55  C   UNL     1       9.452  -2.715  13.206  1.00  0.00     0.134 A 
ATOM     56  C   UNL     1      11.386  -2.732  11.790  1.00  0.00     0.134 A 
ATOM     57  F   UNL     1       8.128  -2.616  13.396  1.00  0.00    -0.206 F 
ATOM     58  C   UNL     1      10.269  -2.863  14.327  1.00  0.00     0.040 A 
ATOM     59  C   UNL     1      12.208  -2.925  12.899  1.00  0.00     0.040 A 
ATOM     60  F   UNL     1      11.966  -2.682  10.581  1.00  0.00    -0.206 F 
ATOM     61  C   UNL     1      11.650  -2.974  14.175  1.00  0.00     0.006 A 
ENDBRANCH  37  54
ENDBRANCH  11  12
ENDBRANCH   4   6
ENDBRANCH   3   4
ENDBRANCH   2   3
ENDBRANCH   1   2
BRANCH   1  62
ATOM     62  O   UNL     1       3.460   1.740   0.907  1.00  0.00    -0.462 OA
BRANCH  62  63
ATOM     63  C   UNL     1       2.103   1.819   1.039  1.00  0.00     0.312 C 
ATOM     64  O   UNL     1       1.344   2.022   0.097  1.00  0.00    -0.252 OA
BRANCH  63  65
ATOM     65  C   UNL     1       1.585   1.662   2.474  1.00  0.00     0.123 C 
ATOM     66  C   UNL     1       1.115   0.298   2.882  1.00  0.00    -0.015 C 
ATOM     67  C   UNL     1       2.524   2.073   3.611  1.00  0.00     0.043 C 
ATOM     68  C   UNL     1       1.648  -0.091   4.049  1.00  0.00    -0.011 C 
ATOM     69  C   UNL     1       2.728   0.833   4.485  1.00  0.00     0.093 C 
BRANCH  69  70
ATOM     70  N   UNL     1       2.673   1.212   5.878  1.00  0.00    -0.204 NA
ATOM     71  H   UNL     1       1.730   0.991   6.197  1.00  0.00     0.142 HD
BRANCH  70  72
ATOM     72  S   UNL     1       3.729   0.554   7.025  1.00  0.00     0.241 S 
ATOM     73  O   UNL     1       3.252   1.167   8.245  1.00  0.00    -0.207 OA
ATOM     74  O   UNL     1       3.632  -0.883   6.857  1.00  0.00    -0.207 OA
BRANCH  72  75
ATOM     75  C   UNL     1       5.471   1.323   6.666  1.00  0.00     0.083 A 
ATOM     76  C   UNL     1       7.330   0.679   5.956  1.00  0.00     0.025 A 
ATOM     77  C   UNL     1       5.640   2.997   7.379  1.00  0.00     0.029 A 
ATOM     78  C   UNL     1       8.716   1.668   5.868  1.00  0.00     0.048 A 
ATOM     79  C   UNL     1       7.305   3.728   7.352  1.00  0.00    -0.001 A 
ATOM     80  C   UNL     1       8.617   3.125   6.413  1.00  0.00     0.122 A 
ATOM     81  C   UNL     1       8.621   3.458   8.476  1.00  0.00     0.081 C 
ATOM     82  O   UNL     1       9.794   3.862   6.558  1.00  0.00    -0.493 OA
ATOM     83  C   UNL     1       9.654   4.372   7.887  1.00  0.00     0.234 C 
ENDBRANCH  72  75
ENDBRANCH  70  72
ENDBRANCH  69  70
ENDBRANCH  63  65
ENDBRANCH  62  63
ENDBRANCH   1  62
TORSDOF 14
