REMARK SMILES O=C(OCCOC(=O)c1cc(F)ccc1N1CCCc2ccccc21)c1ccc(-c2c3nc(c(-c4c(F)cccc4F)c4ccc([nH]4)c(-c4c(F)cccc4F)c4nc(c(-c5c(F)cccc5F)c5ccc2[nH]5)C=C4)C=C3)cc1
REMARK SMILES IDX 4 1 3 2 2 3 1 4 26 5 27 6 79 7 28 8 78 9 29 10 30 11 31 12
REMARK SMILES IDX 72 13 32 14 77 15 71 16 73 17 33 18 76 19 70 20 69 21 34 23
REMARK SMILES IDX 60 24 43 25 59 26 44 27 47 28 58 29 74 30 45 31 46 32 57 34
REMARK SMILES IDX 75 35 48 36 35 37 36 38 41 39 37 40 38 41 40 42 42 43 39 44
REMARK SMILES IDX 61 45 62 46 67 47 63 48 64 49 66 50 68 51 65 52 49 53 50 54
REMARK SMILES IDX 55 55 51 56 52 57 54 58 56 59 53 60 5 61 6 62 7 63 8 64 9 65
REMARK SMILES IDX 10 66 15 67 11 68 14 69 12 70 13 71 16 72 17 73 25 74 18 75
REMARK SMILES IDX 20 76 24 77 19 78 21 79 23 80 22 81
REMARK H PARENT 73 22 47 33
REMARK Flexibility Score: inf
ROOT
ATOM      1  C   UNL     1       4.829  -1.833  -0.692  1.00  0.00     0.275 C 
ENDROOT
BRANCH   1   2
ATOM      2  O   UNL     1       5.293  -0.888   0.272  1.00  0.00    -0.458 OA
BRANCH   2   3
ATOM      3  C   UNL     1       4.360  -0.117   0.874  1.00  0.00     0.338 C 
ATOM      4  O   UNL     1       3.333  -0.505   1.389  1.00  0.00    -0.246 OA
BRANCH   3   5
ATOM      5  C   UNL     1       4.740   1.298   0.594  1.00  0.00     0.060 A 
ATOM      6  C   UNL     1       5.812   1.562  -0.272  1.00  0.00     0.016 A 
ATOM      7  C   UNL     1       3.941   2.352   1.041  1.00  0.00     0.016 A 
ATOM      8  C   UNL     1       6.086   2.851  -0.675  1.00  0.00     0.010 A 
ATOM      9  C   UNL     1       4.135   3.633   0.540  1.00  0.00     0.010 A 
ATOM     10  C   UNL     1       5.247   3.887  -0.268  1.00  0.00    -0.014 A 
BRANCH  10  11
ATOM     11  C   UNL     1       5.702   5.263  -0.494  1.00  0.00     0.031 A 
ATOM     12  C   UNL     1       6.213   6.015   0.696  1.00  0.00     0.074 A 
ATOM     13  C   UNL     1       5.750   5.749  -1.745  1.00  0.00     0.049 A 
ATOM     14  N   UNL     1       6.774   7.190   0.746  1.00  0.00    -0.248 NA
ATOM     15  C   UNL     1       6.089   5.355   2.011  1.00  0.00     0.031 C 
ATOM     16  C   UNL     1       5.304   5.036  -2.942  1.00  0.00     0.029 A 
ATOM     17  N   UNL     1       6.202   6.946  -2.221  1.00  0.00    -0.354 N 
ATOM     18  C   UNL     1       7.090   7.386   2.083  1.00  0.00     0.074 A 
ATOM     19  C   UNL     1       6.565   6.274   2.831  1.00  0.00     0.031 C 
ATOM     20  C   UNL     1       5.472   5.823  -4.016  1.00  0.00     0.029 A 
ATOM     21  C   UNL     1       6.060   7.082  -3.580  1.00  0.00     0.049 A 
ATOM     22  H   UNL     1       6.592   7.643  -1.646  1.00  0.00     0.167 HD
ATOM     23  C   UNL     1       7.824   8.382   2.621  1.00  0.00     0.037 A 
ATOM     24  C   UNL     1       6.391   8.113  -4.375  1.00  0.00     0.037 A 
ATOM     25  C   UNL     1       8.348   9.459   1.835  1.00  0.00     0.049 A 
ATOM     26  C   UNL     1       7.128   9.257  -3.742  1.00  0.00     0.074 A 
ATOM     27  C   UNL     1       9.111  10.534   2.241  1.00  0.00     0.029 A 
ATOM     28  N   UNL     1       8.152   9.587   0.464  1.00  0.00    -0.354 N 
ATOM     29  N   UNL     1       7.469   9.415  -2.482  1.00  0.00    -0.248 NA
ATOM     30  C   UNL     1       7.566  10.340  -4.627  1.00  0.00     0.031 C 
ATOM     31  C   UNL     1       9.338  11.338   1.121  1.00  0.00     0.029 A 
ATOM     32  C   UNL     1       8.762  10.737   0.009  1.00  0.00     0.049 A 
ATOM     33  H   UNL     1       7.653   8.951  -0.097  1.00  0.00     0.167 HD
ATOM     34  C   UNL     1       8.195  10.594  -2.426  1.00  0.00     0.074 A 
ATOM     35  C   UNL     1       8.243  11.109  -3.783  1.00  0.00     0.031 C 
ATOM     36  C   UNL     1       8.780  11.194  -1.360  1.00  0.00     0.037 A 
BRANCH  23  37
ATOM     37  C   UNL     1       8.093   8.317   4.094  1.00  0.00     0.057 A 
ATOM     38  C   UNL     1       7.496   9.227   4.973  1.00  0.00     0.134 A 
ATOM     39  C   UNL     1       8.926   7.334   4.650  1.00  0.00     0.134 A 
ATOM     40  F   UNL     1       6.677  10.183   4.511  1.00  0.00    -0.206 F 
ATOM     41  C   UNL     1       7.720   9.165   6.350  1.00  0.00     0.040 A 
ATOM     42  C   UNL     1       9.136   7.245   6.027  1.00  0.00     0.040 A 
ATOM     43  F   UNL     1       9.502   6.408   3.868  1.00  0.00    -0.206 F 
ATOM     44  C   UNL     1       8.537   8.168   6.881  1.00  0.00     0.006 A 
ENDBRANCH  23  37
BRANCH  24  45
ATOM     45  C   UNL     1       6.089   8.052  -5.827  1.00  0.00     0.057 A 
ATOM     46  C   UNL     1       4.768   8.111  -6.294  1.00  0.00     0.134 A 
ATOM     47  C   UNL     1       7.096   7.861  -6.778  1.00  0.00     0.134 A 
ATOM     48  F   UNL     1       3.753   8.278  -5.434  1.00  0.00    -0.206 F 
ATOM     49  C   UNL     1       4.461   7.971  -7.649  1.00  0.00     0.040 A 
ATOM     50  C   UNL     1       6.806   7.739  -8.139  1.00  0.00     0.040 A 
ATOM     51  F   UNL     1       8.380   7.796  -6.397  1.00  0.00    -0.206 F 
ATOM     52  C   UNL     1       5.483   7.786  -8.578  1.00  0.00     0.006 A 
ENDBRANCH  24  45
BRANCH  36  53
ATOM     53  C   UNL     1       9.534  12.458  -1.624  1.00  0.00     0.057 A 
ATOM     54  C   UNL     1      10.930  12.483  -1.520  1.00  0.00     0.134 A 
ATOM     55  C   UNL     1       8.871  13.666  -1.865  1.00  0.00     0.134 A 
ATOM     56  F   UNL     1      11.616  11.356  -1.273  1.00  0.00    -0.206 F 
ATOM     57  C   UNL     1      11.642  13.675  -1.622  1.00  0.00     0.040 A 
ATOM     58  C   UNL     1       9.575  14.860  -2.000  1.00  0.00     0.040 A 
ATOM     59  F   UNL     1       7.535  13.697  -1.982  1.00  0.00    -0.206 F 
ATOM     60  C   UNL     1      10.963  14.868  -1.864  1.00  0.00     0.006 A 
ENDBRANCH  36  53
ENDBRANCH  10  11
ENDBRANCH   3   5
ENDBRANCH   2   3
ENDBRANCH   1   2
BRANCH   1  61
ATOM     61  C   UNL     1       3.934  -1.312  -1.843  1.00  0.00     0.275 C 
BRANCH  61  62
ATOM     62  O   UNL     1       3.408   0.018  -1.675  1.00  0.00    -0.458 OA
BRANCH  62  63
ATOM     63  C   UNL     1       2.073   0.194  -1.878  1.00  0.00     0.340 C 
ATOM     64  O   UNL     1       1.264  -0.665  -2.178  1.00  0.00    -0.246 OA
BRANCH  63  65
ATOM     65  C   UNL     1       1.775   1.644  -1.810  1.00  0.00     0.086 A 
ATOM     66  C   UNL     1       2.329   2.444  -2.823  1.00  0.00     0.057 A 
ATOM     67  C   UNL     1       0.880   2.206  -0.876  1.00  0.00     0.056 A 
ATOM     68  C   UNL     1       2.035   3.802  -2.872  1.00  0.00     0.124 A 
ATOM     69  C   UNL     1       0.681   3.606  -0.910  1.00  0.00     0.030 A 
ATOM     70  F   UNL     1       2.498   4.538  -3.890  1.00  0.00    -0.207 F 
ATOM     71  C   UNL     1       1.257   4.402  -1.898  1.00  0.00     0.041 A 
BRANCH  67  72
ATOM     72  N   UNL     1       0.077   1.462   0.004  1.00  0.00    -0.341 N 
ATOM     73  C   UNL     1       0.646   0.962   1.250  1.00  0.00     0.123 C 
ATOM     74  C   UNL     1      -1.329   1.354  -0.071  1.00  0.00     0.044 A 
ATOM     75  C   UNL     1      -0.037   1.638   2.431  1.00  0.00     0.027 C 
ATOM     76  C   UNL     1      -2.112   1.177   1.091  1.00  0.00    -0.024 A 
ATOM     77  C   UNL     1      -1.970   1.410  -1.317  1.00  0.00     0.026 A 
ATOM     78  C   UNL     1      -1.486   1.174   2.466  1.00  0.00     0.039 C 
ATOM     79  C   UNL     1      -3.494   0.982   0.974  1.00  0.00     0.006 A 
ATOM     80  C   UNL     1      -3.346   1.232  -1.422  1.00  0.00     0.002 A 
ATOM     81  C   UNL     1      -4.105   1.001  -0.279  1.00  0.00     0.000 A 
ENDBRANCH  67  72
ENDBRANCH  63  65
ENDBRANCH  62  63
ENDBRANCH  61  62
ENDBRANCH   1  61
TORSDOF 12
