REMARK SMILES CCC1CN(c2cc(F)ccc2C(=O)OCCOC(=O)c2ccc(-c3c4nc(c(-c5c(F)cccc5F)c5ccc([nH]5)c(-c5c(F)cccc5F)c5nc(c(-c6c(F)cccc6F)c6ccc3[nH]6)C=C5)C=C4)cc2)C1
REMARK SMILES IDX 16 1 15 2 13 3 14 4 12 5 6 6 7 7 8 8 11 9 9 10 10 11 5 12
REMARK SMILES IDX 3 13 4 14 75 15 2 16 1 17 17 18 18 19 19 20 20 21 21 22
REMARK SMILES IDX 22 23 74 24 23 25 73 26 24 27 25 28 26 29 67 30 27 31 72 32
REMARK SMILES IDX 66 33 68 34 28 35 71 36 65 37 64 38 29 40 55 41 38 42 54 43
REMARK SMILES IDX 39 44 42 45 53 46 69 47 40 48 41 49 52 51 70 52 43 53 30 54
REMARK SMILES IDX 31 55 36 56 32 57 33 58 35 59 37 60 34 61 56 62 57 63 62 64
REMARK SMILES IDX 58 65 59 66 61 67 63 68 60 69 44 70 45 71 50 72 46 73 47 74
REMARK SMILES IDX 49 75 51 76 48 77
REMARK H PARENT 68 39 42 50
REMARK Flexibility Score: inf
ROOT
ATOM      1  C   UNL     1      -0.069   5.684   3.174  1.00  0.00     0.275 C 
ENDROOT
BRANCH   1   2
ATOM      2  O   UNL     1       0.892   5.723   2.099  1.00  0.00    -0.458 OA
BRANCH   2   3
ATOM      3  C   UNL     1       0.619   6.545   1.056  1.00  0.00     0.340 C 
ATOM      4  O   UNL     1      -0.300   7.343   0.981  1.00  0.00    -0.246 OA
BRANCH   3   5
ATOM      5  C   UNL     1       1.694   6.459   0.037  1.00  0.00     0.083 A 
ATOM      6  C   UNL     1       2.242   5.241  -0.418  1.00  0.00     0.054 A 
ATOM      7  C   UNL     1       3.358   5.314  -1.272  1.00  0.00     0.066 A 
ATOM      8  C   UNL     1       3.857   6.540  -1.706  1.00  0.00     0.125 A 
ATOM      9  C   UNL     1       2.187   7.691  -0.441  1.00  0.00     0.021 A 
ATOM     10  F   UNL     1       4.900   6.565  -2.546  1.00  0.00    -0.207 F 
ATOM     11  C   UNL     1       3.274   7.731  -1.308  1.00  0.00     0.040 A 
BRANCH   6  12
ATOM     12  N   UNL     1       1.693   3.983  -0.111  1.00  0.00    -0.370 N 
ATOM     13  C   UNL     1       0.768   2.161  -0.412  1.00  0.00     0.028 C 
ATOM     14  C   UNL     1       0.324   3.581  -0.035  1.00  0.00     0.122 C 
ATOM     15  C   UNL     1       2.210   2.662  -0.245  1.00  0.00     0.122 C 
BRANCH  13  16
ATOM     16  C   UNL     1       0.296   1.052   0.516  1.00  0.00     0.004 C 
ATOM     17  C   UNL     1       0.908  -0.277   0.105  1.00  0.00     0.004 C 
ENDBRANCH  13  16
ENDBRANCH   6  12
ENDBRANCH   3   5
ENDBRANCH   2   3
ENDBRANCH   1   2
BRANCH   1  18
ATOM     18  C   UNL     1       0.630   5.939   4.504  1.00  0.00     0.275 C 
BRANCH  18  19
ATOM     19  O   UNL     1       1.098   7.298   4.521  1.00  0.00    -0.458 OA
BRANCH  19  20
ATOM     20  C   UNL     1       2.437   7.456   4.464  1.00  0.00     0.338 C 
ATOM     21  O   UNL     1       3.306   6.605   4.539  1.00  0.00    -0.246 OA
BRANCH  20  22
ATOM     22  C   UNL     1       2.717   8.873   4.215  1.00  0.00     0.060 A 
ATOM     23  C   UNL     1       2.586   9.356   2.914  1.00  0.00     0.016 A 
ATOM     24  C   UNL     1       3.195   9.691   5.235  1.00  0.00     0.016 A 
ATOM     25  C   UNL     1       2.988  10.654   2.610  1.00  0.00     0.010 A 
ATOM     26  C   UNL     1       3.542  11.012   4.941  1.00  0.00     0.010 A 
ATOM     27  C   UNL     1       3.471  11.497   3.621  1.00  0.00    -0.014 A 
BRANCH  27  28
ATOM     28  C   UNL     1       3.968  12.861   3.295  1.00  0.00     0.031 A 
ATOM     29  C   UNL     1       5.416  13.202   3.523  1.00  0.00     0.074 A 
ATOM     30  C   UNL     1       3.141  13.790   2.779  1.00  0.00     0.049 A 
ATOM     31  N   UNL     1       6.009  14.368   3.479  1.00  0.00    -0.248 NA
ATOM     32  C   UNL     1       6.314  12.084   3.855  1.00  0.00     0.031 C 
ATOM     33  C   UNL     1       1.731  13.580   2.448  1.00  0.00     0.029 A 
ATOM     34  N   UNL     1       3.372  15.099   2.435  1.00  0.00    -0.354 N 
ATOM     35  C   UNL     1       7.333  14.132   3.828  1.00  0.00     0.074 A 
ATOM     36  C   UNL     1       7.458  12.713   4.080  1.00  0.00     0.031 C 
ATOM     37  C   UNL     1       1.233  14.708   1.917  1.00  0.00     0.029 A 
ATOM     38  C   UNL     1       2.263  15.742   1.941  1.00  0.00     0.049 A 
ATOM     39  H   UNL     1       4.249  15.535   2.533  1.00  0.00     0.167 HD
ATOM     40  C   UNL     1       8.350  15.021   3.929  1.00  0.00     0.037 A 
ATOM     41  C   UNL     1       2.083  17.028   1.582  1.00  0.00     0.037 A 
ATOM     42  C   UNL     1       8.236  16.422   3.623  1.00  0.00     0.049 A 
ATOM     43  C   UNL     1       3.216  18.003   1.732  1.00  0.00     0.074 A 
ATOM     44  C   UNL     1       9.212  17.402   3.696  1.00  0.00     0.029 A 
ATOM     45  N   UNL     1       7.083  17.039   3.163  1.00  0.00    -0.354 N 
ATOM     46  N   UNL     1       4.441  17.786   2.144  1.00  0.00    -0.248 NA
ATOM     47  C   UNL     1       2.934  19.406   1.395  1.00  0.00     0.031 C 
ATOM     48  C   UNL     1       8.642  18.617   3.304  1.00  0.00     0.029 A 
ATOM     49  C   UNL     1       7.322  18.386   2.953  1.00  0.00     0.049 A 
ATOM     50  H   UNL     1       6.223  16.586   3.009  1.00  0.00     0.167 HD
ATOM     51  C   UNL     1       5.077  19.019   2.112  1.00  0.00     0.074 A 
ATOM     52  C   UNL     1       4.109  19.979   1.623  1.00  0.00     0.031 C 
ATOM     53  C   UNL     1       6.348  19.328   2.464  1.00  0.00     0.037 A 
BRANCH  40  54
ATOM     54  C   UNL     1       9.674  14.512   4.414  1.00  0.00     0.057 A 
ATOM     55  C   UNL     1      10.127  14.832   5.701  1.00  0.00     0.134 A 
ATOM     56  C   UNL     1      10.523  13.755   3.599  1.00  0.00     0.134 A 
ATOM     57  F   UNL     1       9.363  15.559   6.531  1.00  0.00    -0.206 F 
ATOM     58  C   UNL     1      11.382  14.426   6.155  1.00  0.00     0.040 A 
ATOM     59  C   UNL     1      11.772  13.324   4.050  1.00  0.00     0.040 A 
ATOM     60  F   UNL     1      10.141  13.403   2.362  1.00  0.00    -0.206 F 
ATOM     61  C   UNL     1      12.208  13.667   5.329  1.00  0.00     0.006 A 
ENDBRANCH  40  54
BRANCH  41  62
ATOM     62  C   UNL     1       0.762  17.467   1.069  1.00  0.00     0.057 A 
ATOM     63  C   UNL     1      -0.358  17.545   1.905  1.00  0.00     0.134 A 
ATOM     64  C   UNL     1       0.585  17.790  -0.280  1.00  0.00     0.134 A 
ATOM     65  F   UNL     1      -0.252  17.249   3.209  1.00  0.00    -0.206 F 
ATOM     66  C   UNL     1      -1.614  17.901   1.412  1.00  0.00     0.040 A 
ATOM     67  C   UNL     1      -0.660  18.170  -0.783  1.00  0.00     0.040 A 
ATOM     68  F   UNL     1       1.627  17.757  -1.124  1.00  0.00    -0.206 F 
ATOM     69  C   UNL     1      -1.767  18.216   0.064  1.00  0.00     0.006 A 
ENDBRANCH  41  62
BRANCH  53  70
ATOM     70  C   UNL     1       6.776  20.756   2.322  1.00  0.00     0.057 A 
ATOM     71  C   UNL     1       7.638  21.144   1.289  1.00  0.00     0.134 A 
ATOM     72  C   UNL     1       6.392  21.731   3.250  1.00  0.00     0.134 A 
ATOM     73  F   UNL     1       8.048  20.253   0.374  1.00  0.00    -0.206 F 
ATOM     74  C   UNL     1       8.111  22.453   1.189  1.00  0.00     0.040 A 
ATOM     75  C   UNL     1       6.845  23.048   3.150  1.00  0.00     0.040 A 
ATOM     76  F   UNL     1       5.561  21.422   4.256  1.00  0.00    -0.206 F 
ATOM     77  C   UNL     1       7.714  23.409   2.122  1.00  0.00     0.006 A 
ENDBRANCH  53  70
ENDBRANCH  27  28
ENDBRANCH  20  22
ENDBRANCH  19  20
ENDBRANCH  18  19
ENDBRANCH   1  18
TORSDOF 13
