REMARK SMILES Cc1ncc(CC(=O)N2CCC(Cc3cccc(C(=O)OCCOC(=O)c4ccc(-c5c6nc(c(-c7c(F)cccc7F)c7ccc([nH]7)c(-c7c(F)cccc7F)c7nc(c(-c8c(F)cccc8F)c8ccc5[nH]8)C=C7)C=C6)cc4)c3)CC2)c(=O)[nH]1
REMARK SMILES IDX 22 1 21 2 19 3 20 4 18 5 14 6 15 7 81 8 16 9 17 10 13 11
REMARK SMILES IDX 12 12 7 13 8 14 9 15 10 16 83 17 11 18 82 19 6 20 5 21 1 22
REMARK SMILES IDX 2 23 3 24 86 25 4 26 84 27 85 29 23 30 24 31 25 32 26 33
REMARK SMILES IDX 27 34 28 35 80 36 29 37 79 38 30 39 31 40 32 41 73 42 33 43
REMARK SMILES IDX 78 44 72 45 74 46 34 47 77 48 71 49 70 50 35 52 61 53 44 54
REMARK SMILES IDX 60 55 45 56 48 57 59 58 75 59 46 60 47 61 58 63 76 64 49 65
REMARK SMILES IDX 36 66 37 67 42 68 38 69 39 70 41 71 43 72 40 73 62 74 63 75
REMARK SMILES IDX 68 76 64 77 65 78 67 79 69 80 66 81 50 82 51 83 56 84 52 85
REMARK SMILES IDX 53 86 55 87 57 88 54 89
REMARK H PARENT 86 28 74 51 48 62
REMARK Flexibility Score: inf
ROOT
ATOM      1  C   UNL     1       0.028   4.189  10.575  1.00  0.00     0.275 C 
ENDROOT
BRANCH   1   2
ATOM      2  O   UNL     1       0.697   3.170   9.806  1.00  0.00    -0.458 OA
BRANCH   2   3
ATOM      3  C   UNL     1       2.052   3.200   9.815  1.00  0.00     0.338 C 
ATOM      4  O   UNL     1       2.757   4.028  10.372  1.00  0.00    -0.246 OA
BRANCH   3   5
ATOM      5  C   UNL     1       2.603   2.005   9.124  1.00  0.00     0.060 A 
ATOM      6  C   UNL     1       2.448   0.249   7.459  1.00  0.00    -0.047 A 
ATOM      7  C   UNL     1       3.711  -0.222   7.838  1.00  0.00     0.004 A 
ATOM      8  C   UNL     1       1.867   1.317   8.161  1.00  0.00     0.019 A 
ATOM      9  C   UNL     1       4.438   0.444   8.821  1.00  0.00     0.001 A 
ATOM     10  C   UNL     1       3.908   1.587   9.419  1.00  0.00     0.016 A 
BRANCH   6  11
ATOM     11  C   UNL     1       1.797  -0.244   6.186  1.00  0.00     0.039 C 
BRANCH  11  12
ATOM     12  C   UNL     1       1.744   0.906   5.156  1.00  0.00    -0.003 C 
ATOM     13  C   UNL     1       2.913   1.995   1.373  1.00  0.00     0.227 C 
ATOM     14  O   UNL     1       4.150   2.005   1.313  1.00  0.00    -0.275 OA
ATOM     15  N   UNL     1       2.264   2.141   2.592  1.00  0.00    -0.342 N 
ATOM     16  C   UNL     1       3.059   2.544   3.749  1.00  0.00     0.120 C 
ATOM     17  C   UNL     1       0.909   1.717   2.940  1.00  0.00     0.120 C 
ATOM     18  C   UNL     1       3.151   1.414   4.768  1.00  0.00     0.025 C 
ATOM     19  C   UNL     1       0.968   0.516   3.893  1.00  0.00     0.025 C 
BRANCH  13  20
ATOM     20  C   UNL     1       2.135   2.067   0.051  1.00  0.00     0.143 C 
BRANCH  20  21
ATOM     21  C   UNL     1       0.968   1.167  -0.152  1.00  0.00     0.045 A 
ATOM     22  C   UNL     1      -2.403  -1.378  -0.188  1.00  0.00     0.087 C 
ATOM     23  C   UNL     1      -1.231  -0.445  -0.233  1.00  0.00     0.105 A 
ATOM     24  N   UNL     1      -1.401   0.822  -0.425  1.00  0.00    -0.243 NA
ATOM     25  N   UNL     1      -0.006  -1.020  -0.049  1.00  0.00    -0.311 N 
ATOM     26  C   UNL     1      -0.279   1.605  -0.389  1.00  0.00     0.123 A 
ATOM     27  C   UNL     1       1.147  -0.292  -0.019  1.00  0.00     0.254 A 
ATOM     28  H   UNL     1       0.046  -1.997   0.067  1.00  0.00     0.171 HD
ATOM     29  O   UNL     1       2.243  -0.813   0.137  1.00  0.00    -0.269 OA
ENDBRANCH  20  21
ENDBRANCH  13  20
ENDBRANCH  11  12
ENDBRANCH   6  11
ENDBRANCH   3   5
ENDBRANCH   2   3
ENDBRANCH   1   2
BRANCH   1  30
ATOM     30  C   UNL     1      -0.512   3.604  11.880  1.00  0.00     0.275 C 
BRANCH  30  31
ATOM     31  O   UNL     1       0.584   3.212  12.729  1.00  0.00    -0.458 OA
BRANCH  31  32
ATOM     32  C   UNL     1       0.702   1.886  12.966  1.00  0.00     0.338 C 
ATOM     33  O   UNL     1      -0.049   0.992  12.620  1.00  0.00    -0.246 OA
BRANCH  32  34
ATOM     34  C   UNL     1       1.972   1.638  13.663  1.00  0.00     0.060 A 
ATOM     35  C   UNL     1       3.136   1.605  12.902  1.00  0.00     0.016 A 
ATOM     36  C   UNL     1       2.014   1.315  15.015  1.00  0.00     0.016 A 
ATOM     37  C   UNL     1       4.342   1.201  13.461  1.00  0.00     0.010 A 
ATOM     38  C   UNL     1       3.241   0.972  15.599  1.00  0.00     0.010 A 
ATOM     39  C   UNL     1       4.414   0.885  14.822  1.00  0.00    -0.014 A 
BRANCH  39  40
ATOM     40  C   UNL     1       5.698   0.405  15.402  1.00  0.00     0.031 A 
ATOM     41  C   UNL     1       5.790  -0.980  15.984  1.00  0.00     0.074 A 
ATOM     42  C   UNL     1       6.796   1.187  15.377  1.00  0.00     0.049 A 
ATOM     43  N   UNL     1       6.765  -1.532  16.661  1.00  0.00    -0.248 NA
ATOM     44  C   UNL     1       4.624  -1.856  15.789  1.00  0.00     0.031 C 
ATOM     45  C   UNL     1       6.869   2.528  14.797  1.00  0.00     0.029 A 
ATOM     46  N   UNL     1       8.066   0.961  15.849  1.00  0.00    -0.354 N 
ATOM     47  C   UNL     1       6.309  -2.794  17.021  1.00  0.00     0.074 A 
ATOM     48  C   UNL     1       4.970  -2.926  16.489  1.00  0.00     0.031 C 
ATOM     49  C   UNL     1       8.121   2.995  14.924  1.00  0.00     0.029 A 
ATOM     50  C   UNL     1       8.919   2.022  15.662  1.00  0.00     0.049 A 
ATOM     51  H   UNL     1       8.339   0.119  16.281  1.00  0.00     0.167 HD
ATOM     52  C   UNL     1       6.949  -3.754  17.732  1.00  0.00     0.037 A 
ATOM     53  C   UNL     1      10.188   2.211  16.072  1.00  0.00     0.037 A 
ATOM     54  C   UNL     1       8.303  -3.645  18.209  1.00  0.00     0.049 A 
ATOM     55  C   UNL     1      10.870   1.141  16.877  1.00  0.00     0.074 A 
ATOM     56  C   UNL     1       9.047  -4.576  18.915  1.00  0.00     0.029 A 
ATOM     57  N   UNL     1       9.122  -2.542  18.019  1.00  0.00    -0.354 N 
ATOM     58  N   UNL     1      10.413  -0.029  17.249  1.00  0.00    -0.248 NA
ATOM     59  C   UNL     1      12.238   1.427  17.333  1.00  0.00     0.031 C 
ATOM     60  C   UNL     1      10.303  -4.022  19.183  1.00  0.00     0.029 A 
ATOM     61  C   UNL     1      10.357  -2.763  18.607  1.00  0.00     0.049 A 
ATOM     62  H   UNL     1       8.864  -1.724  17.537  1.00  0.00     0.167 HD
ATOM     63  C   UNL     1      11.437  -0.623  17.975  1.00  0.00     0.074 A 
ATOM     64  C   UNL     1      12.548   0.306  17.970  1.00  0.00     0.031 C 
ATOM     65  C   UNL     1      11.453  -1.828  18.596  1.00  0.00     0.037 A 
BRANCH  52  66
ATOM     66  C   UNL     1       6.176  -4.995  18.071  1.00  0.00     0.057 A 
ATOM     67  C   UNL     1       5.864  -5.969  17.115  1.00  0.00     0.134 A 
ATOM     68  C   UNL     1       5.759  -5.226  19.389  1.00  0.00     0.134 A 
ATOM     69  F   UNL     1       6.221  -5.801  15.832  1.00  0.00    -0.206 F 
ATOM     70  C   UNL     1       5.144  -7.117  17.452  1.00  0.00     0.040 A 
ATOM     71  C   UNL     1       5.062  -6.382  19.743  1.00  0.00     0.040 A 
ATOM     72  F   UNL     1       6.029  -4.336  20.355  1.00  0.00    -0.206 F 
ATOM     73  C   UNL     1       4.747  -7.329  18.771  1.00  0.00     0.006 A 
ENDBRANCH  52  66
BRANCH  53  74
ATOM     74  C   UNL     1      10.880   3.489  15.765  1.00  0.00     0.057 A 
ATOM     75  C   UNL     1      11.951   3.538  14.868  1.00  0.00     0.134 A 
ATOM     76  C   UNL     1      10.482   4.692  16.363  1.00  0.00     0.134 A 
ATOM     77  F   UNL     1      12.395   2.415  14.284  1.00  0.00    -0.206 F 
ATOM     78  C   UNL     1      12.608   4.736  14.580  1.00  0.00     0.040 A 
ATOM     79  C   UNL     1      11.111   5.901  16.063  1.00  0.00     0.040 A 
ATOM     80  F   UNL     1       9.462   4.711  17.233  1.00  0.00    -0.206 F 
ATOM     81  C   UNL     1      12.182   5.923  15.172  1.00  0.00     0.006 A 
ENDBRANCH  53  74
BRANCH  65  82
ATOM     82  C   UNL     1      12.719  -2.216  19.300  1.00  0.00     0.057 A 
ATOM     83  C   UNL     1      13.097  -1.627  20.514  1.00  0.00     0.134 A 
ATOM     84  C   UNL     1      13.556  -3.206  18.771  1.00  0.00     0.134 A 
ATOM     85  F   UNL     1      12.345  -0.662  21.065  1.00  0.00    -0.206 F 
ATOM     86  C   UNL     1      14.275  -1.994  21.165  1.00  0.00     0.040 A 
ATOM     87  C   UNL     1      14.725  -3.598  19.425  1.00  0.00     0.040 A 
ATOM     88  F   UNL     1      13.247  -3.813  17.616  1.00  0.00    -0.206 F 
ATOM     89  C   UNL     1      15.090  -2.986  20.623  1.00  0.00     0.006 A 
ENDBRANCH  65  82
ENDBRANCH  39  40
ENDBRANCH  32  34
ENDBRANCH  31  32
ENDBRANCH  30  31
ENDBRANCH   1  30
TORSDOF 15
