REMARK SMILES CCc1cc(Nc2ccc(C(=O)OCCOC(=O)c3ccc(-c4c5nc(c(-c6c(F)cccc6F)c6ccc([nH]6)c(-c6c(F)cccc6F)c6nc(c(-c7c(F)cccc7F)c7ccc4[nH]7)C=C6)C=C5)cc3)cc2)nc(C(C)C)n1
REMARK SMILES IDX 14 1 13 2 11 3 12 4 10 5 7 6 8 7 74 8 9 9 73 10 6 11 5 13
REMARK SMILES IDX 3 14 4 15 80 16 76 17 75 18 2 19 1 20 77 21 78 22 79 23
REMARK SMILES IDX 15 24 16 25 17 26 18 27 19 28 20 29 72 30 21 31 71 32 22 33
REMARK SMILES IDX 23 34 24 35 65 36 25 37 70 38 64 39 66 40 26 41 69 42 63 43
REMARK SMILES IDX 62 44 27 46 53 47 36 48 52 49 37 50 40 51 51 52 67 53 38 54
REMARK SMILES IDX 39 55 50 57 68 58 41 59 28 60 29 61 34 62 30 63 31 64 33 65
REMARK SMILES IDX 35 66 32 67 54 68 55 69 60 70 56 71 57 72 59 73 61 74 58 75
REMARK SMILES IDX 42 76 43 77 48 78 44 79 45 80 47 81 49 82 46 83
REMARK H PARENT 6 12 66 45 40 56
REMARK Flexibility Score: inf
ROOT
ATOM      1  C   UNL     1       3.282  12.108   1.685  1.00  0.00     0.275 C 
ENDROOT
BRANCH   1   2
ATOM      2  O   UNL     1       2.889  10.771   1.316  1.00  0.00    -0.458 OA
BRANCH   2   3
ATOM      3  C   UNL     1       2.077  10.142   2.200  1.00  0.00     0.338 C 
ATOM      4  O   UNL     1       1.697  10.572   3.277  1.00  0.00    -0.246 OA
BRANCH   3   5
ATOM      5  C   UNL     1       1.601   8.857   1.642  1.00  0.00     0.060 A 
ATOM      6  C   UNL     1       0.663   6.353   0.789  1.00  0.00     0.040 A 
ATOM      7  C   UNL     1      -0.172   7.208   1.511  1.00  0.00     0.027 A 
ATOM      8  C   UNL     1       1.967   6.775   0.483  1.00  0.00     0.027 A 
ATOM      9  C   UNL     1       0.304   8.437   1.960  1.00  0.00     0.018 A 
ATOM     10  C   UNL     1       2.431   8.031   0.883  1.00  0.00     0.018 A 
BRANCH   6  11
ATOM     11  N   UNL     1       0.252   5.025   0.568  1.00  0.00    -0.340 N 
ATOM     12  H   UNL     1      -0.503   4.867  -0.043  1.00  0.00     0.168 HD
BRANCH  11  13
ATOM     13  C   UNL     1       0.863   3.907   1.175  1.00  0.00     0.134 A 
ATOM     14  C   UNL     1       1.012   1.583   1.518  1.00  0.00     0.046 A 
ATOM     15  C   UNL     1       0.390   2.644   0.888  1.00  0.00     0.071 A 
ATOM     16  N   UNL     1       2.047   1.752   2.365  1.00  0.00    -0.238 NA
ATOM     17  C   UNL     1       2.453   3.015   2.581  1.00  0.00     0.133 A 
ATOM     18  N   UNL     1       1.901   4.092   2.007  1.00  0.00    -0.216 NA
BRANCH  14  19
ATOM     19  C   UNL     1       0.565   0.170   1.254  1.00  0.00     0.053 C 
ATOM     20  C   UNL     1       1.038  -0.322  -0.105  1.00  0.00     0.011 C 
ENDBRANCH  14  19
BRANCH  17  21
ATOM     21  C   UNL     1       3.631   3.265   3.494  1.00  0.00     0.051 C 
ATOM     22  C   UNL     1       3.414   2.652   4.876  1.00  0.00     0.016 C 
ATOM     23  C   UNL     1       4.919   2.756   2.852  1.00  0.00     0.016 C 
ENDBRANCH  17  21
ENDBRANCH  11  13
ENDBRANCH   6  11
ENDBRANCH   3   5
ENDBRANCH   2   3
ENDBRANCH   1   2
BRANCH   1  24
ATOM     24  C   UNL     1       2.362  13.135   1.026  1.00  0.00     0.275 C 
BRANCH  24  25
ATOM     25  O   UNL     1       1.026  12.978   1.536  1.00  0.00    -0.458 OA
BRANCH  25  26
ATOM     26  C   UNL     1       0.026  13.110   0.633  1.00  0.00     0.338 C 
ATOM     27  O   UNL     1       0.131  13.419  -0.541  1.00  0.00    -0.246 OA
BRANCH  26  28
ATOM     28  C   UNL     1      -1.274  12.830   1.280  1.00  0.00     0.060 A 
ATOM     29  C   UNL     1      -1.424  11.739   2.135  1.00  0.00     0.016 A 
ATOM     30  C   UNL     1      -2.385  13.607   0.955  1.00  0.00     0.016 A 
ATOM     31  C   UNL     1      -2.689  11.367   2.594  1.00  0.00     0.010 A 
ATOM     32  C   UNL     1      -3.637  13.292   1.497  1.00  0.00     0.010 A 
ATOM     33  C   UNL     1      -3.815  12.144   2.292  1.00  0.00    -0.014 A 
BRANCH  33  34
ATOM     34  C   UNL     1      -5.179  11.743   2.752  1.00  0.00     0.031 A 
ATOM     35  C   UNL     1      -6.288  11.547   1.748  1.00  0.00     0.074 A 
ATOM     36  C   UNL     1      -5.446  11.546   4.059  1.00  0.00     0.049 A 
ATOM     37  N   UNL     1      -7.576  11.420   1.947  1.00  0.00    -0.248 NA
ATOM     38  C   UNL     1      -5.897  11.508   0.329  1.00  0.00     0.031 C 
ATOM     39  C   UNL     1      -4.479  11.650   5.153  1.00  0.00     0.029 A 
ATOM     40  N   UNL     1      -6.620  11.209   4.690  1.00  0.00    -0.354 N 
ATOM     41  C   UNL     1      -8.153  11.364   0.684  1.00  0.00     0.074 A 
ATOM     42  C   UNL     1      -7.075  11.457  -0.277  1.00  0.00     0.031 C 
ATOM     43  C   UNL     1      -5.085  11.338   6.309  1.00  0.00     0.029 A 
ATOM     44  C   UNL     1      -6.502  11.099   6.054  1.00  0.00     0.049 A 
ATOM     45  H   UNL     1      -7.466  11.060   4.209  1.00  0.00     0.167 HD
ATOM     46  C   UNL     1      -9.462  11.252   0.354  1.00  0.00     0.037 A 
ATOM     47  C   UNL     1      -7.430  10.872   7.004  1.00  0.00     0.037 A 
ATOM     48  C   UNL     1     -10.532  11.078   1.301  1.00  0.00     0.049 A 
ATOM     49  C   UNL     1      -8.874  10.739   6.616  1.00  0.00     0.074 A 
ATOM     50  C   UNL     1     -11.889  10.941   1.056  1.00  0.00     0.029 A 
ATOM     51  N   UNL     1     -10.363  10.985   2.673  1.00  0.00    -0.354 N 
ATOM     52  N   UNL     1      -9.415  10.777   5.423  1.00  0.00    -0.248 NA
ATOM     53  C   UNL     1      -9.840  10.560   7.710  1.00  0.00     0.031 C 
ATOM     54  C   UNL     1     -12.543  10.781   2.283  1.00  0.00     0.029 A 
ATOM     55  C   UNL     1     -11.589  10.792   3.287  1.00  0.00     0.049 A 
ATOM     56  H   UNL     1      -9.500  11.048   3.141  1.00  0.00     0.167 HD
ATOM     57  C   UNL     1     -10.781  10.632   5.622  1.00  0.00     0.074 A 
ATOM     58  C   UNL     1     -10.986  10.477   7.047  1.00  0.00     0.031 C 
ATOM     59  C   UNL     1     -11.778  10.639   4.705  1.00  0.00     0.037 A 
BRANCH  46  60
ATOM     60  C   UNL     1      -9.819  11.346  -1.099  1.00  0.00     0.057 A 
ATOM     61  C   UNL     1      -9.604  10.289  -1.990  1.00  0.00     0.134 A 
ATOM     62  C   UNL     1     -10.426  12.505  -1.602  1.00  0.00     0.134 A 
ATOM     63  F   UNL     1      -9.014   9.158  -1.573  1.00  0.00    -0.206 F 
ATOM     64  C   UNL     1      -9.964  10.386  -3.336  1.00  0.00     0.040 A 
ATOM     65  C   UNL     1     -10.809  12.607  -2.940  1.00  0.00     0.040 A 
ATOM     66  F   UNL     1     -10.665  13.552  -0.798  1.00  0.00    -0.206 F 
ATOM     67  C   UNL     1     -10.575  11.546  -3.812  1.00  0.00     0.006 A 
ENDBRANCH  46  60
BRANCH  47  68
ATOM     68  C   UNL     1      -7.024  10.798   8.429  1.00  0.00     0.057 A 
ATOM     69  C   UNL     1      -7.035   9.581   9.118  1.00  0.00     0.134 A 
ATOM     70  C   UNL     1      -6.611  11.937   9.131  1.00  0.00     0.134 A 
ATOM     71  F   UNL     1      -7.447   8.462   8.506  1.00  0.00    -0.206 F 
ATOM     72  C   UNL     1      -6.650   9.498  10.458  1.00  0.00     0.040 A 
ATOM     73  C   UNL     1      -6.201  11.864  10.463  1.00  0.00     0.040 A 
ATOM     74  F   UNL     1      -6.581  13.132   8.524  1.00  0.00    -0.206 F 
ATOM     75  C   UNL     1      -6.224  10.642  11.131  1.00  0.00     0.006 A 
ENDBRANCH  47  68
BRANCH  59  76
ATOM     76  C   UNL     1     -13.174  10.459   5.216  1.00  0.00     0.057 A 
ATOM     77  C   UNL     1     -13.867  11.508   5.833  1.00  0.00     0.134 A 
ATOM     78  C   UNL     1     -13.839   9.237   5.068  1.00  0.00     0.134 A 
ATOM     79  F   UNL     1     -13.277  12.698   6.016  1.00  0.00    -0.206 F 
ATOM     80  C   UNL     1     -15.172  11.341   6.301  1.00  0.00     0.040 A 
ATOM     81  C   UNL     1     -15.149   9.063   5.517  1.00  0.00     0.040 A 
ATOM     82  F   UNL     1     -13.229   8.196   4.481  1.00  0.00    -0.206 F 
ATOM     83  C   UNL     1     -15.817  10.116   6.139  1.00  0.00     0.006 A 
ENDBRANCH  59  76
ENDBRANCH  33  34
ENDBRANCH  26  28
ENDBRANCH  25  26
ENDBRANCH  24  25
ENDBRANCH   1  24
TORSDOF 15
