REMARK SMILES C[C@H](C(=O)OCCOC(=O)c1ccc(-c2c3nc(c(-c4c(F)cccc4F)c4ccc([nH]4)c(-c4c(F)cccc4F)c4nc(c(-c5c(F)cccc5F)c5ccc2[nH]5)C=C4)C=C3)cc1)S(=O)(=O)NC1COC1
REMARK SMILES IDX 6 1 5 2 3 3 4 4 2 5 1 6 65 7 66 8 67 9 68 10 69 12 70 13
REMARK SMILES IDX 72 14 71 15 7 16 8 17 9 18 10 19 11 20 12 21 64 22 13 23
REMARK SMILES IDX 63 24 14 25 15 26 16 27 57 28 17 29 62 30 56 31 58 32 18 33
REMARK SMILES IDX 61 34 55 35 54 36 19 38 45 39 28 40 44 41 29 42 32 43 43 44
REMARK SMILES IDX 59 45 30 46 31 47 42 49 60 50 33 51 20 52 21 53 26 54 22 55
REMARK SMILES IDX 23 56 25 57 27 58 24 59 46 60 47 61 52 62 48 63 49 64 51 65
REMARK SMILES IDX 53 66 50 67 34 68 35 69 40 70 36 71 37 72 39 73 41 74 38 75
REMARK H PARENT 68 11 58 37 32 48
REMARK Flexibility Score: inf
ROOT
ATOM      1  C   UNL     1       1.834   1.093   1.838  1.00  0.00     0.274 C 
ENDROOT
BRANCH   1   2
ATOM      2  O   UNL     1       0.781   1.077   0.845  1.00  0.00    -0.461 OA
BRANCH   2   3
ATOM      3  C   UNL     1       1.063   0.487  -0.337  1.00  0.00     0.325 C 
ATOM      4  O   UNL     1       2.153  -0.042  -0.561  1.00  0.00    -0.251 OA
BRANCH   3   5
ATOM      5  C   UNL     1       0.047   0.667  -1.431  1.00  0.00     0.230 C 
ATOM      6  C   UNL     1       0.243  -0.361  -2.549  1.00  0.00     0.039 C 
BRANCH   5   7
ATOM      7  S   UNL     1      -1.666   0.755  -0.924  1.00  0.00     0.225 S 
ATOM      8  O   UNL     1      -1.819   1.337   0.385  1.00  0.00    -0.212 OA
ATOM      9  O   UNL     1      -2.390   1.328  -2.046  1.00  0.00    -0.212 OA
BRANCH   7  10
ATOM     10  N   UNL     1      -2.229  -0.830  -0.894  1.00  0.00    -0.207 NA
ATOM     11  H   UNL     1      -1.503  -1.374  -1.360  1.00  0.00     0.141 HD
BRANCH  10  12
ATOM     12  C   UNL     1      -2.602  -1.640   0.322  1.00  0.00     0.121 C 
ATOM     13  C   UNL     1      -3.168  -0.970   1.594  1.00  0.00     0.182 C 
ATOM     14  C   UNL     1      -3.951  -2.381   0.339  1.00  0.00     0.182 C 
ATOM     15  O   UNL     1      -4.163  -2.025   1.730  1.00  0.00    -0.378 OA
ENDBRANCH  10  12
ENDBRANCH   7  10
ENDBRANCH   5   7
ENDBRANCH   3   5
ENDBRANCH   2   3
ENDBRANCH   1   2
BRANCH   1  16
ATOM     16  C   UNL     1       1.753  -0.070   2.833  1.00  0.00     0.275 C 
BRANCH  16  17
ATOM     17  O   UNL     1       2.008  -1.344   2.202  1.00  0.00    -0.458 OA
BRANCH  17  18
ATOM     18  C   UNL     1       0.878  -1.958   1.796  1.00  0.00     0.338 C 
ATOM     19  O   UNL     1      -0.253  -1.525   1.932  1.00  0.00    -0.246 OA
BRANCH  18  20
ATOM     20  C   UNL     1       1.099  -3.223   1.086  1.00  0.00     0.060 A 
ATOM     21  C   UNL     1       1.336  -3.195  -0.287  1.00  0.00     0.016 A 
ATOM     22  C   UNL     1       0.790  -4.428   1.720  1.00  0.00     0.016 A 
ATOM     23  C   UNL     1       1.231  -4.363  -1.038  1.00  0.00     0.010 A 
ATOM     24  C   UNL     1       0.755  -5.614   0.976  1.00  0.00     0.010 A 
ATOM     25  C   UNL     1       0.966  -5.590  -0.411  1.00  0.00    -0.014 A 
BRANCH  25  26
ATOM     26  C   UNL     1       1.017  -6.841  -1.208  1.00  0.00     0.031 A 
ATOM     27  C   UNL     1      -0.205  -7.675  -1.462  1.00  0.00     0.074 A 
ATOM     28  C   UNL     1       2.203  -7.217  -1.725  1.00  0.00     0.049 A 
ATOM     29  N   UNL     1      -0.297  -8.833  -2.067  1.00  0.00    -0.248 NA
ATOM     30  C   UNL     1      -1.489  -7.144  -0.982  1.00  0.00     0.031 C 
ATOM     31  C   UNL     1       3.458  -6.476  -1.575  1.00  0.00     0.029 A 
ATOM     32  N   UNL     1       2.549  -8.306  -2.482  1.00  0.00    -0.354 N 
ATOM     33  C   UNL     1      -1.640  -9.183  -2.026  1.00  0.00     0.074 A 
ATOM     34  C   UNL     1      -2.329  -8.112  -1.333  1.00  0.00     0.031 C 
ATOM     35  C   UNL     1       4.428  -7.117  -2.240  1.00  0.00     0.029 A 
ATOM     36  C   UNL     1       3.883  -8.347  -2.799  1.00  0.00     0.049 A 
ATOM     37  H   UNL     1       1.903  -8.991  -2.771  1.00  0.00     0.167 HD
ATOM     38  C   UNL     1      -2.238 -10.296  -2.517  1.00  0.00     0.037 A 
ATOM     39  C   UNL     1       4.606  -9.287  -3.434  1.00  0.00     0.037 A 
ATOM     40  C   UNL     1      -1.552 -11.355  -3.215  1.00  0.00     0.049 A 
ATOM     41  C   UNL     1       3.930 -10.533  -3.917  1.00  0.00     0.074 A 
ATOM     42  C   UNL     1      -2.080 -12.518  -3.753  1.00  0.00     0.029 A 
ATOM     43  N   UNL     1      -0.190 -11.383  -3.471  1.00  0.00    -0.354 N 
ATOM     44  N   UNL     1       2.665 -10.864  -3.840  1.00  0.00    -0.248 NA
ATOM     45  C   UNL     1       4.784 -11.542  -4.557  1.00  0.00     0.031 C 
ATOM     46  C   UNL     1      -1.032 -13.264  -4.306  1.00  0.00     0.029 A 
ATOM     47  C   UNL     1       0.143 -12.550  -4.143  1.00  0.00     0.049 A 
ATOM     48  H   UNL     1       0.448 -10.678  -3.215  1.00  0.00     0.167 HD
ATOM     49  C   UNL     1       2.568 -12.120  -4.419  1.00  0.00     0.074 A 
ATOM     50  C   UNL     1       3.900 -12.481  -4.863  1.00  0.00     0.031 C 
ATOM     51  C   UNL     1       1.474 -12.905  -4.563  1.00  0.00     0.037 A 
BRANCH  38  52
ATOM     52  C   UNL     1      -3.714 -10.449  -2.298  1.00  0.00     0.057 A 
ATOM     53  C   UNL     1      -4.652  -9.750  -3.066  1.00  0.00     0.134 A 
ATOM     54  C   UNL     1      -4.201 -11.364  -1.355  1.00  0.00     0.134 A 
ATOM     55  F   UNL     1      -4.249  -8.854  -3.980  1.00  0.00    -0.206 F 
ATOM     56  C   UNL     1      -6.024  -9.950  -2.900  1.00  0.00     0.040 A 
ATOM     57  C   UNL     1      -5.569 -11.584  -1.191  1.00  0.00     0.040 A 
ATOM     58  F   UNL     1      -3.353 -12.071  -0.593  1.00  0.00    -0.206 F 
ATOM     59  C   UNL     1      -6.486 -10.875  -1.965  1.00  0.00     0.006 A 
ENDBRANCH  38  52
BRANCH  39  60
ATOM     60  C   UNL     1       6.064  -9.089  -3.602  1.00  0.00     0.057 A 
ATOM     61  C   UNL     1       6.614  -8.781  -4.849  1.00  0.00     0.134 A 
ATOM     62  C   UNL     1       6.933  -9.156  -2.505  1.00  0.00     0.134 A 
ATOM     63  F   UNL     1       5.831  -8.720  -5.936  1.00  0.00    -0.206 F 
ATOM     64  C   UNL     1       7.980  -8.544  -5.002  1.00  0.00     0.040 A 
ATOM     65  C   UNL     1       8.296  -8.899  -2.639  1.00  0.00     0.040 A 
ATOM     66  F   UNL     1       6.459  -9.439  -1.283  1.00  0.00    -0.206 F 
ATOM     67  C   UNL     1       8.823  -8.593  -3.892  1.00  0.00     0.006 A 
ENDBRANCH  39  60
BRANCH  51  68
ATOM     68  C   UNL     1       1.680 -14.229  -5.232  1.00  0.00     0.057 A 
ATOM     69  C   UNL     1       2.272 -15.304  -4.557  1.00  0.00     0.134 A 
ATOM     70  C   UNL     1       1.285 -14.431  -6.559  1.00  0.00     0.134 A 
ATOM     71  F   UNL     1       2.689 -15.165  -3.290  1.00  0.00    -0.206 F 
ATOM     72  C   UNL     1       2.482 -16.531  -5.188  1.00  0.00     0.040 A 
ATOM     73  C   UNL     1       1.473 -15.659  -7.195  1.00  0.00     0.040 A 
ATOM     74  F   UNL     1       0.711 -13.440  -7.258  1.00  0.00    -0.206 F 
ATOM     75  C   UNL     1       2.079 -16.711  -6.510  1.00  0.00     0.006 A 
ENDBRANCH  51  68
ENDBRANCH  25  26
ENDBRANCH  18  20
ENDBRANCH  17  18
ENDBRANCH  16  17
ENDBRANCH   1  16
TORSDOF 14
