REMARK SMILES CC[C@]1(C(=O)OCCOC(=O)c2ccc(-c3c4nc(c(-c5c(F)cccc5F)c5ccc([nH]5)c(-c5c(F)cccc5F)c5nc(c(-c6c(F)cccc6F)c6ccc3[nH]6)C=C5)C=C4)cc2)CCCN(S(=O)(=O)CCOC(C)C)C1
REMARK SMILES IDX 6 1 4 2 5 3 3 4 66 5 79 6 67 7 69 8 68 9 2 10 1 11 70 12
REMARK SMILES IDX 71 13 72 14 73 15 74 16 75 17 76 18 77 19 78 20 7 21 8 22
REMARK SMILES IDX 9 23 10 24 11 25 12 26 13 27 65 28 14 29 64 30 15 31 16 32
REMARK SMILES IDX 17 33 58 34 18 35 63 36 57 37 59 38 19 39 62 40 56 41 55 42
REMARK SMILES IDX 20 44 46 45 29 46 45 47 30 48 33 49 44 50 60 51 31 52 32 53
REMARK SMILES IDX 43 55 61 56 34 57 21 58 22 59 27 60 23 61 24 62 26 63 28 64
REMARK SMILES IDX 25 65 47 66 48 67 53 68 49 69 50 70 52 71 54 72 51 73 35 74
REMARK SMILES IDX 36 75 41 76 37 77 38 78 40 79 42 80 39 81
REMARK H PARENT 59 43 33 54
REMARK Flexibility Score: inf
ROOT
ATOM      1  O   UNL     1       0.465  -2.574  -4.277  1.00  0.00    -0.462 OA
ENDROOT
BRANCH   1   2
ATOM      2  C   UNL     1       0.956  -1.414  -3.781  1.00  0.00     0.313 C 
ATOM      3  O   UNL     1       0.879  -0.335  -4.363  1.00  0.00    -0.252 OA
BRANCH   2   4
ATOM      4  C   UNL     1       1.580  -1.542  -2.375  1.00  0.00     0.082 C 
ATOM      5  C   UNL     1       1.666  -2.980  -1.844  1.00  0.00     0.021 C 
ATOM      6  C   UNL     1       3.000  -0.972  -2.615  1.00  0.00     0.121 C 
ATOM      7  C   UNL     1       2.657  -3.128  -0.686  1.00  0.00     0.018 C 
ATOM      8  N   UNL     1       3.926  -1.148  -1.456  1.00  0.00    -0.201 NA
ATOM      9  C   UNL     1       4.031  -2.572  -1.033  1.00  0.00     0.102 C 
BRANCH   4  10
ATOM     10  C   UNL     1       0.626  -0.670  -1.512  1.00  0.00     0.017 C 
ATOM     11  C   UNL     1       0.469  -0.820  -0.007  1.00  0.00     0.005 C 
ENDBRANCH   4  10
BRANCH   8  12
ATOM     12  S   UNL     1       5.460  -0.369  -1.676  1.00  0.00     0.216 S 
ATOM     13  O   UNL     1       6.407  -1.411  -2.040  1.00  0.00    -0.212 OA
ATOM     14  O   UNL     1       5.276   0.770  -2.540  1.00  0.00    -0.212 OA
BRANCH  12  15
ATOM     15  C   UNL     1       5.858   0.203  -0.014  1.00  0.00     0.182 C 
BRANCH  15  16
ATOM     16  C   UNL     1       5.725   1.715   0.182  1.00  0.00     0.178 C 
BRANCH  16  17
ATOM     17  O   UNL     1       4.763   2.077   1.183  1.00  0.00    -0.378 OA
BRANCH  17  18
ATOM     18  C   UNL     1       3.454   2.453   0.749  1.00  0.00     0.112 C 
ATOM     19  C   UNL     1       3.381   3.806   0.049  1.00  0.00     0.038 C 
ATOM     20  C   UNL     1       2.826   1.402  -0.121  1.00  0.00     0.038 C 
ENDBRANCH  17  18
ENDBRANCH  16  17
ENDBRANCH  15  16
ENDBRANCH  12  15
ENDBRANCH   8  12
ENDBRANCH   2   4
ENDBRANCH   1   2
BRANCH   1  21
ATOM     21  C   UNL     1      -0.180  -2.480  -5.566  1.00  0.00     0.274 C 
BRANCH  21  22
ATOM     22  C   UNL     1      -1.697  -2.571  -5.417  1.00  0.00     0.275 C 
BRANCH  22  23
ATOM     23  O   UNL     1      -2.219  -1.381  -4.790  1.00  0.00    -0.458 OA
BRANCH  23  24
ATOM     24  C   UNL     1      -2.664  -1.549  -3.525  1.00  0.00     0.338 C 
ATOM     25  O   UNL     1      -2.674  -2.583  -2.876  1.00  0.00    -0.246 OA
BRANCH  24  26
ATOM     26  C   UNL     1      -3.091  -0.270  -2.931  1.00  0.00     0.060 A 
ATOM     27  C   UNL     1      -2.119   0.673  -2.631  1.00  0.00     0.016 A 
ATOM     28  C   UNL     1      -4.374  -0.135  -2.403  1.00  0.00     0.016 A 
ATOM     29  C   UNL     1      -2.357   1.601  -1.621  1.00  0.00     0.010 A 
ATOM     30  C   UNL     1      -4.664   0.937  -1.546  1.00  0.00     0.010 A 
ATOM     31  C   UNL     1      -3.642   1.783  -1.083  1.00  0.00    -0.014 A 
BRANCH  31  32
ATOM     32  C   UNL     1      -3.882   2.853  -0.059  1.00  0.00     0.031 A 
ATOM     33  C   UNL     1      -4.608   2.570   1.239  1.00  0.00     0.074 A 
ATOM     34  C   UNL     1      -3.428   4.106  -0.283  1.00  0.00     0.049 A 
ATOM     35  N   UNL     1      -5.003   3.410   2.167  1.00  0.00    -0.248 NA
ATOM     36  C   UNL     1      -4.958   1.171   1.523  1.00  0.00     0.031 C 
ATOM     37  C   UNL     1      -2.715   4.546  -1.485  1.00  0.00     0.029 A 
ATOM     38  N   UNL     1      -3.480   5.239   0.493  1.00  0.00    -0.354 N 
ATOM     39  C   UNL     1      -5.707   2.655   3.100  1.00  0.00     0.074 A 
ATOM     40  C   UNL     1      -5.691   1.289   2.622  1.00  0.00     0.031 C 
ATOM     41  C   UNL     1      -2.326   5.816  -1.334  1.00  0.00     0.029 A 
ATOM     42  C   UNL     1      -2.876   6.329  -0.087  1.00  0.00     0.049 A 
ATOM     43  H   UNL     1      -3.909   5.267   1.379  1.00  0.00     0.167 HD
ATOM     44  C   UNL     1      -6.312   3.060   4.247  1.00  0.00     0.037 A 
ATOM     45  C   UNL     1      -2.808   7.617   0.294  1.00  0.00     0.037 A 
ATOM     46  C   UNL     1      -6.277   4.412   4.754  1.00  0.00     0.049 A 
ATOM     47  C   UNL     1      -3.475   8.040   1.565  1.00  0.00     0.074 A 
ATOM     48  C   UNL     1      -6.817   4.906   5.931  1.00  0.00     0.029 A 
ATOM     49  N   UNL     1      -5.666   5.484   4.121  1.00  0.00    -0.354 N 
ATOM     50  N   UNL     1      -4.156   7.317   2.419  1.00  0.00    -0.248 NA
ATOM     51  C   UNL     1      -3.373   9.460   1.919  1.00  0.00     0.031 C 
ATOM     52  C   UNL     1      -6.583   6.285   5.980  1.00  0.00     0.029 A 
ATOM     53  C   UNL     1      -5.837   6.641   4.869  1.00  0.00     0.049 A 
ATOM     54  H   UNL     1      -5.181   5.432   3.265  1.00  0.00     0.167 HD
ATOM     55  C   UNL     1      -4.559   8.191   3.418  1.00  0.00     0.074 A 
ATOM     56  C   UNL     1      -4.018   9.492   3.076  1.00  0.00     0.031 C 
ATOM     57  C   UNL     1      -5.312   7.937   4.516  1.00  0.00     0.037 A 
BRANCH  44  58
ATOM     58  C   UNL     1      -7.112   2.038   5.013  1.00  0.00     0.057 A 
ATOM     59  C   UNL     1      -6.522   0.960   5.686  1.00  0.00     0.134 A 
ATOM     60  C   UNL     1      -8.508   2.154   5.095  1.00  0.00     0.134 A 
ATOM     61  F   UNL     1      -5.193   0.780   5.649  1.00  0.00    -0.206 F 
ATOM     62  C   UNL     1      -7.290   0.014   6.372  1.00  0.00     0.040 A 
ATOM     63  C   UNL     1      -9.283   1.235   5.807  1.00  0.00     0.040 A 
ATOM     64  F   UNL     1      -9.145   3.168   4.490  1.00  0.00    -0.206 F 
ATOM     65  C   UNL     1      -8.675   0.154   6.438  1.00  0.00     0.006 A 
ENDBRANCH  44  58
BRANCH  45  66
ATOM     66  C   UNL     1      -2.114   8.598  -0.580  1.00  0.00     0.057 A 
ATOM     67  C   UNL     1      -0.904   9.185  -0.198  1.00  0.00     0.134 A 
ATOM     68  C   UNL     1      -2.623   8.931  -1.843  1.00  0.00     0.134 A 
ATOM     69  F   UNL     1      -0.377   8.923   1.007  1.00  0.00    -0.206 F 
ATOM     70  C   UNL     1      -0.223  10.067  -1.040  1.00  0.00     0.040 A 
ATOM     71  C   UNL     1      -1.936   9.782  -2.708  1.00  0.00     0.040 A 
ATOM     72  F   UNL     1      -3.774   8.393  -2.273  1.00  0.00    -0.206 F 
ATOM     73  C   UNL     1      -0.733  10.356  -2.304  1.00  0.00     0.006 A 
ENDBRANCH  45  66
BRANCH  57  74
ATOM     74  C   UNL     1      -5.562   9.093   5.443  1.00  0.00     0.057 A 
ATOM     75  C   UNL     1      -6.377  10.175   5.082  1.00  0.00     0.134 A 
ATOM     76  C   UNL     1      -4.960   9.135   6.707  1.00  0.00     0.134 A 
ATOM     77  F   UNL     1      -6.972  10.208   3.879  1.00  0.00    -0.206 F 
ATOM     78  C   UNL     1      -6.546  11.276   5.924  1.00  0.00     0.040 A 
ATOM     79  C   UNL     1      -5.148  10.214   7.571  1.00  0.00     0.040 A 
ATOM     80  F   UNL     1      -4.174   8.129   7.121  1.00  0.00    -0.206 F 
ATOM     81  C   UNL     1      -5.932  11.295   7.175  1.00  0.00     0.006 A 
ENDBRANCH  57  74
ENDBRANCH  31  32
ENDBRANCH  24  26
ENDBRANCH  23  24
ENDBRANCH  22  23
ENDBRANCH  21  22
ENDBRANCH   1  21
TORSDOF 17
