REMARK SMILES COc1cc([C@@H]2CC(=O)Nc3c(C(=O)OCCOC(=O)c4ccc(-c5c6nc(c(-c7c(F)cccc7F)c7ccc([nH]7)c(-c7c(F)cccc7F)c7nc(c(-c8c(F)cccc8F)c8ccc5[nH]8)C=C7)C=C6)cc4)cn(-c4ccc(F)cc4)c32)c(OC)c2c1OCO2
REMARK SMILES IDX 16 1 15 2 13 3 14 4 12 5 6 6 7 7 84 8 8 9 11 10 76 11 9 12
REMARK SMILES IDX 10 13 75 14 5 16 3 17 4 18 89 19 88 20 90 21 85 22 92 23
REMARK SMILES IDX 91 24 2 25 1 26 86 27 87 28 77 29 78 30 83 31 79 32 82 33
REMARK SMILES IDX 80 34 81 35 17 36 18 37 19 38 20 39 21 40 22 41 74 42 23 43
REMARK SMILES IDX 73 44 24 45 25 46 26 47 67 48 27 49 72 50 66 51 68 52 28 53
REMARK SMILES IDX 71 54 65 55 64 56 29 58 55 59 38 60 54 61 39 62 42 63 53 64
REMARK SMILES IDX 69 65 40 66 41 67 52 69 70 70 43 71 30 72 31 73 36 74 32 75
REMARK SMILES IDX 33 76 35 77 37 78 34 79 56 80 57 81 62 82 58 83 59 84 61 85
REMARK SMILES IDX 63 86 60 87 44 88 45 89 50 90 46 91 47 92 49 93 51 94 48 95
REMARK H PARENT 10 15 68 57 42 68
REMARK Flexibility Score: inf
ROOT
ATOM      1  C   UNL     1       0.308  -3.891 -11.046  1.00  0.00     0.275 C 
ENDROOT
BRANCH   1   2
ATOM      2  O   UNL     1       0.145  -3.724  -9.629  1.00  0.00    -0.458 OA
BRANCH   2   3
ATOM      3  C   UNL     1      -0.278  -2.491  -9.210  1.00  0.00     0.341 C 
ATOM      4  O   UNL     1      -0.335  -1.496  -9.927  1.00  0.00    -0.246 OA
BRANCH   3   5
ATOM      5  C   UNL     1      -0.708  -2.497  -7.822  1.00  0.00     0.102 A 
ATOM      6  C   UNL     1      -0.696  -3.700  -4.323  1.00  0.00     0.082 C 
ATOM      7  C   UNL     1      -0.543  -5.210  -4.587  1.00  0.00     0.115 C 
ATOM      8  C   UNL     1      -0.911  -2.986  -5.624  1.00  0.00     0.055 A 
ATOM      9  C   UNL     1       0.200  -5.576  -5.867  1.00  0.00     0.225 C 
ATOM     10  C   UNL     1      -0.509  -3.487  -6.838  1.00  0.00     0.078 A 
ATOM     11  N   UNL     1      -1.562  -1.791  -5.856  1.00  0.00    -0.317 N 
ATOM     12  O   UNL     1       0.806  -6.642  -5.980  1.00  0.00    -0.275 OA
ATOM     13  N   UNL     1       0.070  -4.730  -6.939  1.00  0.00    -0.324 N 
ATOM     14  C   UNL     1      -1.460  -1.506  -7.203  1.00  0.00     0.109 A 
ATOM     15  H   UNL     1       0.406  -5.025  -7.816  1.00  0.00     0.170 HD
BRANCH   6  16
ATOM     16  C   UNL     1       0.469  -3.138  -3.496  1.00  0.00     0.012 A 
ATOM     17  C   UNL     1       1.135  -2.055  -1.394  1.00  0.00     0.165 A 
ATOM     18  C   UNL     1       0.179  -2.706  -2.175  1.00  0.00     0.059 A 
ATOM     19  C   UNL     1       2.416  -1.951  -1.897  1.00  0.00     0.211 A 
ATOM     20  C   UNL     1       2.736  -2.413  -3.159  1.00  0.00     0.211 A 
ATOM     21  O   UNL     1       3.492  -1.415  -1.256  1.00  0.00    -0.449 OA
ATOM     22  C   UNL     1       1.789  -2.993  -3.991  1.00  0.00     0.168 A 
ATOM     23  O   UNL     1       4.053  -2.198  -3.445  1.00  0.00    -0.449 OA
ATOM     24  C   UNL     1       4.540  -1.676  -2.201  1.00  0.00     0.468 C 
BRANCH  17  25
ATOM     25  O   UNL     1       0.726  -1.591  -0.178  1.00  0.00    -0.493 OA
ATOM     26  C   UNL     1       1.078  -0.224   0.038  1.00  0.00     0.278 C 
ENDBRANCH  17  25
BRANCH  22  27
ATOM     27  O   UNL     1       2.010  -3.423  -5.262  1.00  0.00    -0.492 OA
ATOM     28  C   UNL     1       3.323  -3.422  -5.794  1.00  0.00     0.278 C 
ENDBRANCH  22  27
ENDBRANCH   6  16
BRANCH  11  29
ATOM     29  C   UNL     1      -2.232  -0.986  -4.910  1.00  0.00     0.046 A 
ATOM     30  C   UNL     1      -1.524  -0.477  -3.820  1.00  0.00     0.029 A 
ATOM     31  C   UNL     1      -3.603  -0.743  -5.047  1.00  0.00     0.029 A 
ATOM     32  C   UNL     1      -2.200   0.197  -2.806  1.00  0.00     0.041 A 
ATOM     33  C   UNL     1      -4.276  -0.063  -4.027  1.00  0.00     0.041 A 
ATOM     34  C   UNL     1      -3.572   0.383  -2.910  1.00  0.00     0.123 A 
ATOM     35  F   UNL     1      -4.227   1.003  -1.920  1.00  0.00    -0.207 F 
ENDBRANCH  11  29
ENDBRANCH   3   5
ENDBRANCH   2   3
ENDBRANCH   1   2
BRANCH   1  36
ATOM     36  C   UNL     1      -1.008  -4.262 -11.716  1.00  0.00     0.275 C 
BRANCH  36  37
ATOM     37  O   UNL     1      -1.917  -3.162 -11.727  1.00  0.00    -0.458 OA
BRANCH  37  38
ATOM     38  C   UNL     1      -2.808  -3.146 -10.711  1.00  0.00     0.338 C 
ATOM     39  O   UNL     1      -2.763  -3.788  -9.675  1.00  0.00    -0.246 OA
BRANCH  38  40
ATOM     40  C   UNL     1      -3.994  -2.398 -11.127  1.00  0.00     0.060 A 
ATOM     41  C   UNL     1      -4.965  -2.131 -10.157  1.00  0.00     0.016 A 
ATOM     42  C   UNL     1      -4.253  -2.259 -12.497  1.00  0.00     0.016 A 
ATOM     43  C   UNL     1      -6.255  -1.880 -10.574  1.00  0.00     0.010 A 
ATOM     44  C   UNL     1      -5.541  -2.034 -12.910  1.00  0.00     0.010 A 
ATOM     45  C   UNL     1      -6.537  -1.915 -11.945  1.00  0.00    -0.014 A 
BRANCH  45  46
ATOM     46  C   UNL     1      -7.898  -1.678 -12.375  1.00  0.00     0.031 A 
ATOM     47  C   UNL     1      -8.305  -0.261 -12.222  1.00  0.00     0.074 A 
ATOM     48  C   UNL     1      -8.632  -2.626 -12.990  1.00  0.00     0.049 A 
ATOM     49  N   UNL     1      -9.243   0.211 -11.473  1.00  0.00    -0.248 NA
ATOM     50  C   UNL     1      -7.457   0.772 -12.844  1.00  0.00     0.031 C 
ATOM     51  C   UNL     1      -8.204  -3.953 -13.440  1.00  0.00     0.029 A 
ATOM     52  N   UNL     1      -9.908  -2.550 -13.450  1.00  0.00    -0.354 N 
ATOM     53  C   UNL     1      -9.236   1.586 -11.684  1.00  0.00     0.074 A 
ATOM     54  C   UNL     1      -8.016   1.889 -12.381  1.00  0.00     0.031 C 
ATOM     55  C   UNL     1      -9.121  -4.447 -14.305  1.00  0.00     0.029 A 
ATOM     56  C   UNL     1     -10.246  -3.529 -14.376  1.00  0.00     0.049 A 
ATOM     57  H   UNL     1     -10.542  -1.858 -13.151  1.00  0.00     0.167 HD
ATOM     58  C   UNL     1     -10.357   2.328 -11.486  1.00  0.00     0.037 A 
ATOM     59  C   UNL     1     -11.333  -3.516 -15.190  1.00  0.00     0.037 A 
ATOM     60  C   UNL     1     -11.310   1.619 -10.671  1.00  0.00     0.049 A 
ATOM     61  C   UNL     1     -12.296  -2.529 -14.633  1.00  0.00     0.074 A 
ATOM     62  C   UNL     1     -11.289   1.102  -9.389  1.00  0.00     0.029 A 
ATOM     63  N   UNL     1     -12.362   1.008 -11.307  1.00  0.00    -0.354 N 
ATOM     64  N   UNL     1     -12.962  -2.710 -13.527  1.00  0.00    -0.248 NA
ATOM     65  C   UNL     1     -12.157  -1.142 -15.056  1.00  0.00     0.031 C 
ATOM     66  C   UNL     1     -12.008  -0.125  -9.475  1.00  0.00     0.029 A 
ATOM     67  C   UNL     1     -12.489  -0.250 -10.778  1.00  0.00     0.049 A 
ATOM     68  H   UNL     1     -12.923   1.401 -12.015  1.00  0.00     0.167 HD
ATOM     69  C   UNL     1     -12.927  -1.478 -12.892  1.00  0.00     0.074 A 
ATOM     70  C   UNL     1     -12.489  -0.530 -13.915  1.00  0.00     0.031 C 
ATOM     71  C   UNL     1     -12.964  -1.387 -11.530  1.00  0.00     0.037 A 
BRANCH  58  72
ATOM     72  C   UNL     1     -10.747   3.506 -12.340  1.00  0.00     0.057 A 
ATOM     73  C   UNL     1     -11.868   4.271 -11.972  1.00  0.00     0.134 A 
ATOM     74  C   UNL     1     -10.268   3.736 -13.646  1.00  0.00     0.134 A 
ATOM     75  F   UNL     1     -12.425   4.136 -10.758  1.00  0.00    -0.206 F 
ATOM     76  C   UNL     1     -12.514   5.133 -12.865  1.00  0.00     0.040 A 
ATOM     77  C   UNL     1     -10.873   4.634 -14.528  1.00  0.00     0.040 A 
ATOM     78  F   UNL     1      -9.260   3.037 -14.179  1.00  0.00    -0.206 F 
ATOM     79  C   UNL     1     -12.021   5.309 -14.152  1.00  0.00     0.006 A 
ENDBRANCH  58  72
BRANCH  59  80
ATOM     80  C   UNL     1     -11.476  -4.046 -16.567  1.00  0.00     0.057 A 
ATOM     81  C   UNL     1     -12.740  -4.192 -17.159  1.00  0.00     0.134 A 
ATOM     82  C   UNL     1     -10.376  -4.157 -17.436  1.00  0.00     0.134 A 
ATOM     83  F   UNL     1     -13.855  -4.066 -16.424  1.00  0.00    -0.206 F 
ATOM     84  C   UNL     1     -12.902  -4.402 -18.535  1.00  0.00     0.040 A 
ATOM     85  C   UNL     1     -10.524  -4.375 -18.810  1.00  0.00     0.040 A 
ATOM     86  F   UNL     1      -9.124  -3.965 -16.999  1.00  0.00    -0.206 F 
ATOM     87  C   UNL     1     -11.791  -4.482 -19.368  1.00  0.00     0.006 A 
ENDBRANCH  59  80
BRANCH  71  88
ATOM     88  C   UNL     1     -13.304  -2.625 -10.748  1.00  0.00     0.057 A 
ATOM     89  C   UNL     1     -12.556  -3.813 -10.774  1.00  0.00     0.134 A 
ATOM     90  C   UNL     1     -14.354  -2.561  -9.825  1.00  0.00     0.134 A 
ATOM     91  F   UNL     1     -11.466  -3.933 -11.543  1.00  0.00    -0.206 F 
ATOM     92  C   UNL     1     -12.876  -4.903  -9.958  1.00  0.00     0.040 A 
ATOM     93  C   UNL     1     -14.659  -3.627  -8.977  1.00  0.00     0.040 A 
ATOM     94  F   UNL     1     -15.077  -1.437  -9.700  1.00  0.00    -0.206 F 
ATOM     95  C   UNL     1     -13.928  -4.810  -9.052  1.00  0.00     0.006 A 
ENDBRANCH  71  88
ENDBRANCH  45  46
ENDBRANCH  38  40
ENDBRANCH  37  38
ENDBRANCH  36  37
ENDBRANCH   1  36
TORSDOF 15
