REMARK SMILES Cc1ccnc(C(=O)c2[nH]c3ccc(OC(F)(F)F)cc3c2CC(=O)OCCOC(=O)c2ccc(-c3c4nc(c(-c5c(F)cccc5F)c5ccc([nH]5)c(-c5c(F)cccc5F)c5nc(c(-c6c(F)cccc6F)c6ccc3[nH]6)C=C5)C=C4)cc2)c1
REMARK SMILES IDX 27 1 26 2 24 3 25 4 23 5 22 6 9 7 10 8 11 9 21 11 12 12
REMARK SMILES IDX 20 13 13 14 14 15 7 16 8 17 6 18 1 19 2 20 3 21 86 22 4 23
REMARK SMILES IDX 5 24 15 25 16 26 17 27 18 28 19 29 28 30 29 31 30 32 31 33
REMARK SMILES IDX 32 34 33 35 85 36 34 37 84 38 35 39 36 40 37 41 78 42 38 43
REMARK SMILES IDX 83 44 77 45 79 46 39 47 82 48 76 49 75 50 40 52 66 53 49 54
REMARK SMILES IDX 65 55 50 56 53 57 64 58 80 59 51 60 52 61 63 63 81 64 54 65
REMARK SMILES IDX 41 66 42 67 47 68 43 69 44 70 46 71 48 72 45 73 67 74 68 75
REMARK SMILES IDX 73 76 69 77 70 78 72 79 74 80 71 81 55 82 56 83 61 84 57 85
REMARK SMILES IDX 58 86 60 87 62 88 59 89
REMARK H PARENT 10 10 79 51 53 62
REMARK Flexibility Score: inf
ROOT
ATOM      1  C   UNL     1       5.172  -5.377   0.614  1.00  0.00     0.274 C 
ENDROOT
BRANCH   1   2
ATOM      2  O   UNL     1       3.735  -5.259   0.512  1.00  0.00    -0.462 OA
BRANCH   2   3
ATOM      3  C   UNL     1       3.072  -5.036   1.672  1.00  0.00     0.310 C 
ATOM      4  O   UNL     1       3.611  -5.039   2.779  1.00  0.00    -0.252 OA
BRANCH   3   5
ATOM      5  C   UNL     1       1.620  -4.636   1.531  1.00  0.00     0.161 C 
BRANCH   5   6
ATOM      6  C   UNL     1       0.861  -4.976   0.287  1.00  0.00     0.000 A 
ATOM      7  C   UNL     1       0.710  -4.217  -0.874  1.00  0.00     0.093 A 
ATOM      8  N   UNL     1      -0.113  -4.927  -1.716  1.00  0.00    -0.352 N 
ATOM      9  C   UNL     1      -0.653  -6.007  -1.076  1.00  0.00     0.046 A 
ATOM     10  H   UNL     1      -0.289  -4.689  -2.655  1.00  0.00     0.167 HD
ATOM     11  C   UNL     1      -0.007  -6.119   0.150  1.00  0.00     0.008 A 
ATOM     12  C   UNL     1      -1.651  -6.886  -1.498  1.00  0.00     0.030 A 
ATOM     13  C   UNL     1      -0.345  -7.213   0.976  1.00  0.00     0.057 A 
ATOM     14  C   UNL     1      -1.990  -7.941  -0.646  1.00  0.00     0.049 A 
ATOM     15  C   UNL     1      -1.336  -8.124   0.572  1.00  0.00     0.130 A 
BRANCH   7  16
ATOM     16  C   UNL     1       1.246  -2.945  -1.336  1.00  0.00     0.227 C 
ATOM     17  O   UNL     1       1.967  -2.907  -2.332  1.00  0.00    -0.285 OA
BRANCH  16  18
ATOM     18  C   UNL     1       0.673  -1.653  -0.796  1.00  0.00     0.113 A 
ATOM     19  C   UNL     1      -2.608  -0.249   0.509  1.00  0.00     0.044 C 
ATOM     20  C   UNL     1      -1.197  -0.363   0.010  1.00  0.00    -0.047 A 
ATOM     21  C   UNL     1      -0.487   0.793  -0.313  1.00  0.00     0.023 A 
ATOM     22  C   UNL     1      -0.598  -1.609  -0.219  1.00  0.00     0.036 A 
ATOM     23  C   UNL     1       0.778   0.662  -0.856  1.00  0.00     0.112 A 
ATOM     24  N   UNL     1       1.366  -0.523  -1.108  1.00  0.00    -0.253 NA
ENDBRANCH  16  18
ENDBRANCH   7  16
BRANCH  15  25
ATOM     25  O   UNL     1      -1.567  -9.136   1.462  1.00  0.00    -0.406 OA
BRANCH  25  26
ATOM     26  C   UNL     1      -2.560 -10.091   1.127  1.00  0.00     0.573 C 
ATOM     27  F   UNL     1      -3.777  -9.513   1.032  1.00  0.00    -0.132 F 
ATOM     28  F   UNL     1      -2.269 -10.721  -0.031  1.00  0.00    -0.132 F 
ATOM     29  F   UNL     1      -2.616 -11.022   2.106  1.00  0.00    -0.132 F 
ENDBRANCH  25  26
ENDBRANCH  15  25
ENDBRANCH   5   6
ENDBRANCH   3   5
ENDBRANCH   2   3
ENDBRANCH   1   2
BRANCH   1  30
ATOM     30  C   UNL     1       5.895  -4.091   0.182  1.00  0.00     0.275 C 
BRANCH  30  31
ATOM     31  O   UNL     1       5.675  -2.986   1.088  1.00  0.00    -0.458 OA
BRANCH  31  32
ATOM     32  C   UNL     1       4.556  -2.290   0.811  1.00  0.00     0.338 C 
ATOM     33  O   UNL     1       3.741  -2.538  -0.062  1.00  0.00    -0.246 OA
BRANCH  32  34
ATOM     34  C   UNL     1       4.281  -1.219   1.767  1.00  0.00     0.060 A 
ATOM     35  C   UNL     1       3.245  -1.436   2.676  1.00  0.00     0.016 A 
ATOM     36  C   UNL     1       4.817   0.059   1.591  1.00  0.00     0.016 A 
ATOM     37  C   UNL     1       2.680  -0.366   3.349  1.00  0.00     0.010 A 
ATOM     38  C   UNL     1       4.297   1.125   2.332  1.00  0.00     0.010 A 
ATOM     39  C   UNL     1       3.204   0.925   3.192  1.00  0.00    -0.014 A 
BRANCH  39  40
ATOM     40  C   UNL     1       2.600   2.023   3.984  1.00  0.00     0.031 A 
ATOM     41  C   UNL     1       1.763   3.087   3.338  1.00  0.00     0.074 A 
ATOM     42  C   UNL     1       2.734   1.984   5.323  1.00  0.00     0.049 A 
ATOM     43  N   UNL     1       1.074   4.047   3.902  1.00  0.00    -0.248 NA
ATOM     44  C   UNL     1       1.674   3.069   1.871  1.00  0.00     0.031 C 
ATOM     45  C   UNL     1       3.497   0.975   6.062  1.00  0.00     0.029 A 
ATOM     46  N   UNL     1       2.211   2.790   6.299  1.00  0.00    -0.354 N 
ATOM     47  C   UNL     1       0.452   4.731   2.866  1.00  0.00     0.074 A 
ATOM     48  C   UNL     1       0.870   4.098   1.633  1.00  0.00     0.031 C 
ATOM     49  C   UNL     1       3.363   1.200   7.376  1.00  0.00     0.029 A 
ATOM     50  C   UNL     1       2.551   2.396   7.569  1.00  0.00     0.049 A 
ATOM     51  H   UNL     1       1.647   3.574   6.108  1.00  0.00     0.167 HD
ATOM     52  C   UNL     1      -0.394   5.786   2.941  1.00  0.00     0.037 A 
ATOM     53  C   UNL     1       2.257   2.948   8.758  1.00  0.00     0.037 A 
ATOM     54  C   UNL     1      -0.772   6.442   4.165  1.00  0.00     0.049 A 
ATOM     55  C   UNL     1       1.409   4.181   8.800  1.00  0.00     0.074 A 
ATOM     56  C   UNL     1      -1.604   7.536   4.340  1.00  0.00     0.029 A 
ATOM     57  N   UNL     1      -0.327   6.075   5.426  1.00  0.00    -0.354 N 
ATOM     58  N   UNL     1       0.819   4.810   7.813  1.00  0.00    -0.248 NA
ATOM     59  C   UNL     1       1.197   4.790  10.120  1.00  0.00     0.031 C 
ATOM     60  C   UNL     1      -1.631   7.854   5.704  1.00  0.00     0.029 A 
ATOM     61  C   UNL     1      -0.842   6.938   6.381  1.00  0.00     0.049 A 
ATOM     62  H   UNL     1       0.268   5.314   5.616  1.00  0.00     0.167 HD
ATOM     63  C   UNL     1       0.164   5.888   8.390  1.00  0.00     0.074 A 
ATOM     64  C   UNL     1       0.409   5.812   9.817  1.00  0.00     0.031 C 
ATOM     65  C   UNL     1      -0.570   6.857   7.792  1.00  0.00     0.037 A 
BRANCH  52  66
ATOM     66  C   UNL     1      -0.959   6.311   1.655  1.00  0.00     0.057 A 
ATOM     67  C   UNL     1      -2.015   5.662   1.004  1.00  0.00     0.134 A 
ATOM     68  C   UNL     1      -0.484   7.502   1.095  1.00  0.00     0.134 A 
ATOM     69  F   UNL     1      -2.502   4.506   1.480  1.00  0.00    -0.206 F 
ATOM     70  C   UNL     1      -2.580   6.182  -0.163  1.00  0.00     0.040 A 
ATOM     71  C   UNL     1      -1.047   8.037  -0.065  1.00  0.00     0.040 A 
ATOM     72  F   UNL     1       0.528   8.169   1.671  1.00  0.00    -0.206 F 
ATOM     73  C   UNL     1      -2.100   7.377  -0.696  1.00  0.00     0.006 A 
ENDBRANCH  52  66
BRANCH  53  74
ATOM     74  C   UNL     1       2.803   2.348   9.998  1.00  0.00     0.057 A 
ATOM     75  C   UNL     1       1.977   1.684  10.909  1.00  0.00     0.134 A 
ATOM     76  C   UNL     1       4.171   2.415  10.289  1.00  0.00     0.134 A 
ATOM     77  F   UNL     1       0.656   1.605  10.690  1.00  0.00    -0.206 F 
ATOM     78  C   UNL     1       2.491   1.110  12.072  1.00  0.00     0.040 A 
ATOM     79  C   UNL     1       4.702   1.827  11.436  1.00  0.00     0.040 A 
ATOM     80  F   UNL     1       5.012   3.037   9.450  1.00  0.00    -0.206 F 
ATOM     81  C   UNL     1       3.860   1.175  12.334  1.00  0.00     0.006 A 
ENDBRANCH  53  74
BRANCH  65  82
ATOM     82  C   UNL     1      -1.147   7.906   8.691  1.00  0.00     0.057 A 
ATOM     83  C   UNL     1      -0.348   8.921   9.233  1.00  0.00     0.134 A 
ATOM     84  C   UNL     1      -2.506   7.897   9.025  1.00  0.00     0.134 A 
ATOM     85  F   UNL     1       0.965   8.970   8.962  1.00  0.00    -0.206 F 
ATOM     86  C   UNL     1      -0.877   9.877  10.100  1.00  0.00     0.040 A 
ATOM     87  C   UNL     1      -3.050   8.859   9.876  1.00  0.00     0.040 A 
ATOM     88  F   UNL     1      -3.321   6.952   8.536  1.00  0.00    -0.206 F 
ATOM     89  C   UNL     1      -2.233   9.848  10.422  1.00  0.00     0.006 A 
ENDBRANCH  65  82
ENDBRANCH  39  40
ENDBRANCH  32  34
ENDBRANCH  31  32
ENDBRANCH  30  31
ENDBRANCH   1  30
TORSDOF 16
