REMARK SMILES CC(=O)Nc1cccc(-c2cc(F)ccc2C(=O)OCCOC(=O)c2ccc(-c3c4nc(c(-c5c(F)cccc5F)c5ccc([nH]5)c(-c5c(F)cccc5F)c5nc(c(-c6c(F)cccc6F)c6ccc3[nH]6)C=C5)C=C4)cc2)c1
REMARK SMILES IDX 20 1 19 2 17 3 18 4 16 5 10 6 11 7 12 8 15 9 13 10 14 11
REMARK SMILES IDX 9 12 5 13 6 14 79 15 7 16 8 17 4 18 1 19 2 20 3 21 21 23
REMARK SMILES IDX 22 24 23 25 24 26 25 27 26 28 78 29 27 30 77 31 28 32 29 33
REMARK SMILES IDX 30 34 71 35 31 36 76 37 70 38 72 39 32 40 75 41 69 42 68 43
REMARK SMILES IDX 33 45 59 46 42 47 58 48 43 49 46 50 57 51 73 52 44 53 45 54
REMARK SMILES IDX 56 56 74 57 47 58 34 59 35 60 40 61 36 62 37 63 39 64 41 65
REMARK SMILES IDX 38 66 60 67 61 68 66 69 62 70 63 71 65 72 67 73 64 74 48 75
REMARK SMILES IDX 49 76 54 77 50 78 51 79 53 80 55 81 52 82
REMARK H PARENT 4 22 72 44 46 55
REMARK Flexibility Score: inf
ROOT
ATOM      1  C   UNL     1       4.208  -2.694   2.498  1.00  0.00     0.275 C 
ENDROOT
BRANCH   1   2
ATOM      2  O   UNL     1       4.633  -2.781   1.122  1.00  0.00    -0.458 OA
BRANCH   2   3
ATOM      3  C   UNL     1       5.061  -1.634   0.540  1.00  0.00     0.338 C 
ATOM      4  O   UNL     1       5.276  -0.573   1.097  1.00  0.00    -0.246 OA
BRANCH   3   5
ATOM      5  C   UNL     1       5.305  -1.825  -0.916  1.00  0.00     0.068 A 
ATOM      6  C   UNL     1       4.388  -2.476  -1.777  1.00  0.00    -0.001 A 
ATOM      7  C   UNL     1       4.723  -2.566  -3.142  1.00  0.00     0.048 A 
ATOM      8  C   UNL     1       5.916  -2.032  -3.625  1.00  0.00     0.123 A 
ATOM      9  C   UNL     1       6.488  -1.260  -1.431  1.00  0.00     0.019 A 
ATOM     10  F   UNL     1       6.203  -2.132  -4.929  1.00  0.00    -0.207 F 
ATOM     11  C   UNL     1       6.803  -1.382  -2.781  1.00  0.00     0.040 A 
BRANCH   6  12
ATOM     12  C   UNL     1       3.110  -3.038  -1.302  1.00  0.00    -0.015 A 
ATOM     13  C   UNL     1       1.087  -2.802   0.051  1.00  0.00     0.041 A 
ATOM     14  C   UNL     1       0.854  -4.174  -0.095  1.00  0.00     0.026 A 
ATOM     15  C   UNL     1       2.197  -2.242  -0.581  1.00  0.00     0.034 A 
ATOM     16  C   UNL     1       1.703  -4.965  -0.870  1.00  0.00     0.003 A 
ATOM     17  C   UNL     1       2.829  -4.401  -1.465  1.00  0.00     0.009 A 
BRANCH  13  18
ATOM     18  N   UNL     1       0.242  -2.105   0.931  1.00  0.00    -0.326 N 
ATOM     19  C   UNL     1       0.545   0.276   0.236  1.00  0.00     0.114 C 
ATOM     20  C   UNL     1       0.049  -0.779   1.183  1.00  0.00     0.221 C 
ATOM     21  O   UNL     1      -0.589  -0.463   2.191  1.00  0.00    -0.275 OA
ATOM     22  H   UNL     1      -0.328  -2.694   1.477  1.00  0.00     0.169 HD
ENDBRANCH  13  18
ENDBRANCH   6  12
ENDBRANCH   3   5
ENDBRANCH   2   3
ENDBRANCH   1   2
BRANCH   1  23
ATOM     23  C   UNL     1       5.021  -3.642   3.372  1.00  0.00     0.275 C 
BRANCH  23  24
ATOM     24  O   UNL     1       6.389  -3.204   3.393  1.00  0.00    -0.458 OA
BRANCH  24  25
ATOM     25  C   UNL     1       7.229  -3.910   2.608  1.00  0.00     0.338 C 
ATOM     26  O   UNL     1       7.006  -4.944   1.996  1.00  0.00    -0.246 OA
BRANCH  25  27
ATOM     27  C   UNL     1       8.491  -3.176   2.491  1.00  0.00     0.060 A 
ATOM     28  C   UNL     1       8.546  -2.107   1.600  1.00  0.00     0.016 A 
ATOM     29  C   UNL     1       9.637  -3.615   3.145  1.00  0.00     0.016 A 
ATOM     30  C   UNL     1       9.767  -1.521   1.287  1.00  0.00     0.010 A 
ATOM     31  C   UNL     1      10.851  -2.970   2.893  1.00  0.00     0.010 A 
ATOM     32  C   UNL     1      10.936  -1.942   1.932  1.00  0.00    -0.014 A 
BRANCH  32  33
ATOM     33  C   UNL     1      12.254  -1.361   1.558  1.00  0.00     0.031 A 
ATOM     34  C   UNL     1      13.338  -2.257   1.021  1.00  0.00     0.074 A 
ATOM     35  C   UNL     1      12.481  -0.038   1.678  1.00  0.00     0.049 A 
ATOM     36  N   UNL     1      14.608  -2.003   0.834  1.00  0.00    -0.248 NA
ATOM     37  C   UNL     1      12.940  -3.627   0.658  1.00  0.00     0.031 C 
ATOM     38  C   UNL     1      11.504   0.957   2.121  1.00  0.00     0.029 A 
ATOM     39  N   UNL     1      13.614   0.698   1.433  1.00  0.00    -0.354 N 
ATOM     40  C   UNL     1      15.171  -3.194   0.389  1.00  0.00     0.074 A 
ATOM     41  C   UNL     1      14.105  -4.172   0.338  1.00  0.00     0.031 C 
ATOM     42  C   UNL     1      12.067   2.174   2.087  1.00  0.00     0.029 A 
ATOM     43  C   UNL     1      13.469   2.036   1.711  1.00  0.00     0.049 A 
ATOM     44  H   UNL     1      14.450   0.305   1.091  1.00  0.00     0.167 HD
ATOM     45  C   UNL     1      16.459  -3.446   0.056  1.00  0.00     0.037 A 
ATOM     46  C   UNL     1      14.374   3.033   1.712  1.00  0.00     0.037 A 
ATOM     47  C   UNL     1      17.503  -2.454   0.059  1.00  0.00     0.049 A 
ATOM     48  C   UNL     1      15.807   2.720   1.383  1.00  0.00     0.074 A 
ATOM     49  C   UNL     1      18.842  -2.607  -0.256  1.00  0.00     0.029 A 
ATOM     50  N   UNL     1      17.317  -1.117   0.376  1.00  0.00    -0.354 N 
ATOM     51  N   UNL     1      16.345   1.575   1.039  1.00  0.00    -0.248 NA
ATOM     52  C   UNL     1      16.762   3.834   1.466  1.00  0.00     0.031 C 
ATOM     53  C   UNL     1      19.472  -1.367  -0.103  1.00  0.00     0.029 A 
ATOM     54  C   UNL     1      18.517  -0.434   0.268  1.00  0.00     0.049 A 
ATOM     55  H   UNL     1      16.459  -0.712   0.638  1.00  0.00     0.167 HD
ATOM     56  C   UNL     1      17.696   1.833   0.850  1.00  0.00     0.074 A 
ATOM     57  C   UNL     1      17.892   3.246   1.099  1.00  0.00     0.031 C 
ATOM     58  C   UNL     1      18.688   0.975   0.509  1.00  0.00     0.037 A 
BRANCH  45  59
ATOM     59  C   UNL     1      16.818  -4.857  -0.310  1.00  0.00     0.057 A 
ATOM     60  C   UNL     1      16.430  -5.435  -1.525  1.00  0.00     0.134 A 
ATOM     61  C   UNL     1      17.592  -5.639   0.559  1.00  0.00     0.134 A 
ATOM     62  F   UNL     1      15.676  -4.746  -2.394  1.00  0.00    -0.206 F 
ATOM     63  C   UNL     1      16.780  -6.746  -1.854  1.00  0.00     0.040 A 
ATOM     64  C   UNL     1      17.969  -6.942   0.230  1.00  0.00     0.040 A 
ATOM     65  F   UNL     1      18.002  -5.146   1.737  1.00  0.00    -0.206 F 
ATOM     66  C   UNL     1      17.557  -7.502  -0.977  1.00  0.00     0.006 A 
ENDBRANCH  45  59
BRANCH  46  67
ATOM     67  C   UNL     1      13.964   4.411   2.082  1.00  0.00     0.057 A 
ATOM     68  C   UNL     1      13.961   5.444   1.138  1.00  0.00     0.134 A 
ATOM     69  C   UNL     1      13.571   4.731   3.388  1.00  0.00     0.134 A 
ATOM     70  F   UNL     1      14.351   5.207  -0.123  1.00  0.00    -0.206 F 
ATOM     71  C   UNL     1      13.593   6.746   1.481  1.00  0.00     0.040 A 
ATOM     72  C   UNL     1      13.172   6.021   3.738  1.00  0.00     0.040 A 
ATOM     73  F   UNL     1      13.552   3.786   4.341  1.00  0.00    -0.206 F 
ATOM     74  C   UNL     1      13.189   7.036   2.783  1.00  0.00     0.006 A 
ENDBRANCH  46  67
BRANCH  58  75
ATOM     75  C   UNL     1      20.061   1.554   0.346  1.00  0.00     0.057 A 
ATOM     76  C   UNL     1      20.837   1.935   1.448  1.00  0.00     0.134 A 
ATOM     77  C   UNL     1      20.621   1.709  -0.928  1.00  0.00     0.134 A 
ATOM     78  F   UNL     1      20.349   1.825   2.693  1.00  0.00    -0.206 F 
ATOM     79  C   UNL     1      22.114   2.472   1.286  1.00  0.00     0.040 A 
ATOM     80  C   UNL     1      21.906   2.223  -1.101  1.00  0.00     0.040 A 
ATOM     81  F   UNL     1      19.931   1.357  -2.023  1.00  0.00    -0.206 F 
ATOM     82  C   UNL     1      22.654   2.612   0.009  1.00  0.00     0.006 A 
ENDBRANCH  58  75
ENDBRANCH  32  33
ENDBRANCH  25  27
ENDBRANCH  24  25
ENDBRANCH  23  24
ENDBRANCH   1  23
TORSDOF 13
