REMARK SMILES CCn1cc(C)c(C(=O)OCCOC(=O)c2ccc(-c3c4nc(c(-c5c(F)cccc5F)c5ccc([nH]5)c(-c5c(F)cccc5F)c5nc(c(-c6c(F)cccc6F)c6ccc3[nH]6)C=C5)C=C4)cc2)c1CC(=O)N1CCc2ccccc21
REMARK SMILES IDX 11 1 10 2 8 3 9 4 7 5 3 6 4 7 70 8 5 9 6 10 2 11 1 12 71 13
REMARK SMILES IDX 72 14 73 15 74 16 75 17 82 18 76 19 77 20 81 21 78 22 80 23
REMARK SMILES IDX 79 24 12 25 13 26 14 27 15 28 16 29 17 30 69 31 18 32 68 33
REMARK SMILES IDX 19 34 20 35 21 36 62 37 22 38 67 39 61 40 63 41 23 42 66 43
REMARK SMILES IDX 60 44 59 45 24 47 50 48 33 49 49 50 34 51 37 52 48 53 64 54
REMARK SMILES IDX 35 55 36 56 47 58 65 59 38 60 25 61 26 62 31 63 27 64 28 65
REMARK SMILES IDX 30 66 32 67 29 68 51 69 52 70 57 71 53 72 54 73 56 74 58 75
REMARK SMILES IDX 55 76 39 77 40 78 45 79 41 80 42 81 44 82 46 83 43 84
REMARK H PARENT 63 46 37 57
REMARK Flexibility Score: inf
ROOT
ATOM      1  C   UNL     1       2.151   0.871   7.807  1.00  0.00     0.275 C 
ENDROOT
BRANCH   1   2
ATOM      2  O   UNL     1       2.003   0.537   6.418  1.00  0.00    -0.458 OA
BRANCH   2   3
ATOM      3  C   UNL     1       1.119   1.298   5.727  1.00  0.00     0.340 C 
ATOM      4  O   UNL     1       0.388   2.127   6.271  1.00  0.00    -0.246 OA
BRANCH   3   5
ATOM      5  C   UNL     1       1.135   1.122   4.263  1.00  0.00     0.084 A 
ATOM      6  N   UNL     1       0.985   0.302   2.195  1.00  0.00    -0.350 N 
ATOM      7  C   UNL     1       0.696   1.631   2.093  1.00  0.00     0.090 A 
ATOM      8  C   UNL     1       1.472   0.007   3.468  1.00  0.00     0.042 A 
ATOM      9  C   UNL     1       0.772   2.187   3.346  1.00  0.00    -0.019 A 
ATOM     10  C   UNL     1       0.493   3.625   3.631  1.00  0.00     0.047 C 
BRANCH   6  11
ATOM     11  C   UNL     1       0.633  -0.651   1.149  1.00  0.00     0.118 C 
ATOM     12  C   UNL     1       1.232  -0.339  -0.212  1.00  0.00     0.027 C 
ENDBRANCH   6  11
BRANCH   8  13
ATOM     13  C   UNL     1       2.066  -1.371   3.705  1.00  0.00     0.155 C 
BRANCH  13  14
ATOM     14  C   UNL     1       2.890  -1.605   4.955  1.00  0.00     0.232 C 
ATOM     15  O   UNL     1       2.369  -2.227   5.889  1.00  0.00    -0.274 OA
BRANCH  14  16
ATOM     16  N   UNL     1       4.199  -1.150   4.963  1.00  0.00    -0.311 N 
ATOM     17  C   UNL     1       4.943  -0.506   3.864  1.00  0.00     0.130 C 
ATOM     18  C   UNL     1       4.994  -1.054   6.124  1.00  0.00     0.047 A 
ATOM     19  C   UNL     1       6.046   0.350   4.505  1.00  0.00     0.059 C 
ATOM     20  C   UNL     1       6.021  -0.131   5.922  1.00  0.00    -0.022 A 
ATOM     21  C   UNL     1       4.792  -1.633   7.366  1.00  0.00     0.026 A 
ATOM     22  C   UNL     1       6.785   0.327   6.986  1.00  0.00     0.006 A 
ATOM     23  C   UNL     1       5.579  -1.207   8.437  1.00  0.00     0.002 A 
ATOM     24  C   UNL     1       6.547  -0.208   8.255  1.00  0.00     0.000 A 
ENDBRANCH  14  16
ENDBRANCH  13  14
ENDBRANCH   8  13
ENDBRANCH   3   5
ENDBRANCH   2   3
ENDBRANCH   1   2
BRANCH   1  25
ATOM     25  C   UNL     1       3.267   1.881   8.058  1.00  0.00     0.275 C 
BRANCH  25  26
ATOM     26  O   UNL     1       3.090   3.148   7.422  1.00  0.00    -0.458 OA
BRANCH  26  27
ATOM     27  C   UNL     1       3.584   3.184   6.166  1.00  0.00     0.338 C 
ATOM     28  O   UNL     1       3.715   2.275   5.367  1.00  0.00    -0.246 OA
BRANCH  27  29
ATOM     29  C   UNL     1       4.238   4.457   5.920  1.00  0.00     0.060 A 
ATOM     30  C   UNL     1       4.228   4.952   4.615  1.00  0.00     0.016 A 
ATOM     31  C   UNL     1       5.088   4.960   6.911  1.00  0.00     0.016 A 
ATOM     32  C   UNL     1       5.125   5.942   4.282  1.00  0.00     0.010 A 
ATOM     33  C   UNL     1       5.982   5.949   6.576  1.00  0.00     0.010 A 
ATOM     34  C   UNL     1       6.020   6.403   5.255  1.00  0.00    -0.014 A 
BRANCH  34  35
ATOM     35  C   UNL     1       6.915   7.482   4.883  1.00  0.00     0.031 A 
ATOM     36  C   UNL     1       6.225   8.766   4.571  1.00  0.00     0.074 A 
ATOM     37  C   UNL     1       8.250   7.377   5.002  1.00  0.00     0.049 A 
ATOM     38  N   UNL     1       6.334   9.514   3.522  1.00  0.00    -0.248 NA
ATOM     39  C   UNL     1       5.196   9.217   5.526  1.00  0.00     0.031 C 
ATOM     40  C   UNL     1       9.023   6.282   5.596  1.00  0.00     0.029 A 
ATOM     41  N   UNL     1       9.195   8.312   4.729  1.00  0.00    -0.354 N 
ATOM     42  C   UNL     1       5.513  10.616   3.757  1.00  0.00     0.074 A 
ATOM     43  C   UNL     1       4.741  10.318   4.933  1.00  0.00     0.031 C 
ATOM     44  C   UNL     1      10.275   6.718   5.853  1.00  0.00     0.029 A 
ATOM     45  C   UNL     1      10.416   8.066   5.329  1.00  0.00     0.049 A 
ATOM     46  H   UNL     1       9.026   9.094   4.155  1.00  0.00     0.167 HD
ATOM     47  C   UNL     1       5.672  11.791   3.092  1.00  0.00     0.037 A 
ATOM     48  C   UNL     1      11.428   8.954   5.471  1.00  0.00     0.037 A 
ATOM     49  C   UNL     1       6.367  11.611   1.848  1.00  0.00     0.049 A 
ATOM     50  C   UNL     1      11.202  10.060   4.507  1.00  0.00     0.074 A 
ATOM     51  C   UNL     1       6.120  10.896   0.692  1.00  0.00     0.029 A 
ATOM     52  N   UNL     1       7.690  11.970   1.783  1.00  0.00    -0.354 N 
ATOM     53  N   UNL     1      11.273   9.929   3.211  1.00  0.00    -0.248 NA
ATOM     54  C   UNL     1      10.469  11.230   4.972  1.00  0.00     0.031 C 
ATOM     55  C   UNL     1       7.401  10.454   0.249  1.00  0.00     0.029 A 
ATOM     56  C   UNL     1       8.346  10.947   1.150  1.00  0.00     0.049 A 
ATOM     57  H   UNL     1       8.090  12.802   2.125  1.00  0.00     0.167 HD
ATOM     58  C   UNL     1      10.273  10.752   2.710  1.00  0.00     0.074 A 
ATOM     59  C   UNL     1       9.883  11.601   3.831  1.00  0.00     0.031 C 
ATOM     60  C   UNL     1       9.663  10.484   1.518  1.00  0.00     0.037 A 
BRANCH  47  61
ATOM     61  C   UNL     1       5.511  13.140   3.747  1.00  0.00     0.057 A 
ATOM     62  C   UNL     1       5.561  14.302   2.956  1.00  0.00     0.134 A 
ATOM     63  C   UNL     1       5.613  13.357   5.137  1.00  0.00     0.134 A 
ATOM     64  F   UNL     1       5.488  14.228   1.619  1.00  0.00    -0.206 F 
ATOM     65  C   UNL     1       5.778  15.572   3.504  1.00  0.00     0.040 A 
ATOM     66  C   UNL     1       5.777  14.626   5.697  1.00  0.00     0.040 A 
ATOM     67  F   UNL     1       5.661  12.353   6.021  1.00  0.00    -0.206 F 
ATOM     68  C   UNL     1       5.897  15.736   4.878  1.00  0.00     0.006 A 
ENDBRANCH  47  61
BRANCH  48  69
ATOM     69  C   UNL     1      12.368   9.043   6.608  1.00  0.00     0.057 A 
ATOM     70  C   UNL     1      13.599   9.698   6.493  1.00  0.00     0.134 A 
ATOM     71  C   UNL     1      11.983   8.672   7.911  1.00  0.00     0.134 A 
ATOM     72  F   UNL     1      14.025  10.138   5.300  1.00  0.00    -0.206 F 
ATOM     73  C   UNL     1      14.405   9.962   7.608  1.00  0.00     0.040 A 
ATOM     74  C   UNL     1      12.782   8.918   9.030  1.00  0.00     0.040 A 
ATOM     75  F   UNL     1      10.780   8.129   8.151  1.00  0.00    -0.206 F 
ATOM     76  C   UNL     1      13.996   9.573   8.882  1.00  0.00     0.006 A 
ENDBRANCH  48  69
BRANCH  60  77
ATOM     77  C   UNL     1      10.255   9.404   0.658  1.00  0.00     0.057 A 
ATOM     78  C   UNL     1      10.256   8.048   1.019  1.00  0.00     0.134 A 
ATOM     79  C   UNL     1      10.676   9.713  -0.639  1.00  0.00     0.134 A 
ATOM     80  F   UNL     1       9.763   7.647   2.196  1.00  0.00    -0.206 F 
ATOM     81  C   UNL     1      10.699   7.051   0.147  1.00  0.00     0.040 A 
ATOM     82  C   UNL     1      11.091   8.722  -1.532  1.00  0.00     0.040 A 
ATOM     83  F   UNL     1      10.636  10.980  -1.079  1.00  0.00    -0.206 F 
ATOM     84  C   UNL     1      11.113   7.386  -1.137  1.00  0.00     0.006 A 
ENDBRANCH  60  77
ENDBRANCH  34  35
ENDBRANCH  27  29
ENDBRANCH  26  27
ENDBRANCH  25  26
ENDBRANCH   1  25
TORSDOF 15
