REMARK SMILES CCN1C(=O)CC[C@H](C(=O)OCCOC(=O)c2ccc(-c3c4nc(c(-c5c(F)cccc5F)c5ccc([nH]5)c(-c5c(F)cccc5F)c5nc(c(-c6c(F)cccc6F)c6ccc3[nH]6)C=C5)C=C4)cc2)[C@@H]1c1ccc(OC)cc1
REMARK SMILES IDX 12 1 11 2 9 3 10 4 8 5 3 6 4 7 71 8 5 9 6 10 7 11 2 12 1 13
REMARK SMILES IDX 72 14 73 15 79 16 74 17 78 18 75 19 76 20 77 21 13 22 14 23
REMARK SMILES IDX 15 24 16 25 17 26 18 27 70 28 19 29 69 30 20 31 21 32 22 33
REMARK SMILES IDX 63 34 23 35 68 36 62 37 64 38 24 39 67 40 61 41 60 42 25 44
REMARK SMILES IDX 51 45 34 46 50 47 35 48 38 49 49 50 65 51 36 52 37 53 48 55
REMARK SMILES IDX 66 56 39 57 26 58 27 59 32 60 28 61 29 62 31 63 33 64 30 65
REMARK SMILES IDX 52 66 53 67 58 68 54 69 55 70 57 71 59 72 56 73 40 74 41 75
REMARK SMILES IDX 46 76 42 77 43 78 45 79 47 80 44 81
REMARK H PARENT 64 43 38 54
REMARK Flexibility Score: inf
ROOT
ATOM      1  C   UNL     1       4.337   0.689  -6.974  1.00  0.00     0.274 C 
ENDROOT
BRANCH   1   2
ATOM      2  O   UNL     1       3.574   0.011  -5.958  1.00  0.00    -0.462 OA
BRANCH   2   3
ATOM      3  C   UNL     1       2.426   0.614  -5.562  1.00  0.00     0.311 C 
ATOM      4  O   UNL     1       2.008   1.682  -5.999  1.00  0.00    -0.252 OA
BRANCH   3   5
ATOM      5  C   UNL     1       1.693  -0.143  -4.476  1.00  0.00     0.127 C 
ATOM      6  N   UNL     1       0.952  -0.125  -2.115  1.00  0.00    -0.335 N 
ATOM      7  C   UNL     1       0.615  -1.470  -2.188  1.00  0.00     0.223 C 
ATOM      8  C   UNL     1       1.781   0.572  -3.121  1.00  0.00     0.129 C 
ATOM      9  O   UNL     1      -0.097  -2.018  -1.343  1.00  0.00    -0.275 OA
ATOM     10  C   UNL     1       1.059  -2.276  -3.398  1.00  0.00     0.101 C 
ATOM     11  C   UNL     1       2.059  -1.611  -4.325  1.00  0.00     0.028 C 
BRANCH   6  12
ATOM     12  C   UNL     1       0.392   0.669  -1.018  1.00  0.00     0.117 C 
ATOM     13  C   UNL     1       0.975   0.332   0.346  1.00  0.00     0.027 C 
ENDBRANCH   6  12
BRANCH   8  14
ATOM     14  C   UNL     1       3.221   0.814  -2.676  1.00  0.00    -0.024 A 
ATOM     15  C   UNL     1       3.922  -0.074  -1.851  1.00  0.00     0.010 A 
ATOM     16  C   UNL     1       3.916   1.921  -3.198  1.00  0.00     0.010 A 
ATOM     17  C   UNL     1       5.287   0.107  -1.611  1.00  0.00     0.047 A 
ATOM     18  C   UNL     1       5.286   2.085  -2.980  1.00  0.00     0.047 A 
ATOM     19  C   UNL     1       5.981   1.157  -2.211  1.00  0.00     0.118 A 
BRANCH  19  20
ATOM     20  O   UNL     1       7.326   1.201  -1.964  1.00  0.00    -0.497 OA
ATOM     21  C   UNL     1       8.111   1.744  -3.022  1.00  0.00     0.278 C 
ENDBRANCH  19  20
ENDBRANCH   8  14
ENDBRANCH   3   5
ENDBRANCH   2   3
ENDBRANCH   1   2
BRANCH   1  22
ATOM     22  C   UNL     1       4.132   0.054  -8.352  1.00  0.00     0.275 C 
BRANCH  22  23
ATOM     23  O   UNL     1       2.778   0.211  -8.814  1.00  0.00    -0.458 OA
BRANCH  23  24
ATOM     24  C   UNL     1       1.949  -0.810  -8.498  1.00  0.00     0.338 C 
ATOM     25  O   UNL     1       2.231  -1.843  -7.916  1.00  0.00    -0.246 OA
BRANCH  24  26
ATOM     26  C   UNL     1       0.565  -0.443  -8.825  1.00  0.00     0.060 A 
ATOM     27  C   UNL     1      -0.341  -0.324  -7.769  1.00  0.00     0.016 A 
ATOM     28  C   UNL     1       0.138  -0.312 -10.146  1.00  0.00     0.016 A 
ATOM     29  C   UNL     1      -1.683  -0.073  -8.020  1.00  0.00     0.010 A 
ATOM     30  C   UNL     1      -1.215  -0.070 -10.401  1.00  0.00     0.010 A 
ATOM     31  C   UNL     1      -2.131   0.038  -9.339  1.00  0.00    -0.014 A 
BRANCH  31  32
ATOM     32  C   UNL     1      -3.579   0.181  -9.603  1.00  0.00     0.031 A 
ATOM     33  C   UNL     1      -4.363  -1.009 -10.071  1.00  0.00     0.074 A 
ATOM     34  C   UNL     1      -4.188   1.361  -9.391  1.00  0.00     0.049 A 
ATOM     35  N   UNL     1      -5.609  -1.078 -10.461  1.00  0.00    -0.248 NA
ATOM     36  C   UNL     1      -3.646  -2.294 -10.103  1.00  0.00     0.031 C 
ATOM     37  C   UNL     1      -3.539   2.564  -8.870  1.00  0.00     0.029 A 
ATOM     38  N   UNL     1      -5.489   1.740  -9.592  1.00  0.00    -0.354 N 
ATOM     39  C   UNL     1      -5.819  -2.404 -10.812  1.00  0.00     0.074 A 
ATOM     40  C   UNL     1      -4.572  -3.106 -10.593  1.00  0.00     0.031 C 
ATOM     41  C   UNL     1      -4.446   3.552  -8.798  1.00  0.00     0.029 A 
ATOM     42  C   UNL     1      -5.723   3.063  -9.312  1.00  0.00     0.049 A 
ATOM     43  H   UNL     1      -6.189   1.123  -9.906  1.00  0.00     0.167 HD
ATOM     44  C   UNL     1      -6.952  -2.981 -11.278  1.00  0.00     0.037 A 
ATOM     45  C   UNL     1      -6.834   3.802  -9.485  1.00  0.00     0.037 A 
ATOM     46  C   UNL     1      -8.193  -2.278 -11.473  1.00  0.00     0.049 A 
ATOM     47  C   UNL     1      -8.061   3.153 -10.062  1.00  0.00     0.074 A 
ATOM     48  C   UNL     1      -9.401  -2.770 -11.935  1.00  0.00     0.029 A 
ATOM     49  N   UNL     1      -8.382  -0.929 -11.211  1.00  0.00    -0.354 N 
ATOM     50  N   UNL     1      -8.245   1.905 -10.419  1.00  0.00    -0.248 NA
ATOM     51  C   UNL     1      -9.231   4.017 -10.271  1.00  0.00     0.031 C 
ATOM     52  C   UNL     1     -10.312  -1.709 -11.985  1.00  0.00     0.029 A 
ATOM     53  C   UNL     1      -9.682  -0.567 -11.518  1.00  0.00     0.049 A 
ATOM     54  H   UNL     1      -7.694  -0.320 -10.858  1.00  0.00     0.167 HD
ATOM     55  C   UNL     1      -9.553   1.829 -10.877  1.00  0.00     0.074 A 
ATOM     56  C   UNL     1     -10.121   3.155 -10.741  1.00  0.00     0.031 C 
ATOM     57  C   UNL     1     -10.225   0.759 -11.369  1.00  0.00     0.037 A 
BRANCH  44  58
ATOM     58  C   UNL     1      -6.886  -4.432 -11.644  1.00  0.00     0.057 A 
ATOM     59  C   UNL     1      -6.844  -5.442 -10.675  1.00  0.00     0.134 A 
ATOM     60  C   UNL     1      -6.883  -4.824 -12.989  1.00  0.00     0.134 A 
ATOM     61  F   UNL     1      -6.826  -5.131  -9.370  1.00  0.00    -0.206 F 
ATOM     62  C   UNL     1      -6.784  -6.791 -11.031  1.00  0.00     0.040 A 
ATOM     63  C   UNL     1      -6.844  -6.170 -13.357  1.00  0.00     0.040 A 
ATOM     64  F   UNL     1      -6.921  -3.906 -13.966  1.00  0.00    -0.206 F 
ATOM     65  C   UNL     1      -6.789  -7.158 -12.376  1.00  0.00     0.006 A 
ENDBRANCH  44  58
BRANCH  45  66
ATOM     66  C   UNL     1      -6.827   5.244  -9.138  1.00  0.00     0.057 A 
ATOM     67  C   UNL     1      -7.555   5.730  -8.047  1.00  0.00     0.134 A 
ATOM     68  C   UNL     1      -6.098   6.171  -9.893  1.00  0.00     0.134 A 
ATOM     69  F   UNL     1      -8.291   4.894  -7.300  1.00  0.00    -0.206 F 
ATOM     70  C   UNL     1      -7.567   7.088  -7.723  1.00  0.00     0.040 A 
ATOM     71  C   UNL     1      -6.082   7.528  -9.568  1.00  0.00     0.040 A 
ATOM     72  F   UNL     1      -5.381   5.768 -10.952  1.00  0.00    -0.206 F 
ATOM     73  C   UNL     1      -6.823   7.990  -8.482  1.00  0.00     0.006 A 
ENDBRANCH  45  66
BRANCH  57  74
ATOM     74  C   UNL     1     -11.654   0.976 -11.764  1.00  0.00     0.057 A 
ATOM     75  C   UNL     1     -11.997   1.646 -12.945  1.00  0.00     0.134 A 
ATOM     76  C   UNL     1     -12.696   0.478 -10.972  1.00  0.00     0.134 A 
ATOM     77  F   UNL     1     -11.043   2.157 -13.738  1.00  0.00    -0.206 F 
ATOM     78  C   UNL     1     -13.329   1.829 -13.316  1.00  0.00     0.040 A 
ATOM     79  C   UNL     1     -14.031   0.636 -11.343  1.00  0.00     0.040 A 
ATOM     80  F   UNL     1     -12.431  -0.178  -9.832  1.00  0.00    -0.206 F 
ATOM     81  C   UNL     1     -14.351   1.317 -12.517  1.00  0.00     0.006 A 
ENDBRANCH  57  74
ENDBRANCH  31  32
ENDBRANCH  24  26
ENDBRANCH  23  24
ENDBRANCH  22  23
ENDBRANCH   1  22
TORSDOF 14
