REMARK SMILES O=C(CC1(CC(=O)OCCOC(=O)c2ccc(-c3c4nc(c(-c5c(F)cccc5F)c5ccc([nH]5)c(-c5c(F)cccc5F)c5nc(c(-c6c(F)cccc6F)c6ccc3[nH]6)C=C5)C=C4)cc2)CCCC1)NNc1ccc([N+](=O)[O-])cc1
REMARK SMILES IDX 6 1 7 2 5 3 4 4 68 5 71 6 69 7 70 8 3 9 2 10 1 11 72 12
REMARK SMILES IDX 73 14 74 16 75 17 82 18 76 19 81 20 77 21 78 22 79 23 80 24
REMARK SMILES IDX 8 25 9 26 10 27 11 28 12 29 13 30 14 31 15 32 67 33 16 34
REMARK SMILES IDX 66 35 17 36 18 37 19 38 60 39 20 40 65 41 59 42 61 43 21 44
REMARK SMILES IDX 64 45 58 46 57 47 22 49 48 50 31 51 47 52 32 53 35 54 46 55
REMARK SMILES IDX 62 56 33 57 34 58 45 60 63 61 36 62 23 63 24 64 29 65 25 66
REMARK SMILES IDX 26 67 28 68 30 69 27 70 49 71 50 72 55 73 51 74 52 75 54 76
REMARK SMILES IDX 56 77 53 78 37 79 38 80 43 81 39 82 40 83 42 84 44 85 41 86
REMARK H PARENT 72 13 73 15 61 48 35 59
REMARK Flexibility Score: inf
ROOT
ATOM      1  C   UNL     1       6.166  -0.837   0.655  1.00  0.00     0.306 C 
ATOM      2  O   UNL     1       7.167  -0.673   1.345  1.00  0.00    -0.252 OA
ENDROOT
BRANCH   1   3
ATOM      3  C   UNL     1       5.303  -2.074   0.820  1.00  0.00     0.130 C 
BRANCH   3   4
ATOM      4  C   UNL     1       3.935  -2.194   0.091  1.00  0.00    -0.010 C 
ATOM      5  C   UNL     1       3.320  -3.578   0.434  1.00  0.00     0.008 C 
ATOM      6  C   UNL     1       4.104  -2.366  -1.432  1.00  0.00     0.008 C 
ATOM      7  C   UNL     1       4.066  -4.590  -0.431  1.00  0.00     0.001 C 
ATOM      8  C   UNL     1       4.579  -3.805  -1.635  1.00  0.00     0.001 C 
BRANCH   4   9
ATOM      9  C   UNL     1       2.963  -1.085   0.569  1.00  0.00     0.109 C 
BRANCH   9  10
ATOM     10  C   UNL     1       2.166  -0.385  -0.517  1.00  0.00     0.238 C 
ATOM     11  O   UNL     1       1.006  -0.688  -0.783  1.00  0.00    -0.273 OA
ATOM     12  N   UNL     1       2.890   0.599  -1.158  1.00  0.00    -0.270 N 
ATOM     13  H   UNL     1       3.839   0.743  -0.935  1.00  0.00     0.191 HD
BRANCH  12  14
ATOM     14  N   UNL     1       2.274   1.379  -2.112  1.00  0.00    -0.299 N 
ATOM     15  H   UNL     1       1.330   1.639  -2.009  1.00  0.00     0.188 HD
BRANCH  14  16
ATOM     16  C   UNL     1       3.003   1.795  -3.224  1.00  0.00     0.055 A 
ATOM     17  C   UNL     1       2.612   2.964  -3.894  1.00  0.00     0.034 A 
ATOM     18  C   UNL     1       4.166   1.143  -3.659  1.00  0.00     0.034 A 
ATOM     19  C   UNL     1       3.347   3.463  -4.976  1.00  0.00     0.088 A 
ATOM     20  C   UNL     1       4.906   1.618  -4.747  1.00  0.00     0.088 A 
ATOM     21  C   UNL     1       4.493   2.783  -5.401  1.00  0.00     0.269 A 
BRANCH  21  22
ATOM     22  N   UNL     1       5.272   3.298  -6.532  1.00  0.00     0.062 N 
ATOM     23  O   UNL     1       4.893   4.352  -7.062  1.00  0.00    -0.258 OA
ATOM     24  O   UNL     1       6.271   2.654  -6.885  1.00  0.00    -0.258 OA
ENDBRANCH  21  22
ENDBRANCH  14  16
ENDBRANCH  12  14
ENDBRANCH   9  10
ENDBRANCH   4   9
ENDBRANCH   3   4
ENDBRANCH   1   3
BRANCH   1  25
ATOM     25  O   UNL     1       5.743   0.032  -0.298  1.00  0.00    -0.462 OA
BRANCH  25  26
ATOM     26  C   UNL     1       6.632   1.146  -0.546  1.00  0.00     0.274 C 
BRANCH  26  27
ATOM     27  C   UNL     1       6.136   2.431   0.114  1.00  0.00     0.275 C 
BRANCH  27  28
ATOM     28  O   UNL     1       5.917   2.233   1.521  1.00  0.00    -0.458 OA
BRANCH  28  29
ATOM     29  C   UNL     1       4.621   2.225   1.906  1.00  0.00     0.338 C 
ATOM     30  O   UNL     1       3.640   2.375   1.201  1.00  0.00    -0.246 OA
BRANCH  29  31
ATOM     31  C   UNL     1       4.530   1.941   3.344  1.00  0.00     0.060 A 
ATOM     32  C   UNL     1       4.763   0.644   3.804  1.00  0.00     0.016 A 
ATOM     33  C   UNL     1       4.092   2.938   4.215  1.00  0.00     0.016 A 
ATOM     34  C   UNL     1       4.530   0.330   5.142  1.00  0.00     0.010 A 
ATOM     35  C   UNL     1       3.907   2.634   5.565  1.00  0.00     0.010 A 
ATOM     36  C   UNL     1       4.108   1.325   6.035  1.00  0.00    -0.014 A 
BRANCH  36  37
ATOM     37  C   UNL     1       3.866   1.001   7.462  1.00  0.00     0.031 A 
ATOM     38  C   UNL     1       2.472   1.031   8.019  1.00  0.00     0.074 A 
ATOM     39  C   UNL     1       4.904   0.701   8.263  1.00  0.00     0.049 A 
ATOM     40  N   UNL     1       2.077   0.929   9.262  1.00  0.00    -0.248 NA
ATOM     41  C   UNL     1       1.378   1.203   7.050  1.00  0.00     0.031 C 
ATOM     42  C   UNL     1       6.302   0.608   7.839  1.00  0.00     0.029 A 
ATOM     43  N   UNL     1       4.943   0.428   9.607  1.00  0.00    -0.354 N 
ATOM     44  C   UNL     1       0.695   1.057   9.232  1.00  0.00     0.074 A 
ATOM     45  C   UNL     1       0.318   1.245   7.846  1.00  0.00     0.031 C 
ATOM     46  C   UNL     1       7.062   0.296   8.900  1.00  0.00     0.029 A 
ATOM     47  C   UNL     1       6.213   0.219  10.085  1.00  0.00     0.049 A 
ATOM     48  H   UNL     1       4.139   0.386  10.173  1.00  0.00     0.167 HD
ATOM     49  C   UNL     1      -0.179   1.023  10.266  1.00  0.00     0.037 A 
ATOM     50  C   UNL     1       6.649   0.023  11.343  1.00  0.00     0.037 A 
ATOM     51  C   UNL     1       0.191   0.808  11.640  1.00  0.00     0.049 A 
ATOM     52  C   UNL     1       5.665   0.020  12.475  1.00  0.00     0.074 A 
ATOM     53  C   UNL     1      -0.626   0.746  12.756  1.00  0.00     0.029 A 
ATOM     54  N   UNL     1       1.490   0.613  12.084  1.00  0.00    -0.354 N 
ATOM     55  N   UNL     1       4.364   0.176  12.438  1.00  0.00    -0.248 NA
ATOM     56  C   UNL     1       6.211  -0.171  13.826  1.00  0.00     0.031 C 
ATOM     57  C   UNL     1       0.182   0.533  13.879  1.00  0.00     0.029 A 
ATOM     58  C   UNL     1       1.498   0.439  13.458  1.00  0.00     0.049 A 
ATOM     59  H   UNL     1       2.288   0.600  11.508  1.00  0.00     0.167 HD
ATOM     60  C   UNL     1       3.935   0.096  13.755  1.00  0.00     0.074 A 
ATOM     61  C   UNL     1       5.112  -0.137  14.567  1.00  0.00     0.031 C 
ATOM     62  C   UNL     1       2.679   0.210  14.248  1.00  0.00     0.037 A 
BRANCH  49  63
ATOM     63  C   UNL     1      -1.626   1.247   9.951  1.00  0.00     0.057 A 
ATOM     64  C   UNL     1      -2.423   0.242   9.392  1.00  0.00     0.134 A 
ATOM     65  C   UNL     1      -2.235   2.474  10.242  1.00  0.00     0.134 A 
ATOM     66  F   UNL     1      -1.893  -0.950   9.077  1.00  0.00    -0.206 F 
ATOM     67  C   UNL     1      -3.776   0.454   9.122  1.00  0.00     0.040 A 
ATOM     68  C   UNL     1      -3.590   2.692   9.992  1.00  0.00     0.040 A 
ATOM     69  F   UNL     1      -1.523   3.476  10.780  1.00  0.00    -0.206 F 
ATOM     70  C   UNL     1      -4.364   1.680   9.427  1.00  0.00     0.006 A 
ENDBRANCH  49  63
BRANCH  50  71
ATOM     71  C   UNL     1       8.097  -0.158  11.597  1.00  0.00     0.057 A 
ATOM     72  C   UNL     1       8.621  -1.414  11.917  1.00  0.00     0.134 A 
ATOM     73  C   UNL     1       8.989   0.918  11.513  1.00  0.00     0.134 A 
ATOM     74  F   UNL     1       7.809  -2.474  12.031  1.00  0.00    -0.206 F 
ATOM     75  C   UNL     1       9.985  -1.595  12.151  1.00  0.00     0.040 A 
ATOM     76  C   UNL     1      10.357   0.747  11.726  1.00  0.00     0.040 A 
ATOM     77  F   UNL     1       8.544   2.145  11.207  1.00  0.00    -0.206 F 
ATOM     78  C   UNL     1      10.858  -0.513  12.050  1.00  0.00     0.006 A 
ENDBRANCH  50  71
BRANCH  62  79
ATOM     79  C   UNL     1       2.517   0.068  15.729  1.00  0.00     0.057 A 
ATOM     80  C   UNL     1       2.832   1.116  16.602  1.00  0.00     0.134 A 
ATOM     81  C   UNL     1       2.022  -1.118  16.284  1.00  0.00     0.134 A 
ATOM     82  F   UNL     1       3.324   2.270  16.129  1.00  0.00    -0.206 F 
ATOM     83  C   UNL     1       2.672   0.983  17.982  1.00  0.00     0.040 A 
ATOM     84  C   UNL     1       1.844  -1.257  17.660  1.00  0.00     0.040 A 
ATOM     85  F   UNL     1       1.701  -2.156  15.497  1.00  0.00    -0.206 F 
ATOM     86  C   UNL     1       2.173  -0.205  18.514  1.00  0.00     0.006 A 
ENDBRANCH  62  79
ENDBRANCH  36  37
ENDBRANCH  29  31
ENDBRANCH  28  29
ENDBRANCH  27  28
ENDBRANCH  26  27
ENDBRANCH  25  26
ENDBRANCH   1  25
TORSDOF 17
