REMARK SMILES Cn1cc(-c2cc(C(F)(F)F)c3c(C4CC4)nn(CC(=O)OCCOC(=O)c4ccc(-c5c6nc(c(-c7c(F)cccc7F)c7ccc([nH]7)c(-c7c(F)cccc7F)c7nc(c(-c8c(F)cccc8F)c8ccc5[nH]8)C=C7)C=C6)cc4)c3n2)cn1
REMARK SMILES IDX 23 1 22 2 20 3 21 4 19 5 18 6 5 7 6 8 83 9 7 10 82 11 12 12
REMARK SMILES IDX 13 13 17 14 4 15 1 16 2 17 3 18 85 19 84 20 8 21 9 22 10 23
REMARK SMILES IDX 11 24 14 25 15 26 16 27 24 28 25 29 26 30 27 31 28 32 29 33
REMARK SMILES IDX 81 34 30 35 80 36 31 37 32 38 33 39 74 40 34 41 79 42 73 43
REMARK SMILES IDX 75 44 35 45 78 46 72 47 71 48 36 50 62 51 45 52 61 53 46 54
REMARK SMILES IDX 49 55 60 56 76 57 47 58 48 59 59 61 77 62 50 63 37 64 38 65
REMARK SMILES IDX 43 66 39 67 40 68 42 69 44 70 41 71 63 72 64 73 69 74 65 75
REMARK SMILES IDX 66 76 68 77 70 78 67 79 51 80 52 81 57 82 53 83 54 84 56 85
REMARK SMILES IDX 58 86 55 87
REMARK H PARENT 75 49 49 60
REMARK Flexibility Score: inf
ROOT
ATOM      1  C   UNL     1      -5.088  -1.559  -3.128  1.00  0.00     0.274 C 
ENDROOT
BRANCH   1   2
ATOM      2  O   UNL     1      -3.677  -1.747  -2.918  1.00  0.00    -0.461 OA
BRANCH   2   3
ATOM      3  C   UNL     1      -2.979  -0.626  -2.627  1.00  0.00     0.327 C 
ATOM      4  O   UNL     1      -3.414   0.515  -2.794  1.00  0.00    -0.250 OA
BRANCH   3   5
ATOM      5  C   UNL     1      -1.581  -0.855  -2.174  1.00  0.00     0.269 C 
BRANCH   5   6
ATOM      6  N   UNL     1      -1.141  -2.124  -1.593  1.00  0.00    -0.236 N 
ATOM      7  C   UNL     1       2.116  -1.448  -0.611  1.00  0.00     0.077 A 
ATOM      8  C   UNL     1       2.534  -2.679  -0.125  1.00  0.00     0.043 A 
ATOM      9  N   UNL     1       1.148  -1.377  -1.549  1.00  0.00    -0.228 NA
ATOM     10  C   UNL     1       1.674  -3.796  -0.264  1.00  0.00     0.071 A 
ATOM     11  C   UNL     1       0.192  -2.295  -1.314  1.00  0.00     0.159 A 
ATOM     12  C   UNL     1       0.336  -3.446  -0.558  1.00  0.00     0.055 A 
ATOM     13  C   UNL     1      -1.010  -3.712  -0.171  1.00  0.00     0.076 A 
ATOM     14  N   UNL     1      -1.905  -2.989  -0.880  1.00  0.00    -0.174 NA
BRANCH   7  15
ATOM     15  C   UNL     1       1.934  -0.324   0.320  1.00  0.00     0.038 A 
ATOM     16  C   UNL     1      -1.054   0.926   1.712  1.00  0.00     0.173 C 
ATOM     17  N   UNL     1       0.346   0.765   1.382  1.00  0.00    -0.275 N 
ATOM     18  C   UNL     1       0.993  -0.441   1.338  1.00  0.00     0.118 A 
ATOM     19  N   UNL     1       1.015   1.739   0.739  1.00  0.00    -0.181 NA
ATOM     20  C   UNL     1       1.918   1.062   0.018  1.00  0.00     0.145 A 
ENDBRANCH   7  15
BRANCH  10  21
ATOM     21  C   UNL     1       2.243  -5.186  -0.322  1.00  0.00     0.417 C 
ATOM     22  F   UNL     1       1.909  -6.004   0.703  1.00  0.00    -0.166 F 
ATOM     23  F   UNL     1       1.867  -5.836  -1.460  1.00  0.00    -0.166 F 
ATOM     24  F   UNL     1       3.609  -5.189  -0.347  1.00  0.00    -0.166 F 
ENDBRANCH  10  21
BRANCH  13  25
ATOM     25  C   UNL     1      -1.521  -4.419   1.100  1.00  0.00     0.041 C 
ATOM     26  C   UNL     1      -0.747  -5.357   1.987  1.00  0.00     0.011 C 
ATOM     27  C   UNL     1      -0.932  -3.953   2.433  1.00  0.00     0.011 C 
ENDBRANCH  13  25
ENDBRANCH   5   6
ENDBRANCH   3   5
ENDBRANCH   2   3
ENDBRANCH   1   2
BRANCH   1  28
ATOM     28  C   UNL     1      -5.848  -2.145  -1.948  1.00  0.00     0.275 C 
BRANCH  28  29
ATOM     29  O   UNL     1      -6.171  -1.185  -0.926  1.00  0.00    -0.458 OA
BRANCH  29  30
ATOM     30  C   UNL     1      -5.177  -0.907  -0.057  1.00  0.00     0.338 C 
ATOM     31  O   UNL     1      -4.014  -0.653  -0.303  1.00  0.00    -0.246 OA
BRANCH  30  32
ATOM     32  C   UNL     1      -5.611  -1.143   1.323  1.00  0.00     0.060 A 
ATOM     33  C   UNL     1      -4.673  -0.855   2.322  1.00  0.00     0.016 A 
ATOM     34  C   UNL     1      -6.799  -1.827   1.609  1.00  0.00     0.016 A 
ATOM     35  C   UNL     1      -4.867  -1.351   3.591  1.00  0.00     0.010 A 
ATOM     36  C   UNL     1      -6.997  -2.313   2.885  1.00  0.00     0.010 A 
ATOM     37  C   UNL     1      -6.006  -2.113   3.850  1.00  0.00    -0.014 A 
BRANCH  37  38
ATOM     38  C   UNL     1      -6.177  -2.590   5.210  1.00  0.00     0.031 A 
ATOM     39  C   UNL     1      -6.425  -1.520   6.213  1.00  0.00     0.074 A 
ATOM     40  C   UNL     1      -6.246  -3.898   5.508  1.00  0.00     0.049 A 
ATOM     41  N   UNL     1      -5.803  -1.289   7.323  1.00  0.00    -0.248 NA
ATOM     42  C   UNL     1      -7.454  -0.519   5.879  1.00  0.00     0.031 C 
ATOM     43  C   UNL     1      -6.315  -5.030   4.581  1.00  0.00     0.029 A 
ATOM     44  N   UNL     1      -6.405  -4.479   6.727  1.00  0.00    -0.354 N 
ATOM     45  C   UNL     1      -6.471  -0.217   7.912  1.00  0.00     0.074 A 
ATOM     46  C   UNL     1      -7.388   0.295   6.929  1.00  0.00     0.031 C 
ATOM     47  C   UNL     1      -6.737  -6.122   5.256  1.00  0.00     0.029 A 
ATOM     48  C   UNL     1      -6.857  -5.786   6.666  1.00  0.00     0.049 A 
ATOM     49  H   UNL     1      -6.217  -4.013   7.574  1.00  0.00     0.167 HD
ATOM     50  C   UNL     1      -6.381   0.051   9.241  1.00  0.00     0.037 A 
ATOM     51  C   UNL     1      -7.388  -6.499   7.687  1.00  0.00     0.037 A 
ATOM     52  C   UNL     1      -5.201  -0.516   9.830  1.00  0.00     0.049 A 
ATOM     53  C   UNL     1      -7.025  -5.827   8.959  1.00  0.00     0.074 A 
ATOM     54  C   UNL     1      -3.843  -0.370   9.625  1.00  0.00     0.029 A 
ATOM     55  N   UNL     1      -5.336  -1.632  10.616  1.00  0.00    -0.354 N 
ATOM     56  N   UNL     1      -5.824  -5.801   9.464  1.00  0.00    -0.248 NA
ATOM     57  C   UNL     1      -7.943  -4.828   9.488  1.00  0.00     0.031 C 
ATOM     58  C   UNL     1      -3.284  -1.654   9.890  1.00  0.00     0.029 A 
ATOM     59  C   UNL     1      -4.337  -2.495  10.252  1.00  0.00     0.049 A 
ATOM     60  H   UNL     1      -6.019  -1.783  11.309  1.00  0.00     0.167 HD
ATOM     61  C   UNL     1      -5.713  -4.550  10.053  1.00  0.00     0.074 A 
ATOM     62  C   UNL     1      -7.079  -4.043  10.135  1.00  0.00     0.031 C 
ATOM     63  C   UNL     1      -4.504  -3.925  10.165  1.00  0.00     0.037 A 
BRANCH  50  64
ATOM     64  C   UNL     1      -7.549   0.534  10.062  1.00  0.00     0.057 A 
ATOM     65  C   UNL     1      -8.897   0.312   9.710  1.00  0.00     0.134 A 
ATOM     66  C   UNL     1      -7.337   0.964  11.382  1.00  0.00     0.134 A 
ATOM     67  F   UNL     1      -9.255  -0.188   8.520  1.00  0.00    -0.206 F 
ATOM     68  C   UNL     1      -9.953   0.493  10.605  1.00  0.00     0.040 A 
ATOM     69  C   UNL     1      -8.383   1.096  12.303  1.00  0.00     0.040 A 
ATOM     70  F   UNL     1      -6.097   1.187  11.843  1.00  0.00    -0.206 F 
ATOM     71  C   UNL     1      -9.696   0.854  11.917  1.00  0.00     0.006 A 
ENDBRANCH  50  64
BRANCH  51  72
ATOM     72  C   UNL     1      -8.409  -7.565   7.615  1.00  0.00     0.057 A 
ATOM     73  C   UNL     1      -9.393  -7.581   6.610  1.00  0.00     0.134 A 
ATOM     74  C   UNL     1      -8.588  -8.470   8.668  1.00  0.00     0.134 A 
ATOM     75  F   UNL     1      -9.374  -6.693   5.605  1.00  0.00    -0.206 F 
ATOM     76  C   UNL     1     -10.484  -8.453   6.642  1.00  0.00     0.040 A 
ATOM     77  C   UNL     1      -9.685  -9.340   8.721  1.00  0.00     0.040 A 
ATOM     78  F   UNL     1      -7.731  -8.494   9.699  1.00  0.00    -0.206 F 
ATOM     79  C   UNL     1     -10.639  -9.330   7.707  1.00  0.00     0.006 A 
ENDBRANCH  51  72
BRANCH  63  80
ATOM     80  C   UNL     1      -3.275  -4.738   9.883  1.00  0.00     0.057 A 
ATOM     81  C   UNL     1      -2.294  -4.855  10.873  1.00  0.00     0.134 A 
ATOM     82  C   UNL     1      -2.982  -5.288   8.627  1.00  0.00     0.134 A 
ATOM     83  F   UNL     1      -2.478  -4.295  12.079  1.00  0.00    -0.206 F 
ATOM     84  C   UNL     1      -1.084  -5.511  10.634  1.00  0.00     0.040 A 
ATOM     85  C   UNL     1      -1.790  -5.977   8.385  1.00  0.00     0.040 A 
ATOM     86  F   UNL     1      -3.812  -5.126   7.589  1.00  0.00    -0.206 F 
ATOM     87  C   UNL     1      -0.835  -6.088   9.391  1.00  0.00     0.006 A 
ENDBRANCH  63  80
ENDBRANCH  37  38
ENDBRANCH  30  32
ENDBRANCH  29  30
ENDBRANCH  28  29
ENDBRANCH   1  28
TORSDOF 15
