REMARK SMILES O=C(OCCOC(=O)c1cc(-c2ccc(Cl)cc2)nc2c3c(C4CC4)cc(C(F)(F)F)nc3nn12)c1ccc(-c2c3nc(c(-c4c(F)cccc4F)c4ccc([nH]4)c(-c4c(F)cccc4F)c4nc(c(-c5c(F)cccc5F)c5ccc2[nH]5)C=C4)C=C3)cc1
REMARK SMILES IDX 4 1 3 2 2 3 1 4 36 5 37 6 89 7 38 8 88 9 39 10 40 11 41 12
REMARK SMILES IDX 82 13 42 14 87 15 81 16 83 17 43 18 86 19 80 20 79 21 44 23
REMARK SMILES IDX 70 24 53 25 69 26 54 27 57 28 68 29 84 30 55 31 56 32 67 34
REMARK SMILES IDX 85 35 58 36 45 37 46 38 51 39 47 40 48 41 50 42 52 43 49 44
REMARK SMILES IDX 71 45 72 46 77 47 73 48 74 49 76 50 78 51 75 52 59 53 60 54
REMARK SMILES IDX 65 55 61 56 62 57 64 58 66 59 63 60 5 61 6 62 7 63 8 64 9 65
REMARK SMILES IDX 10 66 35 67 11 68 20 69 34 70 19 71 21 72 33 73 22 74 32 75
REMARK SMILES IDX 26 76 27 77 12 78 13 79 18 80 14 81 17 82 15 83 16 84 23 85
REMARK SMILES IDX 24 86 25 87 28 88 29 89 30 90 31 91
REMARK H PARENT 83 22 57 33
REMARK Flexibility Score: inf
ROOT
ATOM      1  C   UNL     1       4.196  -1.213  -0.947  1.00  0.00     0.275 C 
ENDROOT
BRANCH   1   2
ATOM      2  O   UNL     1       3.229  -0.979   0.090  1.00  0.00    -0.458 OA
BRANCH   2   3
ATOM      3  C   UNL     1       3.248  -0.005   1.027  1.00  0.00     0.338 C 
ATOM      4  O   UNL     1       2.207   0.262   1.628  1.00  0.00    -0.246 OA
BRANCH   3   5
ATOM      5  C   UNL     1       4.474   0.756   1.411  1.00  0.00     0.060 A 
ATOM      6  C   UNL     1       5.533   1.115   0.568  1.00  0.00     0.016 A 
ATOM      7  C   UNL     1       4.491   1.238   2.727  1.00  0.00     0.016 A 
ATOM      8  C   UNL     1       6.574   1.928   1.012  1.00  0.00     0.010 A 
ATOM      9  C   UNL     1       5.530   2.049   3.175  1.00  0.00     0.010 A 
ATOM     10  C   UNL     1       6.567   2.422   2.312  1.00  0.00    -0.014 A 
BRANCH  10  11
ATOM     11  C   UNL     1       7.590   3.422   2.686  1.00  0.00     0.031 A 
ATOM     12  C   UNL     1       7.054   4.562   3.486  1.00  0.00     0.074 A 
ATOM     13  C   UNL     1       8.896   3.081   2.770  1.00  0.00     0.049 A 
ATOM     14  N   UNL     1       6.779   4.392   4.745  1.00  0.00    -0.248 NA
ATOM     15  C   UNL     1       6.474   5.781   2.925  1.00  0.00     0.031 C 
ATOM     16  C   UNL     1       9.341   1.696   2.993  1.00  0.00     0.029 A 
ATOM     17  N   UNL     1      10.040   3.831   2.922  1.00  0.00    -0.354 N 
ATOM     18  C   UNL     1       5.901   5.384   5.122  1.00  0.00     0.074 A 
ATOM     19  C   UNL     1       5.794   6.268   3.981  1.00  0.00     0.031 C 
ATOM     20  C   UNL     1      10.607   1.718   3.450  1.00  0.00     0.029 A 
ATOM     21  C   UNL     1      11.110   3.093   3.437  1.00  0.00     0.049 A 
ATOM     22  H   UNL     1      10.099   4.787   2.693  1.00  0.00     0.167 HD
ATOM     23  C   UNL     1       5.291   5.354   6.335  1.00  0.00     0.037 A 
ATOM     24  C   UNL     1      11.983   3.562   4.371  1.00  0.00     0.037 A 
ATOM     25  C   UNL     1       5.549   4.176   7.120  1.00  0.00     0.049 A 
ATOM     26  C   UNL     1      11.088   3.721   5.574  1.00  0.00     0.074 A 
ATOM     27  C   UNL     1       4.913   2.987   7.409  1.00  0.00     0.029 A 
ATOM     28  N   UNL     1       6.759   4.085   7.763  1.00  0.00    -0.354 N 
ATOM     29  N   UNL     1      10.661   2.759   6.345  1.00  0.00    -0.248 NA
ATOM     30  C   UNL     1      10.379   4.990   5.735  1.00  0.00     0.031 C 
ATOM     31  C   UNL     1       5.954   2.086   7.805  1.00  0.00     0.029 A 
ATOM     32  C   UNL     1       7.160   2.776   7.690  1.00  0.00     0.049 A 
ATOM     33  H   UNL     1       7.248   4.822   8.196  1.00  0.00     0.167 HD
ATOM     34  C   UNL     1       9.466   3.223   6.900  1.00  0.00     0.074 A 
ATOM     35  C   UNL     1       9.381   4.621   6.527  1.00  0.00     0.031 C 
ATOM     36  C   UNL     1       8.537   2.397   7.466  1.00  0.00     0.037 A 
BRANCH  23  37
ATOM     37  C   UNL     1       4.539   6.453   6.961  1.00  0.00     0.057 A 
ATOM     38  C   UNL     1       3.173   6.667   6.789  1.00  0.00     0.134 A 
ATOM     39  C   UNL     1       5.187   7.136   8.002  1.00  0.00     0.134 A 
ATOM     40  F   UNL     1       2.495   6.029   5.824  1.00  0.00    -0.206 F 
ATOM     41  C   UNL     1       2.466   7.499   7.665  1.00  0.00     0.040 A 
ATOM     42  C   UNL     1       4.494   7.949   8.890  1.00  0.00     0.040 A 
ATOM     43  F   UNL     1       6.503   6.954   8.209  1.00  0.00    -0.206 F 
ATOM     44  C   UNL     1       3.122   8.121   8.731  1.00  0.00     0.006 A 
ENDBRANCH  23  37
BRANCH  24  45
ATOM     45  C   UNL     1      12.949   4.619   3.943  1.00  0.00     0.057 A 
ATOM     46  C   UNL     1      13.314   5.730   4.716  1.00  0.00     0.134 A 
ATOM     47  C   UNL     1      13.599   4.504   2.700  1.00  0.00     0.134 A 
ATOM     48  F   UNL     1      12.875   5.876   5.974  1.00  0.00    -0.206 F 
ATOM     49  C   UNL     1      14.144   6.743   4.224  1.00  0.00     0.040 A 
ATOM     50  C   UNL     1      14.451   5.495   2.204  1.00  0.00     0.040 A 
ATOM     51  F   UNL     1      13.425   3.413   1.937  1.00  0.00    -0.206 F 
ATOM     52  C   UNL     1      14.700   6.636   2.954  1.00  0.00     0.006 A 
ENDBRANCH  24  45
BRANCH  36  53
ATOM     53  C   UNL     1       8.965   0.971   7.583  1.00  0.00     0.057 A 
ATOM     54  C   UNL     1       8.375  -0.051   6.825  1.00  0.00     0.134 A 
ATOM     55  C   UNL     1      10.015   0.612   8.436  1.00  0.00     0.134 A 
ATOM     56  F   UNL     1       7.376   0.210   5.966  1.00  0.00    -0.206 F 
ATOM     57  C   UNL     1       8.803  -1.377   6.926  1.00  0.00     0.040 A 
ATOM     58  C   UNL     1      10.474  -0.703   8.520  1.00  0.00     0.040 A 
ATOM     59  F   UNL     1      10.616   1.537   9.203  1.00  0.00    -0.206 F 
ATOM     60  C   UNL     1       9.863  -1.704   7.768  1.00  0.00     0.006 A 
ENDBRANCH  36  53
ENDBRANCH  10  11
ENDBRANCH   3   5
ENDBRANCH   2   3
ENDBRANCH   1   2
BRANCH   1  61
ATOM     61  C   UNL     1       3.933  -0.318  -2.169  1.00  0.00     0.275 C 
BRANCH  61  62
ATOM     62  O   UNL     1       3.676   1.050  -1.792  1.00  0.00    -0.457 OA
BRANCH  62  63
ATOM     63  C   UNL     1       2.377   1.422  -1.701  1.00  0.00     0.357 C 
ATOM     64  O   UNL     1       1.413   0.723  -2.000  1.00  0.00    -0.244 OA
BRANCH  63  65
ATOM     65  C   UNL     1       2.242   2.740  -1.055  1.00  0.00     0.154 A 
ATOM     66  C   UNL     1       1.300   2.835  -0.102  1.00  0.00     0.065 A 
ATOM     67  N   UNL     1       3.005   3.854  -1.402  1.00  0.00    -0.205 N 
ATOM     68  C   UNL     1       1.158   4.173   0.534  1.00  0.00     0.075 A 
ATOM     69  C   UNL     1       2.736   5.112  -0.813  1.00  0.00     0.166 A 
ATOM     70  N   UNL     1       4.011   3.925  -2.309  1.00  0.00    -0.145 NA
ATOM     71  N   UNL     1       1.807   5.247   0.189  1.00  0.00    -0.228 NA
ATOM     72  C   UNL     1       3.546   6.010  -1.480  1.00  0.00     0.069 A 
ATOM     73  C   UNL     1       4.324   5.212  -2.368  1.00  0.00     0.184 A 
ATOM     74  C   UNL     1       3.606   7.408  -1.341  1.00  0.00    -0.028 A 
ATOM     75  N   UNL     1       5.262   5.737  -3.190  1.00  0.00    -0.222 NA
ATOM     76  C   UNL     1       4.581   7.917  -2.227  1.00  0.00     0.038 A 
ATOM     77  C   UNL     1       5.356   7.101  -3.101  1.00  0.00     0.147 A 
BRANCH  68  78
ATOM     78  C   UNL     1       0.165   4.224   1.624  1.00  0.00     0.000 A 
ATOM     79  C   UNL     1      -1.100   4.761   1.369  1.00  0.00     0.012 A 
ATOM     80  C   UNL     1       0.483   3.701   2.882  1.00  0.00     0.012 A 
ATOM     81  C   UNL     1      -2.064   4.754   2.380  1.00  0.00     0.021 A 
ATOM     82  C   UNL     1      -0.482   3.707   3.892  1.00  0.00     0.021 A 
ATOM     83  C   UNL     1      -1.752   4.227   3.635  1.00  0.00     0.041 A 
ATOM     84  Cl  UNL     1      -2.947   4.213   4.873  1.00  0.00    -0.084 Cl
ENDBRANCH  68  78
BRANCH  74  85
ATOM     85  C   UNL     1       2.714   8.200  -0.434  1.00  0.00     0.020 C 
ATOM     86  C   UNL     1       2.834   9.702  -0.287  1.00  0.00     0.009 C 
ATOM     87  C   UNL     1       1.686   9.123  -1.056  1.00  0.00     0.009 C 
ENDBRANCH  74  85
BRANCH  77  88
ATOM     88  C   UNL     1       6.367   7.782  -4.022  1.00  0.00     0.433 C 
ATOM     89  F   UNL     1       7.656   7.444  -3.735  1.00  0.00    -0.165 F 
ATOM     90  F   UNL     1       6.178   7.483  -5.339  1.00  0.00    -0.165 F 
ATOM     91  F   UNL     1       6.328   9.147  -3.953  1.00  0.00    -0.165 F 
ENDBRANCH  77  88
ENDBRANCH  63  65
ENDBRANCH  62  63
ENDBRANCH  61  62
ENDBRANCH   1  61
TORSDOF 14
