REMARK SMILES O=C(OCCOC(=O)c1ccc(-c2c3nc(c(-c4c(F)cccc4F)c4ccc([nH]4)c(-c4c(F)cccc4F)c4nc(c(-c5c(F)cccc5F)c5ccc2[nH]5)C=C4)C=C3)cc1)C1=CCc2ccccc21
REMARK SMILES IDX 5 1 4 2 3 3 2 4 1 5 63 6 64 7 71 8 65 9 66 10 70 11 67 12
REMARK SMILES IDX 69 13 68 14 6 15 7 16 8 17 9 18 10 19 62 20 11 21 61 22
REMARK SMILES IDX 12 23 13 24 14 25 55 26 15 27 60 28 54 29 56 30 16 31 59 32
REMARK SMILES IDX 53 33 52 34 17 36 43 37 26 38 42 39 27 40 30 41 41 42 57 43
REMARK SMILES IDX 28 44 29 45 40 47 58 48 31 49 18 50 19 51 24 52 20 53 21 54
REMARK SMILES IDX 23 55 25 56 22 57 44 58 45 59 50 60 46 61 47 62 49 63 51 64
REMARK SMILES IDX 48 65 32 66 33 67 38 68 34 69 35 70 37 71 39 72 36 73
REMARK H PARENT 56 35 30 46
REMARK Flexibility Score: inf
ROOT
ATOM      1  C   UNL     1       3.532   0.183  -2.583  1.00  0.00     0.275 C 
ENDROOT
BRANCH   1   2
ATOM      2  C   UNL     1       3.728  -0.658  -1.311  1.00  0.00     0.275 C 
BRANCH   2   3
ATOM      3  O   UNL     1       3.154  -0.022  -0.141  1.00  0.00    -0.458 OA
BRANCH   3   4
ATOM      4  C   UNL     1       3.760   0.909   0.650  1.00  0.00     0.338 C 
ATOM      5  O   UNL     1       3.113   1.560   1.464  1.00  0.00    -0.246 OA
BRANCH   4   6
ATOM      6  C   UNL     1       5.227   0.921   0.673  1.00  0.00     0.063 C 
ATOM      7  C   UNL     1       5.769   0.238   1.700  1.00  0.00    -0.006 C 
ATOM      8  C   UNL     1       6.214   0.993  -0.397  1.00  0.00    -0.008 A 
ATOM      9  C   UNL     1       7.087  -0.378   1.330  1.00  0.00     0.064 C 
ATOM     10  C   UNL     1       7.244   0.099  -0.081  1.00  0.00    -0.036 A 
ATOM     11  C   UNL     1       6.250   1.709  -1.582  1.00  0.00     0.009 A 
ATOM     12  C   UNL     1       8.209  -0.245  -1.011  1.00  0.00     0.004 A 
ATOM     13  C   UNL     1       7.245   1.403  -2.515  1.00  0.00     0.001 A 
ATOM     14  C   UNL     1       8.190   0.400  -2.248  1.00  0.00     0.000 A 
ENDBRANCH   4   6
ENDBRANCH   3   4
ENDBRANCH   2   3
ENDBRANCH   1   2
BRANCH   1  15
ATOM     15  O   UNL     1       3.212   1.546  -2.260  1.00  0.00    -0.458 OA
BRANCH  15  16
ATOM     16  C   UNL     1       1.891   1.733  -1.982  1.00  0.00     0.338 C 
ATOM     17  O   UNL     1       0.992   0.976  -2.278  1.00  0.00    -0.246 OA
BRANCH  16  18
ATOM     18  C   UNL     1       1.712   2.923  -1.107  1.00  0.00     0.060 A 
ATOM     19  C   UNL     1       0.568   2.942  -0.303  1.00  0.00     0.016 A 
ATOM     20  C   UNL     1       2.634   3.974  -1.029  1.00  0.00     0.016 A 
ATOM     21  C   UNL     1       0.304   4.038   0.515  1.00  0.00     0.010 A 
ATOM     22  C   UNL     1       2.381   5.063  -0.183  1.00  0.00     0.010 A 
ATOM     23  C   UNL     1       1.188   5.125   0.556  1.00  0.00    -0.014 A 
BRANCH  23  24
ATOM     24  C   UNL     1       0.757   6.360   1.260  1.00  0.00     0.031 A 
ATOM     25  C   UNL     1       0.276   7.537   0.453  1.00  0.00     0.074 A 
ATOM     26  C   UNL     1       0.676   6.399   2.604  1.00  0.00     0.049 A 
ATOM     27  N   UNL     1      -0.308   8.637   0.857  1.00  0.00    -0.248 NA
ATOM     28  C   UNL     1       0.472   7.464  -1.004  1.00  0.00     0.031 C 
ATOM     29  C   UNL     1       1.105   5.335   3.511  1.00  0.00     0.029 A 
ATOM     30  N   UNL     1       0.176   7.371   3.436  1.00  0.00    -0.354 N 
ATOM     31  C   UNL     1      -0.572   9.370  -0.293  1.00  0.00     0.074 A 
ATOM     32  C   UNL     1      -0.027   8.623  -1.406  1.00  0.00     0.031 C 
ATOM     33  C   UNL     1       0.830   5.704   4.774  1.00  0.00     0.029 A 
ATOM     34  C   UNL     1       0.213   7.029   4.766  1.00  0.00     0.049 A 
ATOM     35  H   UNL     1      -0.176   8.230   3.110  1.00  0.00     0.167 HD
ATOM     36  C   UNL     1      -1.236  10.542  -0.421  1.00  0.00     0.037 A 
ATOM     37  C   UNL     1      -0.214   7.704   5.852  1.00  0.00     0.037 A 
ATOM     38  C   UNL     1      -1.781  11.298   0.675  1.00  0.00     0.049 A 
ATOM     39  C   UNL     1      -0.903   9.034   5.685  1.00  0.00     0.074 A 
ATOM     40  C   UNL     1      -2.483  12.491   0.633  1.00  0.00     0.029 A 
ATOM     41  N   UNL     1      -1.682  10.939   2.009  1.00  0.00    -0.354 N 
ATOM     42  N   UNL     1      -1.204   9.682   4.587  1.00  0.00    -0.248 NA
ATOM     43  C   UNL     1      -1.328   9.718   6.917  1.00  0.00     0.031 C 
ATOM     44  C   UNL     1      -2.771  12.876   1.946  1.00  0.00     0.029 A 
ATOM     45  C   UNL     1      -2.290  11.899   2.802  1.00  0.00     0.049 A 
ATOM     46  H   UNL     1      -1.245  10.123   2.344  1.00  0.00     0.167 HD
ATOM     47  C   UNL     1      -1.874  10.831   4.993  1.00  0.00     0.074 A 
ATOM     48  C   UNL     1      -1.958  10.780   6.436  1.00  0.00     0.031 C 
ATOM     49  C   UNL     1      -2.372  11.841   4.238  1.00  0.00     0.037 A 
BRANCH  36  50
ATOM     50  C   UNL     1      -1.422  11.080  -1.808  1.00  0.00     0.057 A 
ATOM     51  C   UNL     1      -2.330  10.500  -2.702  1.00  0.00     0.134 A 
ATOM     52  C   UNL     1      -0.728  12.219  -2.235  1.00  0.00     0.134 A 
ATOM     53  F   UNL     1      -3.015   9.398  -2.357  1.00  0.00    -0.206 F 
ATOM     54  C   UNL     1      -2.534  11.026  -3.978  1.00  0.00     0.040 A 
ATOM     55  C   UNL     1      -0.940  12.768  -3.500  1.00  0.00     0.040 A 
ATOM     56  F   UNL     1       0.154  12.823  -1.425  1.00  0.00    -0.206 F 
ATOM     57  C   UNL     1      -1.844  12.169  -4.377  1.00  0.00     0.006 A 
ENDBRANCH  36  50
BRANCH  37  58
ATOM     58  C   UNL     1      -0.013   7.140   7.212  1.00  0.00     0.057 A 
ATOM     59  C   UNL     1      -1.093   6.728   8.000  1.00  0.00     0.134 A 
ATOM     60  C   UNL     1       1.265   7.065   7.778  1.00  0.00     0.134 A 
ATOM     61  F   UNL     1      -2.345   6.803   7.524  1.00  0.00    -0.206 F 
ATOM     62  C   UNL     1      -0.915   6.293   9.315  1.00  0.00     0.040 A 
ATOM     63  C   UNL     1       1.461   6.606   9.081  1.00  0.00     0.040 A 
ATOM     64  F   UNL     1       2.341   7.449   7.076  1.00  0.00    -0.206 F 
ATOM     65  C   UNL     1       0.367   6.230   9.858  1.00  0.00     0.006 A 
ENDBRANCH  37  58
BRANCH  49  66
ATOM     66  C   UNL     1      -3.073  12.959   4.955  1.00  0.00     0.057 A 
ATOM     67  C   UNL     1      -2.375  13.883   5.744  1.00  0.00     0.134 A 
ATOM     68  C   UNL     1      -4.459  13.127   4.840  1.00  0.00     0.134 A 
ATOM     69  F   UNL     1      -1.047  13.774   5.905  1.00  0.00    -0.206 F 
ATOM     70  C   UNL     1      -3.034  14.914   6.417  1.00  0.00     0.040 A 
ATOM     71  C   UNL     1      -5.125  14.170   5.485  1.00  0.00     0.040 A 
ATOM     72  F   UNL     1      -5.188  12.287   4.090  1.00  0.00    -0.206 F 
ATOM     73  C   UNL     1      -4.413  15.062   6.285  1.00  0.00     0.006 A 
ENDBRANCH  49  66
ENDBRANCH  23  24
ENDBRANCH  16  18
ENDBRANCH  15  16
ENDBRANCH   1  15
TORSDOF 11
