REMARK SMILES C[C@H](NC(=O)CCN1C(=O)C(=Cc2ccc([N+](=O)[O-])cc2)SC1=S)C(=O)OCCOC(=O)c1ccc(-c2c3nc(c(-c4c(F)cccc4F)c4ccc([nH]4)c(-c4c(F)cccc4F)c4nc(c(-c5c(F)cccc5F)c5ccc2[nH]5)C=C4)C=C3)cc1
REMARK SMILES IDX 25 1 26 2 2 3 1 4 3 5 4 6 5 8 6 9 7 10 8 11 9 12 23 13 10 14
REMARK SMILES IDX 11 15 22 16 24 17 12 18 13 19 14 20 21 21 15 22 20 23 16 24
REMARK SMILES IDX 17 25 18 26 19 27 27 28 28 29 29 30 30 31 31 32 32 33 33 34
REMARK SMILES IDX 34 35 86 36 35 37 85 38 36 39 37 40 38 41 79 42 39 43 84 44
REMARK SMILES IDX 78 45 80 46 40 47 83 48 77 49 76 50 41 52 67 53 50 54 66 55
REMARK SMILES IDX 51 56 54 57 65 58 81 59 52 60 53 61 64 63 82 64 55 65 42 66
REMARK SMILES IDX 43 67 48 68 44 69 45 70 47 71 49 72 46 73 68 74 69 75 74 76
REMARK SMILES IDX 70 77 71 78 73 79 75 80 72 81 56 82 57 83 62 84 58 85 59 86
REMARK SMILES IDX 61 87 63 88 60 89
REMARK H PARENT 3 7 80 51 54 62
REMARK Flexibility Score: inf
ROOT
ATOM      1  C   UNL     1      -0.643  -0.050   0.451  1.00  0.00     0.328 C 
ATOM      2  O   UNL     1      -0.993  -0.231   1.611  1.00  0.00    -0.250 OA
ENDROOT
BRANCH   1   3
ATOM      3  C   UNL     1       0.836   0.070   0.054  1.00  0.00     0.189 C 
ATOM      4  C   UNL     1       1.690   0.546   1.226  1.00  0.00     0.043 C 
BRANCH   3   5
ATOM      5  N   UNL     1       1.073   0.734  -1.229  1.00  0.00    -0.343 N 
ATOM      6  C   UNL     1       1.247   2.018  -1.620  1.00  0.00     0.222 C 
ATOM      7  H   UNL     1       1.116   0.100  -1.981  1.00  0.00     0.164 HD
ATOM      8  O   UNL     1       1.223   2.246  -2.833  1.00  0.00    -0.275 OA
BRANCH   6   9
ATOM      9  C   UNL     1       1.490   3.156  -0.654  1.00  0.00     0.122 C 
BRANCH   9  10
ATOM     10  C   UNL     1       0.227   3.991  -0.430  1.00  0.00     0.137 C 
BRANCH  10  11
ATOM     11  N   UNL     1      -0.194   4.059   0.982  1.00  0.00    -0.292 N 
ATOM     12  C   UNL     1      -1.237   3.265   1.396  1.00  0.00     0.266 C 
ATOM     13  C   UNL     1       0.297   4.925   1.932  1.00  0.00     0.148 C 
ATOM     14  O   UNL     1      -1.937   2.583   0.666  1.00  0.00    -0.268 OA
ATOM     15  C   UNL     1      -1.460   3.333   2.876  1.00  0.00     0.081 C 
ATOM     16  S   UNL     1      -0.619   4.753   3.438  1.00  0.00    -0.054 SA
ATOM     17  S   UNL     1       1.566   5.994   1.774  1.00  0.00    -0.052 S 
ATOM     18  C   UNL     1      -1.218   2.169   3.505  1.00  0.00     0.029 C 
BRANCH  18  19
ATOM     19  C   UNL     1      -2.029   1.510   4.545  1.00  0.00    -0.024 A 
ATOM     20  C   UNL     1      -1.521   0.314   5.080  1.00  0.00     0.015 A 
ATOM     21  C   UNL     1      -3.329   1.899   4.888  1.00  0.00     0.015 A 
ATOM     22  C   UNL     1      -2.280  -0.473   5.949  1.00  0.00     0.086 A 
ATOM     23  C   UNL     1      -4.101   1.114   5.760  1.00  0.00     0.086 A 
ATOM     24  C   UNL     1      -3.570  -0.070   6.288  1.00  0.00     0.269 A 
BRANCH  24  25
ATOM     25  N   UNL     1      -4.374  -0.911   7.183  1.00  0.00     0.062 N 
ATOM     26  O   UNL     1      -3.925  -2.027   7.484  1.00  0.00    -0.258 OA
ATOM     27  O   UNL     1      -5.457  -0.458   7.579  1.00  0.00    -0.258 OA
ENDBRANCH  24  25
ENDBRANCH  18  19
ENDBRANCH  10  11
ENDBRANCH   9  10
ENDBRANCH   6   9
ENDBRANCH   3   5
ENDBRANCH   1   3
BRANCH   1  28
ATOM     28  O   UNL     1      -1.489  -0.089  -0.613  1.00  0.00    -0.461 OA
BRANCH  28  29
ATOM     29  C   UNL     1      -2.894  -0.170  -0.282  1.00  0.00     0.274 C 
BRANCH  29  30
ATOM     30  C   UNL     1      -3.417  -1.608  -0.168  1.00  0.00     0.275 C 
BRANCH  30  31
ATOM     31  O   UNL     1      -2.979  -2.245   1.050  1.00  0.00    -0.458 OA
BRANCH  31  32
ATOM     32  C   UNL     1      -1.792  -2.891   0.957  1.00  0.00     0.338 C 
ATOM     33  O   UNL     1      -1.150  -3.087  -0.065  1.00  0.00    -0.246 OA
BRANCH  32  34
ATOM     34  C   UNL     1      -1.233  -3.155   2.302  1.00  0.00     0.060 A 
ATOM     35  C   UNL     1       0.148  -2.964   2.457  1.00  0.00     0.016 A 
ATOM     36  C   UNL     1      -2.006  -3.589   3.381  1.00  0.00     0.016 A 
ATOM     37  C   UNL     1       0.766  -3.221   3.674  1.00  0.00     0.010 A 
ATOM     38  C   UNL     1      -1.379  -3.887   4.597  1.00  0.00     0.010 A 
ATOM     39  C   UNL     1       0.013  -3.729   4.735  1.00  0.00    -0.014 A 
BRANCH  39  40
ATOM     40  C   UNL     1       0.737  -4.298   5.892  1.00  0.00     0.031 A 
ATOM     41  C   UNL     1       1.156  -5.737   5.820  1.00  0.00     0.074 A 
ATOM     42  C   UNL     1       1.087  -3.540   6.945  1.00  0.00     0.049 A 
ATOM     43  N   UNL     1       1.862  -6.434   6.670  1.00  0.00    -0.248 NA
ATOM     44  C   UNL     1       0.764  -6.474   4.607  1.00  0.00     0.031 C 
ATOM     45  C   UNL     1       0.831  -2.112   7.080  1.00  0.00     0.029 A 
ATOM     46  N   UNL     1       1.722  -3.876   8.112  1.00  0.00    -0.354 N 
ATOM     47  C   UNL     1       2.052  -7.669   6.067  1.00  0.00     0.074 A 
ATOM     48  C   UNL     1       1.335  -7.651   4.812  1.00  0.00     0.031 C 
ATOM     49  C   UNL     1       1.210  -1.707   8.304  1.00  0.00     0.029 A 
ATOM     50  C   UNL     1       1.770  -2.848   9.021  1.00  0.00     0.049 A 
ATOM     51  H   UNL     1       2.106  -4.766   8.281  1.00  0.00     0.167 HD
ATOM     52  C   UNL     1       2.788  -8.714   6.509  1.00  0.00     0.037 A 
ATOM     53  C   UNL     1       2.211  -2.837  10.291  1.00  0.00     0.037 A 
ATOM     54  C   UNL     1       3.442  -8.753   7.788  1.00  0.00     0.049 A 
ATOM     55  C   UNL     1       2.874  -4.070  10.836  1.00  0.00     0.074 A 
ATOM     56  C   UNL     1       4.172  -9.780   8.357  1.00  0.00     0.029 A 
ATOM     57  N   UNL     1       3.419  -7.716   8.709  1.00  0.00    -0.354 N 
ATOM     58  N   UNL     1       3.085  -5.221  10.245  1.00  0.00    -0.248 NA
ATOM     59  C   UNL     1       3.397  -3.990  12.206  1.00  0.00     0.031 C 
ATOM     60  C   UNL     1       4.561  -9.377   9.640  1.00  0.00     0.029 A 
ATOM     61  C   UNL     1       4.105  -8.085   9.853  1.00  0.00     0.049 A 
ATOM     62  H   UNL     1       2.981  -6.846   8.570  1.00  0.00     0.167 HD
ATOM     63  C   UNL     1       3.802  -5.989  11.152  1.00  0.00     0.074 A 
ATOM     64  C   UNL     1       3.987  -5.170  12.335  1.00  0.00     0.031 C 
ATOM     65  C   UNL     1       4.277  -7.251  11.015  1.00  0.00     0.037 A 
BRANCH  52  66
ATOM     66  C   UNL     1       2.901  -9.890   5.590  1.00  0.00     0.057 A 
ATOM     67  C   UNL     1       3.708  -9.840   4.444  1.00  0.00     0.134 A 
ATOM     68  C   UNL     1       2.187 -11.068   5.830  1.00  0.00     0.134 A 
ATOM     69  F   UNL     1       4.396  -8.728   4.144  1.00  0.00    -0.206 F 
ATOM     70  C   UNL     1       3.784 -10.916   3.559  1.00  0.00     0.040 A 
ATOM     71  C   UNL     1       2.269 -12.157   4.962  1.00  0.00     0.040 A 
ATOM     72  F   UNL     1       1.391 -11.174   6.904  1.00  0.00    -0.206 F 
ATOM     73  C   UNL     1       3.065 -12.081   3.820  1.00  0.00     0.006 A 
ENDBRANCH  52  66
BRANCH  53  74
ATOM     74  C   UNL     1       2.038  -1.625  11.127  1.00  0.00     0.057 A 
ATOM     75  C   UNL     1       3.122  -0.819  11.488  1.00  0.00     0.134 A 
ATOM     76  C   UNL     1       0.772  -1.256  11.599  1.00  0.00     0.134 A 
ATOM     77  F   UNL     1       4.360  -1.130  11.078  1.00  0.00    -0.206 F 
ATOM     78  C   UNL     1       2.958   0.301  12.306  1.00  0.00     0.040 A 
ATOM     79  C   UNL     1       0.590  -0.129  12.402  1.00  0.00     0.040 A 
ATOM     80  F   UNL     1      -0.307  -1.986  11.284  1.00  0.00    -0.206 F 
ATOM     81  C   UNL     1       1.688   0.649  12.764  1.00  0.00     0.006 A 
ENDBRANCH  53  74
BRANCH  65  82
ATOM     82  C   UNL     1       5.074  -7.799  12.159  1.00  0.00     0.057 A 
ATOM     83  C   UNL     1       4.469  -8.199  13.356  1.00  0.00     0.134 A 
ATOM     84  C   UNL     1       6.463  -7.942  12.053  1.00  0.00     0.134 A 
ATOM     85  F   UNL     1       3.143  -8.072  13.523  1.00  0.00    -0.206 F 
ATOM     86  C   UNL     1       5.221  -8.698  14.420  1.00  0.00     0.040 A 
ATOM     87  C   UNL     1       7.223  -8.461  13.100  1.00  0.00     0.040 A 
ATOM     88  F   UNL     1       7.101  -7.582  10.929  1.00  0.00    -0.206 F 
ATOM     89  C   UNL     1       6.603  -8.834  14.291  1.00  0.00     0.006 A 
ENDBRANCH  65  82
ENDBRANCH  39  40
ENDBRANCH  32  34
ENDBRANCH  31  32
ENDBRANCH  30  31
ENDBRANCH  29  30
ENDBRANCH  28  29
ENDBRANCH   1  28
TORSDOF 17
