REMARK SMILES Cc1ccc(C(=O)[C@@H](C)[C@H](C)C(=O)OCCOC(=O)c2ccc(-c3c4nc(c(-c5c(F)cccc5F)c5ccc([nH]5)c(-c5c(F)cccc5F)c5nc(c(-c6c(F)cccc6F)c6ccc3[nH]6)C=C5)C=C4)cc2)cc1
REMARK SMILES IDX 15 1 14 2 12 3 13 4 10 5 11 6 8 7 9 8 6 9 7 10 5 11 1 12
REMARK SMILES IDX 2 13 3 14 75 15 4 16 74 17 16 18 17 19 18 20 19 21 20 22
REMARK SMILES IDX 21 23 73 24 22 25 72 26 23 27 24 28 25 29 66 30 26 31 71 32
REMARK SMILES IDX 65 33 67 34 27 35 70 36 64 37 63 38 28 40 54 41 37 42 53 43
REMARK SMILES IDX 38 44 41 45 52 46 68 47 39 48 40 49 51 51 69 52 42 53 29 54
REMARK SMILES IDX 30 55 35 56 31 57 32 58 34 59 36 60 33 61 55 62 56 63 61 64
REMARK SMILES IDX 57 65 58 66 60 67 62 68 59 69 43 70 44 71 49 72 45 73 46 74
REMARK SMILES IDX 48 75 50 76 47 77
REMARK H PARENT 67 39 41 50
REMARK Flexibility Score: inf
ROOT
ATOM      1  C   UNL     1      -6.607   3.796   0.510  1.00  0.00     0.274 C 
ENDROOT
BRANCH   1   2
ATOM      2  O   UNL     1      -5.626   2.751   0.447  1.00  0.00    -0.462 OA
BRANCH   2   3
ATOM      3  C   UNL     1      -5.506   2.140  -0.772  1.00  0.00     0.309 C 
ATOM      4  O   UNL     1      -6.141   2.485  -1.742  1.00  0.00    -0.252 OA
BRANCH   3   5
ATOM      5  C   UNL     1      -4.403   1.079  -0.798  1.00  0.00     0.106 C 
ATOM      6  C   UNL     1      -4.262   0.340   0.539  1.00  0.00     0.021 C 
BRANCH   5   7
ATOM      7  C   UNL     1      -4.388   0.097  -2.014  1.00  0.00     0.072 C 
ATOM      8  C   UNL     1      -4.239   0.740  -3.394  1.00  0.00     0.017 C 
BRANCH   7   9
ATOM      9  C   UNL     1      -5.410  -1.054  -2.086  1.00  0.00     0.166 C 
ATOM     10  O   UNL     1      -5.123  -2.130  -2.611  1.00  0.00    -0.294 OA
BRANCH   9  11
ATOM     11  C   UNL     1      -6.742  -0.928  -1.465  1.00  0.00     0.018 A 
ATOM     12  C   UNL     1     -10.080  -0.081   1.074  1.00  0.00     0.044 C 
ATOM     13  C   UNL     1      -8.969  -0.425   0.130  1.00  0.00    -0.051 A 
ATOM     14  C   UNL     1      -8.249  -1.618   0.279  1.00  0.00     0.004 A 
ATOM     15  C   UNL     1      -8.660   0.427  -0.933  1.00  0.00     0.004 A 
ATOM     16  C   UNL     1      -7.126  -1.865  -0.510  1.00  0.00     0.012 A 
ATOM     17  C   UNL     1      -7.576   0.140  -1.760  1.00  0.00     0.012 A 
ENDBRANCH   9  11
ENDBRANCH   7   9
ENDBRANCH   5   7
ENDBRANCH   3   5
ENDBRANCH   2   3
ENDBRANCH   1   2
BRANCH   1  18
ATOM     18  C   UNL     1      -6.156   4.965   1.396  1.00  0.00     0.275 C 
BRANCH  18  19
ATOM     19  O   UNL     1      -4.725   5.153   1.619  1.00  0.00    -0.458 OA
BRANCH  19  20
ATOM     20  C   UNL     1      -3.693   5.200   0.736  1.00  0.00     0.338 C 
ATOM     21  O   UNL     1      -2.522   5.174   1.093  1.00  0.00    -0.246 OA
BRANCH  20  22
ATOM     22  C   UNL     1      -4.021   5.223  -0.695  1.00  0.00     0.060 A 
ATOM     23  C   UNL     1      -3.341   4.382  -1.591  1.00  0.00     0.016 A 
ATOM     24  C   UNL     1      -5.083   6.004  -1.116  1.00  0.00     0.016 A 
ATOM     25  C   UNL     1      -3.843   4.206  -2.883  1.00  0.00     0.010 A 
ATOM     26  C   UNL     1      -5.676   5.695  -2.313  1.00  0.00     0.010 A 
ATOM     27  C   UNL     1      -5.058   4.810  -3.212  1.00  0.00    -0.014 A 
BRANCH  27  28
ATOM     28  C   UNL     1      -5.667   4.810  -4.540  1.00  0.00     0.031 A 
ATOM     29  C   UNL     1      -6.298   3.629  -5.156  1.00  0.00     0.074 A 
ATOM     30  C   UNL     1      -5.623   6.029  -5.114  1.00  0.00     0.049 A 
ATOM     31  N   UNL     1      -5.998   3.145  -6.318  1.00  0.00    -0.248 NA
ATOM     32  C   UNL     1      -7.343   2.863  -4.471  1.00  0.00     0.031 C 
ATOM     33  C   UNL     1      -6.220   6.554  -6.319  1.00  0.00     0.029 A 
ATOM     34  N   UNL     1      -4.787   7.065  -4.672  1.00  0.00    -0.354 N 
ATOM     35  C   UNL     1      -7.012   2.252  -6.623  1.00  0.00     0.074 A 
ATOM     36  C   UNL     1      -7.654   1.924  -5.375  1.00  0.00     0.031 C 
ATOM     37  C   UNL     1      -5.502   7.635  -6.696  1.00  0.00     0.029 A 
ATOM     38  C   UNL     1      -4.345   7.735  -5.805  1.00  0.00     0.049 A 
ATOM     39  H   UNL     1      -4.559   7.277  -3.738  1.00  0.00     0.167 HD
ATOM     40  C   UNL     1      -7.543   2.179  -7.879  1.00  0.00     0.037 A 
ATOM     41  C   UNL     1      -3.025   7.589  -6.130  1.00  0.00     0.037 A 
ATOM     42  C   UNL     1      -7.075   3.299  -8.673  1.00  0.00     0.049 A 
ATOM     43  C   UNL     1      -2.856   6.864  -7.441  1.00  0.00     0.074 A 
ATOM     44  C   UNL     1      -7.629   4.547  -8.905  1.00  0.00     0.029 A 
ATOM     45  N   UNL     1      -5.748   3.390  -9.025  1.00  0.00    -0.354 N 
ATOM     46  N   UNL     1      -3.761   6.083  -7.962  1.00  0.00    -0.248 NA
ATOM     47  C   UNL     1      -1.639   6.924  -8.242  1.00  0.00     0.031 C 
ATOM     48  C   UNL     1      -6.627   5.378  -9.461  1.00  0.00     0.029 A 
ATOM     49  C   UNL     1      -5.465   4.637  -9.542  1.00  0.00     0.049 A 
ATOM     50  H   UNL     1      -5.091   2.664  -8.923  1.00  0.00     0.167 HD
ATOM     51  C   UNL     1      -3.322   5.626  -9.173  1.00  0.00     0.074 A 
ATOM     52  C   UNL     1      -1.960   6.116  -9.266  1.00  0.00     0.031 C 
ATOM     53  C   UNL     1      -4.123   4.903 -10.008  1.00  0.00     0.037 A 
BRANCH  40  54
ATOM     54  C   UNL     1      -8.765   1.368  -8.241  1.00  0.00     0.057 A 
ATOM     55  C   UNL     1      -9.732   1.845  -9.148  1.00  0.00     0.134 A 
ATOM     56  C   UNL     1      -9.006   0.073  -7.749  1.00  0.00     0.134 A 
ATOM     57  F   UNL     1      -9.610   3.030  -9.756  1.00  0.00    -0.206 F 
ATOM     58  C   UNL     1     -10.889   1.131  -9.479  1.00  0.00     0.040 A 
ATOM     59  C   UNL     1     -10.168  -0.653  -8.068  1.00  0.00     0.040 A 
ATOM     60  F   UNL     1      -8.118  -0.535  -6.948  1.00  0.00    -0.206 F 
ATOM     61  C   UNL     1     -11.120  -0.118  -8.927  1.00  0.00     0.006 A 
ENDBRANCH  40  54
BRANCH  41  62
ATOM     62  C   UNL     1      -2.107   7.419  -4.946  1.00  0.00     0.057 A 
ATOM     63  C   UNL     1      -2.192   8.316  -3.857  1.00  0.00     0.134 A 
ATOM     64  C   UNL     1      -1.356   6.259  -4.725  1.00  0.00     0.134 A 
ATOM     65  F   UNL     1      -2.892   9.458  -3.974  1.00  0.00    -0.206 F 
ATOM     66  C   UNL     1      -1.662   8.023  -2.595  1.00  0.00     0.040 A 
ATOM     67  C   UNL     1      -0.793   5.969  -3.472  1.00  0.00     0.040 A 
ATOM     68  F   UNL     1      -1.209   5.341  -5.690  1.00  0.00    -0.206 F 
ATOM     69  C   UNL     1      -0.975   6.834  -2.394  1.00  0.00     0.006 A 
ENDBRANCH  41  62
BRANCH  53  70
ATOM     70  C   UNL     1      -3.725   4.389 -11.360  1.00  0.00     0.057 A 
ATOM     71  C   UNL     1      -2.896   5.099 -12.233  1.00  0.00     0.134 A 
ATOM     72  C   UNL     1      -4.256   3.184 -11.875  1.00  0.00     0.134 A 
ATOM     73  F   UNL     1      -2.465   6.333 -11.936  1.00  0.00    -0.206 F 
ATOM     74  C   UNL     1      -2.511   4.583 -13.475  1.00  0.00     0.040 A 
ATOM     75  C   UNL     1      -3.923   2.687 -13.133  1.00  0.00     0.040 A 
ATOM     76  F   UNL     1      -5.116   2.424 -11.185  1.00  0.00    -0.206 F 
ATOM     77  C   UNL     1      -3.017   3.370 -13.925  1.00  0.00     0.006 A 
ENDBRANCH  53  70
ENDBRANCH  27  28
ENDBRANCH  20  22
ENDBRANCH  19  20
ENDBRANCH  18  19
ENDBRANCH   1  18
TORSDOF 14
