REMARK SMILES CC(C)C[C@@H](NC(=O)c1cccnc1)C(=O)OCCOC(=O)c1ccc(-c2c3nc(c(-c4c(F)cccc4F)c4ccc([nH]4)c(-c4c(F)cccc4F)c4nc(c(-c5c(F)cccc5F)c5ccc2[nH]5)C=C4)C=C3)cc1
REMARK SMILES IDX 18 1 17 2 15 3 16 4 5 5 4 6 2 7 1 8 3 9 6 10 7 11 8 13 9 14
REMARK SMILES IDX 10 15 14 16 11 17 13 18 12 19 19 20 20 21 21 22 22 23 23 24
REMARK SMILES IDX 24 25 76 26 25 27 75 28 26 29 27 30 28 31 69 32 29 33 74 34
REMARK SMILES IDX 68 35 70 36 30 37 73 38 67 39 66 40 31 42 57 43 40 44 56 45
REMARK SMILES IDX 41 46 44 47 55 48 71 49 42 50 43 51 54 53 72 54 45 55 32 56
REMARK SMILES IDX 33 57 38 58 34 59 35 60 37 61 39 62 36 63 58 64 59 65 64 66
REMARK SMILES IDX 60 67 61 68 63 69 65 70 62 71 46 72 47 73 52 74 48 75 49 76
REMARK SMILES IDX 51 77 53 78 50 79
REMARK H PARENT 6 12 70 41 44 52
REMARK Flexibility Score: inf
ROOT
ATOM      1  C   UNL     1      -5.081  -1.760  -0.400  1.00  0.00     0.274 C 
ENDROOT
BRANCH   1   2
ATOM      2  O   UNL     1      -3.664  -1.929  -0.613  1.00  0.00    -0.461 OA
BRANCH   2   3
ATOM      3  C   UNL     1      -3.043  -0.895  -1.236  1.00  0.00     0.328 C 
ATOM      4  O   UNL     1      -3.592   0.155  -1.558  1.00  0.00    -0.250 OA
BRANCH   3   5
ATOM      5  C   UNL     1      -1.573  -1.177  -1.582  1.00  0.00     0.192 C 
BRANCH   5   6
ATOM      6  C   UNL     1      -0.849  -1.772  -0.355  1.00  0.00     0.040 C 
BRANCH   6   7
ATOM      7  C   UNL     1       0.678  -1.545  -0.298  1.00  0.00    -0.015 C 
ATOM      8  C   UNL     1       1.052  -0.067  -0.161  1.00  0.00     0.007 C 
ATOM      9  C   UNL     1       1.259  -2.315   0.894  1.00  0.00     0.007 C 
ENDBRANCH   6   7
ENDBRANCH   5   6
BRANCH   5  10
ATOM     10  N   UNL     1      -1.316  -1.988  -2.787  1.00  0.00    -0.339 N 
ATOM     11  C   UNL     1      -1.873  -1.843  -4.035  1.00  0.00     0.253 C 
ATOM     12  H   UNL     1      -0.668  -2.721  -2.685  1.00  0.00     0.164 HD
ATOM     13  O   UNL     1      -1.217  -2.061  -5.047  1.00  0.00    -0.269 OA
BRANCH  11  14
ATOM     14  C   UNL     1      -3.311  -1.586  -4.154  1.00  0.00     0.058 A 
ATOM     15  C   UNL     1      -3.824  -0.324  -4.431  1.00  0.00     0.017 A 
ATOM     16  C   UNL     1      -4.189  -2.647  -3.981  1.00  0.00     0.124 A 
ATOM     17  C   UNL     1      -5.208  -0.159  -4.457  1.00  0.00     0.021 A 
ATOM     18  N   UNL     1      -5.537  -2.515  -4.009  1.00  0.00    -0.264 NA
ATOM     19  C   UNL     1      -6.014  -1.271  -4.242  1.00  0.00     0.111 A 
ENDBRANCH  11  14
ENDBRANCH   5  10
ENDBRANCH   3   5
ENDBRANCH   2   3
ENDBRANCH   1   2
BRANCH   1  20
ATOM     20  C   UNL     1      -5.420  -1.079   0.932  1.00  0.00     0.275 C 
BRANCH  20  21
ATOM     21  O   UNL     1      -5.072   0.320   0.936  1.00  0.00    -0.458 OA
BRANCH  21  22
ATOM     22  C   UNL     1      -3.833   0.597   1.405  1.00  0.00     0.338 C 
ATOM     23  O   UNL     1      -3.042  -0.195   1.892  1.00  0.00    -0.246 OA
BRANCH  22  24
ATOM     24  C   UNL     1      -3.458   1.992   1.105  1.00  0.00     0.060 A 
ATOM     25  C   UNL     1      -2.211   2.209   0.505  1.00  0.00     0.016 A 
ATOM     26  C   UNL     1      -4.261   3.071   1.475  1.00  0.00     0.016 A 
ATOM     27  C   UNL     1      -1.744   3.503   0.299  1.00  0.00     0.010 A 
ATOM     28  C   UNL     1      -3.784   4.373   1.283  1.00  0.00     0.010 A 
ATOM     29  C   UNL     1      -2.514   4.591   0.720  1.00  0.00    -0.014 A 
BRANCH  29  30
ATOM     30  C   UNL     1      -1.918   5.947   0.706  1.00  0.00     0.031 A 
ATOM     31  C   UNL     1      -1.327   6.491   1.975  1.00  0.00     0.074 A 
ATOM     32  C   UNL     1      -1.866   6.664  -0.429  1.00  0.00     0.049 A 
ATOM     33  N   UNL     1      -0.814   7.670   2.213  1.00  0.00    -0.248 NA
ATOM     34  C   UNL     1      -1.311   5.579   3.131  1.00  0.00     0.031 C 
ATOM     35  C   UNL     1      -2.344   6.214  -1.735  1.00  0.00     0.029 A 
ATOM     36  N   UNL     1      -1.386   7.928  -0.660  1.00  0.00    -0.354 N 
ATOM     37  C   UNL     1      -0.427   7.648   3.547  1.00  0.00     0.074 A 
ATOM     38  C   UNL     1      -0.778   6.345   4.071  1.00  0.00     0.031 C 
ATOM     39  C   UNL     1      -2.143   7.196  -2.632  1.00  0.00     0.029 A 
ATOM     40  C   UNL     1      -1.559   8.351  -1.954  1.00  0.00     0.049 A 
ATOM     41  H   UNL     1      -0.959   8.478   0.036  1.00  0.00     0.167 HD
ATOM     42  C   UNL     1       0.169   8.626   4.269  1.00  0.00     0.037 A 
ATOM     43  C   UNL     1      -1.299   9.547  -2.517  1.00  0.00     0.037 A 
ATOM     44  C   UNL     1       0.518   9.919   3.745  1.00  0.00     0.049 A 
ATOM     45  C   UNL     1      -0.710  10.646  -1.675  1.00  0.00     0.074 A 
ATOM     46  C   UNL     1       1.125  10.979   4.394  1.00  0.00     0.029 A 
ATOM     47  N   UNL     1       0.287  10.327   2.440  1.00  0.00    -0.354 N 
ATOM     48  N   UNL     1      -0.357  10.622  -0.412  1.00  0.00    -0.248 NA
ATOM     49  C   UNL     1      -0.490  11.941  -2.334  1.00  0.00     0.031 C 
ATOM     50  C   UNL     1       1.226  12.043   3.491  1.00  0.00     0.029 A 
ATOM     51  C   UNL     1       0.719  11.631   2.269  1.00  0.00     0.049 A 
ATOM     52  H   UNL     1      -0.123   9.771   1.738  1.00  0.00     0.167 HD
ATOM     53  C   UNL     1       0.144  11.887  -0.131  1.00  0.00     0.074 A 
ATOM     54  C   UNL     1       0.060  12.651  -1.359  1.00  0.00     0.031 C 
ATOM     55  C   UNL     1       0.629  12.373   1.038  1.00  0.00     0.037 A 
BRANCH  42  56
ATOM     56  C   UNL     1       0.441   8.340   5.715  1.00  0.00     0.057 A 
ATOM     57  C   UNL     1       1.466   7.475   6.119  1.00  0.00     0.134 A 
ATOM     58  C   UNL     1      -0.330   8.943   6.716  1.00  0.00     0.134 A 
ATOM     59  F   UNL     1       2.227   6.851   5.208  1.00  0.00    -0.206 F 
ATOM     60  C   UNL     1       1.700   7.204   7.469  1.00  0.00     0.040 A 
ATOM     61  C   UNL     1      -0.092   8.697   8.069  1.00  0.00     0.040 A 
ATOM     62  F   UNL     1      -1.328   9.781   6.395  1.00  0.00    -0.206 F 
ATOM     63  C   UNL     1       0.922   7.819   8.448  1.00  0.00     0.006 A 
ENDBRANCH  42  56
BRANCH  43  64
ATOM     64  C   UNL     1      -1.619   9.777  -3.947  1.00  0.00     0.057 A 
ATOM     65  C   UNL     1      -0.607   9.926  -4.902  1.00  0.00     0.134 A 
ATOM     66  C   UNL     1      -2.944   9.867  -4.390  1.00  0.00     0.134 A 
ATOM     67  F   UNL     1       0.681   9.876  -4.533  1.00  0.00    -0.206 F 
ATOM     68  C   UNL     1      -0.901  10.165  -6.245  1.00  0.00     0.040 A 
ATOM     69  C   UNL     1      -3.252  10.084  -5.734  1.00  0.00     0.040 A 
ATOM     70  F   UNL     1      -3.958   9.736  -3.523  1.00  0.00    -0.206 F 
ATOM     71  C   UNL     1      -2.228  10.239  -6.665  1.00  0.00     0.006 A 
ENDBRANCH  43  64
BRANCH  55  72
ATOM     72  C   UNL     1       1.131  13.786   1.036  1.00  0.00     0.057 A 
ATOM     73  C   UNL     1       0.256  14.879   1.017  1.00  0.00     0.134 A 
ATOM     74  C   UNL     1       2.504  14.055   1.098  1.00  0.00     0.134 A 
ATOM     75  F   UNL     1      -1.070  14.687   0.945  1.00  0.00    -0.206 F 
ATOM     76  C   UNL     1       0.730  16.191   1.041  1.00  0.00     0.040 A 
ATOM     77  C   UNL     1       2.989  15.362   1.145  1.00  0.00     0.040 A 
ATOM     78  F   UNL     1       3.394  13.052   1.127  1.00  0.00    -0.206 F 
ATOM     79  C   UNL     1       2.101  16.435   1.112  1.00  0.00     0.006 A 
ENDBRANCH  55  72
ENDBRANCH  29  30
ENDBRANCH  22  24
ENDBRANCH  21  22
ENDBRANCH  20  21
ENDBRANCH   1  20
TORSDOF 15
