REMARK SMILES COc1ccc(/C=C/c2cc(OC)cc(OC)c2/C=C/C(=O)OCCOC(=O)c2ccc(-c3c4nc(c(-c5c(F)cccc5F)c5ccc([nH]5)c(-c5c(F)cccc5F)c5nc(c(-c6c(F)cccc6F)c6ccc3[nH]6)C=C5)C=C4)cc2)cc1
REMARK SMILES IDX 24 1 23 2 21 3 22 4 20 5 19 6 18 7 9 8 10 9 11 10 15 11
REMARK SMILES IDX 14 12 8 13 7 14 6 15 3 16 4 17 84 18 5 19 83 20 2 21 1 22
REMARK SMILES IDX 12 23 13 24 16 25 17 26 25 27 26 28 27 29 28 30 29 31 30 32
REMARK SMILES IDX 82 33 31 34 81 35 32 36 33 37 34 38 75 39 35 40 80 41 74 42
REMARK SMILES IDX 76 43 36 44 79 45 73 46 72 47 37 49 63 50 46 51 62 52 47 53
REMARK SMILES IDX 50 54 61 55 77 56 48 57 49 58 60 60 78 61 51 62 38 63 39 64
REMARK SMILES IDX 44 65 40 66 41 67 43 68 45 69 42 70 64 71 65 72 70 73 66 74
REMARK SMILES IDX 67 75 69 76 71 77 68 78 52 79 53 80 58 81 54 82 55 83 57 84
REMARK SMILES IDX 59 85 56 86
REMARK H PARENT 76 48 50 59
REMARK Flexibility Score: inf
ROOT
ATOM      1  C   UNL     1       5.760  -1.563  -6.409  1.00  0.00     0.275 C 
ENDROOT
BRANCH   1   2
ATOM      2  O   UNL     1       5.016  -0.487  -7.014  1.00  0.00    -0.459 OA
BRANCH   2   3
ATOM      3  C   UNL     1       5.687   0.672  -7.211  1.00  0.00     0.330 C 
ATOM      4  O   UNL     1       6.863   0.882  -6.956  1.00  0.00    -0.247 OA
BRANCH   3   5
ATOM      5  C   UNL     1       4.826   1.736  -7.769  1.00  0.00     0.094 C 
ATOM      6  C   UNL     1       3.657   1.519  -8.389  1.00  0.00     0.020 C 
BRANCH   6   7
ATOM      7  C   UNL     1       2.808   2.620  -8.891  1.00  0.00     0.024 A 
ATOM      8  C   UNL     1       1.620   2.919  -8.173  1.00  0.00    -0.011 A 
ATOM      9  C   UNL     1       0.772   3.956  -8.601  1.00  0.00     0.055 A 
ATOM     10  C   UNL     1       1.073   4.709  -9.732  1.00  0.00     0.123 A 
ATOM     11  C   UNL     1       3.103   3.396 -10.032  1.00  0.00     0.130 A 
ATOM     12  C   UNL     1       2.244   4.436 -10.425  1.00  0.00     0.093 A 
BRANCH   8  13
ATOM     13  C   UNL     1       1.187   2.169  -6.978  1.00  0.00     0.009 C 
ATOM     14  C   UNL     1       1.839   2.238  -5.806  1.00  0.00     0.009 C 
BRANCH  14  15
ATOM     15  C   UNL     1       1.485   1.476  -4.597  1.00  0.00    -0.025 A 
ATOM     16  C   UNL     1       0.896   0.093  -2.216  1.00  0.00     0.118 A 
ATOM     17  C   UNL     1      -0.095   0.299  -3.172  1.00  0.00     0.047 A 
ATOM     18  C   UNL     1       2.191   0.548  -2.454  1.00  0.00     0.047 A 
ATOM     19  C   UNL     1       0.192   1.002  -4.346  1.00  0.00     0.012 A 
ATOM     20  C   UNL     1       2.480   1.242  -3.636  1.00  0.00     0.012 A 
BRANCH  16  21
ATOM     21  O   UNL     1       0.522  -0.606  -1.101  1.00  0.00    -0.497 OA
ATOM     22  C   UNL     1       1.047  -0.075   0.113  1.00  0.00     0.278 C 
ENDBRANCH  16  21
ENDBRANCH  14  15
ENDBRANCH   8  13
BRANCH  10  23
ATOM     23  O   UNL     1       0.163   5.677 -10.059  1.00  0.00    -0.497 OA
ATOM     24  C   UNL     1       0.326   6.293 -11.334  1.00  0.00     0.278 C 
ENDBRANCH  10  23
BRANCH  11  25
ATOM     25  O   UNL     1       4.184   3.326 -10.868  1.00  0.00    -0.496 OA
ATOM     26  C   UNL     1       4.781   2.064 -11.087  1.00  0.00     0.278 C 
ENDBRANCH  11  25
ENDBRANCH   6   7
ENDBRANCH   3   5
ENDBRANCH   2   3
ENDBRANCH   1   2
BRANCH   1  27
ATOM     27  C   UNL     1       5.960  -2.713  -7.394  1.00  0.00     0.275 C 
BRANCH  27  28
ATOM     28  O   UNL     1       6.808  -2.304  -8.483  1.00  0.00    -0.458 OA
BRANCH  28  29
ATOM     29  C   UNL     1       6.162  -1.997  -9.625  1.00  0.00     0.338 C 
ATOM     30  O   UNL     1       4.959  -2.055  -9.851  1.00  0.00    -0.246 OA
BRANCH  29  31
ATOM     31  C   UNL     1       7.113  -1.474 -10.608  1.00  0.00     0.060 A 
ATOM     32  C   UNL     1       7.354  -0.103 -10.618  1.00  0.00     0.016 A 
ATOM     33  C   UNL     1       7.623  -2.289 -11.617  1.00  0.00     0.016 A 
ATOM     34  C   UNL     1       8.010   0.479 -11.701  1.00  0.00     0.010 A 
ATOM     35  C   UNL     1       8.366  -1.712 -12.654  1.00  0.00     0.010 A 
ATOM     36  C   UNL     1       8.531  -0.316 -12.733  1.00  0.00    -0.014 A 
BRANCH  36  37
ATOM     37  C   UNL     1       9.220   0.306 -13.901  1.00  0.00     0.031 A 
ATOM     38  C   UNL     1       8.712   0.075 -15.302  1.00  0.00     0.074 A 
ATOM     39  C   UNL     1      10.308   1.082 -13.719  1.00  0.00     0.049 A 
ATOM     40  N   UNL     1       9.284   0.356 -16.447  1.00  0.00    -0.248 NA
ATOM     41  C   UNL     1       7.394  -0.565 -15.434  1.00  0.00     0.031 C 
ATOM     42  C   UNL     1      10.895   1.435 -12.426  1.00  0.00     0.029 A 
ATOM     43  N   UNL     1      11.117   1.714 -14.633  1.00  0.00    -0.354 N 
ATOM     44  C   UNL     1       8.428  -0.127 -17.430  1.00  0.00     0.074 A 
ATOM     45  C   UNL     1       7.291  -0.709 -16.748  1.00  0.00     0.031 C 
ATOM     46  C   UNL     1      11.951   2.237 -12.625  1.00  0.00     0.029 A 
ATOM     47  C   UNL     1      12.169   2.388 -14.059  1.00  0.00     0.049 A 
ATOM     48  H   UNL     1      10.959   1.687 -15.604  1.00  0.00     0.167 HD
ATOM     49  C   UNL     1       8.578  -0.092 -18.776  1.00  0.00     0.037 A 
ATOM     50  C   UNL     1      13.222   3.016 -14.617  1.00  0.00     0.037 A 
ATOM     51  C   UNL     1       9.672   0.546 -19.461  1.00  0.00     0.049 A 
ATOM     52  C   UNL     1      13.374   3.029 -16.109  1.00  0.00     0.074 A 
ATOM     53  C   UNL     1       9.890   0.654 -20.825  1.00  0.00     0.029 A 
ATOM     54  N   UNL     1      10.720   1.203 -18.837  1.00  0.00    -0.354 N 
ATOM     55  N   UNL     1      12.589   2.515 -17.023  1.00  0.00    -0.248 NA
ATOM     56  C   UNL     1      14.573   3.688 -16.647  1.00  0.00     0.031 C 
ATOM     57  C   UNL     1      11.083   1.356 -21.025  1.00  0.00     0.029 A 
ATOM     58  C   UNL     1      11.592   1.710 -19.787  1.00  0.00     0.049 A 
ATOM     59  H   UNL     1      10.829   1.296 -17.863  1.00  0.00     0.167 HD
ATOM     60  C   UNL     1      13.194   2.791 -18.241  1.00  0.00     0.074 A 
ATOM     61  C   UNL     1      14.402   3.535 -17.953  1.00  0.00     0.031 C 
ATOM     62  C   UNL     1      12.788   2.450 -19.487  1.00  0.00     0.037 A 
BRANCH  49  63
ATOM     63  C   UNL     1       7.548  -0.790 -19.612  1.00  0.00     0.057 A 
ATOM     64  C   UNL     1       6.289  -0.233 -19.860  1.00  0.00     0.134 A 
ATOM     65  C   UNL     1       7.852  -2.010 -20.231  1.00  0.00     0.134 A 
ATOM     66  F   UNL     1       5.934   0.927 -19.288  1.00  0.00    -0.206 F 
ATOM     67  C   UNL     1       5.363  -0.870 -20.689  1.00  0.00     0.040 A 
ATOM     68  C   UNL     1       6.942  -2.646 -21.077  1.00  0.00     0.040 A 
ATOM     69  F   UNL     1       9.046  -2.592 -20.039  1.00  0.00    -0.206 F 
ATOM     70  C   UNL     1       5.692  -2.076 -21.306  1.00  0.00     0.006 A 
ENDBRANCH  49  63
BRANCH  50  71
ATOM     71  C   UNL     1      14.250   3.638 -13.747  1.00  0.00     0.057 A 
ATOM     72  C   UNL     1      14.375   5.028 -13.655  1.00  0.00     0.134 A 
ATOM     73  C   UNL     1      15.127   2.856 -12.986  1.00  0.00     0.134 A 
ATOM     74  F   UNL     1      13.579   5.827 -14.381  1.00  0.00    -0.206 F 
ATOM     75  C   UNL     1      15.340   5.620 -12.840  1.00  0.00     0.040 A 
ATOM     76  C   UNL     1      16.080   3.434 -12.148  1.00  0.00     0.040 A 
ATOM     77  F   UNL     1      15.055   1.517 -13.032  1.00  0.00    -0.206 F 
ATOM     78  C   UNL     1      16.192   4.821 -12.077  1.00  0.00     0.006 A 
ENDBRANCH  50  71
BRANCH  62  79
ATOM     79  C   UNL     1      13.645   2.896 -20.631  1.00  0.00     0.057 A 
ATOM     80  C   UNL     1      14.841   2.240 -20.948  1.00  0.00     0.134 A 
ATOM     81  C   UNL     1      13.256   3.970 -21.440  1.00  0.00     0.134 A 
ATOM     82  F   UNL     1      15.272   1.213 -20.201  1.00  0.00    -0.206 F 
ATOM     83  C   UNL     1      15.628   2.647 -22.026  1.00  0.00     0.040 A 
ATOM     84  C   UNL     1      14.027   4.375 -22.531  1.00  0.00     0.040 A 
ATOM     85  F   UNL     1      12.119   4.635 -21.189  1.00  0.00    -0.206 F 
ATOM     86  C   UNL     1      15.219   3.714 -22.824  1.00  0.00     0.006 A 
ENDBRANCH  62  79
ENDBRANCH  36  37
ENDBRANCH  29  31
ENDBRANCH  28  29
ENDBRANCH  27  28
ENDBRANCH   1  27
TORSDOF 17
