REMARK SMILES O=C(OCCOC(=O)c1cc(S(=O)(=O)Nc2cc(F)ccc2F)cc2c1OCCO2)c1ccc(-c2c3nc(c(-c4c(F)cccc4F)c4ccc([nH]4)c(-c4c(F)cccc4F)c4nc(c(-c5c(F)cccc5F)c5ccc2[nH]5)C=C4)C=C3)cc1
REMARK SMILES IDX 5 1 4 2 3 3 2 4 1 5 31 6 32 7 84 8 33 9 83 10 34 11 35 12
REMARK SMILES IDX 36 13 77 14 37 15 82 16 76 17 78 18 38 19 81 20 75 21 74 22
REMARK SMILES IDX 39 24 65 25 48 26 64 27 49 28 52 29 63 30 79 31 50 32 51 33
REMARK SMILES IDX 62 35 80 36 53 37 40 38 41 39 46 40 42 41 43 42 45 43 47 44
REMARK SMILES IDX 44 45 66 46 67 47 72 48 68 49 69 50 71 51 73 52 70 53 54 54
REMARK SMILES IDX 55 55 60 56 56 57 57 58 59 59 61 60 58 61 6 62 7 63 8 64
REMARK SMILES IDX 9 65 10 66 26 67 11 68 25 69 27 70 24 71 30 72 28 73 29 74
REMARK SMILES IDX 12 75 13 76 14 77 15 78 16 80 17 81 22 82 18 83 21 84 23 85
REMARK SMILES IDX 19 86 20 87
REMARK H PARENT 78 23 52 34 15 79
REMARK Flexibility Score: inf
ROOT
ATOM      1  C   UNL     1       3.847  -2.388  -0.899  1.00  0.00     0.275 C 
ENDROOT
BRANCH   1   2
ATOM      2  C   UNL     1       4.877  -1.854   0.109  1.00  0.00     0.275 C 
BRANCH   2   3
ATOM      3  O   UNL     1       4.578  -0.660   0.861  1.00  0.00    -0.458 OA
BRANCH   3   4
ATOM      4  C   UNL     1       3.659   0.201   0.385  1.00  0.00     0.338 C 
ATOM      5  O   UNL     1       2.483   0.179   0.715  1.00  0.00    -0.246 OA
BRANCH   4   6
ATOM      6  C   UNL     1       4.225   1.255  -0.503  1.00  0.00     0.060 A 
ATOM      7  C   UNL     1       5.444   1.131  -1.179  1.00  0.00     0.016 A 
ATOM      8  C   UNL     1       3.441   2.387  -0.726  1.00  0.00     0.016 A 
ATOM      9  C   UNL     1       5.860   2.114  -2.080  1.00  0.00     0.010 A 
ATOM     10  C   UNL     1       3.837   3.355  -1.639  1.00  0.00     0.010 A 
ATOM     11  C   UNL     1       5.054   3.230  -2.312  1.00  0.00    -0.014 A 
BRANCH  11  12
ATOM     12  C   UNL     1       5.482   4.337  -3.187  1.00  0.00     0.031 A 
ATOM     13  C   UNL     1       5.891   5.629  -2.559  1.00  0.00     0.074 A 
ATOM     14  C   UNL     1       5.384   4.217  -4.520  1.00  0.00     0.049 A 
ATOM     15  N   UNL     1       6.256   6.742  -3.133  1.00  0.00    -0.248 NA
ATOM     16  C   UNL     1       5.865   5.679  -1.088  1.00  0.00     0.031 C 
ATOM     17  C   UNL     1       4.928   3.017  -5.209  1.00  0.00     0.029 A 
ATOM     18  N   UNL     1       5.603   5.118  -5.527  1.00  0.00    -0.354 N 
ATOM     19  C   UNL     1       6.527   7.617  -2.094  1.00  0.00     0.074 A 
ATOM     20  C   UNL     1       6.197   6.938  -0.861  1.00  0.00     0.031 C 
ATOM     21  C   UNL     1       4.845   3.268  -6.524  1.00  0.00     0.029 A 
ATOM     22  C   UNL     1       5.239   4.648  -6.765  1.00  0.00     0.049 A 
ATOM     23  H   UNL     1       5.982   6.014  -5.379  1.00  0.00     0.167 HD
ATOM     24  C   UNL     1       7.048   8.863  -2.167  1.00  0.00     0.037 A 
ATOM     25  C   UNL     1       5.214   5.268  -7.959  1.00  0.00     0.037 A 
ATOM     26  C   UNL     1       7.325   9.527  -3.409  1.00  0.00     0.049 A 
ATOM     27  C   UNL     1       5.748   6.666  -8.034  1.00  0.00     0.074 A 
ATOM     28  C   UNL     1       7.905  10.762  -3.626  1.00  0.00     0.029 A 
ATOM     29  N   UNL     1       7.006   9.005  -4.658  1.00  0.00    -0.354 N 
ATOM     30  N   UNL     1       6.143   7.443  -7.053  1.00  0.00    -0.248 NA
ATOM     31  C   UNL     1       5.886   7.258  -9.369  1.00  0.00     0.031 C 
ATOM     32  C   UNL     1       7.907  11.001  -5.007  1.00  0.00     0.029 A 
ATOM     33  C   UNL     1       7.363   9.898  -5.652  1.00  0.00     0.049 A 
ATOM     34  H   UNL     1       6.587   8.128  -4.812  1.00  0.00     0.167 HD
ATOM     35  C   UNL     1       6.628   8.595  -7.650  1.00  0.00     0.074 A 
ATOM     36  C   UNL     1       6.456   8.422  -9.081  1.00  0.00     0.031 C 
ATOM     37  C   UNL     1       7.188   9.684  -7.069  1.00  0.00     0.037 A 
BRANCH  24  38
ATOM     38  C   UNL     1       7.334   9.536  -0.858  1.00  0.00     0.057 A 
ATOM     39  C   UNL     1       8.331   9.055   0.007  1.00  0.00     0.134 A 
ATOM     40  C   UNL     1       6.555  10.608  -0.411  1.00  0.00     0.134 A 
ATOM     41  F   UNL     1       9.097   8.014  -0.352  1.00  0.00    -0.206 F 
ATOM     42  C   UNL     1       8.502   9.578   1.289  1.00  0.00     0.040 A 
ATOM     43  C   UNL     1       6.737  11.158   0.860  1.00  0.00     0.040 A 
ATOM     44  F   UNL     1       5.585  11.116  -1.185  1.00  0.00    -0.206 F 
ATOM     45  C   UNL     1       7.700  10.632   1.720  1.00  0.00     0.006 A 
ENDBRANCH  24  38
BRANCH  25  46
ATOM     46  C   UNL     1       4.725   4.535  -9.152  1.00  0.00     0.057 A 
ATOM     47  C   UNL     1       5.614   3.993 -10.086  1.00  0.00     0.134 A 
ATOM     48  C   UNL     1       3.361   4.279  -9.338  1.00  0.00     0.134 A 
ATOM     49  F   UNL     1       6.933   4.203  -9.962  1.00  0.00    -0.206 F 
ATOM     50  C   UNL     1       5.166   3.225 -11.164  1.00  0.00     0.040 A 
ATOM     51  C   UNL     1       2.900   3.501 -10.403  1.00  0.00     0.040 A 
ATOM     52  F   UNL     1       2.458   4.756  -8.469  1.00  0.00    -0.206 F 
ATOM     53  C   UNL     1       3.805   2.970 -11.320  1.00  0.00     0.006 A 
ENDBRANCH  25  46
BRANCH  37  54
ATOM     54  C   UNL     1       7.712  10.743  -7.987  1.00  0.00     0.057 A 
ATOM     55  C   UNL     1       6.865  11.646  -8.637  1.00  0.00     0.134 A 
ATOM     56  C   UNL     1       9.093  10.894  -8.166  1.00  0.00     0.134 A 
ATOM     57  F   UNL     1       5.533  11.538  -8.515  1.00  0.00    -0.206 F 
ATOM     58  C   UNL     1       7.375  12.662  -9.445  1.00  0.00     0.040 A 
ATOM     59  C   UNL     1       9.615  11.919  -8.953  1.00  0.00     0.040 A 
ATOM     60  F   UNL     1       9.954  10.059  -7.565  1.00  0.00    -0.206 F 
ATOM     61  C   UNL     1       8.754  12.806  -9.596  1.00  0.00     0.006 A 
ENDBRANCH  37  54
ENDBRANCH  11  12
ENDBRANCH   4   6
ENDBRANCH   3   4
ENDBRANCH   2   3
ENDBRANCH   1   2
BRANCH   1  62
ATOM     62  O   UNL     1       3.393  -1.383  -1.820  1.00  0.00    -0.458 OA
BRANCH  62  63
ATOM     63  C   UNL     1       2.049  -1.360  -2.039  1.00  0.00     0.342 C 
ATOM     64  O   UNL     1       1.213  -2.126  -1.591  1.00  0.00    -0.246 OA
BRANCH  63  65
ATOM     65  C   UNL     1       1.697  -0.155  -2.813  1.00  0.00     0.107 A 
ATOM     66  C   UNL     1       0.890   0.822  -2.196  1.00  0.00     0.042 A 
ATOM     67  C   UNL     1       2.165   0.014  -4.117  1.00  0.00     0.175 A 
ATOM     68  C   UNL     1       0.612   2.014  -2.867  1.00  0.00     0.092 A 
ATOM     69  C   UNL     1       1.807   1.172  -4.813  1.00  0.00     0.163 A 
ATOM     70  O   UNL     1       2.936  -0.976  -4.671  1.00  0.00    -0.485 OA
ATOM     71  C   UNL     1       1.063   2.179  -4.187  1.00  0.00     0.072 A 
ATOM     72  O   UNL     1       2.174   1.404  -6.114  1.00  0.00    -0.486 OA
ATOM     73  C   UNL     1       3.613  -0.541  -5.853  1.00  0.00     0.271 C 
ATOM     74  C   UNL     1       2.665   0.223  -6.759  1.00  0.00     0.271 C 
BRANCH  68  75
ATOM     75  S   UNL     1      -0.237   3.400  -2.118  1.00  0.00     0.262 S 
ATOM     76  O   UNL     1       0.781   4.285  -1.597  1.00  0.00    -0.201 OA
ATOM     77  O   UNL     1      -1.189   3.864  -3.105  1.00  0.00    -0.201 OA
BRANCH  75  78
ATOM     78  N   UNL     1      -1.175   2.854  -0.854  1.00  0.00    -0.277 N 
ATOM     79  H   UNL     1      -2.151   2.895  -0.970  1.00  0.00     0.180 HD
BRANCH  78  80
ATOM     80  C   UNL     1      -0.691   2.334   0.379  1.00  0.00     0.087 A 
ATOM     81  C   UNL     1       0.276   2.975   1.149  1.00  0.00     0.069 A 
ATOM     82  C   UNL     1      -1.253   1.140   0.852  1.00  0.00     0.147 A 
ATOM     83  C   UNL     1       0.728   2.368   2.321  1.00  0.00     0.125 A 
ATOM     84  C   UNL     1      -0.801   0.537   2.022  1.00  0.00     0.044 A 
ATOM     85  F   UNL     1      -2.222   0.541   0.142  1.00  0.00    -0.205 F 
ATOM     86  F   UNL     1       1.701   2.957   3.031  1.00  0.00    -0.207 F 
ATOM     87  C   UNL     1       0.209   1.151   2.757  1.00  0.00     0.042 A 
ENDBRANCH  78  80
ENDBRANCH  75  78
ENDBRANCH  68  75
ENDBRANCH  63  65
ENDBRANCH  62  63
ENDBRANCH   1  62
TORSDOF 14
