REMARK SMILES CC(=O)N[C@H](C(=O)NC1(CC(=O)OCCOC(=O)c2ccc(-c3c4nc(c(-c5c(F)cccc5F)c5ccc([nH]5)c(-c5c(F)cccc5F)c5nc(c(-c6c(F)cccc6F)c6ccc3[nH]6)C=C5)C=C4)cc2)CCC1)C(C)C
REMARK SMILES IDX 14 1 13 2 11 3 12 4 10 5 9 6 73 7 75 8 74 9 8 10 6 11 7 12
REMARK SMILES IDX 5 14 4 15 1 16 2 17 3 18 76 20 77 21 78 22 15 23 16 24 17 25
REMARK SMILES IDX 18 26 19 27 20 28 72 29 21 30 71 31 22 32 23 33 24 34 65 35
REMARK SMILES IDX 25 36 70 37 64 38 66 39 26 40 69 41 63 42 62 43 27 45 53 46
REMARK SMILES IDX 36 47 52 48 37 49 40 50 51 51 67 52 38 53 39 54 50 56 68 57
REMARK SMILES IDX 41 58 28 59 29 60 34 61 30 62 31 63 33 64 35 65 32 66 54 67
REMARK SMILES IDX 55 68 60 69 56 70 57 71 59 72 61 73 58 74 42 75 43 76 48 77
REMARK SMILES IDX 44 78 45 79 47 80 49 81 46 82
REMARK H PARENT 8 13 4 19 66 44 40 55
REMARK Flexibility Score: inf
ROOT
ATOM      1  C   UNL     1      -0.493   2.736  -1.749  1.00  0.00     0.274 C 
ENDROOT
BRANCH   1   2
ATOM      2  O   UNL     1      -0.430   1.356  -1.335  1.00  0.00    -0.462 OA
BRANCH   2   3
ATOM      3  C   UNL     1       0.763   0.730  -1.464  1.00  0.00     0.308 C 
ATOM      4  O   UNL     1       1.782   1.255  -1.899  1.00  0.00    -0.252 OA
BRANCH   3   5
ATOM      5  C   UNL     1       0.727  -0.730  -1.091  1.00  0.00     0.151 C 
BRANCH   5   6
ATOM      6  C   UNL     1      -0.368  -1.240  -0.148  1.00  0.00     0.051 C 
ATOM      7  C   UNL     1      -0.610  -2.781  -0.247  1.00  0.00     0.029 C 
ATOM      8  C   UNL     1      -1.861  -1.121  -0.640  1.00  0.00     0.029 C 
ATOM      9  C   UNL     1      -1.697  -2.502  -1.296  1.00  0.00     0.005 C 
BRANCH   6  10
ATOM     10  N   UNL     1      -0.196  -0.721   1.236  1.00  0.00    -0.348 N 
ATOM     11  C   UNL     1       0.537  -1.158   2.312  1.00  0.00     0.243 C 
ATOM     12  O   UNL     1       0.445  -0.532   3.374  1.00  0.00    -0.273 OA
ATOM     13  H   UNL     1      -0.709   0.100   1.416  1.00  0.00     0.164 HD
BRANCH  11  14
ATOM     14  C   UNL     1       1.510  -2.350   2.200  1.00  0.00     0.173 C 
BRANCH  14  15
ATOM     15  N   UNL     1       2.800  -1.800   2.658  1.00  0.00    -0.344 N 
ATOM     16  C   UNL     1       4.228  -2.595   0.823  1.00  0.00     0.114 C 
ATOM     17  C   UNL     1       4.056  -1.972   2.176  1.00  0.00     0.217 C 
ATOM     18  O   UNL     1       5.016  -1.571   2.828  1.00  0.00    -0.275 OA
ATOM     19  H   UNL     1       2.739  -1.211   3.444  1.00  0.00     0.164 HD
ENDBRANCH  14  15
BRANCH  14  20
ATOM     20  C   UNL     1       1.134  -3.508   3.166  1.00  0.00     0.015 C 
ATOM     21  C   UNL     1      -0.321  -3.969   3.085  1.00  0.00     0.010 C 
ATOM     22  C   UNL     1       2.044  -4.724   2.944  1.00  0.00     0.010 C 
ENDBRANCH  14  20
ENDBRANCH  11  14
ENDBRANCH   6  10
ENDBRANCH   5   6
ENDBRANCH   3   5
ENDBRANCH   2   3
ENDBRANCH   1   2
BRANCH   1  23
ATOM     23  C   UNL     1      -0.650   3.663  -0.545  1.00  0.00     0.275 C 
BRANCH  23  24
ATOM     24  O   UNL     1       0.509   3.599   0.303  1.00  0.00    -0.458 OA
BRANCH  24  25
ATOM     25  C   UNL     1       0.404   2.746   1.349  1.00  0.00     0.338 C 
ATOM     26  O   UNL     1      -0.563   2.073   1.661  1.00  0.00    -0.246 OA
BRANCH  25  27
ATOM     27  C   UNL     1       1.718   2.638   1.998  1.00  0.00     0.060 A 
ATOM     28  C   UNL     1       2.610   1.680   1.522  1.00  0.00     0.016 A 
ATOM     29  C   UNL     1       2.039   3.413   3.112  1.00  0.00     0.016 A 
ATOM     30  C   UNL     1       3.810   1.463   2.189  1.00  0.00     0.010 A 
ATOM     31  C   UNL     1       3.267   3.211   3.759  1.00  0.00     0.010 A 
ATOM     32  C   UNL     1       4.153   2.211   3.322  1.00  0.00    -0.014 A 
BRANCH  32  33
ATOM     33  C   UNL     1       5.407   1.898   4.064  1.00  0.00     0.031 A 
ATOM     34  C   UNL     1       5.347   1.434   5.496  1.00  0.00     0.074 A 
ATOM     35  C   UNL     1       6.606   1.979   3.453  1.00  0.00     0.049 A 
ATOM     36  N   UNL     1       6.320   1.284   6.361  1.00  0.00    -0.248 NA
ATOM     37  C   UNL     1       4.015   1.116   6.033  1.00  0.00     0.031 C 
ATOM     38  C   UNL     1       6.823   2.342   2.052  1.00  0.00     0.029 A 
ATOM     39  N   UNL     1       7.871   1.743   3.933  1.00  0.00    -0.354 N 
ATOM     40  C   UNL     1       5.715   0.910   7.554  1.00  0.00     0.074 A 
ATOM     41  C   UNL     1       4.290   0.855   7.303  1.00  0.00     0.031 C 
ATOM     42  C   UNL     1       8.132   2.257   1.773  1.00  0.00     0.029 A 
ATOM     43  C   UNL     1       8.857   1.916   2.993  1.00  0.00     0.049 A 
ATOM     44  H   UNL     1       8.054   1.476   4.862  1.00  0.00     0.167 HD
ATOM     45  C   UNL     1       6.295   0.642   8.748  1.00  0.00     0.037 A 
ATOM     46  C   UNL     1      10.197   1.842   3.102  1.00  0.00     0.037 A 
ATOM     47  C   UNL     1       7.716   0.619   8.981  1.00  0.00     0.049 A 
ATOM     48  C   UNL     1      10.818   1.558   4.439  1.00  0.00     0.074 A 
ATOM     49  C   UNL     1       8.394   0.353  10.159  1.00  0.00     0.029 A 
ATOM     50  N   UNL     1       8.678   0.842   8.009  1.00  0.00    -0.354 N 
ATOM     51  N   UNL     1      10.234   1.306   5.584  1.00  0.00    -0.248 NA
ATOM     52  C   UNL     1      12.287   1.579   4.504  1.00  0.00     0.031 C 
ATOM     53  C   UNL     1       9.768   0.438   9.905  1.00  0.00     0.029 A 
ATOM     54  C   UNL     1       9.944   0.729   8.562  1.00  0.00     0.049 A 
ATOM     55  H   UNL     1       8.490   1.050   7.065  1.00  0.00     0.167 HD
ATOM     56  C   UNL     1      11.259   1.140   6.504  1.00  0.00     0.074 A 
ATOM     57  C   UNL     1      12.504   1.296   5.781  1.00  0.00     0.031 C 
ATOM     58  C   UNL     1      11.174   0.892   7.833  1.00  0.00     0.037 A 
BRANCH  45  59
ATOM     59  C   UNL     1       5.389   0.387   9.915  1.00  0.00     0.057 A 
ATOM     60  C   UNL     1       4.714  -0.826  10.087  1.00  0.00     0.134 A 
ATOM     61  C   UNL     1       5.227   1.365  10.907  1.00  0.00     0.134 A 
ATOM     62  F   UNL     1       4.817  -1.799   9.169  1.00  0.00    -0.206 F 
ATOM     63  C   UNL     1       3.895  -1.053  11.196  1.00  0.00     0.040 A 
ATOM     64  C   UNL     1       4.429   1.142  12.029  1.00  0.00     0.040 A 
ATOM     65  F   UNL     1       5.853   2.547  10.806  1.00  0.00    -0.206 F 
ATOM     66  C   UNL     1       3.756  -0.069  12.174  1.00  0.00     0.006 A 
ENDBRANCH  45  59
BRANCH  46  67
ATOM     67  C   UNL     1      11.046   2.090   1.912  1.00  0.00     0.057 A 
ATOM     68  C   UNL     1      11.751   1.049   1.299  1.00  0.00     0.134 A 
ATOM     69  C   UNL     1      11.166   3.369   1.357  1.00  0.00     0.134 A 
ATOM     70  F   UNL     1      11.697  -0.193   1.802  1.00  0.00    -0.206 F 
ATOM     71  C   UNL     1      12.548   1.272   0.175  1.00  0.00     0.040 A 
ATOM     72  C   UNL     1      11.940   3.602   0.220  1.00  0.00     0.040 A 
ATOM     73  F   UNL     1      10.517   4.408   1.902  1.00  0.00    -0.206 F 
ATOM     74  C   UNL     1      12.637   2.551  -0.372  1.00  0.00     0.006 A 
ENDBRANCH  46  67
BRANCH  58  75
ATOM     75  C   UNL     1      12.464   0.767   8.585  1.00  0.00     0.057 A 
ATOM     76  C   UNL     1      13.220   1.894   8.931  1.00  0.00     0.134 A 
ATOM     77  C   UNL     1      12.941  -0.485   8.987  1.00  0.00     0.134 A 
ATOM     78  F   UNL     1      12.821   3.120   8.561  1.00  0.00    -0.206 F 
ATOM     79  C   UNL     1      14.418   1.777   9.637  1.00  0.00     0.040 A 
ATOM     80  C   UNL     1      14.129  -0.613   9.709  1.00  0.00     0.040 A 
ATOM     81  F   UNL     1      12.261  -1.602   8.690  1.00  0.00    -0.206 F 
ATOM     82  C   UNL     1      14.873   0.520  10.032  1.00  0.00     0.006 A 
ENDBRANCH  58  75
ENDBRANCH  32  33
ENDBRANCH  25  27
ENDBRANCH  24  25
ENDBRANCH  23  24
ENDBRANCH   1  23
TORSDOF 16
