REMARK SMILES O=C(OCCOC(=O)c1ccc(-c2c3nc(c(-c4c(F)cccc4F)c4ccc([nH]4)c(-c4c(F)cccc4F)c4nc(c(-c5c(F)cccc5F)c5ccc2[nH]5)C=C4)C=C3)cc1)C1=Cc2cc(Cl)cc(C#Cc3ccccc3)c2O[C@@H]1C(F)(F)F
REMARK SMILES IDX 4 1 3 2 2 3 1 4 63 5 64 6 81 7 65 8 80 9 66 10 79 11 67 12
REMARK SMILES IDX 70 13 68 14 69 15 82 16 83 17 84 18 85 19 71 20 72 21 73 22
REMARK SMILES IDX 74 23 78 24 75 25 77 26 76 27 5 28 6 29 7 30 8 31 9 32 10 33
REMARK SMILES IDX 62 34 11 35 61 36 12 37 13 38 14 39 55 40 15 41 60 42 54 43
REMARK SMILES IDX 56 44 16 45 59 46 53 47 52 48 17 50 43 51 26 52 42 53 27 54
REMARK SMILES IDX 30 55 41 56 57 57 28 58 29 59 40 61 58 62 31 63 18 64 19 65
REMARK SMILES IDX 24 66 20 67 21 68 23 69 25 70 22 71 44 72 45 73 50 74 46 75
REMARK SMILES IDX 47 76 49 77 51 78 48 79 32 80 33 81 38 82 34 83 35 84 37 85
REMARK SMILES IDX 39 86 36 87
REMARK H PARENT 56 49 30 60
REMARK Flexibility Score: inf
ROOT
ATOM      1  C   UNL     1       3.932  -0.662  -0.957  1.00  0.00     0.275 C 
ENDROOT
BRANCH   1   2
ATOM      2  O   UNL     1       3.123  -1.974  -1.196  1.00  0.00    -0.459 OA
BRANCH   2   3
ATOM      3  C   UNL     1       3.333  -2.913  -0.266  1.00  0.00     0.338 C 
ATOM      4  O   UNL     1       2.792  -3.971  -0.081  1.00  0.00    -0.246 OA
BRANCH   3   5
ATOM      5  C   UNL     1       4.125  -2.064   0.586  1.00  0.00     0.087 C 
ATOM      6  C   UNL     1       5.497  -1.919   0.069  1.00  0.00     0.027 C 
ATOM      7  C   UNL     1       2.831  -0.636   0.738  1.00  0.00     0.316 C 
ATOM      8  C   UNL     1       6.118  -0.387  -0.663  1.00  0.00     0.020 A 
ATOM      9  O   UNL     1       3.466   0.995  -0.077  1.00  0.00    -0.474 OA
ATOM     10  C   UNL     1       7.321  -0.457  -1.314  1.00  0.00     0.032 A 
ATOM     11  C   UNL     1       5.125   1.036  -0.838  1.00  0.00     0.143 A 
ATOM     12  C   UNL     1       7.632   0.660  -2.095  1.00  0.00     0.043 A 
ATOM     13  C   UNL     1       5.526   2.076  -1.637  1.00  0.00     0.069 A 
ATOM     14  Cl  UNL     1       9.105   0.588  -3.007  1.00  0.00    -0.084 Cl
ATOM     15  C   UNL     1       6.797   1.838  -2.246  1.00  0.00     0.041 A 
BRANCH   7  16
ATOM     16  C   UNL     1       2.288  -1.000   2.168  1.00  0.00     0.430 C 
ATOM     17  F   UNL     1       1.044  -0.544   2.366  1.00  0.00    -0.167 F 
ATOM     18  F   UNL     1       2.155  -2.361   2.241  1.00  0.00    -0.167 F 
ATOM     19  F   UNL     1       3.081  -0.731   3.219  1.00  0.00    -0.167 F 
ENDBRANCH   7  16
BRANCH  13  20
ATOM     20  C   UNL     1       4.840   3.255  -2.003  1.00  0.00    -0.058 C 
ATOM     21  C   UNL     1       4.475   4.300  -2.499  1.00  0.00    -0.062 C 
BRANCH  21  22
ATOM     22  C   UNL     1       4.176   5.528  -3.157  1.00  0.00     0.025 A 
ATOM     23  C   UNL     1       4.947   6.667  -2.902  1.00  0.00     0.017 A 
ATOM     24  C   UNL     1       3.122   5.597  -4.071  1.00  0.00     0.017 A 
ATOM     25  C   UNL     1       4.634   7.880  -3.520  1.00  0.00     0.001 A 
ATOM     26  C   UNL     1       2.810   6.811  -4.689  1.00  0.00     0.001 A 
ATOM     27  C   UNL     1       3.558   7.953  -4.404  1.00  0.00     0.000 A 
ENDBRANCH  21  22
ENDBRANCH  13  20
ENDBRANCH   3   5
ENDBRANCH   2   3
ENDBRANCH   1   2
BRANCH   1  28
ATOM     28  C   UNL     1       4.715   0.024   0.954  1.00  0.00     0.275 C 
BRANCH  28  29
ATOM     29  O   UNL     1       3.895   1.016   2.074  1.00  0.00    -0.458 OA
BRANCH  29  30
ATOM     30  C   UNL     1       3.078   2.109   2.197  1.00  0.00     0.338 C 
ATOM     31  O   UNL     1       2.708   2.908   1.359  1.00  0.00    -0.246 OA
BRANCH  30  32
ATOM     32  C   UNL     1       2.388   1.926   3.514  1.00  0.00     0.060 A 
ATOM     33  C   UNL     1       1.008   1.660   3.519  1.00  0.00     0.016 A 
ATOM     34  C   UNL     1       3.152   1.638   4.647  1.00  0.00     0.016 A 
ATOM     35  C   UNL     1       0.445   0.906   4.566  1.00  0.00     0.010 A 
ATOM     36  C   UNL     1       2.586   0.902   5.692  1.00  0.00     0.010 A 
ATOM     37  C   UNL     1       1.246   0.475   5.633  1.00  0.00    -0.014 A 
BRANCH  37  38
ATOM     38  C   UNL     1       0.642  -0.167   6.831  1.00  0.00     0.031 A 
ATOM     39  C   UNL     1       0.183   0.780   7.900  1.00  0.00     0.074 A 
ATOM     40  C   UNL     1       0.555  -1.500   7.021  1.00  0.00     0.049 A 
ATOM     41  N   UNL     1      -0.335   0.538   9.073  1.00  0.00    -0.248 NA
ATOM     42  C   UNL     1       0.371   2.211   7.600  1.00  0.00     0.031 C 
ATOM     43  C   UNL     1       0.976  -2.538   6.080  1.00  0.00     0.029 A 
ATOM     44  N   UNL     1       0.085  -2.213   8.104  1.00  0.00    -0.354 N 
ATOM     45  C   UNL     1      -0.539   1.786   9.643  1.00  0.00     0.074 A 
ATOM     46  C   UNL     1      -0.017   2.773   8.727  1.00  0.00     0.031 C 
ATOM     47  C   UNL     1       0.745  -3.751   6.627  1.00  0.00     0.029 A 
ATOM     48  C   UNL     1       0.170  -3.581   7.961  1.00  0.00     0.049 A 
ATOM     49  H   UNL     1      -0.281  -1.782   8.910  1.00  0.00     0.167 HD
ATOM     50  C   UNL     1      -1.137   2.098  10.813  1.00  0.00     0.037 A 
ATOM     51  C   UNL     1      -0.185  -4.568   8.814  1.00  0.00     0.037 A 
ATOM     52  C   UNL     1      -1.623   1.123  11.743  1.00  0.00     0.049 A 
ATOM     53  C   UNL     1      -0.787  -4.200  10.155  1.00  0.00     0.074 A 
ATOM     54  C   UNL     1      -2.241   1.324  12.961  1.00  0.00     0.029 A 
ATOM     55  N   UNL     1      -1.523  -0.247  11.556  1.00  0.00    -0.354 N 
ATOM     56  N   UNL     1      -1.058  -3.014  10.649  1.00  0.00    -0.248 NA
ATOM     57  C   UNL     1      -1.143  -5.311  11.054  1.00  0.00     0.031 C 
ATOM     58  C   UNL     1      -2.477   0.071  13.534  1.00  0.00     0.029 A 
ATOM     59  C   UNL     1      -2.055  -0.908  12.647  1.00  0.00     0.049 A 
ATOM     60  H   UNL     1      -1.133  -0.684  10.765  1.00  0.00     0.167 HD
ATOM     61  C   UNL     1      -1.660  -3.238  11.883  1.00  0.00     0.074 A 
ATOM     62  C   UNL     1      -1.717  -4.673  12.065  1.00  0.00     0.031 C 
ATOM     63  C   UNL     1      -2.130  -2.341  12.786  1.00  0.00     0.037 A 
BRANCH  50  64
ATOM     64  C   UNL     1      -1.252   3.559  11.121  1.00  0.00     0.057 A 
ATOM     65  C   UNL     1      -2.085   4.401  10.367  1.00  0.00     0.134 A 
ATOM     66  C   UNL     1      -0.448   4.149  12.101  1.00  0.00     0.134 A 
ATOM     67  F   UNL     1      -2.850   3.900   9.385  1.00  0.00    -0.206 F 
ATOM     68  C   UNL     1      -2.070   5.785  10.541  1.00  0.00     0.040 A 
ATOM     69  C   UNL     1      -0.451   5.529  12.306  1.00  0.00     0.040 A 
ATOM     70  F   UNL     1       0.378   3.401  12.847  1.00  0.00    -0.206 F 
ATOM     71  C   UNL     1      -1.250   6.351  11.514  1.00  0.00     0.006 A 
ENDBRANCH  50  64
BRANCH  51  72
ATOM     72  C   UNL     1      -0.032  -6.009   8.453  1.00  0.00     0.057 A 
ATOM     73  C   UNL     1      -1.155  -6.830   8.270  1.00  0.00     0.134 A 
ATOM     74  C   UNL     1       1.222  -6.626   8.379  1.00  0.00     0.134 A 
ATOM     75  F   UNL     1      -2.389  -6.314   8.365  1.00  0.00    -0.206 F 
ATOM     76  C   UNL     1      -1.039  -8.207   8.057  1.00  0.00     0.040 A 
ATOM     77  C   UNL     1       1.354  -8.000   8.143  1.00  0.00     0.040 A 
ATOM     78  F   UNL     1       2.342  -5.910   8.558  1.00  0.00    -0.206 F 
ATOM     79  C   UNL     1       0.221  -8.796   7.992  1.00  0.00     0.006 A 
ENDBRANCH  51  72
BRANCH  63  80
ATOM     80  C   UNL     1      -2.807  -2.872  14.016  1.00  0.00     0.057 A 
ATOM     81  C   UNL     1      -2.097  -3.488  15.053  1.00  0.00     0.134 A 
ATOM     82  C   UNL     1      -4.185  -2.688  14.195  1.00  0.00     0.134 A 
ATOM     83  F   UNL     1      -0.777  -3.700  14.942  1.00  0.00    -0.206 F 
ATOM     84  C   UNL     1      -2.736  -3.917  16.218  1.00  0.00     0.040 A 
ATOM     85  C   UNL     1      -4.829  -3.085  15.367  1.00  0.00     0.040 A 
ATOM     86  F   UNL     1      -4.922  -2.092  13.246  1.00  0.00    -0.206 F 
ATOM     87  C   UNL     1      -4.104  -3.706  16.381  1.00  0.00     0.006 A 
ENDBRANCH  63  80
ENDBRANCH  37  38
ENDBRANCH  30  32
ENDBRANCH  29  30
ENDBRANCH  28  29
ENDBRANCH   1  28
TORSDOF 14
