REMARK SMILES O=C(OCCOC(=O)c1ccc(S(=O)(=O)N[C@@H]2CC[N@H+]3CCC[C@H]23)cc1)c1ccc(-c2c3nc(c(-c4c(F)cccc4F)c4ccc([nH]4)c(-c4c(F)cccc4F)c4nc(c(-c5c(F)cccc5F)c5ccc2[nH]5)C=C4)C=C3)cc1
REMARK SMILES IDX 5 1 4 2 3 3 2 4 1 5 27 6 28 7 80 8 29 9 79 10 30 11 31 12
REMARK SMILES IDX 32 13 73 14 33 15 78 16 72 17 74 18 34 19 77 20 71 21 70 22
REMARK SMILES IDX 35 24 61 25 44 26 60 27 45 28 48 29 59 30 75 31 46 32 47 33
REMARK SMILES IDX 58 35 76 36 49 37 36 38 37 39 42 40 38 41 39 42 41 43 43 44
REMARK SMILES IDX 40 45 62 46 63 47 68 48 64 49 65 50 67 51 69 52 66 53 50 54
REMARK SMILES IDX 51 55 56 56 52 57 53 58 55 59 57 60 54 61 6 62 7 63 8 64
REMARK SMILES IDX 9 65 10 66 26 67 11 68 25 69 12 70 13 71 14 72 15 73 16 74
REMARK SMILES IDX 17 76 18 77 24 78 19 79 20 80 23 81 21 82 22 84
REMARK H PARENT 74 23 48 34 16 75 20 83
REMARK Flexibility Score: inf
ROOT
ATOM      1  C   UNL     1       3.927  -0.880   1.916  1.00  0.00     0.275 C 
ENDROOT
BRANCH   1   2
ATOM      2  C   UNL     1       4.161   0.542   1.390  1.00  0.00     0.275 C 
BRANCH   2   3
ATOM      3  O   UNL     1       3.163   1.023   0.472  1.00  0.00    -0.458 OA
BRANCH   3   4
ATOM      4  C   UNL     1       3.087   0.901  -0.875  1.00  0.00     0.338 C 
ATOM      5  O   UNL     1       2.256   1.577  -1.481  1.00  0.00    -0.246 OA
BRANCH   4   6
ATOM      6  C   UNL     1       3.849  -0.126  -1.657  1.00  0.00     0.060 A 
ATOM      7  C   UNL     1       5.077  -0.689  -1.305  1.00  0.00     0.016 A 
ATOM      8  C   UNL     1       3.242  -0.577  -2.841  1.00  0.00     0.016 A 
ATOM      9  C   UNL     1       5.622  -1.754  -2.027  1.00  0.00     0.010 A 
ATOM     10  C   UNL     1       3.780  -1.643  -3.567  1.00  0.00     0.010 A 
ATOM     11  C   UNL     1       4.963  -2.263  -3.142  1.00  0.00    -0.014 A 
BRANCH  11  12
ATOM     12  C   UNL     1       5.590  -3.322  -3.967  1.00  0.00     0.031 A 
ATOM     13  C   UNL     1       6.161  -2.896  -5.287  1.00  0.00     0.074 A 
ATOM     14  C   UNL     1       5.721  -4.589  -3.518  1.00  0.00     0.049 A 
ATOM     15  N   UNL     1       6.683  -3.622  -6.234  1.00  0.00    -0.248 NA
ATOM     16  C   UNL     1       6.209  -1.442  -5.547  1.00  0.00     0.031 C 
ATOM     17  C   UNL     1       5.458  -5.029  -2.149  1.00  0.00     0.029 A 
ATOM     18  N   UNL     1       6.119  -5.745  -4.146  1.00  0.00    -0.354 N 
ATOM     19  C   UNL     1       7.165  -2.715  -7.170  1.00  0.00     0.074 A 
ATOM     20  C   UNL     1       6.809  -1.391  -6.725  1.00  0.00     0.031 C 
ATOM     21  C   UNL     1       5.659  -6.355  -2.053  1.00  0.00     0.029 A 
ATOM     22  C   UNL     1       5.994  -6.883  -3.366  1.00  0.00     0.049 A 
ATOM     23  H   UNL     1       6.462  -5.764  -5.069  1.00  0.00     0.167 HD
ATOM     24  C   UNL     1       7.890  -2.979  -8.279  1.00  0.00     0.037 A 
ATOM     25  C   UNL     1       6.079  -8.188  -3.718  1.00  0.00     0.037 A 
ATOM     26  C   UNL     1       8.218  -4.314  -8.686  1.00  0.00     0.049 A 
ATOM     27  C   UNL     1       6.407  -8.419  -5.194  1.00  0.00     0.074 A 
ATOM     28  C   UNL     1       8.957  -4.736  -9.772  1.00  0.00     0.029 A 
ATOM     29  N   UNL     1       7.790  -5.450  -8.014  1.00  0.00    -0.354 N 
ATOM     30  N   UNL     1       6.927  -7.577  -6.060  1.00  0.00    -0.248 NA
ATOM     31  C   UNL     1       6.135  -9.746  -5.766  1.00  0.00     0.031 C 
ATOM     32  C   UNL     1       8.914  -6.133  -9.795  1.00  0.00     0.029 A 
ATOM     33  C   UNL     1       8.190  -6.579  -8.698  1.00  0.00     0.049 A 
ATOM     34  H   UNL     1       7.277  -5.450  -7.174  1.00  0.00     0.167 HD
ATOM     35  C   UNL     1       7.197  -8.314  -7.207  1.00  0.00     0.074 A 
ATOM     36  C   UNL     1       6.713  -9.654  -6.956  1.00  0.00     0.031 C 
ATOM     37  C   UNL     1       7.821  -7.929  -8.348  1.00  0.00     0.037 A 
BRANCH  24  38
ATOM     38  C   UNL     1       8.352  -1.819  -9.105  1.00  0.00     0.057 A 
ATOM     39  C   UNL     1       9.373  -0.964  -8.669  1.00  0.00     0.134 A 
ATOM     40  C   UNL     1       7.785  -1.562 -10.358  1.00  0.00     0.134 A 
ATOM     41  F   UNL     1       9.944  -1.142  -7.468  1.00  0.00    -0.206 F 
ATOM     42  C   UNL     1       9.805   0.113  -9.446  1.00  0.00     0.040 A 
ATOM     43  C   UNL     1       8.220  -0.500 -11.152  1.00  0.00     0.040 A 
ATOM     44  F   UNL     1       6.799  -2.339 -10.831  1.00  0.00    -0.206 F 
ATOM     45  C   UNL     1       9.232   0.343 -10.695  1.00  0.00     0.006 A 
ENDBRANCH  24  38
BRANCH  25  46
ATOM     46  C   UNL     1       5.748  -9.361  -2.808  1.00  0.00     0.057 A 
ATOM     47  C   UNL     1       6.477 -10.559  -2.885  1.00  0.00     0.134 A 
ATOM     48  C   UNL     1       4.607  -9.422  -1.982  1.00  0.00     0.134 A 
ATOM     49  F   UNL     1       7.629 -10.605  -3.571  1.00  0.00    -0.206 F 
ATOM     50  C   UNL     1       6.011 -11.767  -2.343  1.00  0.00     0.040 A 
ATOM     51  C   UNL     1       4.143 -10.615  -1.409  1.00  0.00     0.040 A 
ATOM     52  F   UNL     1       3.848  -8.342  -1.746  1.00  0.00    -0.206 F 
ATOM     53  C   UNL     1       4.821 -11.804  -1.629  1.00  0.00     0.006 A 
ENDBRANCH  25  46
BRANCH  37  54
ATOM     54  C   UNL     1       8.233  -9.001  -9.312  1.00  0.00     0.057 A 
ATOM     55  C   UNL     1       7.332  -9.638 -10.167  1.00  0.00     0.134 A 
ATOM     56  C   UNL     1       9.595  -9.313  -9.447  1.00  0.00     0.134 A 
ATOM     57  F   UNL     1       6.017  -9.393 -10.074  1.00  0.00    -0.206 F 
ATOM     58  C   UNL     1       7.770 -10.554 -11.124  1.00  0.00     0.040 A 
ATOM     59  C   UNL     1      10.047 -10.198 -10.422  1.00  0.00     0.040 A 
ATOM     60  F   UNL     1      10.511  -8.721  -8.664  1.00  0.00    -0.206 F 
ATOM     61  C   UNL     1       9.132 -10.824 -11.264  1.00  0.00     0.006 A 
ENDBRANCH  37  54
ENDBRANCH  11  12
ENDBRANCH   4   6
ENDBRANCH   3   4
ENDBRANCH   2   3
ENDBRANCH   1   2
BRANCH   1  62
ATOM     62  O   UNL     1       3.456  -1.799   0.917  1.00  0.00    -0.458 OA
BRANCH  62  63
ATOM     63  C   UNL     1       2.104  -1.934   0.844  1.00  0.00     0.338 C 
ATOM     64  O   UNL     1       1.282  -1.423   1.584  1.00  0.00    -0.246 OA
BRANCH  63  65
ATOM     65  C   UNL     1       1.749  -2.674  -0.388  1.00  0.00     0.060 A 
ATOM     66  C   UNL     1       0.771  -2.127  -1.224  1.00  0.00     0.017 A 
ATOM     67  C   UNL     1       2.404  -3.853  -0.761  1.00  0.00     0.017 A 
ATOM     68  C   UNL     1       0.492  -2.725  -2.455  1.00  0.00     0.022 A 
ATOM     69  C   UNL     1       2.126  -4.453  -1.999  1.00  0.00     0.022 A 
ATOM     70  C   UNL     1       1.179  -3.882  -2.851  1.00  0.00     0.082 A 
BRANCH  70  71
ATOM     71  S   UNL     1       0.793  -4.514  -4.471  1.00  0.00     0.241 S 
ATOM     72  O   UNL     1      -0.606  -4.860  -4.450  1.00  0.00    -0.207 OA
ATOM     73  O   UNL     1       1.329  -3.548  -5.410  1.00  0.00    -0.207 OA
BRANCH  71  74
ATOM     74  N   UNL     1       1.668  -5.902  -4.722  1.00  0.00    -0.202 NA
ATOM     75  H   UNL     1       2.637  -5.659  -4.519  1.00  0.00     0.141 HD
BRANCH  74  76
ATOM     76  C   UNL     1       1.416  -7.148  -4.023  1.00  0.00     0.133 C 
ATOM     77  C   UNL     1       2.511  -8.168  -4.353  1.00  0.00     0.087 C 
ATOM     78  C   UNL     1       0.132  -7.933  -4.268  1.00  0.00     0.202 C 
ATOM     79  C   UNL     1       1.869  -9.505  -3.991  1.00  0.00     0.264 C 
ATOM     80  N   UNL     1       0.635  -9.255  -4.666  1.00  0.00    -0.331 N 
ATOM     81  C   UNL     1      -0.857  -7.787  -5.396  1.00  0.00     0.072 C 
ATOM     82  C   UNL     1      -0.492 -10.134  -4.710  1.00  0.00     0.262 C 
ATOM     83  H   UNL     1       0.989  -9.402  -5.611  1.00  0.00     0.348 HD
ATOM     84  C   UNL     1      -1.436  -9.225  -5.516  1.00  0.00     0.068 C 
ENDBRANCH  74  76
ENDBRANCH  71  74
ENDBRANCH  70  71
ENDBRANCH  63  65
ENDBRANCH  62  63
ENDBRANCH   1  62
TORSDOF 14
