REMARK SMILES CC(C)[C@@H](NC(=O)[C@@H]1CC[C@H]2CCCC[C@@H]2[NH2+]1)C(=O)OCCOC(=O)c1ccc(-c2c3nc(c(-c4c(F)cccc4F)c4ccc([nH]4)c(-c4c(F)cccc4F)c4nc(c(-c5c(F)cccc5F)c5ccc2[nH]5)C=C4)C=C3)cc1
REMARK SMILES IDX 21 1 20 2 18 3 19 4 4 5 2 6 1 7 3 8 5 9 6 10 7 12 8 13 9 14
REMARK SMILES IDX 17 15 10 16 16 17 11 20 15 21 12 22 14 23 13 24 22 25 23 26
REMARK SMILES IDX 24 27 25 28 26 29 27 30 79 31 28 32 78 33 29 34 30 35 31 36
REMARK SMILES IDX 72 37 32 38 77 39 71 40 73 41 33 42 76 43 70 44 69 45 34 47
REMARK SMILES IDX 60 48 43 49 59 50 44 51 47 52 58 53 74 54 45 55 46 56 57 58
REMARK SMILES IDX 75 59 48 60 35 61 36 62 41 63 37 64 38 65 40 66 42 67 39 68
REMARK SMILES IDX 61 69 62 70 67 71 63 72 64 73 66 74 68 75 65 76 49 77 50 78
REMARK SMILES IDX 55 79 51 80 52 81 54 82 56 83 53 84
REMARK H PARENT 5 11 17 18 17 19 73 46 47 57
REMARK Flexibility Score: inf
ROOT
ATOM      1  C   UNL     1      -0.918  -3.272   3.334  1.00  0.00     0.274 C 
ENDROOT
BRANCH   1   2
ATOM      2  O   UNL     1      -2.350  -3.444   3.484  1.00  0.00    -0.461 OA
BRANCH   2   3
ATOM      3  C   UNL     1      -3.135  -2.924   2.502  1.00  0.00     0.329 C 
ATOM      4  O   UNL     1      -2.706  -2.517   1.425  1.00  0.00    -0.250 OA
BRANCH   3   5
ATOM      5  C   UNL     1      -4.600  -2.697   2.944  1.00  0.00     0.195 C 
BRANCH   5   6
ATOM      6  C   UNL     1      -5.210  -3.486   4.133  1.00  0.00     0.017 C 
ATOM      7  C   UNL     1      -6.740  -3.310   4.163  1.00  0.00     0.010 C 
ATOM      8  C   UNL     1      -4.923  -4.989   4.101  1.00  0.00     0.010 C 
ENDBRANCH   5   6
BRANCH   5   9
ATOM      9  N   UNL     1      -4.891  -1.249   3.010  1.00  0.00    -0.337 N 
ATOM     10  C   UNL     1      -4.255  -0.230   3.671  1.00  0.00     0.278 C 
ATOM     11  H   UNL     1      -5.678  -0.968   2.490  1.00  0.00     0.164 HD
ATOM     12  O   UNL     1      -4.859   0.841   3.768  1.00  0.00    -0.268 OA
BRANCH  10  13
ATOM     13  C   UNL     1      -2.832  -0.458   4.244  1.00  0.00     0.272 C 
ATOM     14  C   UNL     1      -2.918  -1.198   5.591  1.00  0.00     0.076 C 
ATOM     15  N   UNL     1      -2.027   0.764   4.137  1.00  0.00    -0.333 N 
ATOM     16  C   UNL     1      -2.257  -0.474   6.745  1.00  0.00     0.016 C 
ATOM     17  C   UNL     1      -1.770   1.508   5.357  1.00  0.00     0.186 C 
ATOM     18  H   UNL     1      -2.509   1.392   3.493  1.00  0.00     0.347 HD
ATOM     19  H   UNL     1      -1.109   0.444   3.829  1.00  0.00     0.347 HD
ATOM     20  C   UNL     1      -2.559   1.002   6.570  1.00  0.00     0.048 C 
ATOM     21  C   UNL     1      -2.052   2.986   5.088  1.00  0.00     0.065 C 
ATOM     22  C   UNL     1      -2.229   1.818   7.811  1.00  0.00     0.010 C 
ATOM     23  C   UNL     1      -1.830   3.831   6.340  1.00  0.00     0.006 C 
ATOM     24  C   UNL     1      -2.580   3.280   7.552  1.00  0.00     0.001 C 
ENDBRANCH  10  13
ENDBRANCH   5   9
ENDBRANCH   3   5
ENDBRANCH   2   3
ENDBRANCH   1   2
BRANCH   1  25
ATOM     25  C   UNL     1      -0.192  -4.606   3.226  1.00  0.00     0.275 C 
BRANCH  25  26
ATOM     26  O   UNL     1      -0.589  -5.262   2.018  1.00  0.00    -0.458 OA
BRANCH  26  27
ATOM     27  C   UNL     1      -1.691  -6.044   2.140  1.00  0.00     0.338 C 
ATOM     28  O   UNL     1      -2.226  -6.437   3.151  1.00  0.00    -0.246 OA
BRANCH  27  29
ATOM     29  C   UNL     1      -2.284  -6.125   0.803  1.00  0.00     0.060 A 
ATOM     30  C   UNL     1      -3.481  -5.442   0.568  1.00  0.00     0.016 A 
ATOM     31  C   UNL     1      -1.631  -6.805  -0.216  1.00  0.00     0.016 A 
ATOM     32  C   UNL     1      -4.004  -5.356  -0.708  1.00  0.00     0.010 A 
ATOM     33  C   UNL     1      -2.179  -6.767  -1.490  1.00  0.00     0.010 A 
ATOM     34  C   UNL     1      -3.351  -6.027  -1.735  1.00  0.00    -0.014 A 
BRANCH  34  35
ATOM     35  C   UNL     1      -3.942  -6.051  -3.075  1.00  0.00     0.031 A 
ATOM     36  C   UNL     1      -4.699  -7.270  -3.474  1.00  0.00     0.074 A 
ATOM     37  C   UNL     1      -3.736  -5.019  -3.906  1.00  0.00     0.049 A 
ATOM     38  N   UNL     1      -5.059  -7.663  -4.662  1.00  0.00    -0.248 NA
ATOM     39  C   UNL     1      -5.087  -8.180  -2.383  1.00  0.00     0.031 C 
ATOM     40  C   UNL     1      -3.089  -3.756  -3.545  1.00  0.00     0.029 A 
ATOM     41  N   UNL     1      -4.013  -4.891  -5.239  1.00  0.00    -0.354 N 
ATOM     42  C   UNL     1      -5.680  -8.887  -4.470  1.00  0.00     0.074 A 
ATOM     43  C   UNL     1      -5.651  -9.173  -3.053  1.00  0.00     0.031 C 
ATOM     44  C   UNL     1      -2.975  -2.997  -4.647  1.00  0.00     0.029 A 
ATOM     45  C   UNL     1      -3.479  -3.752  -5.790  1.00  0.00     0.049 A 
ATOM     46  H   UNL     1      -4.541  -5.546  -5.750  1.00  0.00     0.167 HD
ATOM     47  C   UNL     1      -6.208  -9.698  -5.413  1.00  0.00     0.037 A 
ATOM     48  C   UNL     1      -3.354  -3.408  -7.084  1.00  0.00     0.037 A 
ATOM     49  C   UNL     1      -6.200  -9.373  -6.813  1.00  0.00     0.049 A 
ATOM     50  C   UNL     1      -3.859  -4.373  -8.123  1.00  0.00     0.074 A 
ATOM     51  C   UNL     1      -6.705 -10.100  -7.873  1.00  0.00     0.029 A 
ATOM     52  N   UNL     1      -5.644  -8.215  -7.345  1.00  0.00    -0.354 N 
ATOM     53  N   UNL     1      -4.438  -5.540  -7.956  1.00  0.00    -0.248 NA
ATOM     54  C   UNL     1      -3.680  -3.986  -9.527  1.00  0.00     0.031 C 
ATOM     55  C   UNL     1      -6.403  -9.410  -9.051  1.00  0.00     0.029 A 
ATOM     56  C   UNL     1      -5.761  -8.224  -8.722  1.00  0.00     0.049 A 
ATOM     57  H   UNL     1      -5.227  -7.495  -6.818  1.00  0.00     0.167 HD
ATOM     58  C   UNL     1      -4.710  -6.019  -9.229  1.00  0.00     0.074 A 
ATOM     59  C   UNL     1      -4.248  -5.004 -10.158  1.00  0.00     0.031 C 
ATOM     60  C   UNL     1      -5.285  -7.188  -9.606  1.00  0.00     0.037 A 
BRANCH  47  61
ATOM     61  C   UNL     1      -6.765 -11.013  -4.961  1.00  0.00     0.057 A 
ATOM     62  C   UNL     1      -7.940 -11.108  -4.205  1.00  0.00     0.134 A 
ATOM     63  C   UNL     1      -6.109 -12.207  -5.286  1.00  0.00     0.134 A 
ATOM     64  F   UNL     1      -8.602 -10.001  -3.835  1.00  0.00    -0.206 F 
ATOM     65  C   UNL     1      -8.432 -12.341  -3.773  1.00  0.00     0.040 A 
ATOM     66  C   UNL     1      -6.606 -13.447  -4.883  1.00  0.00     0.040 A 
ATOM     67  F   UNL     1      -4.972 -12.189  -5.999  1.00  0.00    -0.206 F 
ATOM     68  C   UNL     1      -7.768 -13.516  -4.118  1.00  0.00     0.006 A 
ENDBRANCH  47  61
BRANCH  48  69
ATOM     69  C   UNL     1      -2.682  -2.139  -7.461  1.00  0.00     0.057 A 
ATOM     70  C   UNL     1      -3.395  -1.098  -8.063  1.00  0.00     0.134 A 
ATOM     71  C   UNL     1      -1.314  -1.934  -7.233  1.00  0.00     0.134 A 
ATOM     72  F   UNL     1      -4.702  -1.240  -8.326  1.00  0.00    -0.206 F 
ATOM     73  C   UNL     1      -2.773   0.095  -8.439  1.00  0.00     0.040 A 
ATOM     74  C   UNL     1      -0.685  -0.737  -7.578  1.00  0.00     0.040 A 
ATOM     75  F   UNL     1      -0.571  -2.891  -6.657  1.00  0.00    -0.206 F 
ATOM     76  C   UNL     1      -1.414   0.280  -8.190  1.00  0.00     0.006 A 
ENDBRANCH  48  69
BRANCH  60  77
ATOM     77  C   UNL     1      -5.462  -7.413 -11.078  1.00  0.00     0.057 A 
ATOM     78  C   UNL     1      -4.378  -7.707 -11.913  1.00  0.00     0.134 A 
ATOM     79  C   UNL     1      -6.740  -7.395 -11.650  1.00  0.00     0.134 A 
ATOM     80  F   UNL     1      -3.128  -7.725 -11.425  1.00  0.00    -0.206 F 
ATOM     81  C   UNL     1      -4.557  -7.960 -13.273  1.00  0.00     0.040 A 
ATOM     82  C   UNL     1      -6.935  -7.677 -13.002  1.00  0.00     0.040 A 
ATOM     83  F   UNL     1      -7.820  -7.130 -10.900  1.00  0.00    -0.206 F 
ATOM     84  C   UNL     1      -5.840  -7.955 -13.818  1.00  0.00     0.006 A 
ENDBRANCH  60  77
ENDBRANCH  34  35
ENDBRANCH  27  29
ENDBRANCH  26  27
ENDBRANCH  25  26
ENDBRANCH   1  25
TORSDOF 14
