REMARK SMILES CC[C@](C)(NC(=O)NC[C@@H](C)[NH+](C)C)C(=O)OCCOC(=O)c1ccc(-c2c3nc(c(-c4c(F)cccc4F)c4ccc([nH]4)c(-c4c(F)cccc4F)c4nc(c(-c5c(F)cccc5F)c5ccc2[nH]5)C=C4)C=C3)cc1
REMARK SMILES IDX 18 1 17 2 15 3 16 4 3 5 4 6 2 7 1 8 5 9 6 10 7 12 8 13 9 15
REMARK SMILES IDX 10 16 11 17 12 18 13 19 14 20 19 22 20 23 21 24 22 25 23 26
REMARK SMILES IDX 24 27 76 28 25 29 75 30 26 31 27 32 28 33 69 34 29 35 74 36
REMARK SMILES IDX 68 37 70 38 30 39 73 40 67 41 66 42 31 44 57 45 40 46 56 47
REMARK SMILES IDX 41 48 44 49 55 50 71 51 42 52 43 53 54 55 72 56 45 57 32 58
REMARK SMILES IDX 33 59 38 60 34 61 35 62 37 63 39 64 36 65 58 66 59 67 64 68
REMARK SMILES IDX 60 69 61 70 63 71 65 72 62 73 46 74 47 75 52 76 48 77 49 78
REMARK SMILES IDX 51 79 53 80 50 81
REMARK H PARENT 5 11 8 14 12 21 70 43 44 54
REMARK Flexibility Score: inf
ROOT
ATOM      1  C   UNL     1       4.660   2.033   0.871  1.00  0.00     0.274 C 
ENDROOT
BRANCH   1   2
ATOM      2  O   UNL     1       3.282   2.415   0.642  1.00  0.00    -0.460 OA
BRANCH   2   3
ATOM      3  C   UNL     1       2.515   1.567  -0.106  1.00  0.00     0.331 C 
ATOM      4  O   UNL     1       2.865   0.424  -0.376  1.00  0.00    -0.249 OA
BRANCH   3   5
ATOM      5  C   UNL     1       1.154   2.221  -0.557  1.00  0.00     0.136 C 
ATOM      6  C   UNL     1       0.055   1.429   0.202  1.00  0.00     0.047 C 
BRANCH   5   7
ATOM      7  C   UNL     1       0.818   2.093  -2.075  1.00  0.00     0.037 C 
ATOM      8  C   UNL     1       1.067   0.739  -2.720  1.00  0.00     0.007 C 
ENDBRANCH   5   7
BRANCH   5   9
ATOM      9  N   UNL     1       1.027   3.656  -0.161  1.00  0.00    -0.322 N 
ATOM     10  C   UNL     1       1.504   4.822  -0.631  1.00  0.00     0.315 C 
ATOM     11  H   UNL     1       0.458   3.776   0.633  1.00  0.00     0.166 HD
ATOM     12  O   UNL     1       0.950   5.859  -0.261  1.00  0.00    -0.249 OA
ATOM     13  N   UNL     1       2.537   4.929  -1.489  1.00  0.00    -0.332 N 
ATOM     14  H   UNL     1       2.556   5.749  -2.033  1.00  0.00     0.165 HD
BRANCH  13  15
ATOM     15  C   UNL     1       3.622   4.002  -1.719  1.00  0.00     0.182 C 
BRANCH  15  16
ATOM     16  C   UNL     1       4.575   4.253  -2.909  1.00  0.00     0.200 C 
ATOM     17  C   UNL     1       5.771   5.077  -2.404  1.00  0.00     0.077 C 
BRANCH  16  18
ATOM     18  N   UNL     1       4.952   2.983  -3.594  1.00  0.00    -0.336 N 
ATOM     19  C   UNL     1       5.900   3.173  -4.687  1.00  0.00     0.332 C 
ATOM     20  C   UNL     1       5.406   1.886  -2.742  1.00  0.00     0.332 C 
ATOM     21  H   UNL     1       4.050   2.689  -3.967  1.00  0.00     0.347 HD
ENDBRANCH  16  18
ENDBRANCH  15  16
ENDBRANCH  13  15
ENDBRANCH   5   9
ENDBRANCH   3   5
ENDBRANCH   2   3
ENDBRANCH   1   2
BRANCH   1  22
ATOM     22  C   UNL     1       5.353   3.089   1.749  1.00  0.00     0.275 C 
BRANCH  22  23
ATOM     23  O   UNL     1       5.127   2.774   3.126  1.00  0.00    -0.458 OA
BRANCH  23  24
ATOM     24  C   UNL     1       3.845   3.009   3.488  1.00  0.00     0.338 C 
ATOM     25  O   UNL     1       3.178   3.992   3.230  1.00  0.00    -0.246 OA
BRANCH  24  26
ATOM     26  C   UNL     1       3.291   1.713   3.913  1.00  0.00     0.060 A 
ATOM     27  C   UNL     1       2.057   1.352   3.364  1.00  0.00     0.016 A 
ATOM     28  C   UNL     1       3.979   0.855   4.772  1.00  0.00     0.016 A 
ATOM     29  C   UNL     1       1.457   0.158   3.722  1.00  0.00     0.010 A 
ATOM     30  C   UNL     1       3.363  -0.326   5.171  1.00  0.00     0.010 A 
ATOM     31  C   UNL     1       2.073  -0.630   4.698  1.00  0.00    -0.014 A 
BRANCH  31  32
ATOM     32  C   UNL     1       1.206  -1.501   5.510  1.00  0.00     0.031 A 
ATOM     33  C   UNL     1       0.673  -0.905   6.784  1.00  0.00     0.074 A 
ATOM     34  C   UNL     1       0.855  -2.725   5.093  1.00  0.00     0.049 A 
ATOM     35  N   UNL     1       0.022  -1.470   7.763  1.00  0.00    -0.248 NA
ATOM     36  C   UNL     1       0.925   0.535   6.986  1.00  0.00     0.031 C 
ATOM     37  C   UNL     1       1.235  -3.329   3.817  1.00  0.00     0.029 A 
ATOM     38  N   UNL     1       0.091  -3.677   5.709  1.00  0.00    -0.354 N 
ATOM     39  C   UNL     1      -0.162  -0.469   8.711  1.00  0.00     0.074 A 
ATOM     40  C   UNL     1       0.444   0.734   8.200  1.00  0.00     0.031 C 
ATOM     41  C   UNL     1       0.706  -4.563   3.750  1.00  0.00     0.029 A 
ATOM     42  C   UNL     1      -0.001  -4.845   4.996  1.00  0.00     0.049 A 
ATOM     43  H   UNL     1      -0.349  -3.537   6.578  1.00  0.00     0.167 HD
ATOM     44  C   UNL     1      -0.783  -0.559   9.908  1.00  0.00     0.037 A 
ATOM     45  C   UNL     1      -0.568  -6.013   5.348  1.00  0.00     0.037 A 
ATOM     46  C   UNL     1      -1.405  -1.767  10.370  1.00  0.00     0.049 A 
ATOM     47  C   UNL     1      -1.224  -6.103   6.701  1.00  0.00     0.074 A 
ATOM     48  C   UNL     1      -2.046  -2.011  11.568  1.00  0.00     0.029 A 
ATOM     49  N   UNL     1      -1.468  -2.939   9.627  1.00  0.00    -0.354 N 
ATOM     50  N   UNL     1      -1.336  -5.181   7.630  1.00  0.00    -0.248 NA
ATOM     51  C   UNL     1      -1.826  -7.392   7.058  1.00  0.00     0.031 C 
ATOM     52  C   UNL     1      -2.472  -3.345  11.562  1.00  0.00     0.029 A 
ATOM     53  C   UNL     1      -2.138  -3.914  10.340  1.00  0.00     0.049 A 
ATOM     54  H   UNL     1      -1.091  -3.057   8.725  1.00  0.00     0.167 HD
ATOM     55  C   UNL     1      -2.046  -5.767   8.669  1.00  0.00     0.074 A 
ATOM     56  C   UNL     1      -2.346  -7.122   8.247  1.00  0.00     0.031 C 
ATOM     57  C   UNL     1      -2.422  -5.244   9.864  1.00  0.00     0.037 A 
BRANCH  44  58
ATOM     58  C   UNL     1      -0.752   0.654  10.792  1.00  0.00     0.057 A 
ATOM     59  C   UNL     1      -1.472   1.819  10.498  1.00  0.00     0.134 A 
ATOM     60  C   UNL     1       0.048   0.666  11.943  1.00  0.00     0.134 A 
ATOM     61  F   UNL     1      -2.230   1.889   9.393  1.00  0.00    -0.206 F 
ATOM     62  C   UNL     1      -1.377   2.960  11.299  1.00  0.00     0.040 A 
ATOM     63  C   UNL     1       0.129   1.790  12.767  1.00  0.00     0.040 A 
ATOM     64  F   UNL     1       0.774  -0.411  12.279  1.00  0.00    -0.206 F 
ATOM     65  C   UNL     1      -0.578   2.945  12.441  1.00  0.00     0.006 A 
ENDBRANCH  44  58
BRANCH  45  66
ATOM     66  C   UNL     1      -0.522  -7.174   4.424  1.00  0.00     0.057 A 
ATOM     67  C   UNL     1      -1.683  -7.667   3.818  1.00  0.00     0.134 A 
ATOM     68  C   UNL     1       0.685  -7.814   4.114  1.00  0.00     0.134 A 
ATOM     69  F   UNL     1      -2.873  -7.111   4.087  1.00  0.00    -0.206 F 
ATOM     70  C   UNL     1      -1.648  -8.759   2.947  1.00  0.00     0.040 A 
ATOM     71  C   UNL     1       0.738  -8.890   3.226  1.00  0.00     0.040 A 
ATOM     72  F   UNL     1       1.835  -7.390   4.658  1.00  0.00    -0.206 F 
ATOM     73  C   UNL     1      -0.433  -9.369   2.644  1.00  0.00     0.006 A 
ENDBRANCH  45  66
BRANCH  57  74
ATOM     74  C   UNL     1      -3.241  -6.126  10.755  1.00  0.00     0.057 A 
ATOM     75  C   UNL     1      -2.682  -7.207  11.444  1.00  0.00     0.134 A 
ATOM     76  C   UNL     1      -4.604  -5.864  10.944  1.00  0.00     0.134 A 
ATOM     77  F   UNL     1      -1.384  -7.512  11.296  1.00  0.00    -0.206 F 
ATOM     78  C   UNL     1      -3.460  -8.021  12.268  1.00  0.00     0.040 A 
ATOM     79  C   UNL     1      -5.385  -6.653  11.786  1.00  0.00     0.040 A 
ATOM     80  F   UNL     1      -5.193  -4.832  10.320  1.00  0.00    -0.206 F 
ATOM     81  C   UNL     1      -4.814  -7.741  12.444  1.00  0.00     0.006 A 
ENDBRANCH  57  74
ENDBRANCH  31  32
ENDBRANCH  24  26
ENDBRANCH  23  24
ENDBRANCH  22  23
ENDBRANCH   1  22
TORSDOF 16
