REMARK SMILES O=C(CSc1nc2[nH]cnc2c(=O)[nH]1)NCCC(=O)OCCOC(=O)c1ccc(-c2c3nc(c(-c4c(F)cccc4F)c4ccc([nH]4)c(-c4c(F)cccc4F)c4nc(c(-c5c(F)cccc5F)c5ccc2[nH]5)C=C4)C=C3)cc1
REMARK SMILES IDX 20 1 18 2 19 3 17 4 16 5 15 6 1 7 2 8 3 10 4 11 5 12 6 13
REMARK SMILES IDX 14 14 7 15 12 16 8 18 11 19 13 20 9 21 10 23 21 24 22 25
REMARK SMILES IDX 23 26 24 27 25 28 26 29 27 30 79 31 28 32 78 33 29 34 30 35
REMARK SMILES IDX 31 36 72 37 32 38 77 39 71 40 73 41 33 42 76 43 70 44 69 45
REMARK SMILES IDX 34 47 60 48 43 49 59 50 44 51 47 52 58 53 74 54 45 55 46 56
REMARK SMILES IDX 57 58 75 59 48 60 35 61 36 62 41 63 37 64 38 65 40 66 42 67
REMARK SMILES IDX 39 68 61 69 62 70 67 71 63 72 64 73 66 74 68 75 65 76 49 77
REMARK SMILES IDX 50 78 55 79 51 80 52 81 54 82 56 83 53 84
REMARK H PARENT 15 9 14 17 8 22 73 46 47 57
REMARK Flexibility Score: inf
ROOT
ATOM      1  O   UNL     1       4.890  -2.667   1.012  1.00  0.00    -0.462 OA
ENDROOT
BRANCH   1   2
ATOM      2  C   UNL     1       3.936  -3.631   1.105  1.00  0.00     0.307 C 
ATOM      3  O   UNL     1       4.152  -4.802   1.393  1.00  0.00    -0.252 OA
BRANCH   2   4
ATOM      4  C   UNL     1       2.560  -3.123   0.748  1.00  0.00     0.144 C 
BRANCH   4   5
ATOM      5  C   UNL     1       2.193  -1.814   1.431  1.00  0.00     0.127 C 
BRANCH   5   6
ATOM      6  N   UNL     1       2.771  -0.672   0.757  1.00  0.00    -0.355 N 
ATOM      7  O   UNL     1       0.900  -0.139  -0.443  1.00  0.00    -0.274 OA
ATOM      8  C   UNL     1       2.069   0.096  -0.141  1.00  0.00     0.230 C 
ATOM      9  H   UNL     1       3.706  -0.434   0.951  1.00  0.00     0.163 HD
BRANCH   8  10
ATOM     10  C   UNL     1       2.869   1.161  -0.870  1.00  0.00     0.178 C 
BRANCH  10  11
ATOM     11  S   UNL     1       4.136   1.978   0.140  1.00  0.00    -0.078 SA
BRANCH  11  12
ATOM     12  C   UNL     1       3.105   2.931   1.161  1.00  0.00     0.170 A 
ATOM     13  N   UNL     1       2.185   2.390   1.901  1.00  0.00    -0.204 NA
ATOM     14  N   UNL     1       3.401   4.275   1.097  1.00  0.00    -0.299 N 
ATOM     15  C   UNL     1       1.520   3.310   2.634  1.00  0.00     0.165 A 
ATOM     16  C   UNL     1       2.730   5.243   1.827  1.00  0.00     0.279 A 
ATOM     17  H   UNL     1       4.128   4.563   0.500  1.00  0.00     0.172 HD
ATOM     18  N   UNL     1       0.515   3.055   3.517  1.00  0.00    -0.329 N 
ATOM     19  C   UNL     1       1.700   4.674   2.673  1.00  0.00     0.172 A 
ATOM     20  O   UNL     1       3.010   6.434   1.736  1.00  0.00    -0.267 OA
ATOM     21  C   UNL     1       0.136   4.260   4.052  1.00  0.00     0.199 A 
ATOM     22  H   UNL     1       0.133   2.173   3.731  1.00  0.00     0.169 HD
ATOM     23  N   UNL     1       0.834   5.264   3.558  1.00  0.00    -0.229 NA
ENDBRANCH  11  12
ENDBRANCH  10  11
ENDBRANCH   8  10
ENDBRANCH   5   6
ENDBRANCH   4   5
ENDBRANCH   2   4
ENDBRANCH   1   2
BRANCH   1  24
ATOM     24  C   UNL     1       6.247  -3.083   1.271  1.00  0.00     0.274 C 
BRANCH  24  25
ATOM     25  C   UNL     1       6.685  -2.767   2.703  1.00  0.00     0.275 C 
BRANCH  25  26
ATOM     26  O   UNL     1       5.992  -3.584   3.665  1.00  0.00    -0.458 OA
BRANCH  26  27
ATOM     27  C   UNL     1       4.880  -3.021   4.186  1.00  0.00     0.338 C 
ATOM     28  O   UNL     1       4.448  -1.901   3.965  1.00  0.00    -0.246 OA
BRANCH  27  29
ATOM     29  C   UNL     1       4.149  -3.998   5.007  1.00  0.00     0.060 A 
ATOM     30  C   UNL     1       2.851  -4.342   4.620  1.00  0.00     0.016 A 
ATOM     31  C   UNL     1       4.682  -4.470   6.207  1.00  0.00     0.016 A 
ATOM     32  C   UNL     1       2.062  -5.130   5.453  1.00  0.00     0.010 A 
ATOM     33  C   UNL     1       3.890  -5.268   7.040  1.00  0.00     0.010 A 
ATOM     34  C   UNL     1       2.566  -5.576   6.682  1.00  0.00    -0.014 A 
BRANCH  34  35
ATOM     35  C   UNL     1       1.664  -6.279   7.627  1.00  0.00     0.031 A 
ATOM     36  C   UNL     1       1.125  -5.546   8.824  1.00  0.00     0.074 A 
ATOM     37  C   UNL     1       1.297  -7.552   7.394  1.00  0.00     0.049 A 
ATOM     38  N   UNL     1       0.337  -5.978   9.775  1.00  0.00    -0.248 NA
ATOM     39  C   UNL     1       1.529  -4.139   8.970  1.00  0.00     0.031 C 
ATOM     40  C   UNL     1       1.723  -8.358   6.251  1.00  0.00     0.029 A 
ATOM     41  N   UNL     1       0.475  -8.386   8.108  1.00  0.00    -0.354 N 
ATOM     42  C   UNL     1       0.166  -4.905  10.642  1.00  0.00     0.074 A 
ATOM     43  C   UNL     1       0.948  -3.808  10.115  1.00  0.00     0.031 C 
ATOM     44  C   UNL     1       1.151  -9.571   6.337  1.00  0.00     0.029 A 
ATOM     45  C   UNL     1       0.347  -9.636   7.555  1.00  0.00     0.049 A 
ATOM     46  H   UNL     1       0.020  -8.115   8.938  1.00  0.00     0.167 HD
ATOM     47  C   UNL     1      -0.581  -4.839  11.770  1.00  0.00     0.037 A 
ATOM     48  C   UNL     1      -0.333 -10.714   7.989  1.00  0.00     0.037 A 
ATOM     49  C   UNL     1      -1.376  -5.924  12.284  1.00  0.00     0.049 A 
ATOM     50  C   UNL     1      -1.125 -10.625   9.264  1.00  0.00     0.074 A 
ATOM     51  C   UNL     1      -2.186  -5.944  13.406  1.00  0.00     0.029 A 
ATOM     52  N   UNL     1      -1.461  -7.182  11.707  1.00  0.00    -0.354 N 
ATOM     53  N   UNL     1      -1.292  -9.601  10.065  1.00  0.00    -0.248 NA
ATOM     54  C   UNL     1      -1.825 -11.844   9.694  1.00  0.00     0.031 C 
ATOM     55  C   UNL     1      -2.732  -7.227  13.529  1.00  0.00     0.029 A 
ATOM     56  C   UNL     1      -2.295  -7.992  12.460  1.00  0.00     0.049 A 
ATOM     57  H   UNL     1      -0.996  -7.458  10.884  1.00  0.00     0.167 HD
ATOM     58  C   UNL     1      -2.139 -10.041  11.075  1.00  0.00     0.074 A 
ATOM     59  C   UNL     1      -2.457 -11.423  10.781  1.00  0.00     0.031 C 
ATOM     60  C   UNL     1      -2.612  -9.361  12.147  1.00  0.00     0.037 A 
BRANCH  47  61
ATOM     61  C   UNL     1      -0.552  -3.553  12.540  1.00  0.00     0.057 A 
ATOM     62  C   UNL     1      -1.206  -2.400  12.087  1.00  0.00     0.134 A 
ATOM     63  C   UNL     1       0.120  -3.475  13.767  1.00  0.00     0.134 A 
ATOM     64  F   UNL     1      -1.854  -2.405  10.912  1.00  0.00    -0.206 F 
ATOM     65  C   UNL     1      -1.175  -1.210  12.815  1.00  0.00     0.040 A 
ATOM     66  C   UNL     1       0.140  -2.297  14.515  1.00  0.00     0.040 A 
ATOM     67  F   UNL     1       0.764  -4.543  14.260  1.00  0.00    -0.206 F 
ATOM     68  C   UNL     1      -0.505  -1.158  14.037  1.00  0.00     0.006 A 
ENDBRANCH  47  61
BRANCH  48  69
ATOM     69  C   UNL     1      -0.302 -11.975   7.207  1.00  0.00     0.057 A 
ATOM     70  C   UNL     1      -1.435 -12.430   6.524  1.00  0.00     0.134 A 
ATOM     71  C   UNL     1       0.854 -12.761   7.139  1.00  0.00     0.134 A 
ATOM     72  F   UNL     1      -2.578 -11.730   6.572  1.00  0.00    -0.206 F 
ATOM     73  C   UNL     1      -1.426 -13.630   5.812  1.00  0.00     0.040 A 
ATOM     74  C   UNL     1       0.885 -13.952   6.412  1.00  0.00     0.040 A 
ATOM     75  F   UNL     1       1.972 -12.379   7.773  1.00  0.00    -0.206 F 
ATOM     76  C   UNL     1      -0.261 -14.393   5.751  1.00  0.00     0.006 A 
ENDBRANCH  48  69
BRANCH  60  77
ATOM     77  C   UNL     1      -3.559 -10.088  13.055  1.00  0.00     0.057 A 
ATOM     78  C   UNL     1      -3.123 -11.086  13.935  1.00  0.00     0.134 A 
ATOM     79  C   UNL     1      -4.922  -9.765  13.067  1.00  0.00     0.134 A 
ATOM     80  F   UNL     1      -1.832 -11.451  13.963  1.00  0.00    -0.206 F 
ATOM     81  C   UNL     1      -4.013 -11.755  14.778  1.00  0.00     0.040 A 
ATOM     82  C   UNL     1      -5.818 -10.409  13.922  1.00  0.00     0.040 A 
ATOM     83  F   UNL     1      -5.403  -8.812  12.254  1.00  0.00    -0.206 F 
ATOM     84  C   UNL     1      -5.364 -11.412  14.776  1.00  0.00     0.006 A 
ENDBRANCH  60  77
ENDBRANCH  34  35
ENDBRANCH  27  29
ENDBRANCH  26  27
ENDBRANCH  25  26
ENDBRANCH  24  25
ENDBRANCH   1  24
TORSDOF 16
