REMARK SMILES O=C(C[C@H]([NH2+]Cc1ccccc1C1CC1)c1cccs1)OCCOC(=O)c1ccc(-c2c3nc(c(-c4c(F)cccc4F)c4ccc([nH]4)c(-c4c(F)cccc4F)c4nc(c(-c5c(F)cccc5F)c5ccc2[nH]5)C=C4)C=C3)cc1
REMARK SMILES IDX 21 1 2 2 1 3 3 4 4 5 16 6 17 7 20 8 18 9 19 10 5 11 6 14
REMARK SMILES IDX 7 15 8 16 12 17 9 18 11 19 10 20 13 21 14 22 15 23 22 24
REMARK SMILES IDX 23 25 24 26 25 27 26 28 27 29 28 30 80 31 29 32 79 33 30 34
REMARK SMILES IDX 31 35 32 36 73 37 33 38 78 39 72 40 74 41 34 42 77 43 71 44
REMARK SMILES IDX 70 45 35 47 61 48 44 49 60 50 45 51 48 52 59 53 75 54 46 55
REMARK SMILES IDX 47 56 58 58 76 59 49 60 36 61 37 62 42 63 38 64 39 65 41 66
REMARK SMILES IDX 43 67 40 68 62 69 63 70 68 71 64 72 65 73 67 74 69 75 66 76
REMARK SMILES IDX 50 77 51 78 56 79 52 80 53 81 55 82 57 83 54 84
REMARK H PARENT 5 12 5 13 74 46 48 57
REMARK Flexibility Score: inf
ROOT
ATOM      1  O   UNL     1       5.160  -0.133   1.209  1.00  0.00    -0.462 OA
ENDROOT
BRANCH   1   2
ATOM      2  C   UNL     1       5.333  -0.343  -0.123  1.00  0.00     0.312 C 
ATOM      3  O   UNL     1       6.161  -1.166  -0.499  1.00  0.00    -0.252 OA
BRANCH   2   4
ATOM      4  C   UNL     1       4.606   0.568  -1.093  1.00  0.00     0.193 C 
BRANCH   4   5
ATOM      5  C   UNL     1       3.684  -0.090  -2.121  1.00  0.00     0.235 C 
BRANCH   5   6
ATOM      6  C   UNL     1       4.470  -0.747  -3.240  1.00  0.00     0.062 A 
ATOM      7  C   UNL     1       4.978  -0.110  -4.361  1.00  0.00     0.021 A 
ATOM      8  S   UNL     1       4.871  -2.414  -3.256  1.00  0.00    -0.143 S 
ATOM      9  C   UNL     1       5.734  -0.976  -5.198  1.00  0.00     0.012 A 
ATOM     10  C   UNL     1       5.752  -2.263  -4.713  1.00  0.00     0.065 A 
ENDBRANCH   5   6
BRANCH   5  11
ATOM     11  N   UNL     1       2.666  -0.952  -1.541  1.00  0.00    -0.335 N 
ATOM     12  H   UNL     1       3.076  -1.417  -0.731  1.00  0.00     0.347 HD
ATOM     13  H   UNL     1       2.385  -1.587  -2.288  1.00  0.00     0.347 HD
BRANCH  11  14
ATOM     14  C   UNL     1       1.442  -0.289  -1.105  1.00  0.00     0.298 C 
BRANCH  14  15
ATOM     15  C   UNL     1       0.680  -1.165  -0.129  1.00  0.00     0.010 A 
ATOM     16  C   UNL     1       0.569  -0.683   1.200  1.00  0.00     0.010 A 
ATOM     17  C   UNL     1       0.153  -2.437  -0.458  1.00  0.00    -0.036 A 
ATOM     18  C   UNL     1       0.059  -1.469   2.228  1.00  0.00     0.001 A 
ATOM     19  C   UNL     1      -0.321  -3.217   0.628  1.00  0.00     0.004 A 
ATOM     20  C   UNL     1      -0.357  -2.756   1.946  1.00  0.00     0.000 A 
BRANCH  17  21
ATOM     21  C   UNL     1      -0.032  -3.063  -1.838  1.00  0.00     0.020 C 
ATOM     22  C   UNL     1       0.429  -2.553  -3.174  1.00  0.00     0.009 C 
ATOM     23  C   UNL     1       1.146  -3.704  -2.530  1.00  0.00     0.009 C 
ENDBRANCH  17  21
ENDBRANCH  14  15
ENDBRANCH  11  14
ENDBRANCH   5  11
ENDBRANCH   4   5
ENDBRANCH   2   4
ENDBRANCH   1   2
BRANCH   1  24
ATOM     24  C   UNL     1       3.951   0.398   1.780  1.00  0.00     0.274 C 
BRANCH  24  25
ATOM     25  C   UNL     1       4.099   1.836   2.284  1.00  0.00     0.275 C 
BRANCH  25  26
ATOM     26  O   UNL     1       4.615   2.688   1.249  1.00  0.00    -0.458 OA
BRANCH  26  27
ATOM     27  C   UNL     1       5.968   2.800   1.236  1.00  0.00     0.338 C 
ATOM     28  O   UNL     1       6.739   2.436   2.107  1.00  0.00    -0.246 OA
BRANCH  27  29
ATOM     29  C   UNL     1       6.405   3.259  -0.100  1.00  0.00     0.060 A 
ATOM     30  C   UNL     1       7.536   2.650  -0.661  1.00  0.00     0.016 A 
ATOM     31  C   UNL     1       5.708   4.242  -0.809  1.00  0.00     0.016 A 
ATOM     32  C   UNL     1       8.004   3.056  -1.911  1.00  0.00     0.010 A 
ATOM     33  C   UNL     1       6.185   4.658  -2.055  1.00  0.00     0.010 A 
ATOM     34  C   UNL     1       7.357   4.095  -2.591  1.00  0.00    -0.014 A 
BRANCH  34  35
ATOM     35  C   UNL     1       8.024   4.765  -3.732  1.00  0.00     0.031 A 
ATOM     36  C   UNL     1       8.866   5.974  -3.439  1.00  0.00     0.074 A 
ATOM     37  C   UNL     1       7.866   4.346  -4.998  1.00  0.00     0.049 A 
ATOM     38  N   UNL     1       9.474   6.785  -4.264  1.00  0.00    -0.248 NA
ATOM     39  C   UNL     1       9.033   6.318  -2.017  1.00  0.00     0.031 C 
ATOM     40  C   UNL     1       7.104   3.172  -5.410  1.00  0.00     0.029 A 
ATOM     41  N   UNL     1       8.322   4.885  -6.176  1.00  0.00    -0.354 N 
ATOM     42  C   UNL     1      10.091   7.736  -3.463  1.00  0.00     0.074 A 
ATOM     43  C   UNL     1       9.758   7.421  -2.091  1.00  0.00     0.031 C 
ATOM     44  C   UNL     1       7.106   3.100  -6.753  1.00  0.00     0.029 A 
ATOM     45  C   UNL     1       7.857   4.234  -7.292  1.00  0.00     0.049 A 
ATOM     46  H   UNL     1       8.924   5.662  -6.216  1.00  0.00     0.167 HD
ATOM     47  C   UNL     1      10.871   8.777  -3.835  1.00  0.00     0.037 A 
ATOM     48  C   UNL     1       8.001   4.538  -8.597  1.00  0.00     0.037 A 
ATOM     49  C   UNL     1      11.190   9.100  -5.198  1.00  0.00     0.049 A 
ATOM     50  C   UNL     1       8.818   5.739  -8.996  1.00  0.00     0.074 A 
ATOM     51  C   UNL     1      11.996  10.116  -5.677  1.00  0.00     0.029 A 
ATOM     52  N   UNL     1      10.701   8.418  -6.302  1.00  0.00    -0.354 N 
ATOM     53  N   UNL     1       9.441   6.605  -8.232  1.00  0.00    -0.248 NA
ATOM     54  C   UNL     1       8.957   6.004 -10.436  1.00  0.00     0.031 C 
ATOM     55  C   UNL     1      11.954  10.081  -7.075  1.00  0.00     0.029 A 
ATOM     56  C   UNL     1      11.162   9.012  -7.464  1.00  0.00     0.049 A 
ATOM     57  H   UNL     1      10.114   7.629  -6.265  1.00  0.00     0.167 HD
ATOM     58  C   UNL     1      10.068   7.496  -9.095  1.00  0.00     0.074 A 
ATOM     59  C   UNL     1       9.751   7.067 -10.442  1.00  0.00     0.031 C 
ATOM     60  C   UNL     1      10.843   8.568  -8.798  1.00  0.00     0.037 A 
BRANCH  47  61
ATOM     61  C   UNL     1      11.390   9.658  -2.740  1.00  0.00     0.057 A 
ATOM     62  C   UNL     1      12.382   9.226  -1.850  1.00  0.00     0.134 A 
ATOM     63  C   UNL     1      10.870  10.945  -2.557  1.00  0.00     0.134 A 
ATOM     64  F   UNL     1      12.904   7.995  -1.958  1.00  0.00    -0.206 F 
ATOM     65  C   UNL     1      12.815  10.032  -0.796  1.00  0.00     0.040 A 
ATOM     66  C   UNL     1      11.313  11.769  -1.523  1.00  0.00     0.040 A 
ATOM     67  F   UNL     1       9.916  11.416  -3.374  1.00  0.00    -0.206 F 
ATOM     68  C   UNL     1      12.282  11.309  -0.632  1.00  0.00     0.006 A 
ENDBRANCH  47  61
BRANCH  48  69
ATOM     69  C   UNL     1       7.338   3.696  -9.624  1.00  0.00     0.057 A 
ATOM     70  C   UNL     1       8.075   2.846 -10.455  1.00  0.00     0.134 A 
ATOM     71  C   UNL     1       5.949   3.721  -9.795  1.00  0.00     0.134 A 
ATOM     72  F   UNL     1       9.412   2.796 -10.354  1.00  0.00    -0.206 F 
ATOM     73  C   UNL     1       7.456   2.055 -11.424  1.00  0.00     0.040 A 
ATOM     74  C   UNL     1       5.314   2.921 -10.746  1.00  0.00     0.040 A 
ATOM     75  F   UNL     1       5.187   4.516  -9.029  1.00  0.00    -0.206 F 
ATOM     76  C   UNL     1       6.069   2.087 -11.567  1.00  0.00     0.006 A 
ENDBRANCH  48  69
BRANCH  60  77
ATOM     77  C   UNL     1      11.436   9.340  -9.940  1.00  0.00     0.057 A 
ATOM     78  C   UNL     1      10.668  10.213 -10.719  1.00  0.00     0.134 A 
ATOM     79  C   UNL     1      12.809   9.270 -10.207  1.00  0.00     0.134 A 
ATOM     80  F   UNL     1       9.346  10.319 -10.520  1.00  0.00    -0.206 F 
ATOM     81  C   UNL     1      11.246  10.986 -11.729  1.00  0.00     0.040 A 
ATOM     82  C   UNL     1      13.402  10.053 -11.198  1.00  0.00     0.040 A 
ATOM     83  F   UNL     1      13.602   8.459  -9.489  1.00  0.00    -0.206 F 
ATOM     84  C   UNL     1      12.618  10.914 -11.964  1.00  0.00     0.006 A 
ENDBRANCH  60  77
ENDBRANCH  34  35
ENDBRANCH  27  29
ENDBRANCH  26  27
ENDBRANCH  25  26
ENDBRANCH  24  25
ENDBRANCH   1  24
TORSDOF 17
