REMARK SMILES CC[C@](C)(NC(=O)[C@](C)([NH3+])c1ccccc1)C(=O)OCCOC(=O)c1ccc(-c2c3nc(c(-c4c(F)cccc4F)c4ccc([nH]4)c(-c4c(F)cccc4F)c4nc(c(-c5c(F)cccc5F)c5ccc2[nH]5)C=C4)C=C3)cc1
REMARK SMILES IDX 20 1 19 2 17 3 18 4 3 5 4 6 2 7 1 8 5 9 6 10 7 12 8 13 9 14
REMARK SMILES IDX 10 15 11 19 12 20 16 21 13 22 15 23 14 24 21 25 22 26 23 27
REMARK SMILES IDX 24 28 25 29 26 30 78 31 27 32 77 33 28 34 29 35 30 36 71 37
REMARK SMILES IDX 31 38 76 39 70 40 72 41 32 42 75 43 69 44 68 45 33 47 59 48
REMARK SMILES IDX 42 49 58 50 43 51 46 52 57 53 73 54 44 55 45 56 56 58 74 59
REMARK SMILES IDX 47 60 34 61 35 62 40 63 36 64 37 65 39 66 41 67 38 68 60 69
REMARK SMILES IDX 61 70 66 71 62 72 63 73 65 74 67 75 64 76 48 77 49 78 54 79
REMARK SMILES IDX 50 80 51 81 53 82 55 83 52 84
REMARK H PARENT 5 11 10 16 10 17 10 18 72 46 46 57
REMARK Flexibility Score: inf
ROOT
ATOM      1  C   UNL     1       1.044   0.293   7.292  1.00  0.00     0.274 C 
ENDROOT
BRANCH   1   2
ATOM      2  O   UNL     1       1.563  -0.615   6.283  1.00  0.00    -0.460 OA
BRANCH   2   3
ATOM      3  C   UNL     1       0.643  -1.168   5.457  1.00  0.00     0.331 C 
ATOM      4  O   UNL     1      -0.569  -1.037   5.620  1.00  0.00    -0.249 OA
BRANCH   3   5
ATOM      5  C   UNL     1       1.226  -2.057   4.301  1.00  0.00     0.135 C 
ATOM      6  C   UNL     1       0.423  -1.715   3.030  1.00  0.00     0.047 C 
BRANCH   5   7
ATOM      7  C   UNL     1       0.838  -3.491   4.819  1.00  0.00     0.037 C 
ATOM      8  C   UNL     1       1.084  -4.667   3.878  1.00  0.00     0.007 C 
ENDBRANCH   5   7
BRANCH   5   9
ATOM      9  N   UNL     1       2.664  -2.150   3.892  1.00  0.00    -0.335 N 
ATOM     10  C   UNL     1       3.633  -1.312   3.437  1.00  0.00     0.286 C 
ATOM     11  H   UNL     1       3.000  -3.072   3.975  1.00  0.00     0.164 HD
ATOM     12  O   UNL     1       4.289  -1.753   2.479  1.00  0.00    -0.267 OA
BRANCH  10  13
ATOM     13  C   UNL     1       4.060   0.023   4.126  1.00  0.00     0.196 C 
ATOM     14  C   UNL     1       2.930   1.032   3.976  1.00  0.00     0.096 C 
BRANCH  13  15
ATOM     15  N   UNL     1       5.185   0.610   3.332  1.00  0.00    -0.341 N 
ATOM     16  H   UNL     1       5.484   1.485   3.762  1.00  0.00     0.345 HD
ATOM     17  H   UNL     1       4.871   0.790   2.379  1.00  0.00     0.345 HD
ATOM     18  H   UNL     1       5.967  -0.045   3.315  1.00  0.00     0.345 HD
ENDBRANCH  13  15
BRANCH  13  19
ATOM     19  C   UNL     1       4.542  -0.180   5.574  1.00  0.00     0.022 A 
ATOM     20  C   UNL     1       4.598  -1.444   6.196  1.00  0.00     0.011 A 
ATOM     21  C   UNL     1       4.956   0.923   6.344  1.00  0.00     0.011 A 
ATOM     22  C   UNL     1       4.940  -1.586   7.544  1.00  0.00     0.001 A 
ATOM     23  C   UNL     1       5.321   0.780   7.688  1.00  0.00     0.001 A 
ATOM     24  C   UNL     1       5.288  -0.471   8.294  1.00  0.00     0.000 A 
ENDBRANCH  13  19
ENDBRANCH  10  13
ENDBRANCH   5   9
ENDBRANCH   3   5
ENDBRANCH   2   3
ENDBRANCH   1   2
BRANCH   1  25
ATOM     25  C   UNL     1       1.051   1.748   6.802  1.00  0.00     0.275 C 
BRANCH  25  26
ATOM     26  O   UNL     1       0.185   1.866   5.659  1.00  0.00    -0.458 OA
BRANCH  26  27
ATOM     27  C   UNL     1       0.455   2.875   4.798  1.00  0.00     0.338 C 
ATOM     28  O   UNL     1       1.286   3.758   4.953  1.00  0.00    -0.246 OA
BRANCH  27  29
ATOM     29  C   UNL     1      -0.406   2.753   3.596  1.00  0.00     0.060 A 
ATOM     30  C   UNL     1      -1.079   1.564   3.283  1.00  0.00     0.016 A 
ATOM     31  C   UNL     1      -0.566   3.870   2.776  1.00  0.00     0.016 A 
ATOM     32  C   UNL     1      -1.948   1.501   2.196  1.00  0.00     0.010 A 
ATOM     33  C   UNL     1      -1.500   3.834   1.743  1.00  0.00     0.010 A 
ATOM     34  C   UNL     1      -2.230   2.662   1.474  1.00  0.00    -0.014 A 
BRANCH  34  35
ATOM     35  C   UNL     1      -3.373   2.746   0.531  1.00  0.00     0.031 A 
ATOM     36  C   UNL     1      -3.135   3.189  -0.877  1.00  0.00     0.074 A 
ATOM     37  C   UNL     1      -4.624   2.625   1.018  1.00  0.00     0.049 A 
ATOM     38  N   UNL     1      -3.966   3.719  -1.732  1.00  0.00    -0.248 NA
ATOM     39  C   UNL     1      -1.755   3.055  -1.367  1.00  0.00     0.031 C 
ATOM     40  C   UNL     1      -4.971   2.191   2.373  1.00  0.00     0.029 A 
ATOM     41  N   UNL     1      -5.837   2.923   0.447  1.00  0.00    -0.354 N 
ATOM     42  C   UNL     1      -3.199   4.046  -2.843  1.00  0.00     0.074 A 
ATOM     43  C   UNL     1      -1.837   3.655  -2.546  1.00  0.00     0.031 C 
ATOM     44  C   UNL     1      -6.296   2.283   2.543  1.00  0.00     0.029 A 
ATOM     45  C   UNL     1      -6.881   2.859   1.341  1.00  0.00     0.049 A 
ATOM     46  H   UNL     1      -5.948   3.158  -0.503  1.00  0.00     0.167 HD
ATOM     47  C   UNL     1      -3.606   4.636  -3.993  1.00  0.00     0.037 A 
ATOM     48  C   UNL     1      -8.152   3.286   1.235  1.00  0.00     0.037 A 
ATOM     49  C   UNL     1      -4.975   5.002  -4.254  1.00  0.00     0.049 A 
ATOM     50  C   UNL     1      -8.584   3.947  -0.039  1.00  0.00     0.074 A 
ATOM     51  C   UNL     1      -5.521   5.559  -5.396  1.00  0.00     0.029 A 
ATOM     52  N   UNL     1      -6.016   4.852  -3.345  1.00  0.00    -0.354 N 
ATOM     53  N   UNL     1      -7.863   4.249  -1.093  1.00  0.00    -0.248 NA
ATOM     54  C   UNL     1      -9.997   4.328  -0.143  1.00  0.00     0.031 C 
ATOM     55  C   UNL     1      -6.880   5.791  -5.160  1.00  0.00     0.029 A 
ATOM     56  C   UNL     1      -7.197   5.322  -3.894  1.00  0.00     0.049 A 
ATOM     57  H   UNL     1      -5.927   4.468  -2.443  1.00  0.00     0.167 HD
ATOM     58  C   UNL     1      -8.738   4.830  -1.999  1.00  0.00     0.074 A 
ATOM     59  C   UNL     1     -10.044   4.835  -1.368  1.00  0.00     0.031 C 
ATOM     60  C   UNL     1      -8.486   5.307  -3.243  1.00  0.00     0.037 A 
BRANCH  47  61
ATOM     61  C   UNL     1      -2.550   4.962  -5.013  1.00  0.00     0.057 A 
ATOM     62  C   UNL     1      -1.830   3.971  -5.694  1.00  0.00     0.134 A 
ATOM     63  C   UNL     1      -2.231   6.296  -5.303  1.00  0.00     0.134 A 
ATOM     64  F   UNL     1      -2.073   2.672  -5.461  1.00  0.00    -0.206 F 
ATOM     65  C   UNL     1      -0.801   4.292  -6.584  1.00  0.00     0.040 A 
ATOM     66  C   UNL     1      -1.228   6.630  -6.216  1.00  0.00     0.040 A 
ATOM     67  F   UNL     1      -2.882   7.301  -4.698  1.00  0.00    -0.206 F 
ATOM     68  C   UNL     1      -0.499   5.626  -6.848  1.00  0.00     0.006 A 
ENDBRANCH  47  61
BRANCH  48  69
ATOM     69  C   UNL     1      -9.077   3.110   2.384  1.00  0.00     0.057 A 
ATOM     70  C   UNL     1     -10.081   2.138   2.353  1.00  0.00     0.134 A 
ATOM     71  C   UNL     1      -8.928   3.846   3.567  1.00  0.00     0.134 A 
ATOM     72  F   UNL     1     -10.280   1.409   1.245  1.00  0.00    -0.206 F 
ATOM     73  C   UNL     1     -10.902   1.899   3.457  1.00  0.00     0.040 A 
ATOM     74  C   UNL     1      -9.725   3.602   4.687  1.00  0.00     0.040 A 
ATOM     75  F   UNL     1      -7.973   4.783   3.667  1.00  0.00    -0.206 F 
ATOM     76  C   UNL     1     -10.717   2.624   4.633  1.00  0.00     0.006 A 
ENDBRANCH  48  69
BRANCH  60  77
ATOM     77  C   UNL     1      -9.657   5.821  -4.026  1.00  0.00     0.057 A 
ATOM     78  C   UNL     1     -10.265   7.048  -3.736  1.00  0.00     0.134 A 
ATOM     79  C   UNL     1     -10.141   5.097  -5.123  1.00  0.00     0.134 A 
ATOM     80  F   UNL     1      -9.858   7.779  -2.688  1.00  0.00    -0.206 F 
ATOM     81  C   UNL     1     -11.324   7.532  -4.506  1.00  0.00     0.040 A 
ATOM     82  C   UNL     1     -11.180   5.584  -5.916  1.00  0.00     0.040 A 
ATOM     83  F   UNL     1      -9.596   3.917  -5.455  1.00  0.00    -0.206 F 
ATOM     84  C   UNL     1     -11.777   6.804  -5.606  1.00  0.00     0.006 A 
ENDBRANCH  60  77
ENDBRANCH  34  35
ENDBRANCH  27  29
ENDBRANCH  26  27
ENDBRANCH  25  26
ENDBRANCH   1  25
TORSDOF 16
