REMARK SMILES CC1(C)[C@H](C(=O)Nc2cccc3[nH]ccc23)[C@H]1C(=O)OCCOC(=O)c1ccc(-c2c3nc(c(-c4c(F)cccc4F)c4ccc([nH]4)c(-c4c(F)cccc4F)c4nc(c(-c5c(F)cccc5F)c5ccc2[nH]5)C=C4)C=C3)cc1
REMARK SMILES IDX 21 1 20 2 18 3 19 4 17 5 1 6 2 7 3 8 4 9 5 10 6 11 7 12 8 14
REMARK SMILES IDX 9 15 16 16 10 17 12 18 15 19 11 20 13 21 14 22 22 24 23 25
REMARK SMILES IDX 24 26 25 27 26 28 27 29 79 30 28 31 78 32 29 33 30 34 31 35
REMARK SMILES IDX 72 36 32 37 77 38 71 39 73 40 33 41 76 42 70 43 69 44 34 46
REMARK SMILES IDX 60 47 43 48 59 49 44 50 47 51 58 52 74 53 45 54 46 55 57 57
REMARK SMILES IDX 75 58 48 59 35 60 36 61 41 62 37 63 38 64 40 65 42 66 39 67
REMARK SMILES IDX 61 68 62 69 67 70 63 71 64 72 66 73 68 74 65 75 49 76 50 77
REMARK SMILES IDX 55 78 51 79 52 80 54 81 56 82 53 83
REMARK H PARENT 7 13 13 23 73 45 47 56
REMARK Flexibility Score: inf
ROOT
ATOM      1  C   UNL     1      -2.060  -3.161   2.383  1.00  0.00     0.274 C 
ENDROOT
BRANCH   1   2
ATOM      2  O   UNL     1      -1.292  -2.284   1.541  1.00  0.00    -0.462 OA
BRANCH   2   3
ATOM      3  C   UNL     1      -1.943  -1.243   0.970  1.00  0.00     0.310 C 
ATOM      4  O   UNL     1      -3.144  -1.027   1.014  1.00  0.00    -0.252 OA
BRANCH   3   5
ATOM      5  C   UNL     1      -1.016  -0.258   0.369  1.00  0.00     0.118 C 
ATOM      6  C   UNL     1       0.702  -2.039  -0.573  1.00  0.00     0.013 C 
ATOM      7  C   UNL     1       0.290  -0.607  -0.328  1.00  0.00    -0.009 C 
ATOM      8  C   UNL     1       1.465   0.254   0.059  1.00  0.00     0.013 C 
ATOM      9  C   UNL     1      -0.928  -0.116  -1.122  1.00  0.00     0.100 C 
BRANCH   9  10
ATOM     10  C   UNL     1      -1.062   1.182  -1.854  1.00  0.00     0.228 C 
ATOM     11  O   UNL     1      -0.862   1.187  -3.064  1.00  0.00    -0.274 OA
ATOM     12  N   UNL     1      -1.721   2.216  -1.227  1.00  0.00    -0.325 N 
ATOM     13  H   UNL     1      -2.691   2.289  -1.382  1.00  0.00     0.169 HD
BRANCH  12  14
ATOM     14  C   UNL     1      -1.130   3.181  -0.383  1.00  0.00     0.050 A 
ATOM     15  C   UNL     1       0.256   3.256  -0.216  1.00  0.00     0.027 A 
ATOM     16  C   UNL     1      -1.931   4.135   0.291  1.00  0.00     0.023 A 
ATOM     17  C   UNL     1       0.837   4.118   0.712  1.00  0.00     0.004 A 
ATOM     18  C   UNL     1      -1.320   5.003   1.204  1.00  0.00     0.047 A 
ATOM     19  C   UNL     1      -3.321   4.457   0.299  1.00  0.00     0.030 A 
ATOM     20  C   UNL     1       0.053   4.987   1.467  1.00  0.00     0.027 A 
ATOM     21  N   UNL     1      -2.306   5.795   1.752  1.00  0.00    -0.361 N 
ATOM     22  C   UNL     1      -3.515   5.493   1.184  1.00  0.00     0.083 A 
ATOM     23  H   UNL     1      -2.163   6.476   2.448  1.00  0.00     0.166 HD
ENDBRANCH  12  14
ENDBRANCH   9  10
ENDBRANCH   3   5
ENDBRANCH   2   3
ENDBRANCH   1   2
BRANCH   1  24
ATOM     24  C   UNL     1      -1.515  -3.089   3.809  1.00  0.00     0.275 C 
BRANCH  24  25
ATOM     25  O   UNL     1      -1.772  -1.788   4.374  1.00  0.00    -0.458 OA
BRANCH  25  26
ATOM     26  C   UNL     1      -0.747  -0.912   4.282  1.00  0.00     0.338 C 
ATOM     27  O   UNL     1       0.373  -1.109   3.842  1.00  0.00    -0.246 OA
BRANCH  26  28
ATOM     28  C   UNL     1      -1.198   0.416   4.713  1.00  0.00     0.060 A 
ATOM     29  C   UNL     1      -1.678   1.289   3.743  1.00  0.00     0.016 A 
ATOM     30  C   UNL     1      -1.003   0.855   6.021  1.00  0.00     0.016 A 
ATOM     31  C   UNL     1      -1.866   2.630   4.049  1.00  0.00     0.010 A 
ATOM     32  C   UNL     1      -1.272   2.193   6.345  1.00  0.00     0.010 A 
ATOM     33  C   UNL     1      -1.660   3.109   5.349  1.00  0.00    -0.014 A 
BRANCH  33  34
ATOM     34  C   UNL     1      -1.790   4.570   5.622  1.00  0.00     0.031 A 
ATOM     35  C   UNL     1      -0.610   5.363   6.122  1.00  0.00     0.074 A 
ATOM     36  C   UNL     1      -2.945   5.213   5.355  1.00  0.00     0.049 A 
ATOM     37  N   UNL     1      -0.552   6.622   6.482  1.00  0.00    -0.248 NA
ATOM     38  C   UNL     1       0.671   4.650   6.240  1.00  0.00     0.031 C 
ATOM     39  C   UNL     1      -4.159   4.590   4.826  1.00  0.00     0.029 A 
ATOM     40  N   UNL     1      -3.280   6.542   5.469  1.00  0.00    -0.354 N 
ATOM     41  C   UNL     1       0.749   6.833   6.926  1.00  0.00     0.074 A 
ATOM     42  C   UNL     1       1.449   5.574   6.787  1.00  0.00     0.031 C 
ATOM     43  C   UNL     1      -5.086   5.536   4.619  1.00  0.00     0.029 A 
ATOM     44  C   UNL     1      -4.566   6.821   5.071  1.00  0.00     0.049 A 
ATOM     45  H   UNL     1      -2.658   7.228   5.805  1.00  0.00     0.167 HD
ATOM     46  C   UNL     1       1.310   7.969   7.406  1.00  0.00     0.037 A 
ATOM     47  C   UNL     1      -5.264   7.972   5.093  1.00  0.00     0.037 A 
ATOM     48  C   UNL     1       0.636   9.239   7.500  1.00  0.00     0.049 A 
ATOM     49  C   UNL     1      -4.624   9.215   5.641  1.00  0.00     0.074 A 
ATOM     50  C   UNL     1       1.133  10.447   7.960  1.00  0.00     0.029 A 
ATOM     51  N   UNL     1      -0.675   9.469   7.116  1.00  0.00    -0.354 N 
ATOM     52  N   UNL     1      -3.404   9.387   6.088  1.00  0.00    -0.248 NA
ATOM     53  C   UNL     1      -5.463  10.421   5.701  1.00  0.00     0.031 C 
ATOM     54  C   UNL     1       0.111  11.400   7.885  1.00  0.00     0.029 A 
ATOM     55  C   UNL     1      -1.007  10.796   7.335  1.00  0.00     0.049 A 
ATOM     56  H   UNL     1      -1.282   8.789   6.742  1.00  0.00     0.167 HD
ATOM     57  C   UNL     1      -3.327  10.719   6.476  1.00  0.00     0.074 A 
ATOM     58  C   UNL     1      -4.613  11.316   6.184  1.00  0.00     0.031 C 
ATOM     59  C   UNL     1      -2.287  11.383   7.034  1.00  0.00     0.037 A 
BRANCH  46  60
ATOM     60  C   UNL     1       2.725   7.889   7.902  1.00  0.00     0.057 A 
ATOM     61  C   UNL     1       3.816   7.777   7.031  1.00  0.00     0.134 A 
ATOM     62  C   UNL     1       2.999   7.970   9.274  1.00  0.00     0.134 A 
ATOM     63  F   UNL     1       3.621   7.681   5.707  1.00  0.00    -0.206 F 
ATOM     64  C   UNL     1       5.128   7.727   7.508  1.00  0.00     0.040 A 
ATOM     65  C   UNL     1       4.307   7.947   9.761  1.00  0.00     0.040 A 
ATOM     66  F   UNL     1       2.001   8.086  10.162  1.00  0.00    -0.206 F 
ATOM     67  C   UNL     1       5.376   7.819   8.877  1.00  0.00     0.006 A 
ENDBRANCH  46  60
BRANCH  47  68
ATOM     68  C   UNL     1      -6.663   8.001   4.596  1.00  0.00     0.057 A 
ATOM     69  C   UNL     1      -6.998   8.692   3.426  1.00  0.00     0.134 A 
ATOM     70  C   UNL     1      -7.696   7.347   5.278  1.00  0.00     0.134 A 
ATOM     71  F   UNL     1      -6.055   9.356   2.741  1.00  0.00    -0.206 F 
ATOM     72  C   UNL     1      -8.313   8.743   2.959  1.00  0.00     0.040 A 
ATOM     73  C   UNL     1      -9.008   7.364   4.807  1.00  0.00     0.040 A 
ATOM     74  F   UNL     1      -7.438   6.666   6.405  1.00  0.00    -0.206 F 
ATOM     75  C   UNL     1      -9.321   8.070   3.647  1.00  0.00     0.006 A 
ENDBRANCH  47  68
BRANCH  59  76
ATOM     76  C   UNL     1      -2.484  12.841   7.331  1.00  0.00     0.057 A 
ATOM     77  C   UNL     1      -3.289  13.276   8.392  1.00  0.00     0.134 A 
ATOM     78  C   UNL     1      -1.842  13.819   6.562  1.00  0.00     0.134 A 
ATOM     79  F   UNL     1      -3.942  12.389   9.158  1.00  0.00    -0.206 F 
ATOM     80  C   UNL     1      -3.466  14.634   8.662  1.00  0.00     0.040 A 
ATOM     81  C   UNL     1      -1.993  15.179   6.837  1.00  0.00     0.040 A 
ATOM     82  F   UNL     1      -1.052  13.468   5.536  1.00  0.00    -0.206 F 
ATOM     83  C   UNL     1      -2.812  15.589   7.886  1.00  0.00     0.006 A 
ENDBRANCH  59  76
ENDBRANCH  33  34
ENDBRANCH  26  28
ENDBRANCH  25  26
ENDBRANCH  24  25
ENDBRANCH   1  24
TORSDOF 13
