REMARK SMILES C=C[C@@H]1[C@@H](O)C[C@H]2[C@]3(CC[C@]4(C)[C@@H]([C@H](C)CCC=C(C)C)CC[C@]24C)C[C@]13CCC(=O)OCCOC(=O)c1ccc(-c2c3nc(c(-c4c(F)cccc4F)c4ccc([nH]4)c(-c4c(F)cccc4F)c4nc(c(-c5c(F)cccc5F)c5ccc2[nH]5)C=C4)C=C3)cc1
REMARK SMILES IDX 30 1 31 2 29 3 28 4 27 5 3 6 4 7 6 8 8 9 26 10 7 11 9 12
REMARK SMILES IDX 24 13 10 14 11 15 23 16 25 17 13 18 12 19 22 20 2 21 1 22
REMARK SMILES IDX 5 23 14 25 15 26 16 27 17 28 18 29 19 30 20 31 21 32 32 33
REMARK SMILES IDX 33 34 34 35 35 36 36 37 37 38 38 39 39 40 91 41 40 42 90 43
REMARK SMILES IDX 41 44 42 45 43 46 84 47 44 48 89 49 83 50 85 51 45 52 88 53
REMARK SMILES IDX 82 54 81 55 46 57 72 58 55 59 71 60 56 61 59 62 70 63 86 64
REMARK SMILES IDX 57 65 58 66 69 68 87 69 60 70 47 71 48 72 53 73 49 74 50 75
REMARK SMILES IDX 52 76 54 77 51 78 73 79 74 80 79 81 75 82 76 83 78 84 80 85
REMARK SMILES IDX 77 86 61 87 62 88 67 89 63 90 64 91 66 92 68 93 65 94
REMARK H PARENT 5 24 85 56 59 67
REMARK Flexibility Score: inf
ROOT
ATOM      1  C   UNL     1      -0.057   0.726   2.148  1.00  0.00     0.305 C 
ATOM      2  O   UNL     1       0.364  -0.017   3.026  1.00  0.00    -0.252 OA
ENDROOT
BRANCH   1   3
ATOM      3  C   UNL     1      -1.531   0.852   1.828  1.00  0.00     0.123 C 
BRANCH   3   4
ATOM      4  C   UNL     1      -1.865   1.848   0.722  1.00  0.00     0.020 C 
BRANCH   4   5
ATOM      5  C   UNL     1      -1.470   1.493  -0.723  1.00  0.00    -0.014 C 
ATOM      6  C   UNL     1      -0.922   0.055  -0.977  1.00  0.00     0.047 C 
ATOM      7  C   UNL     1      -1.849  -0.755  -1.897  1.00  0.00     0.122 C 
ATOM      8  C   UNL     1      -2.298   0.058  -3.099  1.00  0.00     0.037 C 
ATOM      9  C   UNL     1      -2.393   2.223  -1.748  1.00  0.00    -0.019 C 
ATOM     10  C   UNL     1      -0.927   2.523  -1.711  1.00  0.00     0.016 C 
ATOM     11  C   UNL     1      -3.159   1.262  -2.671  1.00  0.00     0.005 C 
ATOM     12  C   UNL     1      -3.184   3.466  -1.401  1.00  0.00     0.008 C 
ATOM     13  C   UNL     1      -3.905   1.956  -3.883  1.00  0.00    -0.023 C 
ATOM     14  C   UNL     1      -3.642   4.124  -2.688  1.00  0.00     0.008 C 
ATOM     15  C   UNL     1      -4.648   3.287  -3.462  1.00  0.00    -0.024 C 
ATOM     16  C   UNL     1      -5.101   1.078  -4.312  1.00  0.00     0.008 C 
ATOM     17  C   UNL     1      -2.918   2.146  -5.056  1.00  0.00     0.012 C 
ATOM     18  C   UNL     1      -5.876   2.767  -2.625  1.00  0.00    -0.002 C 
ATOM     19  C   UNL     1      -5.106   4.123  -4.680  1.00  0.00     0.012 C 
ATOM     20  C   UNL     1      -6.301   1.516  -3.456  1.00  0.00     0.005 C 
BRANCH   6  21
ATOM     21  C   UNL     1       0.525  -0.027  -1.450  1.00  0.00    -0.028 C 
ATOM     22  C   UNL     1       1.409  -0.935  -1.011  1.00  0.00     0.004 C 
ENDBRANCH   6  21
BRANCH   7  23
ATOM     23  O   UNL     1      -2.997  -1.218  -1.173  1.00  0.00    -0.392 OA
ATOM     24  H   UNL     1      -3.505  -0.457  -0.852  1.00  0.00     0.210 HD
ENDBRANCH   7  23
BRANCH  18  25
ATOM     25  C   UNL     1      -7.122   3.624  -2.192  1.00  0.00    -0.010 C 
ATOM     26  C   UNL     1      -7.936   4.283  -3.314  1.00  0.00     0.008 C 
BRANCH  25  27
ATOM     27  C   UNL     1      -7.149   4.541  -0.914  1.00  0.00     0.008 C 
BRANCH  27  28
ATOM     28  C   UNL     1      -6.010   5.403  -0.338  1.00  0.00     0.027 C 
BRANCH  28  29
ATOM     29  C   UNL     1      -5.359   6.425  -1.225  1.00  0.00    -0.028 C 
ATOM     30  C   UNL     1      -4.175   7.022  -0.949  1.00  0.00    -0.080 C 
ATOM     31  C   UNL     1      -3.347   7.652  -2.043  1.00  0.00     0.039 C 
ATOM     32  C   UNL     1      -3.505   6.978   0.399  1.00  0.00     0.039 C 
ENDBRANCH  28  29
ENDBRANCH  27  28
ENDBRANCH  25  27
ENDBRANCH  18  25
ENDBRANCH   4   5
ENDBRANCH   3   4
ENDBRANCH   1   3
BRANCH   1  33
ATOM     33  O   UNL     1       0.706   1.517   1.358  1.00  0.00    -0.462 OA
BRANCH  33  34
ATOM     34  C   UNL     1       2.132   1.494   1.530  1.00  0.00     0.274 C 
BRANCH  34  35
ATOM     35  C   UNL     1       2.631   2.910   1.811  1.00  0.00     0.275 C 
BRANCH  35  36
ATOM     36  O   UNL     1       2.174   3.333   3.105  1.00  0.00    -0.458 OA
BRANCH  36  37
ATOM     37  C   UNL     1       0.971   3.957   3.105  1.00  0.00     0.338 C 
ATOM     38  O   UNL     1       0.334   4.363   2.153  1.00  0.00    -0.246 OA
BRANCH  37  39
ATOM     39  C   UNL     1       0.427   3.871   4.465  1.00  0.00     0.060 A 
ATOM     40  C   UNL     1      -0.766   3.166   4.636  1.00  0.00     0.016 A 
ATOM     41  C   UNL     1       1.063   4.475   5.545  1.00  0.00     0.016 A 
ATOM     42  C   UNL     1      -1.333   3.039   5.894  1.00  0.00     0.010 A 
ATOM     43  C   UNL     1       0.488   4.365   6.809  1.00  0.00     0.010 A 
ATOM     44  C   UNL     1      -0.714   3.654   6.985  1.00  0.00    -0.014 A 
BRANCH  44  45
ATOM     45  C   UNL     1      -1.387   3.657   8.298  1.00  0.00     0.031 A 
ATOM     46  C   UNL     1      -2.004   4.934   8.779  1.00  0.00     0.074 A 
ATOM     47  C   UNL     1      -1.438   2.533   9.032  1.00  0.00     0.049 A 
ATOM     48  N   UNL     1      -2.475   5.234   9.959  1.00  0.00    -0.248 NA
ATOM     49  C   UNL     1      -2.087   6.028   7.797  1.00  0.00     0.031 C 
ATOM     50  C   UNL     1      -0.934   1.225   8.613  1.00  0.00     0.029 A 
ATOM     51  N   UNL     1      -1.927   2.318  10.293  1.00  0.00    -0.354 N 
ATOM     52  C   UNL     1      -2.873   6.562   9.874  1.00  0.00     0.074 A 
ATOM     53  C   UNL     1      -2.576   7.014   8.533  1.00  0.00     0.031 C 
ATOM     54  C   UNL     1      -1.127   0.344   9.608  1.00  0.00     0.029 A 
ATOM     55  C   UNL     1      -1.707   1.042  10.751  1.00  0.00     0.049 A 
ATOM     56  H   UNL     1      -2.389   3.010  10.820  1.00  0.00     0.167 HD
ATOM     57  C   UNL     1      -3.432   7.328  10.839  1.00  0.00     0.037 A 
ATOM     58  C   UNL     1      -1.909   0.519  11.974  1.00  0.00     0.037 A 
ATOM     59  C   UNL     1      -3.729   6.843  12.161  1.00  0.00     0.049 A 
ATOM     60  C   UNL     1      -2.467   1.409  13.050  1.00  0.00     0.074 A 
ATOM     61  C   UNL     1      -4.299   7.519  13.223  1.00  0.00     0.029 A 
ATOM     62  N   UNL     1      -3.477   5.548  12.597  1.00  0.00    -0.354 N 
ATOM     63  N   UNL     1      -2.818   2.672  12.980  1.00  0.00    -0.248 NA
ATOM     64  C   UNL     1      -2.648   0.808  14.377  1.00  0.00     0.031 C 
ATOM     65  C   UNL     1      -4.346   6.648  14.316  1.00  0.00     0.029 A 
ATOM     66  C   UNL     1      -3.859   5.412  13.919  1.00  0.00     0.049 A 
ATOM     67  H   UNL     1      -3.084   4.833  12.046  1.00  0.00     0.167 HD
ATOM     68  C   UNL     1      -3.284   3.010  14.242  1.00  0.00     0.074 A 
ATOM     69  C   UNL     1      -3.185   1.813  15.054  1.00  0.00     0.031 C 
ATOM     70  C   UNL     1      -3.752   4.201  14.695  1.00  0.00     0.037 A 
BRANCH  57  71
ATOM     71  C   UNL     1      -3.707   8.766  10.509  1.00  0.00     0.057 A 
ATOM     72  C   UNL     1      -4.709   9.149   9.609  1.00  0.00     0.134 A 
ATOM     73  C   UNL     1      -2.955   9.786  11.108  1.00  0.00     0.134 A 
ATOM     74  F   UNL     1      -5.452   8.223   8.983  1.00  0.00    -0.206 F 
ATOM     75  C   UNL     1      -4.936  10.491   9.295  1.00  0.00     0.040 A 
ATOM     76  C   UNL     1      -3.192  11.132  10.824  1.00  0.00     0.040 A 
ATOM     77  F   UNL     1      -1.978   9.492  11.978  1.00  0.00    -0.206 F 
ATOM     78  C   UNL     1      -4.180  11.488   9.909  1.00  0.00     0.006 A 
ENDBRANCH  57  71
BRANCH  58  79
ATOM     79  C   UNL     1      -1.551  -0.896  12.250  1.00  0.00     0.057 A 
ATOM     80  C   UNL     1      -2.534  -1.852  12.525  1.00  0.00     0.134 A 
ATOM     81  C   UNL     1      -0.218  -1.328  12.246  1.00  0.00     0.134 A 
ATOM     82  F   UNL     1      -3.827  -1.498  12.563  1.00  0.00    -0.206 F 
ATOM     83  C   UNL     1      -2.207  -3.181  12.800  1.00  0.00     0.040 A 
ATOM     84  C   UNL     1       0.122  -2.659  12.491  1.00  0.00     0.040 A 
ATOM     85  F   UNL     1       0.775  -0.463  11.987  1.00  0.00    -0.206 F 
ATOM     86  C   UNL     1      -0.874  -3.589  12.776  1.00  0.00     0.006 A 
ENDBRANCH  58  79
BRANCH  70  87
ATOM     87  C   UNL     1      -4.226   4.247  16.117  1.00  0.00     0.057 A 
ATOM     88  C   UNL     1      -3.336   4.205  17.197  1.00  0.00     0.134 A 
ATOM     89  C   UNL     1      -5.591   4.375  16.405  1.00  0.00     0.134 A 
ATOM     90  F   UNL     1      -2.018   4.069  16.988  1.00  0.00    -0.206 F 
ATOM     91  C   UNL     1      -3.790   4.263  18.515  1.00  0.00     0.040 A 
ATOM     92  C   UNL     1      -6.054   4.465  17.717  1.00  0.00     0.040 A 
ATOM     93  F   UNL     1      -6.495   4.431  15.414  1.00  0.00    -0.206 F 
ATOM     94  C   UNL     1      -5.152   4.402  18.777  1.00  0.00     0.006 A 
ENDBRANCH  70  87
ENDBRANCH  44  45
ENDBRANCH  37  39
ENDBRANCH  36  37
ENDBRANCH  35  36
ENDBRANCH  34  35
ENDBRANCH  33  34
ENDBRANCH   1  33
TORSDOF 19
