REMARK SMILES Nc1ccccc1C(=O)NCc1ccc(C(=O)OCCOC(=O)c2ccc(-c3c4nc(c(-c5c(F)cccc5F)c5ccc([nH]5)c(-c5c(F)cccc5F)c5nc(c(-c6c(F)cccc6F)c6ccc3[nH]6)C=C5)C=C4)cc2)o1
REMARK SMILES IDX 19 1 18 2 16 3 17 4 15 5 12 6 13 7 78 8 14 9 11 10 10 11
REMARK SMILES IDX 8 12 9 13 7 15 2 16 3 17 4 18 6 19 5 20 1 21 20 24 21 25
REMARK SMILES IDX 22 26 23 27 24 28 25 29 77 30 26 31 76 32 27 33 28 34 29 35
REMARK SMILES IDX 70 36 30 37 75 38 69 39 71 40 31 41 74 42 68 43 67 44 32 46
REMARK SMILES IDX 58 47 41 48 57 49 42 50 45 51 56 52 72 53 43 54 44 55 55 57
REMARK SMILES IDX 73 58 46 59 33 60 34 61 39 62 35 63 36 64 38 65 40 66 37 67
REMARK SMILES IDX 59 68 60 69 65 70 61 71 62 72 64 73 66 74 63 75 47 76 48 77
REMARK SMILES IDX 53 78 49 79 50 80 52 81 54 82 51 83
REMARK H PARENT 10 14 1 22 1 23 71 45 45 56
REMARK Flexibility Score: inf
ROOT
ATOM      1  C   UNL     1       7.016  -1.079  -6.047  1.00  0.00     0.275 C 
ENDROOT
BRANCH   1   2
ATOM      2  O   UNL     1       6.497   0.048  -5.314  1.00  0.00    -0.456 OA
BRANCH   2   3
ATOM      3  C   UNL     1       5.270  -0.149  -4.750  1.00  0.00     0.374 C 
ATOM      4  O   UNL     1       4.580  -1.147  -4.934  1.00  0.00    -0.242 OA
BRANCH   3   5
ATOM      5  C   UNL     1       4.957   0.911  -3.821  1.00  0.00     0.211 A 
ATOM      6  C   UNL     1       3.954   1.641  -1.989  1.00  0.00     0.124 A 
ATOM      7  C   UNL     1       4.809   2.647  -2.387  1.00  0.00     0.048 A 
ATOM      8  O   UNL     1       3.991   0.631  -2.899  1.00  0.00    -0.452 OA
ATOM      9  C   UNL     1       5.463   2.171  -3.562  1.00  0.00     0.058 A 
BRANCH   6  10
ATOM     10  C   UNL     1       3.144   1.321  -0.790  1.00  0.00     0.191 C 
BRANCH  10  11
ATOM     11  N   UNL     1       2.345   2.425  -0.321  1.00  0.00    -0.345 N 
ATOM     12  C   UNL     1       1.091   2.372   0.243  1.00  0.00     0.253 C 
ATOM     13  O   UNL     1       0.580   3.410   0.660  1.00  0.00    -0.269 OA
ATOM     14  H   UNL     1       2.743   3.321  -0.414  1.00  0.00     0.164 HD
BRANCH  12  15
ATOM     15  C   UNL     1       0.299   1.110   0.269  1.00  0.00     0.062 A 
ATOM     16  C   UNL     1       0.731  -0.111   0.827  1.00  0.00     0.044 A 
ATOM     17  C   UNL     1      -0.077  -1.244   0.635  1.00  0.00     0.026 A 
ATOM     18  C   UNL     1      -1.341  -1.147   0.046  1.00  0.00     0.002 A 
ATOM     19  C   UNL     1      -0.990   1.209  -0.287  1.00  0.00     0.016 A 
ATOM     20  C   UNL     1      -1.811   0.087  -0.387  1.00  0.00     0.001 A 
BRANCH  16  21
ATOM     21  N   UNL     1       1.969  -0.290   1.448  1.00  0.00    -0.398 N 
ATOM     22  H   UNL     1       2.211  -1.170   1.818  1.00  0.00     0.156 HD
ATOM     23  H   UNL     1       2.600   0.463   1.516  1.00  0.00     0.156 HD
ENDBRANCH  16  21
ENDBRANCH  12  15
ENDBRANCH  10  11
ENDBRANCH   6  10
ENDBRANCH   3   5
ENDBRANCH   2   3
ENDBRANCH   1   2
BRANCH   1  24
ATOM     24  C   UNL     1       7.950  -1.941  -5.189  1.00  0.00     0.275 C 
BRANCH  24  25
ATOM     25  O   UNL     1       7.249  -2.687  -4.171  1.00  0.00    -0.458 OA
BRANCH  25  26
ATOM     26  C   UNL     1       7.159  -2.071  -2.969  1.00  0.00     0.338 C 
ATOM     27  O   UNL     1       7.596  -0.967  -2.682  1.00  0.00    -0.246 OA
BRANCH  26  28
ATOM     28  C   UNL     1       6.364  -2.873  -2.018  1.00  0.00     0.060 A 
ATOM     29  C   UNL     1       5.329  -2.226  -1.339  1.00  0.00     0.016 A 
ATOM     30  C   UNL     1       6.692  -4.193  -1.699  1.00  0.00     0.016 A 
ATOM     31  C   UNL     1       4.640  -2.877  -0.318  1.00  0.00     0.010 A 
ATOM     32  C   UNL     1       5.996  -4.850  -0.673  1.00  0.00     0.010 A 
ATOM     33  C   UNL     1       4.984  -4.186   0.045  1.00  0.00    -0.014 A 
BRANCH  33  34
ATOM     34  C   UNL     1       4.331  -4.802   1.230  1.00  0.00     0.031 A 
ATOM     35  C   UNL     1       5.087  -4.933   2.525  1.00  0.00     0.074 A 
ATOM     36  C   UNL     1       3.040  -5.178   1.173  1.00  0.00     0.049 A 
ATOM     37  N   UNL     1       4.679  -5.399   3.679  1.00  0.00    -0.248 NA
ATOM     38  C   UNL     1       6.485  -4.476   2.522  1.00  0.00     0.031 C 
ATOM     39  C   UNL     1       2.185  -5.086  -0.009  1.00  0.00     0.029 A 
ATOM     40  N   UNL     1       2.220  -5.705   2.141  1.00  0.00    -0.354 N 
ATOM     41  C   UNL     1       5.770  -5.302   4.535  1.00  0.00     0.074 A 
ATOM     42  C   UNL     1       6.864  -4.756   3.760  1.00  0.00     0.031 C 
ATOM     43  C   UNL     1       0.957  -5.531   0.304  1.00  0.00     0.029 A 
ATOM     44  C   UNL     1       0.945  -5.963   1.700  1.00  0.00     0.049 A 
ATOM     45  H   UNL     1       2.517  -5.880   3.062  1.00  0.00     0.167 HD
ATOM     46  C   UNL     1       5.852  -5.624   5.849  1.00  0.00     0.037 A 
ATOM     47  C   UNL     1      -0.112  -6.493   2.346  1.00  0.00     0.037 A 
ATOM     48  C   UNL     1       4.766  -6.157   6.631  1.00  0.00     0.049 A 
ATOM     49  C   UNL     1       0.014  -6.872   3.796  1.00  0.00     0.074 A 
ATOM     50  C   UNL     1       4.755  -6.501   7.972  1.00  0.00     0.029 A 
ATOM     51  N   UNL     1       3.497  -6.424   6.142  1.00  0.00    -0.354 N 
ATOM     52  N   UNL     1       1.045  -6.753   4.596  1.00  0.00    -0.248 NA
ATOM     53  C   UNL     1      -1.177  -7.453   4.434  1.00  0.00     0.031 C 
ATOM     54  C   UNL     1       3.489  -7.007   8.287  1.00  0.00     0.029 A 
ATOM     55  C   UNL     1       2.699  -6.939   7.151  1.00  0.00     0.049 A 
ATOM     56  H   UNL     1       3.205  -6.270   5.214  1.00  0.00     0.167 HD
ATOM     57  C   UNL     1       0.620  -7.219   5.835  1.00  0.00     0.074 A 
ATOM     58  C   UNL     1      -0.766  -7.609   5.684  1.00  0.00     0.031 C 
ATOM     59  C   UNL     1       1.318  -7.315   6.993  1.00  0.00     0.037 A 
BRANCH  46  60
ATOM     60  C   UNL     1       7.176  -5.422   6.526  1.00  0.00     0.057 A 
ATOM     61  C   UNL     1       7.652  -4.145   6.849  1.00  0.00     0.134 A 
ATOM     62  C   UNL     1       7.968  -6.519   6.887  1.00  0.00     0.134 A 
ATOM     63  F   UNL     1       6.946  -3.053   6.519  1.00  0.00    -0.206 F 
ATOM     64  C   UNL     1       8.880  -3.965   7.488  1.00  0.00     0.040 A 
ATOM     65  C   UNL     1       9.188  -6.352   7.546  1.00  0.00     0.040 A 
ATOM     66  F   UNL     1       7.567  -7.769   6.612  1.00  0.00    -0.206 F 
ATOM     67  C   UNL     1       9.649  -5.071   7.843  1.00  0.00     0.006 A 
ENDBRANCH  46  60
BRANCH  47  68
ATOM     68  C   UNL     1      -1.394  -6.692   1.627  1.00  0.00     0.057 A 
ATOM     69  C   UNL     1      -2.515  -5.907   1.914  1.00  0.00     0.134 A 
ATOM     70  C   UNL     1      -1.532  -7.685   0.650  1.00  0.00     0.134 A 
ATOM     71  F   UNL     1      -2.448  -4.954   2.856  1.00  0.00    -0.206 F 
ATOM     72  C   UNL     1      -3.736  -6.113   1.269  1.00  0.00     0.040 A 
ATOM     73  C   UNL     1      -2.739  -7.886  -0.021  1.00  0.00     0.040 A 
ATOM     74  F   UNL     1      -0.492  -8.469   0.330  1.00  0.00    -0.206 F 
ATOM     75  C   UNL     1      -3.848  -7.102   0.294  1.00  0.00     0.006 A 
ENDBRANCH  47  68
BRANCH  59  76
ATOM     76  C   UNL     1       0.582  -7.826   8.197  1.00  0.00     0.057 A 
ATOM     77  C   UNL     1       0.236  -9.176   8.336  1.00  0.00     0.134 A 
ATOM     78  C   UNL     1       0.236  -6.958   9.241  1.00  0.00     0.134 A 
ATOM     79  F   UNL     1       0.528 -10.056   7.367  1.00  0.00    -0.206 F 
ATOM     80  C   UNL     1      -0.451  -9.640   9.460  1.00  0.00     0.040 A 
ATOM     81  C   UNL     1      -0.431  -7.415  10.379  1.00  0.00     0.040 A 
ATOM     82  F   UNL     1       0.545  -5.655   9.175  1.00  0.00    -0.206 F 
ATOM     83  C   UNL     1      -0.782  -8.759  10.488  1.00  0.00     0.006 A 
ENDBRANCH  59  76
ENDBRANCH  33  34
ENDBRANCH  26  28
ENDBRANCH  25  26
ENDBRANCH  24  25
ENDBRANCH   1  24
TORSDOF 15
