REMARK SMILES O=C(CCc1ccc(S(=O)(=O)NC2COC2)cc1)OCCOC(=O)c1ccc(-c2c3nc(c(-c4c(F)cccc4F)c4ccc([nH]4)c(-c4c(F)cccc4F)c4nc(c(-c5c(F)cccc5F)c5ccc2[nH]5)C=C4)C=C3)cc1
REMARK SMILES IDX 19 1 2 2 1 3 3 4 4 5 5 6 6 7 18 8 7 9 17 10 8 11 9 12 10 13
REMARK SMILES IDX 11 14 12 15 13 17 14 18 16 19 15 20 20 21 21 22 22 23 23 24
REMARK SMILES IDX 24 25 25 26 26 27 78 28 27 29 77 30 28 31 29 32 30 33 71 34
REMARK SMILES IDX 31 35 76 36 70 37 72 38 32 39 75 40 69 41 68 42 33 44 59 45
REMARK SMILES IDX 42 46 58 47 43 48 46 49 57 50 73 51 44 52 45 53 56 55 74 56
REMARK SMILES IDX 47 57 34 58 35 59 40 60 36 61 37 62 39 63 41 64 38 65 60 66
REMARK SMILES IDX 61 67 66 68 62 69 63 70 65 71 67 72 64 73 48 74 49 75 54 76
REMARK SMILES IDX 50 77 51 78 53 79 55 80 52 81
REMARK H PARENT 12 16 72 43 46 54
REMARK Flexibility Score: inf
ROOT
ATOM      1  O   UNL     1       2.100   0.394  -0.409  1.00  0.00    -0.462 OA
ENDROOT
BRANCH   1   2
ATOM      2  C   UNL     1       2.276  -0.931  -0.664  1.00  0.00     0.306 C 
ATOM      3  O   UNL     1       1.608  -1.513  -1.511  1.00  0.00    -0.252 OA
BRANCH   2   4
ATOM      4  C   UNL     1       3.170  -1.672   0.309  1.00  0.00     0.127 C 
BRANCH   4   5
ATOM      5  C   UNL     1       4.257  -2.518  -0.357  1.00  0.00     0.047 C 
BRANCH   5   6
ATOM      6  C   UNL     1       5.432  -1.733  -0.901  1.00  0.00    -0.047 A 
ATOM      7  C   UNL     1       5.956  -2.054  -2.162  1.00  0.00     0.005 A 
ATOM      8  C   UNL     1       6.015  -0.680  -0.181  1.00  0.00     0.005 A 
ATOM      9  C   UNL     1       6.908  -1.231  -2.769  1.00  0.00     0.022 A 
ATOM     10  C   UNL     1       6.947   0.159  -0.789  1.00  0.00     0.022 A 
ATOM     11  C   UNL     1       7.342  -0.085  -2.106  1.00  0.00     0.082 A 
BRANCH  11  12
ATOM     12  S   UNL     1       8.303   1.137  -2.961  1.00  0.00     0.240 S 
ATOM     13  O   UNL     1       9.514   1.378  -2.212  1.00  0.00    -0.207 OA
ATOM     14  O   UNL     1       8.307   0.817  -4.370  1.00  0.00    -0.207 OA
BRANCH  12  15
ATOM     15  N   UNL     1       7.312   2.500  -2.823  1.00  0.00    -0.203 NA
ATOM     16  H   UNL     1       6.361   2.140  -2.746  1.00  0.00     0.141 HD
BRANCH  15  17
ATOM     17  C   UNL     1       7.435   3.538  -1.752  1.00  0.00     0.121 C 
ATOM     18  C   UNL     1       8.165   4.856  -2.040  1.00  0.00     0.182 C 
ATOM     19  C   UNL     1       6.226   4.451  -1.503  1.00  0.00     0.182 C 
ATOM     20  O   UNL     1       7.085   5.616  -1.429  1.00  0.00    -0.378 OA
ENDBRANCH  15  17
ENDBRANCH  12  15
ENDBRANCH  11  12
ENDBRANCH   5   6
ENDBRANCH   4   5
ENDBRANCH   2   4
ENDBRANCH   1   2
BRANCH   1  21
ATOM     21  C   UNL     1       3.225   1.267  -0.609  1.00  0.00     0.274 C 
BRANCH  21  22
ATOM     22  C   UNL     1       3.657   2.008   0.665  1.00  0.00     0.275 C 
BRANCH  22  23
ATOM     23  O   UNL     1       3.515   1.190   1.834  1.00  0.00    -0.458 OA
BRANCH  23  24
ATOM     24  C   UNL     1       2.271   1.251   2.374  1.00  0.00     0.338 C 
ATOM     25  O   UNL     1       1.400   2.061   2.104  1.00  0.00    -0.246 OA
BRANCH  24  26
ATOM     26  C   UNL     1       2.025   0.068   3.220  1.00  0.00     0.060 A 
ATOM     27  C   UNL     1       0.782  -0.560   3.083  1.00  0.00     0.016 A 
ATOM     28  C   UNL     1       2.951  -0.391   4.162  1.00  0.00     0.016 A 
ATOM     29  C   UNL     1       0.418  -1.578   3.958  1.00  0.00     0.010 A 
ATOM     30  C   UNL     1       2.586  -1.423   5.036  1.00  0.00     0.010 A 
ATOM     31  C   UNL     1       1.293  -1.972   4.980  1.00  0.00    -0.014 A 
BRANCH  31  32
ATOM     32  C   UNL     1       0.744  -2.783   6.097  1.00  0.00     0.031 A 
ATOM     33  C   UNL     1       0.348  -2.080   7.370  1.00  0.00     0.074 A 
ATOM     34  C   UNL     1       0.493  -4.096   5.949  1.00  0.00     0.049 A 
ATOM     35  N   UNL     1      -0.282  -2.549   8.418  1.00  0.00    -0.248 NA
ATOM     36  C   UNL     1       0.705  -0.656   7.475  1.00  0.00     0.031 C 
ATOM     37  C   UNL     1       0.800  -4.888   4.760  1.00  0.00     0.029 A 
ATOM     38  N   UNL     1      -0.105  -4.987   6.805  1.00  0.00    -0.354 N 
ATOM     39  C   UNL     1      -0.404  -1.479   9.296  1.00  0.00     0.074 A 
ATOM     40  C   UNL     1       0.263  -0.351   8.684  1.00  0.00     0.031 C 
ATOM     41  C   UNL     1       0.373  -6.148   4.955  1.00  0.00     0.029 A 
ATOM     42  C   UNL     1      -0.227  -6.252   6.285  1.00  0.00     0.049 A 
ATOM     43  H   UNL     1      -0.416  -4.743   7.706  1.00  0.00     0.167 HD
ATOM     44  C   UNL     1      -1.033  -1.428  10.494  1.00  0.00     0.037 A 
ATOM     45  C   UNL     1      -0.771  -7.363   6.819  1.00  0.00     0.037 A 
ATOM     46  C   UNL     1      -1.700  -2.546  11.107  1.00  0.00     0.049 A 
ATOM     47  C   UNL     1      -1.414  -7.296   8.181  1.00  0.00     0.074 A 
ATOM     48  C   UNL     1      -2.384  -2.588  12.309  1.00  0.00     0.029 A 
ATOM     49  N   UNL     1      -1.757  -3.822  10.568  1.00  0.00    -0.354 N 
ATOM     50  N   UNL     1      -1.572  -6.265   8.975  1.00  0.00    -0.248 NA
ATOM     51  C   UNL     1      -1.970  -8.550   8.711  1.00  0.00     0.031 C 
ATOM     52  C   UNL     1      -2.807  -3.904  12.524  1.00  0.00     0.029 A 
ATOM     53  C   UNL     1      -2.440  -4.666  11.427  1.00  0.00     0.049 A 
ATOM     54  H   UNL     1      -1.369  -4.088   9.703  1.00  0.00     0.167 HD
ATOM     55  C   UNL     1      -2.281  -6.736  10.075  1.00  0.00     0.074 A 
ATOM     56  C   UNL     1      -2.530  -8.142   9.841  1.00  0.00     0.031 C 
ATOM     57  C   UNL     1      -2.695  -6.062  11.178  1.00  0.00     0.037 A 
BRANCH  44  58
ATOM     58  C   UNL     1      -1.007  -0.120  11.230  1.00  0.00     0.057 A 
ATOM     59  C   UNL     1      -1.736   0.994  10.793  1.00  0.00     0.134 A 
ATOM     60  C   UNL     1      -0.256   0.020  12.404  1.00  0.00     0.134 A 
ATOM     61  F   UNL     1      -2.462   0.932   9.666  1.00  0.00    -0.206 F 
ATOM     62  C   UNL     1      -1.697   2.208  11.481  1.00  0.00     0.040 A 
ATOM     63  C   UNL     1      -0.232   1.220  13.116  1.00  0.00     0.040 A 
ATOM     64  F   UNL     1       0.463  -1.007  12.880  1.00  0.00    -0.206 F 
ATOM     65  C   UNL     1      -0.948   2.321  12.651  1.00  0.00     0.006 A 
ENDBRANCH  44  58
BRANCH  45  66
ATOM     66  C   UNL     1      -0.758  -8.641   6.060  1.00  0.00     0.057 A 
ATOM     67  C   UNL     1      -1.941  -9.216   5.581  1.00  0.00     0.134 A 
ATOM     68  C   UNL     1       0.435  -9.338   5.834  1.00  0.00     0.134 A 
ATOM     69  F   UNL     1      -3.119  -8.608   5.787  1.00  0.00    -0.206 F 
ATOM     70  C   UNL     1      -1.943 -10.450   4.928  1.00  0.00     0.040 A 
ATOM     71  C   UNL     1       0.451 -10.560   5.160  1.00  0.00     0.040 A 
ATOM     72  F   UNL     1       1.603  -8.841   6.267  1.00  0.00    -0.206 F 
ATOM     73  C   UNL     1      -0.742 -11.124   4.713  1.00  0.00     0.006 A 
ENDBRANCH  45  66
BRANCH  57  74
ATOM     74  C   UNL     1      -3.506  -6.821  12.189  1.00  0.00     0.057 A 
ATOM     75  C   UNL     1      -2.948  -7.819  12.999  1.00  0.00     0.134 A 
ATOM     76  C   UNL     1      -4.864  -6.526  12.376  1.00  0.00     0.134 A 
ATOM     77  F   UNL     1      -1.656  -8.158  12.868  1.00  0.00    -0.206 F 
ATOM     78  C   UNL     1      -3.717  -8.517  13.932  1.00  0.00     0.040 A 
ATOM     79  C   UNL     1      -5.635  -7.195  13.327  1.00  0.00     0.040 A 
ATOM     80  F   UNL     1      -5.461  -5.573  11.644  1.00  0.00    -0.206 F 
ATOM     81  C   UNL     1      -5.064  -8.201  14.102  1.00  0.00     0.006 A 
ENDBRANCH  57  74
ENDBRANCH  31  32
ENDBRANCH  24  26
ENDBRANCH  23  24
ENDBRANCH  22  23
ENDBRANCH  21  22
ENDBRANCH   1  21
TORSDOF 16
