REMARK SMILES Cc1cccc([C@H]([NH3+])[C@H](O)C(=O)OCCOC(=O)c2ccc(-c3c4nc(c(-c5c(F)cccc5F)c5ccc([nH]5)c(-c5c(F)cccc5F)c5nc(c(-c6c(F)cccc6F)c6ccc3[nH]6)C=C5)C=C4)cc2)c1
REMARK SMILES IDX 14 1 13 2 11 3 12 4 9 5 7 6 6 7 1 8 2 9 3 10 73 11 4 12 5 13
REMARK SMILES IDX 8 14 10 18 15 20 16 21 17 22 18 23 19 24 20 25 72 26 21 27
REMARK SMILES IDX 71 28 22 29 23 30 24 31 65 32 25 33 70 34 64 35 66 36 26 37
REMARK SMILES IDX 69 38 63 39 62 40 27 42 53 43 36 44 52 45 37 46 40 47 51 48
REMARK SMILES IDX 67 49 38 50 39 51 50 53 68 54 41 55 28 56 29 57 34 58 30 59
REMARK SMILES IDX 31 60 33 61 35 62 32 63 54 64 55 65 60 66 56 67 57 68 59 69
REMARK SMILES IDX 61 70 58 71 42 72 43 73 48 74 44 75 45 76 47 77 49 78 46 79
REMARK H PARENT 8 15 8 16 8 17 10 19 66 41 40 52
REMARK Flexibility Score: inf
ROOT
ATOM      1  C   UNL     1      -2.859   5.939  -0.848  1.00  0.00     0.274 C 
ENDROOT
BRANCH   1   2
ATOM      2  O   UNL     1      -2.573   4.535  -0.801  1.00  0.00    -0.460 OA
BRANCH   2   3
ATOM      3  C   UNL     1      -1.785   4.189   0.269  1.00  0.00     0.341 C 
ATOM      4  O   UNL     1      -1.271   4.990   1.018  1.00  0.00    -0.249 OA
BRANCH   3   5
ATOM      5  C   UNL     1      -1.728   2.656   0.388  1.00  0.00     0.287 C 
BRANCH   5   6
ATOM      6  C   UNL     1      -0.938   2.186   1.657  1.00  0.00     0.252 C 
BRANCH   6   7
ATOM      7  C   UNL     1       0.578   2.400   1.669  1.00  0.00     0.013 A 
ATOM      8  C   UNL     1       3.563   1.527   3.910  1.00  0.00     0.044 C 
ATOM      9  C   UNL     1       2.742   2.121   2.805  1.00  0.00    -0.051 A 
ATOM     10  C   UNL     1       3.372   2.828   1.779  1.00  0.00     0.003 A 
ATOM     11  C   UNL     1       1.352   1.929   2.751  1.00  0.00     0.013 A 
ATOM     12  C   UNL     1       2.628   3.324   0.715  1.00  0.00     0.001 A 
ATOM     13  C   UNL     1       1.251   3.100   0.657  1.00  0.00     0.010 A 
ENDBRANCH   6   7
BRANCH   6  14
ATOM     14  N   UNL     1      -1.266   0.766   1.944  1.00  0.00    -0.349 N 
ATOM     15  H   UNL     1      -0.928   0.178   1.182  1.00  0.00     0.345 HD
ATOM     16  H   UNL     1      -2.277   0.662   2.031  1.00  0.00     0.345 HD
ATOM     17  H   UNL     1      -0.819   0.484   2.816  1.00  0.00     0.345 HD
ENDBRANCH   6  14
ENDBRANCH   5   6
BRANCH   5  18
ATOM     18  O   UNL     1      -1.301   2.030  -0.819  1.00  0.00    -0.376 OA
ATOM     19  H   UNL     1      -0.389   2.295  -1.016  1.00  0.00     0.212 HD
ENDBRANCH   5  18
ENDBRANCH   3   5
ENDBRANCH   2   3
ENDBRANCH   1   2
BRANCH   1  20
ATOM     20  C   UNL     1      -4.124   6.237  -1.657  1.00  0.00     0.275 C 
BRANCH  20  21
ATOM     21  O   UNL     1      -5.134   5.192  -1.771  1.00  0.00    -0.458 OA
BRANCH  21  22
ATOM     22  C   UNL     1      -5.667   4.371  -0.836  1.00  0.00     0.338 C 
ATOM     23  O   UNL     1      -6.350   3.401  -1.140  1.00  0.00    -0.246 OA
BRANCH  22  24
ATOM     24  C   UNL     1      -5.351   4.615   0.580  1.00  0.00     0.060 A 
ATOM     25  C   UNL     1      -4.991   3.528   1.396  1.00  0.00     0.016 A 
ATOM     26  C   UNL     1      -5.364   5.907   1.087  1.00  0.00     0.016 A 
ATOM     27  C   UNL     1      -4.499   3.751   2.684  1.00  0.00     0.010 A 
ATOM     28  C   UNL     1      -4.816   6.134   2.334  1.00  0.00     0.010 A 
ATOM     29  C   UNL     1      -4.380   5.064   3.137  1.00  0.00    -0.014 A 
BRANCH  29  30
ATOM     30  C   UNL     1      -4.039   5.428   4.511  1.00  0.00     0.031 A 
ATOM     31  C   UNL     1      -2.676   5.419   5.084  1.00  0.00     0.074 A 
ATOM     32  C   UNL     1      -5.092   5.878   5.221  1.00  0.00     0.049 A 
ATOM     33  N   UNL     1      -2.415   5.459   6.349  1.00  0.00    -0.248 NA
ATOM     34  C   UNL     1      -1.474   5.309   4.276  1.00  0.00     0.031 C 
ATOM     35  C   UNL     1      -5.118   6.624   6.466  1.00  0.00     0.029 A 
ATOM     36  N   UNL     1      -6.429   5.539   4.979  1.00  0.00    -0.354 N 
ATOM     37  C   UNL     1      -1.054   5.656   6.506  1.00  0.00     0.074 A 
ATOM     38  C   UNL     1      -0.508   5.437   5.191  1.00  0.00     0.031 C 
ATOM     39  C   UNL     1      -6.335   6.476   7.020  1.00  0.00     0.029 A 
ATOM     40  C   UNL     1      -7.036   5.465   6.236  1.00  0.00     0.049 A 
ATOM     41  H   UNL     1      -6.853   5.384   4.104  1.00  0.00     0.167 HD
ATOM     42  C   UNL     1      -0.581   6.129   7.700  1.00  0.00     0.037 A 
ATOM     43  C   UNL     1      -7.454   4.258   6.720  1.00  0.00     0.037 A 
ATOM     44  C   UNL     1      -1.667   6.202   8.675  1.00  0.00     0.049 A 
ATOM     45  C   UNL     1      -6.822   3.937   8.046  1.00  0.00     0.074 A 
ATOM     46  C   UNL     1      -2.497   7.245   9.052  1.00  0.00     0.029 A 
ATOM     47  N   UNL     1      -2.234   5.035   9.176  1.00  0.00    -0.354 N 
ATOM     48  N   UNL     1      -5.604   4.270   8.374  1.00  0.00    -0.248 NA
ATOM     49  C   UNL     1      -7.544   3.262   9.118  1.00  0.00     0.031 C 
ATOM     50  C   UNL     1      -3.623   6.687   9.703  1.00  0.00     0.029 A 
ATOM     51  C   UNL     1      -3.452   5.314   9.761  1.00  0.00     0.049 A 
ATOM     52  H   UNL     1      -1.825   4.141   9.121  1.00  0.00     0.167 HD
ATOM     53  C   UNL     1      -5.400   3.941   9.688  1.00  0.00     0.074 A 
ATOM     54  C   UNL     1      -6.630   3.289  10.102  1.00  0.00     0.031 C 
ATOM     55  C   UNL     1      -4.259   4.266  10.360  1.00  0.00     0.037 A 
BRANCH  42  56
ATOM     56  C   UNL     1       0.756   6.830   7.923  1.00  0.00     0.057 A 
ATOM     57  C   UNL     1       0.925   7.711   9.019  1.00  0.00     0.134 A 
ATOM     58  C   UNL     1       1.879   6.764   7.082  1.00  0.00     0.134 A 
ATOM     59  F   UNL     1       0.007   7.813   9.990  1.00  0.00    -0.206 F 
ATOM     60  C   UNL     1       2.046   8.537   9.183  1.00  0.00     0.040 A 
ATOM     61  C   UNL     1       2.998   7.607   7.218  1.00  0.00     0.040 A 
ATOM     62  F   UNL     1       1.990   5.847   6.119  1.00  0.00    -0.206 F 
ATOM     63  C   UNL     1       3.077   8.514   8.259  1.00  0.00     0.006 A 
ENDBRANCH  42  56
BRANCH  43  64
ATOM     64  C   UNL     1      -7.779   3.242   5.675  1.00  0.00     0.057 A 
ATOM     65  C   UNL     1      -8.760   3.534   4.707  1.00  0.00     0.134 A 
ATOM     66  C   UNL     1      -6.967   2.130   5.427  1.00  0.00     0.134 A 
ATOM     67  F   UNL     1      -9.575   4.589   4.870  1.00  0.00    -0.206 F 
ATOM     68  C   UNL     1      -8.867   2.814   3.513  1.00  0.00     0.040 A 
ATOM     69  C   UNL     1      -7.075   1.392   4.239  1.00  0.00     0.040 A 
ATOM     70  F   UNL     1      -6.004   1.777   6.290  1.00  0.00    -0.206 F 
ATOM     71  C   UNL     1      -8.007   1.750   3.266  1.00  0.00     0.006 A 
ENDBRANCH  43  64
BRANCH  55  72
ATOM     72  C   UNL     1      -3.871   3.728  11.710  1.00  0.00     0.057 A 
ATOM     73  C   UNL     1      -4.224   2.449  12.162  1.00  0.00     0.134 A 
ATOM     74  C   UNL     1      -2.979   4.438  12.543  1.00  0.00     0.134 A 
ATOM     75  F   UNL     1      -4.972   1.624  11.415  1.00  0.00    -0.206 F 
ATOM     76  C   UNL     1      -3.777   1.936  13.385  1.00  0.00     0.040 A 
ATOM     77  C   UNL     1      -2.486   3.915  13.741  1.00  0.00     0.040 A 
ATOM     78  F   UNL     1      -2.529   5.659  12.220  1.00  0.00    -0.206 F 
ATOM     79  C   UNL     1      -2.896   2.664  14.174  1.00  0.00     0.006 A 
ENDBRANCH  55  72
ENDBRANCH  29  30
ENDBRANCH  22  24
ENDBRANCH  21  22
ENDBRANCH  20  21
ENDBRANCH   1  20
TORSDOF 15
