REMARK SMILES Cc1coc2c(C)c3oc(=O)c(CC(=O)NCC(=O)N[C@H](C(=O)OCCOC(=O)c4ccc(-c5c6nc(c(-c7c(F)cccc7F)c7ccc([nH]7)c(-c7c(F)cccc7F)c7nc(c(-c8c(F)cccc8F)c8ccc5[nH]8)C=C7)C=C6)cc4)C(C)C)c(C)c3cc12
REMARK SMILES IDX 24 1 22 2 23 3 21 4 20 5 18 6 19 7 17 9 16 10 14 11 15 12
REMARK SMILES IDX 13 14 12 15 1 16 2 17 3 18 91 19 4 20 5 21 90 22 6 23 89 24
REMARK SMILES IDX 7 25 8 26 87 27 9 28 88 29 10 30 11 31 84 32 85 33 86 34
REMARK SMILES IDX 25 35 26 36 27 37 28 38 29 39 30 40 31 41 83 42 32 43 82 44
REMARK SMILES IDX 33 45 34 46 35 47 76 48 36 49 81 50 75 51 77 52 37 53 80 54
REMARK SMILES IDX 74 55 73 56 38 58 64 59 47 60 63 61 48 62 51 63 62 64 78 65
REMARK SMILES IDX 49 66 50 67 61 69 79 70 52 71 39 72 40 73 45 74 41 75 42 76
REMARK SMILES IDX 44 77 46 78 43 79 65 80 66 81 71 82 67 83 68 84 70 85 72 86
REMARK SMILES IDX 69 87 53 88 54 89 59 90 55 91 56 92 58 93 60 94 57 95
REMARK H PARENT 20 8 16 13 77 57 51 68
REMARK Flexibility Score: inf
ROOT
ATOM      1  O   UNL     1       5.311   4.751   1.611  1.00  0.00    -0.461 OA
ENDROOT
BRANCH   1   2
ATOM      2  C   UNL     1       4.626   3.625   1.280  1.00  0.00     0.329 C 
ATOM      3  O   UNL     1       5.050   2.483   1.441  1.00  0.00    -0.250 OA
BRANCH   2   4
ATOM      4  C   UNL     1       3.252   3.915   0.623  1.00  0.00     0.194 C 
BRANCH   4   5
ATOM      5  N   UNL     1       3.346   3.291  -0.702  1.00  0.00    -0.341 N 
ATOM      6  C   UNL     1       2.773   3.580  -1.897  1.00  0.00     0.240 C 
ATOM      7  O   UNL     1       3.118   2.890  -2.862  1.00  0.00    -0.273 OA
ATOM      8  H   UNL     1       3.943   2.508  -0.728  1.00  0.00     0.164 HD
BRANCH   6   9
ATOM      9  C   UNL     1       1.869   4.803  -2.099  1.00  0.00     0.216 C 
BRANCH   9  10
ATOM     10  N   UNL     1       0.737   4.920  -1.199  1.00  0.00    -0.347 N 
ATOM     11  C   UNL     1       0.109   6.000  -0.664  1.00  0.00     0.225 C 
ATOM     12  O   UNL     1      -0.961   5.787  -0.083  1.00  0.00    -0.275 OA
ATOM     13  H   UNL     1       0.352   4.056  -0.924  1.00  0.00     0.164 HD
BRANCH  11  14
ATOM     14  C   UNL     1       0.640   7.427  -0.773  1.00  0.00     0.143 C 
BRANCH  14  15
ATOM     15  C   UNL     1       2.003   7.698  -0.168  1.00  0.00     0.051 A 
ATOM     16  C   UNL     1       5.733   8.556   5.825  1.00  0.00     0.048 C 
ATOM     17  C   UNL     1       6.230   8.566   4.429  1.00  0.00    -0.005 A 
ATOM     18  C   UNL     1       7.552   8.614   4.035  1.00  0.00     0.199 A 
ATOM     19  C   UNL     1       5.469   8.448   3.220  1.00  0.00     0.024 A 
ATOM     20  O   UNL     1       7.662   8.490   2.690  1.00  0.00    -0.464 OA
ATOM     21  C   UNL     1       6.399   8.377   2.191  1.00  0.00     0.140 A 
ATOM     22  C   UNL     1       4.099   8.329   2.892  1.00  0.00     0.024 A 
ATOM     23  C   UNL     1       6.087   8.184   0.846  1.00  0.00     0.036 A 
ATOM     24  C   UNL     1       3.702   8.115   1.556  1.00  0.00     0.022 A 
ATOM     25  C   UNL     1       7.141   8.052  -0.207  1.00  0.00     0.052 C 
ATOM     26  C   UNL     1       4.707   8.060   0.584  1.00  0.00     0.145 A 
ATOM     27  C   UNL     1       2.291   7.882   1.143  1.00  0.00    -0.029 A 
ATOM     28  O   UNL     1       4.365   7.887  -0.770  1.00  0.00    -0.422 OA
ATOM     29  C   UNL     1       1.251   7.853   2.237  1.00  0.00     0.046 C 
ATOM     30  C   UNL     1       3.059   7.900  -1.195  1.00  0.00     0.340 A 
ATOM     31  O   UNL     1       2.793   8.002  -2.389  1.00  0.00    -0.246 OA
ENDBRANCH  14  15
ENDBRANCH  11  14
ENDBRANCH   9  10
ENDBRANCH   6   9
ENDBRANCH   4   5
BRANCH   4  32
ATOM     32  C   UNL     1       2.157   3.254   1.513  1.00  0.00     0.017 C 
ATOM     33  C   UNL     1       1.209   4.276   2.142  1.00  0.00     0.010 C 
ATOM     34  C   UNL     1       1.348   2.124   0.871  1.00  0.00     0.010 C 
ENDBRANCH   4  32
ENDBRANCH   2   4
ENDBRANCH   1   2
BRANCH   1  35
ATOM     35  C   UNL     1       6.572   4.549   2.287  1.00  0.00     0.274 C 
BRANCH  35  36
ATOM     36  C   UNL     1       6.507   4.827   3.791  1.00  0.00     0.275 C 
BRANCH  36  37
ATOM     37  O   UNL     1       5.548   4.041   4.506  1.00  0.00    -0.458 OA
BRANCH  37  38
ATOM     38  C   UNL     1       4.309   4.568   4.448  1.00  0.00     0.338 C 
ATOM     39  O   UNL     1       3.896   5.450   3.718  1.00  0.00    -0.246 OA
BRANCH  38  40
ATOM     40  C   UNL     1       3.465   4.062   5.513  1.00  0.00     0.060 A 
ATOM     41  C   UNL     1       2.298   3.390   5.165  1.00  0.00     0.016 A 
ATOM     42  C   UNL     1       3.678   4.553   6.799  1.00  0.00     0.016 A 
ATOM     43  C   UNL     1       1.266   3.311   6.067  1.00  0.00     0.010 A 
ATOM     44  C   UNL     1       2.673   4.399   7.735  1.00  0.00     0.010 A 
ATOM     45  C   UNL     1       1.454   3.823   7.349  1.00  0.00    -0.014 A 
BRANCH  45  46
ATOM     46  C   UNL     1       0.406   3.522   8.313  1.00  0.00     0.031 A 
ATOM     47  C   UNL     1       0.132   2.060   8.498  1.00  0.00     0.074 A 
ATOM     48  C   UNL     1      -0.113   4.457   9.125  1.00  0.00     0.049 A 
ATOM     49  N   UNL     1      -1.001   1.435   8.573  1.00  0.00    -0.248 NA
ATOM     50  C   UNL     1       1.308   1.167   8.517  1.00  0.00     0.031 C 
ATOM     51  C   UNL     1       0.289   5.858   9.263  1.00  0.00     0.029 A 
ATOM     52  N   UNL     1      -0.998   4.281  10.139  1.00  0.00    -0.354 N 
ATOM     53  C   UNL     1      -0.680   0.095   8.792  1.00  0.00     0.074 A 
ATOM     54  C   UNL     1       0.743  -0.030   8.630  1.00  0.00     0.031 C 
ATOM     55  C   UNL     1      -0.132   6.309  10.464  1.00  0.00     0.029 A 
ATOM     56  C   UNL     1      -0.919   5.268  11.103  1.00  0.00     0.049 A 
ATOM     57  H   UNL     1      -1.631   3.528  10.184  1.00  0.00     0.167 HD
ATOM     58  C   UNL     1      -1.567  -0.823   9.260  1.00  0.00     0.037 A 
ATOM     59  C   UNL     1      -1.347   5.161  12.382  1.00  0.00     0.037 A 
ATOM     60  C   UNL     1      -2.928  -0.438   9.043  1.00  0.00     0.049 A 
ATOM     61  C   UNL     1      -2.306   4.029  12.453  1.00  0.00     0.074 A 
ATOM     62  C   UNL     1      -3.692  -0.177   7.921  1.00  0.00     0.029 A 
ATOM     63  N   UNL     1      -3.662   0.032  10.102  1.00  0.00    -0.354 N 
ATOM     64  N   UNL     1      -3.478   4.013  11.877  1.00  0.00    -0.248 NA
ATOM     65  C   UNL     1      -1.791   2.724  12.845  1.00  0.00     0.031 C 
ATOM     66  C   UNL     1      -4.584   0.861   8.314  1.00  0.00     0.029 A 
ATOM     67  C   UNL     1      -4.304   1.155   9.650  1.00  0.00     0.049 A 
ATOM     68  H   UNL     1      -3.715  -0.358  11.005  1.00  0.00     0.167 HD
ATOM     69  C   UNL     1      -3.673   2.694  11.488  1.00  0.00     0.074 A 
ATOM     70  C   UNL     1      -2.653   1.933  12.202  1.00  0.00     0.031 C 
ATOM     71  C   UNL     1      -4.458   2.368  10.419  1.00  0.00     0.037 A 
BRANCH  58  72
ATOM     72  C   UNL     1      -1.167  -1.957  10.162  1.00  0.00     0.057 A 
ATOM     73  C   UNL     1      -2.037  -3.037  10.374  1.00  0.00     0.134 A 
ATOM     74  C   UNL     1      -0.054  -1.896  11.027  1.00  0.00     0.134 A 
ATOM     75  F   UNL     1      -3.154  -3.175   9.644  1.00  0.00    -0.206 F 
ATOM     76  C   UNL     1      -1.826  -3.976  11.391  1.00  0.00     0.040 A 
ATOM     77  C   UNL     1       0.196  -2.857  12.008  1.00  0.00     0.040 A 
ATOM     78  F   UNL     1       0.791  -0.856  11.025  1.00  0.00    -0.206 F 
ATOM     79  C   UNL     1      -0.704  -3.890  12.209  1.00  0.00     0.006 A 
ENDBRANCH  58  72
BRANCH  59  80
ATOM     80  C   UNL     1      -0.704   5.766  13.569  1.00  0.00     0.057 A 
ATOM     81  C   UNL     1      -1.399   5.911  14.774  1.00  0.00     0.134 A 
ATOM     82  C   UNL     1       0.678   6.037  13.617  1.00  0.00     0.134 A 
ATOM     83  F   UNL     1      -2.704   5.612  14.846  1.00  0.00    -0.206 F 
ATOM     84  C   UNL     1      -0.762   6.322  15.953  1.00  0.00     0.040 A 
ATOM     85  C   UNL     1       1.322   6.466  14.780  1.00  0.00     0.040 A 
ATOM     86  F   UNL     1       1.470   5.820  12.556  1.00  0.00    -0.206 F 
ATOM     87  C   UNL     1       0.601   6.605  15.957  1.00  0.00     0.006 A 
ENDBRANCH  59  80
BRANCH  71  88
ATOM     88  C   UNL     1      -5.297   3.443   9.790  1.00  0.00     0.057 A 
ATOM     89  C   UNL     1      -4.748   4.548   9.123  1.00  0.00     0.134 A 
ATOM     90  C   UNL     1      -6.676   3.247   9.658  1.00  0.00     0.134 A 
ATOM     91  F   UNL     1      -3.427   4.751   9.094  1.00  0.00    -0.206 F 
ATOM     92  C   UNL     1      -5.538   5.436   8.389  1.00  0.00     0.040 A 
ATOM     93  C   UNL     1      -7.473   4.109   8.900  1.00  0.00     0.040 A 
ATOM     94  F   UNL     1      -7.262   2.171  10.208  1.00  0.00    -0.206 F 
ATOM     95  C   UNL     1      -6.905   5.213   8.267  1.00  0.00     0.006 A 
ENDBRANCH  71  88
ENDBRANCH  45  46
ENDBRANCH  38  40
ENDBRANCH  37  38
ENDBRANCH  36  37
ENDBRANCH  35  36
ENDBRANCH   1  35
TORSDOF 17
