REMARK SMILES COc1cc(/C=C/C(=O)OCCOC(=O)c2ccc(-c3c4nc(c(-c5c(F)cccc5F)c5ccc([nH]5)c(-c5c(F)cccc5F)c5nc(c(-c6c(F)cccc6F)c6ccc3[nH]6)C=C5)C=C4)cc2)cc(OC)c1O
REMARK SMILES IDX 11 1 10 2 8 3 9 4 7 5 6 6 5 7 3 8 4 9 74 10 71 11 70 12 2 13
REMARK SMILES IDX 1 14 75 15 72 17 73 18 12 19 13 20 14 21 15 22 16 23 17 24
REMARK SMILES IDX 69 25 18 26 68 27 19 28 20 29 21 30 62 31 22 32 67 33 61 34
REMARK SMILES IDX 63 35 23 36 66 37 60 38 59 39 24 41 50 42 33 43 49 44 34 45
REMARK SMILES IDX 37 46 48 47 64 48 35 49 36 50 47 52 65 53 38 54 25 55 26 56
REMARK SMILES IDX 31 57 27 58 28 59 30 60 32 61 29 62 51 63 52 64 57 65 53 66
REMARK SMILES IDX 54 67 56 68 58 69 55 70 39 71 40 72 45 73 41 74 42 75 44 76
REMARK SMILES IDX 46 77 43 78
REMARK H PARENT 75 16 63 40 37 51
REMARK Flexibility Score: inf
ROOT
ATOM      1  C   UNL     1      -0.320  -9.999  -0.135  1.00  0.00     0.275 C 
ENDROOT
BRANCH   1   2
ATOM      2  O   UNL     1       0.339  -8.719  -0.190  1.00  0.00    -0.459 OA
BRANCH   2   3
ATOM      3  C   UNL     1      -0.204  -7.811  -1.035  1.00  0.00     0.330 C 
ATOM      4  O   UNL     1      -1.153  -8.000  -1.783  1.00  0.00    -0.247 OA
BRANCH   3   5
ATOM      5  C   UNL     1       0.429  -6.480  -0.937  1.00  0.00     0.094 C 
ATOM      6  C   UNL     1       1.431  -6.146  -0.110  1.00  0.00     0.016 C 
BRANCH   6   7
ATOM      7  C   UNL     1       1.942  -4.770   0.013  1.00  0.00    -0.018 A 
ATOM      8  C   UNL     1       1.582  -2.384   0.317  1.00  0.00     0.165 A 
ATOM      9  C   UNL     1       1.079  -3.671   0.103  1.00  0.00     0.058 A 
ATOM     10  C   UNL     1       2.960  -2.188   0.488  1.00  0.00     0.200 A 
ATOM     11  C   UNL     1       3.844  -3.267   0.360  1.00  0.00     0.165 A 
ATOM     12  C   UNL     1       3.319  -4.551   0.139  1.00  0.00     0.058 A 
BRANCH   8  13
ATOM     13  O   UNL     1       0.641  -1.396   0.463  1.00  0.00    -0.493 OA
ATOM     14  C   UNL     1       0.879  -0.216  -0.307  1.00  0.00     0.278 C 
ENDBRANCH   8  13
BRANCH  10  15
ATOM     15  O   UNL     1       3.411  -0.956   0.877  1.00  0.00    -0.502 OA
ATOM     16  H   UNL     1       2.810  -0.242   0.959  1.00  0.00     0.293 HD
ENDBRANCH  10  15
BRANCH  11  17
ATOM     17  O   UNL     1       5.207  -3.259   0.489  1.00  0.00    -0.493 OA
ATOM     18  C   UNL     1       5.871  -2.002   0.477  1.00  0.00     0.278 C 
ENDBRANCH  11  17
ENDBRANCH   6   7
ENDBRANCH   3   5
ENDBRANCH   2   3
ENDBRANCH   1   2
BRANCH   1  19
ATOM     19  C   UNL     1      -1.216 -10.124   1.102  1.00  0.00     0.275 C 
BRANCH  19  20
ATOM     20  O   UNL     1      -2.333  -9.217   1.053  1.00  0.00    -0.458 OA
BRANCH  20  21
ATOM     21  C   UNL     1      -2.116  -8.012   1.629  1.00  0.00     0.338 C 
ATOM     22  O   UNL     1      -1.104  -7.640   2.204  1.00  0.00    -0.246 OA
BRANCH  21  23
ATOM     23  C   UNL     1      -3.257  -7.117   1.373  1.00  0.00     0.060 A 
ATOM     24  C   UNL     1      -2.988  -5.853   0.841  1.00  0.00     0.016 A 
ATOM     25  C   UNL     1      -4.564  -7.478   1.715  1.00  0.00     0.016 A 
ATOM     26  C   UNL     1      -4.023  -4.940   0.651  1.00  0.00     0.010 A 
ATOM     27  C   UNL     1      -5.602  -6.559   1.529  1.00  0.00     0.010 A 
ATOM     28  C   UNL     1      -5.335  -5.281   1.008  1.00  0.00    -0.014 A 
BRANCH  28  29
ATOM     29  C   UNL     1      -6.417  -4.276   0.870  1.00  0.00     0.031 A 
ATOM     30  C   UNL     1      -6.916  -3.538   2.078  1.00  0.00     0.074 A 
ATOM     31  C   UNL     1      -6.932  -4.009  -0.343  1.00  0.00     0.049 A 
ATOM     32  N   UNL     1      -7.860  -2.635   2.165  1.00  0.00    -0.248 NA
ATOM     33  C   UNL     1      -6.268  -3.858   3.359  1.00  0.00     0.031 C 
ATOM     34  C   UNL     1      -6.515  -4.642  -1.593  1.00  0.00     0.029 A 
ATOM     35  N   UNL     1      -7.920  -3.135  -0.720  1.00  0.00    -0.354 N 
ATOM     36  C   UNL     1      -7.923  -2.281   3.506  1.00  0.00     0.074 A 
ATOM     37  C   UNL     1      -6.940  -3.086   4.201  1.00  0.00     0.031 C 
ATOM     38  C   UNL     1      -7.244  -4.135  -2.602  1.00  0.00     0.029 A 
ATOM     39  C   UNL     1      -8.196  -3.166  -2.064  1.00  0.00     0.049 A 
ATOM     40  H   UNL     1      -8.387  -2.542  -0.087  1.00  0.00     0.167 HD
ATOM     41  C   UNL     1      -8.721  -1.363   4.102  1.00  0.00     0.037 A 
ATOM     42  C   UNL     1      -9.122  -2.500  -2.779  1.00  0.00     0.037 A 
ATOM     43  C   UNL     1      -9.698  -0.561   3.411  1.00  0.00     0.049 A 
ATOM     44  C   UNL     1     -10.033  -1.525  -2.086  1.00  0.00     0.074 A 
ATOM     45  C   UNL     1     -10.540   0.408   3.928  1.00  0.00     0.029 A 
ATOM     46  N   UNL     1      -9.968  -0.642   2.054  1.00  0.00    -0.354 N 
ATOM     47  N   UNL     1     -10.067  -1.181  -0.822  1.00  0.00    -0.248 NA
ATOM     48  C   UNL     1     -11.033  -0.844  -2.921  1.00  0.00     0.031 C 
ATOM     49  C   UNL     1     -11.347   0.888   2.890  1.00  0.00     0.029 A 
ATOM     50  C   UNL     1     -10.979   0.245   1.719  1.00  0.00     0.049 A 
ATOM     51  H   UNL     1      -9.510  -1.241   1.421  1.00  0.00     0.167 HD
ATOM     52  C   UNL     1     -11.076  -0.234  -0.711  1.00  0.00     0.074 A 
ATOM     53  C   UNL     1     -11.621  -0.046  -2.040  1.00  0.00     0.031 C 
ATOM     54  C   UNL     1     -11.512   0.421   0.392  1.00  0.00     0.037 A 
BRANCH  41  55
ATOM     55  C   UNL     1      -8.582  -1.192   5.585  1.00  0.00     0.057 A 
ATOM     56  C   UNL     1      -7.480  -0.540   6.152  1.00  0.00     0.134 A 
ATOM     57  C   UNL     1      -9.575  -1.662   6.454  1.00  0.00     0.134 A 
ATOM     58  F   UNL     1      -6.489  -0.078   5.375  1.00  0.00    -0.206 F 
ATOM     59  C   UNL     1      -7.360  -0.381   7.534  1.00  0.00     0.040 A 
ATOM     60  C   UNL     1      -9.476  -1.490   7.835  1.00  0.00     0.040 A 
ATOM     61  F   UNL     1     -10.658  -2.291   5.974  1.00  0.00    -0.206 F 
ATOM     62  C   UNL     1      -8.363  -0.853   8.379  1.00  0.00     0.006 A 
ENDBRANCH  41  55
BRANCH  42  63
ATOM     63  C   UNL     1      -9.239  -2.741  -4.237  1.00  0.00     0.057 A 
ATOM     64  C   UNL     1      -8.839  -1.775  -5.166  1.00  0.00     0.134 A 
ATOM     65  C   UNL     1      -9.753  -3.945  -4.735  1.00  0.00     0.134 A 
ATOM     66  F   UNL     1      -8.361  -0.594  -4.748  1.00  0.00    -0.206 F 
ATOM     67  C   UNL     1      -8.954  -1.992  -6.540  1.00  0.00     0.040 A 
ATOM     68  C   UNL     1      -9.853  -4.184  -6.105  1.00  0.00     0.040 A 
ATOM     69  F   UNL     1     -10.154  -4.909  -3.893  1.00  0.00    -0.206 F 
ATOM     70  C   UNL     1      -9.456  -3.204  -7.013  1.00  0.00     0.006 A 
ENDBRANCH  42  63
BRANCH  54  71
ATOM     71  C   UNL     1     -12.617   1.418   0.205  1.00  0.00     0.057 A 
ATOM     72  C   UNL     1     -13.941   1.018  -0.009  1.00  0.00     0.134 A 
ATOM     73  C   UNL     1     -12.358   2.793   0.274  1.00  0.00     0.134 A 
ATOM     74  F   UNL     1     -14.252  -0.284  -0.100  1.00  0.00    -0.206 F 
ATOM     75  C   UNL     1     -14.968   1.951  -0.167  1.00  0.00     0.040 A 
ATOM     76  C   UNL     1     -13.379   3.735   0.140  1.00  0.00     0.040 A 
ATOM     77  F   UNL     1     -11.111   3.241   0.484  1.00  0.00    -0.206 F 
ATOM     78  C   UNL     1     -14.688   3.314  -0.086  1.00  0.00     0.006 A 
ENDBRANCH  54  71
ENDBRANCH  28  29
ENDBRANCH  21  23
ENDBRANCH  20  21
ENDBRANCH  19  20
ENDBRANCH   1  19
TORSDOF 15
