REMARK SMILES CC(C)[C@@H](C)[N@@H+]1[C@@H](C(=O)OCCOC(=O)c2ccc(-c3c4nc(c(-c5c(F)cccc5F)c5ccc([nH]5)c(-c5c(F)cccc5F)c5nc(c(-c6c(F)cccc6F)c6ccc3[nH]6)C=C5)C=C4)cc2)C[C@H]2CCCC[C@H]21
REMARK SMILES IDX 11 1 10 2 8 3 9 4 7 5 6 6 76 7 70 9 71 10 75 11 72 12 74 13
REMARK SMILES IDX 73 14 4 15 5 16 2 17 1 18 3 19 12 20 13 21 14 22 15 23 16 24
REMARK SMILES IDX 17 25 69 26 18 27 68 28 19 29 20 30 21 31 62 32 22 33 67 34
REMARK SMILES IDX 61 35 63 36 23 37 66 38 60 39 59 40 24 42 50 43 33 44 49 45
REMARK SMILES IDX 34 46 37 47 48 48 64 49 35 50 36 51 47 53 65 54 38 55 25 56
REMARK SMILES IDX 26 57 31 58 27 59 28 60 30 61 32 62 29 63 51 64 52 65 57 66
REMARK SMILES IDX 53 67 54 68 56 69 58 70 55 71 39 72 40 73 45 74 41 75 42 76
REMARK SMILES IDX 44 77 46 78 43 79
REMARK H PARENT 6 8 63 41 37 52
REMARK Flexibility Score: inf
ROOT
ATOM      1  C   UNL     1      -3.045   2.133  -5.244  1.00  0.00     0.274 C 
ENDROOT
BRANCH   1   2
ATOM      2  O   UNL     1      -2.486   2.575  -3.993  1.00  0.00    -0.458 OA
BRANCH   2   3
ATOM      3  C   UNL     1      -1.208   2.171  -3.750  1.00  0.00     0.365 C 
ATOM      4  O   UNL     1      -0.548   1.465  -4.508  1.00  0.00    -0.245 OA
BRANCH   3   5
ATOM      5  C   UNL     1      -0.640   2.717  -2.441  1.00  0.00     0.296 C 
ATOM      6  N   UNL     1      -1.451   2.295  -1.278  1.00  0.00    -0.318 N 
ATOM      7  C   UNL     1      -1.774   3.496  -0.488  1.00  0.00     0.188 C 
ATOM      8  H   UNL     1      -2.348   1.918  -1.585  1.00  0.00     0.349 HD
ATOM      9  C   UNL     1      -0.528   4.240  -2.357  1.00  0.00     0.087 C 
ATOM     10  C   UNL     1      -0.675   4.485  -0.863  1.00  0.00     0.054 C 
ATOM     11  C   UNL     1      -3.172   4.015  -0.900  1.00  0.00     0.065 C 
ATOM     12  C   UNL     1      -0.959   5.927  -0.464  1.00  0.00     0.010 C 
ATOM     13  C   UNL     1      -3.431   5.449  -0.438  1.00  0.00     0.006 C 
ATOM     14  C   UNL     1      -2.337   6.409  -0.897  1.00  0.00     0.001 C 
BRANCH   6  15
ATOM     15  C   UNL     1      -1.069   1.027  -0.610  1.00  0.00     0.184 C 
ATOM     16  C   UNL     1      -1.840   0.834   0.709  1.00  0.00     0.075 C 
BRANCH  15  17
ATOM     17  C   UNL     1       0.473   0.712  -0.478  1.00  0.00     0.041 C 
ATOM     18  C   UNL     1       0.863  -0.119   0.754  1.00  0.00     0.013 C 
ATOM     19  C   UNL     1       1.012  -0.065  -1.699  1.00  0.00     0.013 C 
ENDBRANCH  15  17
ENDBRANCH   6  15
ENDBRANCH   3   5
ENDBRANCH   2   3
ENDBRANCH   1   2
BRANCH   1  20
ATOM     20  C   UNL     1      -2.951   3.239  -6.291  1.00  0.00     0.275 C 
BRANCH  20  21
ATOM     21  O   UNL     1      -1.585   3.672  -6.426  1.00  0.00    -0.458 OA
BRANCH  21  22
ATOM     22  C   UNL     1      -1.355   4.974  -6.154  1.00  0.00     0.338 C 
ATOM     23  O   UNL     1      -2.180   5.840  -5.896  1.00  0.00    -0.246 OA
BRANCH  22  24
ATOM     24  C   UNL     1       0.090   5.254  -6.193  1.00  0.00     0.060 A 
ATOM     25  C   UNL     1       0.974   4.519  -5.403  1.00  0.00     0.016 A 
ATOM     26  C   UNL     1       0.550   6.350  -6.920  1.00  0.00     0.016 A 
ATOM     27  C   UNL     1       2.292   4.940  -5.249  1.00  0.00     0.010 A 
ATOM     28  C   UNL     1       1.900   6.704  -6.852  1.00  0.00     0.010 A 
ATOM     29  C   UNL     1       2.777   6.026  -5.986  1.00  0.00    -0.014 A 
BRANCH  29  30
ATOM     30  C   UNL     1       4.188   6.473  -5.848  1.00  0.00     0.031 A 
ATOM     31  C   UNL     1       4.493   7.879  -5.411  1.00  0.00     0.074 A 
ATOM     32  C   UNL     1       5.197   5.630  -6.139  1.00  0.00     0.049 A 
ATOM     33  N   UNL     1       5.625   8.533  -5.457  1.00  0.00    -0.248 NA
ATOM     34  C   UNL     1       3.370   8.659  -4.867  1.00  0.00     0.031 C 
ATOM     35  C   UNL     1       5.050   4.228  -6.533  1.00  0.00     0.029 A 
ATOM     36  N   UNL     1       6.554   5.839  -6.161  1.00  0.00    -0.354 N 
ATOM     37  C   UNL     1       5.339   9.816  -5.010  1.00  0.00     0.074 A 
ATOM     38  C   UNL     1       3.928   9.848  -4.688  1.00  0.00     0.031 C 
ATOM     39  C   UNL     1       6.264   3.699  -6.742  1.00  0.00     0.029 A 
ATOM     40  C   UNL     1       7.268   4.744  -6.582  1.00  0.00     0.049 A 
ATOM     41  H   UNL     1       6.974   6.690  -5.901  1.00  0.00     0.167 HD
ATOM     42  C   UNL     1       6.178  10.873  -4.889  1.00  0.00     0.037 A 
ATOM     43  C   UNL     1       8.576   4.606  -6.863  1.00  0.00     0.037 A 
ATOM     44  C   UNL     1       7.592  10.819  -5.154  1.00  0.00     0.049 A 
ATOM     45  C   UNL     1       9.485   5.792  -6.736  1.00  0.00     0.074 A 
ATOM     46  C   UNL     1       8.533  11.827  -5.028  1.00  0.00     0.029 A 
ATOM     47  N   UNL     1       8.271   9.689  -5.583  1.00  0.00    -0.354 N 
ATOM     48  N   UNL     1       9.195   7.015  -6.364  1.00  0.00    -0.248 NA
ATOM     49  C   UNL     1      10.896   5.585  -7.088  1.00  0.00     0.031 C 
ATOM     50  C   UNL     1       9.778  11.312  -5.407  1.00  0.00     0.029 A 
ATOM     51  C   UNL     1       9.616   9.977  -5.739  1.00  0.00     0.049 A 
ATOM     52  H   UNL     1       7.857   8.812  -5.753  1.00  0.00     0.167 HD
ATOM     53  C   UNL     1      10.386   7.724  -6.434  1.00  0.00     0.074 A 
ATOM     54  C   UNL     1      11.406   6.789  -6.865  1.00  0.00     0.031 C 
ATOM     55  C   UNL     1      10.614   9.033  -6.171  1.00  0.00     0.037 A 
BRANCH  42  56
ATOM     56  C   UNL     1       5.582  12.187  -4.485  1.00  0.00     0.057 A 
ATOM     57  C   UNL     1       5.186  12.455  -3.170  1.00  0.00     0.134 A 
ATOM     58  C   UNL     1       5.429  13.212  -5.429  1.00  0.00     0.134 A 
ATOM     59  F   UNL     1       5.292  11.511  -2.223  1.00  0.00    -0.206 F 
ATOM     60  C   UNL     1       4.644  13.691  -2.810  1.00  0.00     0.040 A 
ATOM     61  C   UNL     1       4.908  14.457  -5.077  1.00  0.00     0.040 A 
ATOM     62  F   UNL     1       5.792  13.020  -6.707  1.00  0.00    -0.206 F 
ATOM     63  C   UNL     1       4.509  14.698  -3.764  1.00  0.00     0.006 A 
ENDBRANCH  42  56
BRANCH  43  64
ATOM     64  C   UNL     1       9.088   3.299  -7.343  1.00  0.00     0.057 A 
ATOM     65  C   UNL     1       9.880   2.489  -6.524  1.00  0.00     0.134 A 
ATOM     66  C   UNL     1       8.774   2.820  -8.621  1.00  0.00     0.134 A 
ATOM     67  F   UNL     1      10.229   2.906  -5.298  1.00  0.00    -0.206 F 
ATOM     68  C   UNL     1      10.345   1.247  -6.958  1.00  0.00     0.040 A 
ATOM     69  C   UNL     1       9.212   1.571  -9.060  1.00  0.00     0.040 A 
ATOM     70  F   UNL     1       8.014   3.550  -9.450  1.00  0.00    -0.206 F 
ATOM     71  C   UNL     1      10.003   0.782  -8.227  1.00  0.00     0.006 A 
ENDBRANCH  43  64
BRANCH  55  72
ATOM     72  C   UNL     1      12.021   9.520  -6.325  1.00  0.00     0.057 A 
ATOM     73  C   UNL     1      12.575   9.770  -7.586  1.00  0.00     0.134 A 
ATOM     74  C   UNL     1      12.818   9.767  -5.201  1.00  0.00     0.134 A 
ATOM     75  F   UNL     1      11.864   9.537  -8.699  1.00  0.00    -0.206 F 
ATOM     76  C   UNL     1      13.883  10.236  -7.724  1.00  0.00     0.040 A 
ATOM     77  C   UNL     1      14.121  10.249  -5.326  1.00  0.00     0.040 A 
ATOM     78  F   UNL     1      12.341   9.550  -3.966  1.00  0.00    -0.206 F 
ATOM     79  C   UNL     1      14.658  10.481  -6.591  1.00  0.00     0.006 A 
ENDBRANCH  55  72
ENDBRANCH  29  30
ENDBRANCH  22  24
ENDBRANCH  21  22
ENDBRANCH  20  21
ENDBRANCH   1  20
TORSDOF 13
