REMARK SMILES CCOc1ccccc1[C@@H](O)[C@@H](C)[C@@H](C)C(=O)OCCOC(=O)c1ccc(-c2c3nc(c(-c4c(F)cccc4F)c4ccc([nH]4)c(-c4c(F)cccc4F)c4nc(c(-c5c(F)cccc5F)c5ccc2[nH]5)C=C4)C=C3)cc1
REMARK SMILES IDX 18 1 16 2 17 3 14 4 15 5 12 6 13 7 10 8 9 9 4 10 5 11 6 12
REMARK SMILES IDX 8 13 7 14 3 15 2 16 1 17 11 18 19 20 20 21 21 22 22 23 23 24
REMARK SMILES IDX 24 25 25 26 77 27 26 28 76 29 27 30 28 31 29 32 70 33 30 34
REMARK SMILES IDX 75 35 69 36 71 37 31 38 74 39 68 40 67 41 32 43 58 44 41 45
REMARK SMILES IDX 57 46 42 47 45 48 56 49 72 50 43 51 44 52 55 54 73 55 46 56
REMARK SMILES IDX 33 57 34 58 39 59 35 60 36 61 38 62 40 63 37 64 59 65 60 66
REMARK SMILES IDX 65 67 61 68 62 69 64 70 66 71 63 72 47 73 48 74 53 75 49 76
REMARK SMILES IDX 50 77 52 78 54 79 51 80
REMARK H PARENT 11 19 71 42 45 53
REMARK Flexibility Score: inf
ROOT
ATOM      1  O   UNL     1       5.101  -0.357  -3.302  1.00  0.00    -0.462 OA
ENDROOT
BRANCH   1   2
ATOM      2  C   UNL     1       3.841   0.130  -3.437  1.00  0.00     0.309 C 
ATOM      3  O   UNL     1       3.188   0.099  -4.476  1.00  0.00    -0.252 OA
BRANCH   2   4
ATOM      4  C   UNL     1       3.294   0.767  -2.169  1.00  0.00     0.102 C 
ATOM      5  C   UNL     1       3.347   2.279  -2.389  1.00  0.00     0.020 C 
BRANCH   4   6
ATOM      6  C   UNL     1       3.919   0.269  -0.825  1.00  0.00     0.033 C 
ATOM      7  C   UNL     1       3.719  -1.255  -0.691  1.00  0.00     0.011 C 
BRANCH   6   8
ATOM      8  C   UNL     1       3.306   1.039   0.384  1.00  0.00     0.152 C 
BRANCH   8   9
ATOM      9  C   UNL     1       3.510   0.403   1.743  1.00  0.00     0.023 A 
ATOM     10  C   UNL     1       2.427  -0.093   2.483  1.00  0.00     0.125 A 
ATOM     11  C   UNL     1       2.622  -0.696   3.727  1.00  0.00     0.047 A 
ATOM     12  C   UNL     1       3.913  -0.826   4.239  1.00  0.00     0.004 A 
ATOM     13  C   UNL     1       4.802   0.275   2.280  1.00  0.00     0.010 A 
ATOM     14  C   UNL     1       5.002  -0.338   3.518  1.00  0.00     0.001 A 
BRANCH  10  15
ATOM     15  O   UNL     1       1.156   0.112   2.017  1.00  0.00    -0.493 OA
BRANCH  15  16
ATOM     16  C   UNL     1       0.531  -1.099   1.577  1.00  0.00     0.226 C 
ATOM     17  C   UNL     1      -0.218  -0.783   0.293  1.00  0.00     0.049 C 
ENDBRANCH  15  16
ENDBRANCH  10  15
ENDBRANCH   8   9
BRANCH   8  18
ATOM     18  O   UNL     1       3.877   2.351   0.440  1.00  0.00    -0.388 OA
ATOM     19  H   UNL     1       4.830   2.283   0.607  1.00  0.00     0.211 HD
ENDBRANCH   8  18
ENDBRANCH   6   8
ENDBRANCH   4   6
ENDBRANCH   2   4
ENDBRANCH   1   2
BRANCH   1  20
ATOM     20  C   UNL     1       5.616  -1.057  -4.452  1.00  0.00     0.274 C 
BRANCH  20  21
ATOM     21  C   UNL     1       5.263  -2.544  -4.386  1.00  0.00     0.275 C 
BRANCH  21  22
ATOM     22  O   UNL     1       3.834  -2.709  -4.386  1.00  0.00    -0.458 OA
BRANCH  22  23
ATOM     23  C   UNL     1       3.352  -3.673  -3.576  1.00  0.00     0.338 C 
ATOM     24  O   UNL     1       3.994  -4.455  -2.888  1.00  0.00    -0.246 OA
BRANCH  23  25
ATOM     25  C   UNL     1       1.882  -3.700  -3.652  1.00  0.00     0.060 A 
ATOM     26  C   UNL     1       1.118  -2.572  -3.339  1.00  0.00     0.016 A 
ATOM     27  C   UNL     1       1.257  -4.909  -3.962  1.00  0.00     0.016 A 
ATOM     28  C   UNL     1      -0.276  -2.663  -3.297  1.00  0.00     0.010 A 
ATOM     29  C   UNL     1      -0.136  -4.984  -3.971  1.00  0.00     0.010 A 
ATOM     30  C   UNL     1      -0.915  -3.870  -3.613  1.00  0.00    -0.014 A 
BRANCH  30  31
ATOM     31  C   UNL     1      -2.393  -4.005  -3.550  1.00  0.00     0.031 A 
ATOM     32  C   UNL     1      -3.021  -4.909  -2.526  1.00  0.00     0.074 A 
ATOM     33  C   UNL     1      -3.170  -3.360  -4.439  1.00  0.00     0.049 A 
ATOM     34  N   UNL     1      -4.266  -5.297  -2.414  1.00  0.00    -0.248 NA
ATOM     35  C   UNL     1      -2.124  -5.458  -1.497  1.00  0.00     0.031 C 
ATOM     36  C   UNL     1      -2.695  -2.433  -5.466  1.00  0.00     0.029 A 
ATOM     37  N   UNL     1      -4.529  -3.403  -4.630  1.00  0.00    -0.354 N 
ATOM     38  C   UNL     1      -4.296  -6.167  -1.331  1.00  0.00     0.074 A 
ATOM     39  C   UNL     1      -2.943  -6.252  -0.821  1.00  0.00     0.031 C 
ATOM     40  C   UNL     1      -3.745  -1.990  -6.175  1.00  0.00     0.029 A 
ATOM     41  C   UNL     1      -4.957  -2.644  -5.691  1.00  0.00     0.049 A 
ATOM     42  H   UNL     1      -5.138  -3.928  -4.061  1.00  0.00     0.167 HD
ATOM     43  C   UNL     1      -5.354  -6.835  -0.812  1.00  0.00     0.037 A 
ATOM     44  C   UNL     1      -6.181  -2.517  -6.236  1.00  0.00     0.037 A 
ATOM     45  C   UNL     1      -6.704  -6.724  -1.297  1.00  0.00     0.049 A 
ATOM     46  C   UNL     1      -7.331  -3.300  -5.670  1.00  0.00     0.074 A 
ATOM     47  C   UNL     1      -7.851  -7.324  -0.803  1.00  0.00     0.029 A 
ATOM     48  N   UNL     1      -7.090  -5.963  -2.389  1.00  0.00    -0.354 N 
ATOM     49  N   UNL     1      -7.347  -4.122  -4.649  1.00  0.00    -0.248 NA
ATOM     50  C   UNL     1      -8.629  -3.151  -6.344  1.00  0.00     0.031 C 
ATOM     51  C   UNL     1      -8.926  -6.951  -1.619  1.00  0.00     0.029 A 
ATOM     52  C   UNL     1      -8.454  -6.093  -2.599  1.00  0.00     0.049 A 
ATOM     53  H   UNL     1      -6.485  -5.410  -2.935  1.00  0.00     0.167 HD
ATOM     54  C   UNL     1      -8.656  -4.574  -4.547  1.00  0.00     0.074 A 
ATOM     55  C   UNL     1      -9.407  -3.928  -5.604  1.00  0.00     0.031 C 
ATOM     56  C   UNL     1      -9.187  -5.446  -3.655  1.00  0.00     0.037 A 
BRANCH  43  57
ATOM     57  C   UNL     1      -5.086  -7.771   0.329  1.00  0.00     0.057 A 
ATOM     58  C   UNL     1      -4.825  -7.308   1.624  1.00  0.00     0.134 A 
ATOM     59  C   UNL     1      -5.120  -9.157   0.130  1.00  0.00     0.134 A 
ATOM     60  F   UNL     1      -4.764  -5.992   1.877  1.00  0.00    -0.206 F 
ATOM     61  C   UNL     1      -4.587  -8.192   2.679  1.00  0.00     0.040 A 
ATOM     62  C   UNL     1      -4.903 -10.050   1.180  1.00  0.00     0.040 A 
ATOM     63  F   UNL     1      -5.368  -9.665  -1.087  1.00  0.00    -0.206 F 
ATOM     64  C   UNL     1      -4.631  -9.568   2.459  1.00  0.00     0.006 A 
ENDBRANCH  43  57
BRANCH  44  65
ATOM     65  C   UNL     1      -6.379  -1.617  -7.397  1.00  0.00     0.057 A 
ATOM     66  C   UNL     1      -7.053  -0.399  -7.254  1.00  0.00     0.134 A 
ATOM     67  C   UNL     1      -5.892  -1.943  -8.668  1.00  0.00     0.134 A 
ATOM     68  F   UNL     1      -7.561  -0.045  -6.065  1.00  0.00    -0.206 F 
ATOM     69  C   UNL     1      -7.238   0.463  -8.336  1.00  0.00     0.040 A 
ATOM     70  C   UNL     1      -6.052  -1.082  -9.754  1.00  0.00     0.040 A 
ATOM     71  F   UNL     1      -5.239  -3.098  -8.867  1.00  0.00    -0.206 F 
ATOM     72  C   UNL     1      -6.730   0.125  -9.589  1.00  0.00     0.006 A 
ENDBRANCH  44  65
BRANCH  56  73
ATOM     73  C   UNL     1     -10.654  -5.729  -3.771  1.00  0.00     0.057 A 
ATOM     74  C   UNL     1     -11.165  -6.566  -4.769  1.00  0.00     0.134 A 
ATOM     75  C   UNL     1     -11.561  -5.178  -2.857  1.00  0.00     0.134 A 
ATOM     76  F   UNL     1     -10.347  -7.112  -5.683  1.00  0.00    -0.206 F 
ATOM     77  C   UNL     1     -12.531  -6.833  -4.866  1.00  0.00     0.040 A 
ATOM     78  C   UNL     1     -12.927  -5.452  -2.932  1.00  0.00     0.040 A 
ATOM     79  F   UNL     1     -11.132  -4.372  -1.874  1.00  0.00    -0.206 F 
ATOM     80  C   UNL     1     -13.416  -6.279  -3.942  1.00  0.00     0.006 A 
ENDBRANCH  56  73
ENDBRANCH  30  31
ENDBRANCH  23  25
ENDBRANCH  22  23
ENDBRANCH  21  22
ENDBRANCH  20  21
ENDBRANCH   1  20
TORSDOF 17
