REMARK SMILES Cc1cc(C(=O)N[C@@H]2CC2(C)C)sc1/C=C/C(=O)OCCOC(=O)c1ccc(-c2c3nc(c(-c4c(F)cccc4F)c4ccc([nH]4)c(-c4c(F)cccc4F)c4nc(c(-c5c(F)cccc5F)c5ccc2[nH]5)C=C4)C=C3)cc1
REMARK SMILES IDX 20 1 19 2 17 3 18 4 16 5 15 6 14 7 1 8 2 9 3 10 4 11 13 12
REMARK SMILES IDX 5 13 6 14 7 15 8 17 9 18 10 19 11 20 12 21 21 22 22 23 23 24
REMARK SMILES IDX 24 25 25 26 26 27 78 28 27 29 77 30 28 31 29 32 30 33 71 34
REMARK SMILES IDX 31 35 76 36 70 37 72 38 32 39 75 40 69 41 68 42 33 44 59 45
REMARK SMILES IDX 42 46 58 47 43 48 46 49 57 50 73 51 44 52 45 53 56 55 74 56
REMARK SMILES IDX 47 57 34 58 35 59 40 60 36 61 37 62 39 63 41 64 38 65 60 66
REMARK SMILES IDX 61 67 66 68 62 69 63 70 65 71 67 72 64 73 48 74 49 75 54 76
REMARK SMILES IDX 50 77 51 78 53 79 55 80 52 81
REMARK H PARENT 7 16 72 43 46 54
REMARK Flexibility Score: inf
ROOT
ATOM      1  C   UNL     1     -12.455  -1.876   0.292  1.00  0.00     0.275 C 
ENDROOT
BRANCH   1   2
ATOM      2  O   UNL     1     -11.068  -2.259   0.278  1.00  0.00    -0.459 OA
BRANCH   2   3
ATOM      3  C   UNL     1     -10.248  -1.445  -0.423  1.00  0.00     0.330 C 
ATOM      4  O   UNL     1     -10.587  -0.490  -1.109  1.00  0.00    -0.247 OA
BRANCH   3   5
ATOM      5  C   UNL     1      -8.826  -1.776  -0.241  1.00  0.00     0.095 C 
ATOM      6  C   UNL     1      -8.319  -2.754   0.528  1.00  0.00     0.027 C 
BRANCH   6   7
ATOM      7  C   UNL     1      -6.904  -2.894   0.585  1.00  0.00     0.031 A 
ATOM      8  C   UNL     1      -6.518  -5.295  -0.246  1.00  0.00     0.046 C 
ATOM      9  C   UNL     1      -6.081  -3.933   0.177  1.00  0.00    -0.032 A 
ATOM     10  C   UNL     1      -4.719  -3.479   0.106  1.00  0.00     0.029 A 
ATOM     11  C   UNL     1      -4.552  -2.154   0.489  1.00  0.00     0.093 A 
ATOM     12  S   UNL     1      -5.947  -1.659   1.315  1.00  0.00    -0.130 S 
BRANCH  11  13
ATOM     13  C   UNL     1      -3.318  -1.402   0.384  1.00  0.00     0.261 C 
ATOM     14  O   UNL     1      -2.232  -2.000   0.382  1.00  0.00    -0.268 OA
ATOM     15  N   UNL     1      -3.184  -0.043   0.186  1.00  0.00    -0.348 N 
ATOM     16  H   UNL     1      -2.226   0.168   0.105  1.00  0.00     0.164 HD
BRANCH  15  17
ATOM     17  C   UNL     1      -3.928   1.170   0.057  1.00  0.00     0.088 C 
ATOM     18  C   UNL     1      -5.295   1.516   0.537  1.00  0.00     0.034 C 
ATOM     19  C   UNL     1      -5.017   1.492  -0.951  1.00  0.00    -0.013 C 
ATOM     20  C   UNL     1      -5.015   2.842  -1.631  1.00  0.00     0.013 C 
ATOM     21  C   UNL     1      -5.608   0.413  -1.814  1.00  0.00     0.013 C 
ENDBRANCH  15  17
ENDBRANCH  11  13
ENDBRANCH   6   7
ENDBRANCH   3   5
ENDBRANCH   2   3
ENDBRANCH   1   2
BRANCH   1  22
ATOM     22  C   UNL     1     -12.803  -1.113   1.573  1.00  0.00     0.275 C 
BRANCH  22  23
ATOM     23  O   UNL     1     -12.250   0.218   1.578  1.00  0.00    -0.458 OA
BRANCH  23  24
ATOM     24  C   UNL     1     -11.016   0.333   2.120  1.00  0.00     0.338 C 
ATOM     25  O   UNL     1     -10.343  -0.556   2.621  1.00  0.00    -0.246 OA
BRANCH  24  26
ATOM     26  C   UNL     1     -10.514   1.704   1.931  1.00  0.00     0.060 A 
ATOM     27  C   UNL     1      -9.284   1.878   1.288  1.00  0.00     0.016 A 
ATOM     28  C   UNL     1     -11.209   2.804   2.441  1.00  0.00     0.016 A 
ATOM     29  C   UNL     1      -8.741   3.155   1.159  1.00  0.00     0.010 A 
ATOM     30  C   UNL     1     -10.660   4.084   2.312  1.00  0.00     0.010 A 
ATOM     31  C   UNL     1      -9.416   4.266   1.683  1.00  0.00    -0.014 A 
BRANCH  31  32
ATOM     32  C   UNL     1      -8.798   5.612   1.604  1.00  0.00     0.031 A 
ATOM     33  C   UNL     1      -8.178   6.228   2.825  1.00  0.00     0.074 A 
ATOM     34  C   UNL     1      -8.784   6.275   0.434  1.00  0.00     0.049 A 
ATOM     35  N   UNL     1      -7.621   7.405   2.966  1.00  0.00    -0.248 NA
ATOM     36  C   UNL     1      -8.184   5.413   4.049  1.00  0.00     0.031 C 
ATOM     37  C   UNL     1      -9.335   5.775  -0.825  1.00  0.00     0.029 A 
ATOM     38  N   UNL     1      -8.292   7.516   0.117  1.00  0.00    -0.354 N 
ATOM     39  C   UNL     1      -7.217   7.476   4.293  1.00  0.00     0.074 A 
ATOM     40  C   UNL     1      -7.616   6.234   4.922  1.00  0.00     0.031 C 
ATOM     41  C   UNL     1      -9.154   6.703  -1.780  1.00  0.00     0.029 A 
ATOM     42  C   UNL     1      -8.506   7.872  -1.192  1.00  0.00     0.049 A 
ATOM     43  H   UNL     1      -7.831   8.096   0.765  1.00  0.00     0.167 HD
ATOM     44  C   UNL     1      -6.566   8.481   4.927  1.00  0.00     0.037 A 
ATOM     45  C   UNL     1      -8.228   9.020  -1.839  1.00  0.00     0.037 A 
ATOM     46  C   UNL     1      -6.167   9.715   4.301  1.00  0.00     0.049 A 
ATOM     47  C   UNL     1      -7.554  10.143  -1.099  1.00  0.00     0.074 A 
ATOM     48  C   UNL     1      -5.485  10.784   4.857  1.00  0.00     0.029 A 
ATOM     49  N   UNL     1      -6.422  10.049   2.979  1.00  0.00    -0.354 N 
ATOM     50  N   UNL     1      -7.154  10.188   0.148  1.00  0.00    -0.248 NA
ATOM     51  C   UNL     1      -7.291  11.374  -1.859  1.00  0.00     0.031 C 
ATOM     52  C   UNL     1      -5.361  11.780   3.882  1.00  0.00     0.029 A 
ATOM     53  C   UNL     1      -5.928  11.315   2.707  1.00  0.00     0.049 A 
ATOM     54  H   UNL     1      -6.885   9.471   2.330  1.00  0.00     0.167 HD
ATOM     55  C   UNL     1      -6.575  11.439   0.318  1.00  0.00     0.074 A 
ATOM     56  C   UNL     1      -6.662  12.117  -0.959  1.00  0.00     0.031 C 
ATOM     57  C   UNL     1      -6.019  11.976   1.431  1.00  0.00     0.037 A 
BRANCH  44  58
ATOM     58  C   UNL     1      -6.258   8.293   6.383  1.00  0.00     0.057 A 
ATOM     59  C   UNL     1      -5.257   7.415   6.818  1.00  0.00     0.134 A 
ATOM     60  C   UNL     1      -6.946   9.024   7.359  1.00  0.00     0.134 A 
ATOM     61  F   UNL     1      -4.569   6.677   5.934  1.00  0.00    -0.206 F 
ATOM     62  C   UNL     1      -4.967   7.254   8.174  1.00  0.00     0.040 A 
ATOM     63  C   UNL     1      -6.650   8.889   8.716  1.00  0.00     0.040 A 
ATOM     64  F   UNL     1      -7.912   9.886   7.009  1.00  0.00    -0.206 F 
ATOM     65  C   UNL     1      -5.661   7.997   9.127  1.00  0.00     0.006 A 
ENDBRANCH  44  58
BRANCH  45  66
ATOM     66  C   UNL     1      -8.597   9.171  -3.268  1.00  0.00     0.057 A 
ATOM     67  C   UNL     1      -7.620   9.208  -4.269  1.00  0.00     0.134 A 
ATOM     68  C   UNL     1      -9.934   9.289  -3.665  1.00  0.00     0.134 A 
ATOM     69  F   UNL     1      -6.321   9.123  -3.947  1.00  0.00    -0.206 F 
ATOM     70  C   UNL     1      -7.958   9.370  -5.613  1.00  0.00     0.040 A 
ATOM     71  C   UNL     1     -10.288   9.427  -5.007  1.00  0.00     0.040 A 
ATOM     72  F   UNL     1     -10.916   9.260  -2.752  1.00  0.00    -0.206 F 
ATOM     73  C   UNL     1      -9.297   9.474  -5.986  1.00  0.00     0.006 A 
ENDBRANCH  45  66
BRANCH  57  74
ATOM     74  C   UNL     1      -5.437  13.354   1.310  1.00  0.00     0.057 A 
ATOM     75  C   UNL     1      -6.246  14.492   1.220  1.00  0.00     0.134 A 
ATOM     76  C   UNL     1      -4.049  13.544   1.319  1.00  0.00     0.134 A 
ATOM     77  F   UNL     1      -7.583  14.376   1.193  1.00  0.00    -0.206 F 
ATOM     78  C   UNL     1      -5.696  15.772   1.123  1.00  0.00     0.040 A 
ATOM     79  C   UNL     1      -3.487  14.820   1.245  1.00  0.00     0.040 A 
ATOM     80  F   UNL     1      -3.218  12.495   1.409  1.00  0.00    -0.206 F 
ATOM     81  C   UNL     1      -4.312  15.938   1.142  1.00  0.00     0.006 A 
ENDBRANCH  57  74
ENDBRANCH  31  32
ENDBRANCH  24  26
ENDBRANCH  23  24
ENDBRANCH  22  23
ENDBRANCH   1  22
TORSDOF 14
