REMARK SMILES COCCS(=O)(=O)N1C[C@@H](C(=O)OCCOC(=O)c2ccc(-c3c4nc(c(-c5c(F)cccc5F)c5ccc([nH]5)c(-c5c(F)cccc5F)c5nc(c(-c6c(F)cccc6F)c6ccc3[nH]6)C=C5)C=C4)cc2)c2ccccc21
REMARK SMILES IDX 14 1 13 2 11 3 12 4 10 5 8 6 9 7 78 8 73 9 77 10 74 11 76 12
REMARK SMILES IDX 75 13 5 14 6 15 7 16 4 17 3 18 2 19 1 20 15 21 16 22 17 23
REMARK SMILES IDX 18 24 19 25 20 26 72 27 21 28 71 29 22 30 23 31 24 32 65 33
REMARK SMILES IDX 25 34 70 35 64 36 66 37 26 38 69 39 63 40 62 41 27 43 53 44
REMARK SMILES IDX 36 45 52 46 37 47 40 48 51 49 67 50 38 51 39 52 50 54 68 55
REMARK SMILES IDX 41 56 28 57 29 58 34 59 30 60 31 61 33 62 35 63 32 64 54 65
REMARK SMILES IDX 55 66 60 67 56 68 57 69 59 70 61 71 58 72 42 73 43 74 48 75
REMARK SMILES IDX 44 76 45 77 47 78 49 79 46 80
REMARK H PARENT 66 42 40 53
REMARK Flexibility Score: inf
ROOT
ATOM      1  C   UNL     1      -3.272   2.057  -2.752  1.00  0.00     0.274 C 
ENDROOT
BRANCH   1   2
ATOM      2  O   UNL     1      -1.953   1.662  -2.318  1.00  0.00    -0.462 OA
BRANCH   2   3
ATOM      3  C   UNL     1      -1.357   0.702  -3.068  1.00  0.00     0.315 C 
ATOM      4  O   UNL     1      -1.903   0.107  -3.992  1.00  0.00    -0.251 OA
BRANCH   3   5
ATOM      5  C   UNL     1       0.069   0.415  -2.706  1.00  0.00     0.152 C 
ATOM      6  N   UNL     1       1.408  -1.048  -1.376  1.00  0.00    -0.269 N 
ATOM      7  C   UNL     1       0.193  -1.039  -2.236  1.00  0.00     0.155 C 
ATOM      8  C   UNL     1       1.632   0.284  -0.922  1.00  0.00     0.056 A 
ATOM      9  C   UNL     1       0.785   1.164  -1.613  1.00  0.00    -0.008 A 
ATOM     10  C   UNL     1       2.604   0.764  -0.064  1.00  0.00     0.027 A 
ATOM     11  C   UNL     1       0.840   2.532  -1.381  1.00  0.00     0.007 A 
ATOM     12  C   UNL     1       2.649   2.136   0.193  1.00  0.00     0.002 A 
ATOM     13  C   UNL     1       1.762   3.012  -0.448  1.00  0.00     0.000 A 
BRANCH   6  14
ATOM     14  S   UNL     1       1.798  -2.437  -0.531  1.00  0.00     0.237 S 
ATOM     15  O   UNL     1       3.083  -2.287   0.114  1.00  0.00    -0.206 OA
ATOM     16  O   UNL     1       1.570  -3.543  -1.443  1.00  0.00    -0.206 OA
BRANCH  14  17
ATOM     17  C   UNL     1       0.536  -2.558   0.727  1.00  0.00     0.188 C 
BRANCH  17  18
ATOM     18  C   UNL     1       0.802  -1.672   1.926  1.00  0.00     0.178 C 
BRANCH  18  19
ATOM     19  O   UNL     1      -0.407  -1.092   2.429  1.00  0.00    -0.384 OA
ATOM     20  C   UNL     1      -0.825   0.053   1.695  1.00  0.00     0.194 C 
ENDBRANCH  18  19
ENDBRANCH  17  18
ENDBRANCH  14  17
ENDBRANCH   6  14
ENDBRANCH   3   5
ENDBRANCH   2   3
ENDBRANCH   1   2
BRANCH   1  21
ATOM     21  C   UNL     1      -3.215   3.397  -3.484  1.00  0.00     0.275 C 
BRANCH  21  22
ATOM     22  O   UNL     1      -2.237   3.343  -4.539  1.00  0.00    -0.458 OA
BRANCH  22  23
ATOM     23  C   UNL     1      -1.247   4.262  -4.458  1.00  0.00     0.338 C 
ATOM     24  O   UNL     1      -1.112   5.139  -3.623  1.00  0.00    -0.246 OA
BRANCH  23  25
ATOM     25  C   UNL     1      -0.282   4.056  -5.550  1.00  0.00     0.060 A 
ATOM     26  C   UNL     1       0.411   2.851  -5.654  1.00  0.00     0.016 A 
ATOM     27  C   UNL     1       0.023   5.119  -6.399  1.00  0.00     0.016 A 
ATOM     28  C   UNL     1       1.459   2.721  -6.563  1.00  0.00     0.010 A 
ATOM     29  C   UNL     1       1.020   4.962  -7.364  1.00  0.00     0.010 A 
ATOM     30  C   UNL     1       1.768   3.773  -7.436  1.00  0.00    -0.014 A 
BRANCH  30  31
ATOM     31  C   UNL     1       2.877   3.651  -8.416  1.00  0.00     0.031 A 
ATOM     32  C   UNL     1       4.061   4.575  -8.335  1.00  0.00     0.074 A 
ATOM     33  C   UNL     1       2.802   2.744  -9.408  1.00  0.00     0.049 A 
ATOM     34  N   UNL     1       5.030   4.759  -9.196  1.00  0.00    -0.248 NA
ATOM     35  C   UNL     1       4.156   5.418  -7.133  1.00  0.00     0.031 C 
ATOM     36  C   UNL     1       1.719   1.777  -9.590  1.00  0.00     0.029 A 
ATOM     37  N   UNL     1       3.645   2.504 -10.464  1.00  0.00    -0.354 N 
ATOM     38  C   UNL     1       5.821   5.770  -8.666  1.00  0.00     0.074 A 
ATOM     39  C   UNL     1       5.216   6.165  -7.411  1.00  0.00     0.031 C 
ATOM     40  C   UNL     1       1.960   1.051 -10.692  1.00  0.00     0.029 A 
ATOM     41  C   UNL     1       3.177   1.543 -11.327  1.00  0.00     0.049 A 
ATOM     42  H   UNL     1       4.501   2.974 -10.590  1.00  0.00     0.167 HD
ATOM     43  C   UNL     1       6.946   6.320  -9.182  1.00  0.00     0.037 A 
ATOM     44  C   UNL     1       3.647   1.135 -12.521  1.00  0.00     0.037 A 
ATOM     45  C   UNL     1       7.568   5.894 -10.409  1.00  0.00     0.049 A 
ATOM     46  C   UNL     1       4.889   1.765 -13.079  1.00  0.00     0.074 A 
ATOM     47  C   UNL     1       8.741   6.350 -10.987  1.00  0.00     0.029 A 
ATOM     48  N   UNL     1       7.067   4.909 -11.247  1.00  0.00    -0.354 N 
ATOM     49  N   UNL     1       5.629   2.720 -12.570  1.00  0.00    -0.248 NA
ATOM     50  C   UNL     1       5.358   1.266 -14.378  1.00  0.00     0.031 C 
ATOM     51  C   UNL     1       8.927   5.669 -12.195  1.00  0.00     0.029 A 
ATOM     52  C   UNL     1       7.894   4.759 -12.349  1.00  0.00     0.049 A 
ATOM     53  H   UNL     1       6.245   4.393 -11.084  1.00  0.00     0.167 HD
ATOM     54  C   UNL     1       6.655   2.931 -13.480  1.00  0.00     0.074 A 
ATOM     55  C   UNL     1       6.452   1.992 -14.565  1.00  0.00     0.031 C 
ATOM     56  C   UNL     1       7.673   3.825 -13.423  1.00  0.00     0.037 A 
BRANCH  43  57
ATOM     57  C   UNL     1       7.559   7.470  -8.436  1.00  0.00     0.057 A 
ATOM     58  C   UNL     1       8.237   7.299  -7.223  1.00  0.00     0.134 A 
ATOM     59  C   UNL     1       7.486   8.769  -8.957  1.00  0.00     0.134 A 
ATOM     60  F   UNL     1       8.332   6.083  -6.663  1.00  0.00    -0.206 F 
ATOM     61  C   UNL     1       8.797   8.381  -6.541  1.00  0.00     0.040 A 
ATOM     62  C   UNL     1       8.063   9.855  -8.297  1.00  0.00     0.040 A 
ATOM     63  F   UNL     1       6.856   9.003 -10.118  1.00  0.00    -0.206 F 
ATOM     64  C   UNL     1       8.715   9.664  -7.081  1.00  0.00     0.006 A 
ENDBRANCH  43  57
BRANCH  44  65
ATOM     65  C   UNL     1       2.907   0.095 -13.276  1.00  0.00     0.057 A 
ATOM     66  C   UNL     1       3.408  -1.205 -13.399  1.00  0.00     0.134 A 
ATOM     67  C   UNL     1       1.664   0.368 -13.861  1.00  0.00     0.134 A 
ATOM     68  F   UNL     1       4.602  -1.520 -12.877  1.00  0.00    -0.206 F 
ATOM     69  C   UNL     1       2.699  -2.198 -14.078  1.00  0.00     0.040 A 
ATOM     70  C   UNL     1       0.934  -0.620 -14.522  1.00  0.00     0.040 A 
ATOM     71  F   UNL     1       1.129   1.595 -13.771  1.00  0.00    -0.206 F 
ATOM     72  C   UNL     1       1.454  -1.908 -14.633  1.00  0.00     0.006 A 
ENDBRANCH  44  65
BRANCH  56  73
ATOM     73  C   UNL     1       8.653   3.813 -14.558  1.00  0.00     0.057 A 
ATOM     74  C   UNL     1       8.330   4.341 -15.814  1.00  0.00     0.134 A 
ATOM     75  C   UNL     1       9.943   3.297 -14.383  1.00  0.00     0.134 A 
ATOM     76  F   UNL     1       7.106   4.837 -16.049  1.00  0.00    -0.206 F 
ATOM     77  C   UNL     1       9.251   4.338 -16.863  1.00  0.00     0.040 A 
ATOM     78  C   UNL     1      10.879   3.308 -15.417  1.00  0.00     0.040 A 
ATOM     79  F   UNL     1      10.316   2.782 -13.201  1.00  0.00    -0.206 F 
ATOM     80  C   UNL     1      10.531   3.825 -16.664  1.00  0.00     0.006 A 
ENDBRANCH  56  73
ENDBRANCH  30  31
ENDBRANCH  23  25
ENDBRANCH  22  23
ENDBRANCH  21  22
ENDBRANCH   1  21
TORSDOF 15
