REMARK SMILES O=C(OCCOC(=O)C1(Cc2cc(F)cc(Br)c2)CCCCCC1)c1ccc(-c2c3nc(c(-c4c(F)cccc4F)c4ccc([nH]4)c(-c4c(F)cccc4F)c4nc(c(-c5c(F)cccc5F)c5ccc2[nH]5)C=C4)C=C3)cc1
REMARK SMILES IDX 5 1 4 2 3 3 2 4 1 5 25 6 26 7 78 8 27 9 77 10 28 11 29 12
REMARK SMILES IDX 30 13 71 14 31 15 76 16 70 17 72 18 32 19 75 20 69 21 68 22
REMARK SMILES IDX 33 24 59 25 42 26 58 27 43 28 46 29 57 30 73 31 44 32 45 33
REMARK SMILES IDX 56 35 74 36 47 37 34 38 35 39 40 40 36 41 37 42 39 43 41 44
REMARK SMILES IDX 38 45 60 46 61 47 66 48 62 49 63 50 65 51 67 52 64 53 48 54
REMARK SMILES IDX 49 55 54 56 50 57 51 58 53 59 55 60 52 61 6 62 7 63 8 64
REMARK SMILES IDX 9 65 10 66 11 67 12 68 18 69 13 70 16 71 14 72 15 73 17 74
REMARK SMILES IDX 19 75 20 76 21 77 24 79 23 80 22 81
REMARK H PARENT 72 23 46 34
REMARK Flexibility Score: 100.00
ROOT
ATOM      1  C   UNL     1       3.554  -0.848   2.056  1.00  0.00     0.274 C 
ENDROOT
BRANCH   1   2
ATOM      2  C   UNL     1       4.316   0.484   2.006  1.00  0.00     0.275 C 
BRANCH   2   3
ATOM      3  O   UNL     1       5.195   0.497   0.877  1.00  0.00    -0.458 OA
BRANCH   3   4
ATOM      4  C   UNL     1       4.625   0.925  -0.274  1.00  0.00     0.338 C 
ATOM      5  O   UNL     1       3.705   1.728  -0.379  1.00  0.00    -0.246 OA
BRANCH   4   6
ATOM      6  C   UNL     1       5.080   0.036  -1.368  1.00  0.00     0.060 A 
ATOM      7  C   UNL     1       6.149  -0.851  -1.185  1.00  0.00     0.016 A 
ATOM      8  C   UNL     1       4.288  -0.053  -2.516  1.00  0.00     0.016 A 
ATOM      9  C   UNL     1       6.383  -1.861  -2.111  1.00  0.00     0.010 A 
ATOM     10  C   UNL     1       4.476  -1.111  -3.404  1.00  0.00     0.010 A 
ATOM     11  C   UNL     1       5.528  -2.019  -3.207  1.00  0.00    -0.014 A 
BRANCH  11  12
ATOM     12  C   UNL     1       5.804  -3.083  -4.196  1.00  0.00     0.031 A 
ATOM     13  C   UNL     1       6.308  -2.687  -5.547  1.00  0.00     0.074 A 
ATOM     14  C   UNL     1       5.646  -4.383  -3.881  1.00  0.00     0.049 A 
ATOM     15  N   UNL     1       6.717  -3.452  -6.522  1.00  0.00    -0.248 NA
ATOM     16  C   UNL     1       6.394  -1.244  -5.832  1.00  0.00     0.031 C 
ATOM     17  C   UNL     1       5.208  -4.896  -2.586  1.00  0.00     0.029 A 
ATOM     18  N   UNL     1       5.815  -5.516  -4.636  1.00  0.00    -0.354 N 
ATOM     19  C   UNL     1       7.173  -2.585  -7.500  1.00  0.00     0.074 A 
ATOM     20  C   UNL     1       6.880  -1.241  -7.062  1.00  0.00     0.031 C 
ATOM     21  C   UNL     1       5.054  -6.228  -2.659  1.00  0.00     0.029 A 
ATOM     22  C   UNL     1       5.417  -6.667  -3.999  1.00  0.00     0.049 A 
ATOM     23  H   UNL     1       6.187  -5.505  -5.547  1.00  0.00     0.167 HD
ATOM     24  C   UNL     1       7.854  -2.885  -8.627  1.00  0.00     0.037 A 
ATOM     25  C   UNL     1       5.354  -7.933  -4.449  1.00  0.00     0.037 A 
ATOM     26  C   UNL     1       8.151  -4.223  -9.047  1.00  0.00     0.049 A 
ATOM     27  C   UNL     1       5.946  -8.238  -5.795  1.00  0.00     0.074 A 
ATOM     28  C   UNL     1       8.914  -4.644 -10.118  1.00  0.00     0.029 A 
ATOM     29  N   UNL     1       7.672  -5.361  -8.416  1.00  0.00    -0.354 N 
ATOM     30  N   UNL     1       6.517  -7.416  -6.642  1.00  0.00    -0.248 NA
ATOM     31  C   UNL     1       5.943  -9.642  -6.225  1.00  0.00     0.031 C 
ATOM     32  C   UNL     1       8.857  -6.042 -10.164  1.00  0.00     0.029 A 
ATOM     33  C   UNL     1       8.081  -6.488  -9.104  1.00  0.00     0.049 A 
ATOM     34  H   UNL     1       7.123  -5.366  -7.599  1.00  0.00     0.167 HD
ATOM     35  C   UNL     1       7.003  -8.208  -7.670  1.00  0.00     0.074 A 
ATOM     36  C   UNL     1       6.635  -9.574  -7.355  1.00  0.00     0.031 C 
ATOM     37  C   UNL     1       7.716  -7.839  -8.762  1.00  0.00     0.037 A 
BRANCH  24  38
ATOM     38  C   UNL     1       8.344  -1.728  -9.436  1.00  0.00     0.057 A 
ATOM     39  C   UNL     1       9.418  -0.940  -8.997  1.00  0.00     0.134 A 
ATOM     40  C   UNL     1       7.718  -1.370 -10.632  1.00  0.00     0.134 A 
ATOM     41  F   UNL     1      10.038  -1.219  -7.840  1.00  0.00    -0.206 F 
ATOM     42  C   UNL     1       9.834   0.184  -9.709  1.00  0.00     0.040 A 
ATOM     43  C   UNL     1       8.138  -0.259 -11.364  1.00  0.00     0.040 A 
ATOM     44  F   UNL     1       6.678  -2.078 -11.095  1.00  0.00    -0.206 F 
ATOM     45  C   UNL     1       9.194   0.526 -10.899  1.00  0.00     0.006 A 
ENDBRANCH  24  38
BRANCH  25  46
ATOM     46  C   UNL     1       4.729  -8.999  -3.628  1.00  0.00     0.057 A 
ATOM     47  C   UNL     1       5.486 -10.007  -3.022  1.00  0.00     0.134 A 
ATOM     48  C   UNL     1       3.338  -9.055  -3.470  1.00  0.00     0.134 A 
ATOM     49  F   UNL     1       6.821 -10.014  -3.146  1.00  0.00    -0.206 F 
ATOM     50  C   UNL     1       4.883 -11.051  -2.317  1.00  0.00     0.040 A 
ATOM     51  C   UNL     1       2.722 -10.085  -2.755  1.00  0.00     0.040 A 
ATOM     52  F   UNL     1       2.556  -8.114  -4.019  1.00  0.00    -0.206 F 
ATOM     53  C   UNL     1       3.495 -11.093  -2.185  1.00  0.00     0.006 A 
ENDBRANCH  25  46
BRANCH  37  54
ATOM     54  C   UNL     1       8.184  -8.931  -9.671  1.00  0.00     0.057 A 
ATOM     55  C   UNL     1       7.312  -9.574 -10.555  1.00  0.00     0.134 A 
ATOM     56  C   UNL     1       9.536  -9.296  -9.701  1.00  0.00     0.134 A 
ATOM     57  F   UNL     1       6.004  -9.278 -10.555  1.00  0.00    -0.206 F 
ATOM     58  C   UNL     1       7.769 -10.551 -11.439  1.00  0.00     0.040 A 
ATOM     59  C   UNL     1      10.008 -10.254 -10.597  1.00  0.00     0.040 A 
ATOM     60  F   UNL     1      10.419  -8.711  -8.878  1.00  0.00    -0.206 F 
ATOM     61  C   UNL     1       9.122 -10.885 -11.468  1.00  0.00     0.006 A 
ENDBRANCH  37  54
ENDBRANCH  11  12
ENDBRANCH   4   6
ENDBRANCH   3   4
ENDBRANCH   2   3
ENDBRANCH   1   2
BRANCH   1  62
ATOM     62  O   UNL     1       2.905  -1.160   0.801  1.00  0.00    -0.462 OA
BRANCH  62  63
ATOM     63  C   UNL     1       1.714  -1.824   0.881  1.00  0.00     0.312 C 
ATOM     64  O   UNL     1       1.050  -1.889   1.909  1.00  0.00    -0.252 OA
BRANCH  63  65
ATOM     65  C   UNL     1       1.373  -2.589  -0.423  1.00  0.00     0.072 C 
BRANCH  65  66
ATOM     66  C   UNL     1       1.258  -1.609  -1.623  1.00  0.00     0.054 C 
BRANCH  66  67
ATOM     67  C   UNL     1       0.120  -0.623  -1.719  1.00  0.00    -0.043 A 
ATOM     68  C   UNL     1       0.303   0.711  -1.334  1.00  0.00     0.043 A 
ATOM     69  C   UNL     1      -1.100  -0.991  -2.311  1.00  0.00     0.019 A 
ATOM     70  C   UNL     1      -0.709   1.644  -1.547  1.00  0.00     0.124 A 
ATOM     71  C   UNL     1      -2.110  -0.044  -2.500  1.00  0.00     0.021 A 
ATOM     72  F   UNL     1      -0.503   2.924  -1.211  1.00  0.00    -0.207 F 
ATOM     73  C   UNL     1      -1.917   1.280  -2.125  1.00  0.00     0.055 A 
ATOM     74  Br  UNL     1      -3.742  -0.566  -3.299  1.00  0.00    -0.051 Br
ENDBRANCH  66  67
ENDBRANCH  65  66
BRANCH  65  75
ATOM     75  C   UNL     1       2.571  -3.536  -0.748  1.00  0.00     0.019 C 
BRANCH  75  76
ATOM     76  C   UNL     1       2.570  -4.903  -0.060  1.00  0.00     0.001 C 
BRANCH  76  77
ATOM     77  C   UNL     1       1.828  -5.960  -0.879  1.00  0.00     0.000 CG0
ATOM     78  G   UNL     1       0.309  -5.838  -0.866  1.00  0.00     0.000 G0
ENDBRANCH  76  77
ENDBRANCH  75  76
ENDBRANCH  65  75
BRANCH  65  79
ATOM     79  C   UNL     1       0.065  -3.390  -0.201  1.00  0.00     0.019 C 
BRANCH  79  80
ATOM     80  C   UNL     1      -0.237  -4.463  -1.251  1.00  0.00     0.001 C 
BRANCH  80  81
ATOM     81  C   UNL     1       0.309  -5.838  -0.866  1.00  0.00     0.000 CG0
ATOM     82  G   UNL     1       1.828  -5.960  -0.879  1.00  0.00     0.000 G0
ENDBRANCH  80  81
ENDBRANCH  79  80
ENDBRANCH  65  79
ENDBRANCH  63  65
ENDBRANCH  62  63
ENDBRANCH   1  62
TORSDOF 13
